# generated using pymatgen
data_La12Ce14Pr13Nd13Sm12(BiS2)64
_symmetry_space_group_name_H-M   'P 1'
_cell_length_a   15.99713208
_cell_length_b   16.03371973
_cell_length_c   27.32466114
_cell_angle_alpha   90.47715514
_cell_angle_beta   89.91845806
_cell_angle_gamma   89.87786663
_symmetry_Int_Tables_number   1
_chemical_formula_structural   La12Ce14Pr13Nd13Sm12(BiS2)64
_chemical_formula_sum   'La12 Ce14 Pr13 Nd13 Sm12 Bi64 S128'
_cell_volume   7008.33261826
_cell_formula_units_Z   1
loop_
 _symmetry_equiv_pos_site_id
 _symmetry_equiv_pos_as_xyz
  1  'x, y, z'
loop_
 _atom_type_symbol
 _atom_type_oxidation_number
  La3+  3.0
  Ce3+  3.0
  Pr3+  3.0
  Nd3+  3.0
  Sm3+  3.0
  Bi2+  2.0
  S2-  -2.0
loop_
 _atom_site_type_symbol
 _atom_site_label
 _atom_site_symmetry_multiplicity
 _atom_site_fract_x
 _atom_site_fract_y
 _atom_site_fract_z
 _atom_site_occupancy
  La3+  La0  1  0.38312890  0.49494680  0.38766395  1
  La3+  La1  1  0.13454347  0.24806462  0.88641291  1
  La3+  La2  1  0.13031850  0.51337024  0.89823992  1
  La3+  La3  1  0.00861386  0.63153623  0.07195433  1
  La3+  La4  1  0.24104902  0.62779709  0.59454733  1
  La3+  La5  1  0.26158602  0.39107400  0.09814833  1
  La3+  La6  1  0.38090001  0.50724129  0.93267602  1
  La3+  La7  1  0.87030685  0.24332098  0.43664625  1
  La3+  La8  1  0.12140724  0.49909522  0.39875061  1
  La3+  La9  1  0.38172896  0.01605942  0.92228435  1
  La3+  La10  1  0.25991037  0.13712411  0.06307722  1
  La3+  La11  1  0.61823020  0.24513981  0.44644602  1
  Ce3+  Ce12  1  0.48877514  0.37354288  0.56509866  1
  Ce3+  Ce13  1  0.12429605  0.74172984  0.44279404  1
  Ce3+  Ce14  1  0.63223833  0.50737223  0.93566423  1
  Ce3+  Ce15  1  0.75762669  0.38579440  0.06479297  1
  Ce3+  Ce16  1  0.48858544  0.62273447  0.55218436  1
  Ce3+  Ce17  1  0.50370715  0.13578962  0.06452122  1
  Ce3+  Ce18  1  0.12123376  0.24518085  0.43407487  1
  Ce3+  Ce19  1  0.49590122  0.86649607  0.57338495  1
  Ce3+  Ce20  1  0.75770197  0.63402767  0.06569255  1
  Ce3+  Ce21  1  0.01714675  0.38964718  0.05161946  1
  Ce3+  Ce22  1  0.24413730  0.87184290  0.56512497  1
  Ce3+  Ce23  1  0.74741480  0.37774771  0.57108327  1
  Ce3+  Ce24  1  0.11925836  -0.00110482  0.43344794  1
  Ce3+  Ce25  1  0.49208003  0.11518120  0.57569116  1
  Pr3+  Pr26  1  0.74505279  0.13045538  0.57669676  1
  Pr3+  Pr27  1  0.75253606  0.14125108  0.07519628  1
  Pr3+  Pr28  1  0.63270605  0.75902924  0.94019992  1
  Pr3+  Pr29  1  0.25686446  0.64958753  0.09665875  1
  Pr3+  Pr30  1  0.36959573  0.24309911  0.44132394  1
  Pr3+  Pr31  1  0.00833326  0.14150146  0.05789161  1
  Pr3+  Pr32  1  0.62229970  0.74793556  0.43896093  1
  Pr3+  Pr33  1  -0.00332741  0.87171882  0.56508976  1
  Pr3+  Pr34  1  0.24350824  0.37658196  0.55173646  1
  Pr3+  Pr35  1  0.86278097  -0.01388847  0.40951410  1
  Pr3+  Pr36  1  0.87817800  0.01152711  0.93570067  1
  Pr3+  Pr37  1  0.88270016  0.50694957  0.93638226  1
  Pr3+  Pr38  1  0.63060544  0.25952733  0.93759289  1
  Nd3+  Nd39  1  0.25903429  0.88537979  0.05117974  1
  Nd3+  Nd40  1  0.13086489  0.75554435  0.93873808  1
  Nd3+  Nd41  1  0.37978421  0.26165741  0.93480026  1
  Nd3+  Nd42  1  0.36737366  0.74467772  0.43148815  1
  Nd3+  Nd43  1  0.00844383  0.88660603  0.05967617  1
  Nd3+  Nd44  1  -0.00885600  0.12157777  0.55924054  1
  Nd3+  Nd45  1  0.87028602  0.48877238  0.42966001  1
  Nd3+  Nd46  1  0.24157591  0.12175801  0.56749312  1
  Nd3+  Nd47  1  0.88315556  0.75629727  0.94395879  1
  Nd3+  Nd48  1  0.76141202  0.89173964  0.06811429  1
  Nd3+  Nd49  1  0.62075560  -0.00508543  0.44955178  1
  Nd3+  Nd50  1  0.50640497  0.38862100  0.06462015  1
  Nd3+  Nd51  1  0.87454470  0.74261503  0.44235008  1
  Sm3+  Sm52  1  0.61910548  0.49534838  0.44427857  1
  Sm3+  Sm53  1  0.50678103  0.88573930  0.05092915  1
  Sm3+  Sm54  1  0.88642159  0.26147696  0.93641502  1
  Sm3+  Sm55  1  0.13033762  0.01148650  0.93824886  1
  Sm3+  Sm56  1  0.37802390  0.75707696  0.93528970  1
  Sm3+  Sm57  1  0.74431123  0.61735507  0.55938042  1
  Sm3+  Sm58  1  0.63264519  0.01176076  0.93546668  1
  Sm3+  Sm59  1  -0.00102789  0.37697422  0.55740506  1
  Sm3+  Sm60  1  0.50284810  0.63464476  0.06030926  1
  Sm3+  Sm61  1  0.36938130  -0.00395558  0.44217620  1
  Sm3+  Sm62  1  0.74403093  0.87139739  0.56991626  1
  Sm3+  Sm63  1  -0.00365672  0.62029839  0.55942482  1
  Bi2+  Bi64  1  0.01284951  0.14137215  0.28444923  1
  Bi2+  Bi65  1  -0.11370124  0.09428168  0.81304857  1
  Bi2+  Bi66  1  -0.02589815  0.37841383  0.28913448  1
  Bi2+  Bi67  1  -0.08314233  0.38514545  0.78345746  1
  Bi2+  Bi68  1  -0.04983034  0.68230151  0.30047689  1
  Bi2+  Bi69  1  -0.01906309  0.66401145  0.78972928  1
  Bi2+  Bi70  1  0.02851180  0.94868385  0.30906913  1
  Bi2+  Bi71  1  0.02682756  0.93228964  0.80820342  1
  Bi2+  Bi72  1  0.27634134  0.10236165  0.29693637  1
  Bi2+  Bi73  1  0.23524336  0.10382286  0.77358037  1
  Bi2+  Bi74  1  0.24671625  0.35817360  0.28055438  1
  Bi2+  Bi75  1  0.28522156  0.36888910  0.79580473  1
  Bi2+  Bi76  1  0.25687532  0.72987498  0.29001649  1
  Bi2+  Bi77  1  0.26043451  0.65011862  0.78555728  1
  Bi2+  Bi78  1  0.25142489  0.91151192  0.33516972  1
  Bi2+  Bi79  1  0.21100586  0.85890759  0.78421781  1
  Bi2+  Bi80  1  0.49013400  0.05183168  0.28443234  1
  Bi2+  Bi81  1  0.47307374  0.14957998  0.79134435  1
  Bi2+  Bi82  1  0.51075783  0.34406800  0.29563816  1
  Bi2+  Bi83  1  0.53401353  0.38866119  0.78938875  1
  Bi2+  Bi84  1  0.58454691  0.61489532  0.28267463  1
  Bi2+  Bi85  1  0.58905211  0.63605612  0.78322666  1
  Bi2+  Bi86  1  0.44777082  0.87315346  0.32565922  1
  Bi2+  Bi87  1  0.47545632  0.88464500  0.79336116  1
  Bi2+  Bi88  1  0.73827315  0.11490025  0.29575654  1
  Bi2+  Bi89  1  0.70636027  0.17625261  0.81086178  1
  Bi2+  Bi90  1  0.75156078  0.38334246  0.27271449  1
  Bi2+  Bi91  1  0.73893823  0.36824634  0.84077553  1
  Bi2+  Bi92  1  0.77743294  0.58124740  0.29737658  1
  Bi2+  Bi93  1  0.75573612  0.56384698  0.82508764  1
  Bi2+  Bi94  1  0.72826608  0.85460760  0.29202094  1
  Bi2+  Bi95  1  0.74620576  0.85102802  0.79461817  1
  Bi2+  Bi96  1  0.15826477  -0.05667522  0.21893196  1
  Bi2+  Bi97  1  0.05854411  0.01030566  0.70410325  1
  Bi2+  Bi98  1  0.18736433  0.14811142  0.20352657  1
  Bi2+  Bi99  1  0.10007798  0.25388178  0.68433083  1
  Bi2+  Bi100  1  0.11557340  0.51741018  0.20826907  1
  Bi2+  Bi101  1  0.11553922  0.48948400  0.70475163  1
  Bi2+  Bi102  1  0.04115398  0.78419120  0.22208168  1
  Bi2+  Bi103  1  0.07849670  0.77154559  0.71216864  1
  Bi2+  Bi104  1  0.35445504  -0.04446673  0.19406041  1
  Bi2+  Bi105  1  0.34013605  -0.07525791  0.70402789  1
  Bi2+  Bi106  1  0.43430560  0.21313076  0.21477332  1
  Bi2+  Bi107  1  0.36306751  0.30168312  0.70247535  1
  Bi2+  Bi108  1  0.44717026  0.50977213  0.19095515  1
  Bi2+  Bi109  1  0.43388451  0.53668427  0.71952279  1
  Bi2+  Bi110  1  0.41971630  0.77093392  0.22939775  1
  Bi2+  Bi111  1  0.44459638  0.75739572  0.70837442  1
  Bi2+  Bi112  1  0.60871928  -0.04696472  0.21706536  1
  Bi2+  Bi113  1  0.60076427  -0.03502465  0.71822841  1
  Bi2+  Bi114  1  0.63356997  0.21907967  0.22172335  1
  Bi2+  Bi115  1  0.62313121  0.20413462  0.71026315  1
  Bi2+  Bi116  1  0.63941863  0.42063030  0.17752795  1
  Bi2+  Bi117  1  0.68993974  0.45421803  0.73108264  1
  Bi2+  Bi118  1  0.62822592  0.61574813  0.17226701  1
  Bi2+  Bi119  1  0.71495050  0.72194221  0.70415304  1
  Bi2+  Bi120  1  0.87723217  -0.03690991  0.23176298  1
  Bi2+  Bi121  1  0.86925204  -0.04476340  0.72801380  1
  Bi2+  Bi122  1  0.90088133  0.20279842  0.19908748  1
  Bi2+  Bi123  1  0.85110963  0.22596604  0.72840879  1
  Bi2+  Bi124  1  0.87037867  0.47992894  0.20191405  1
  Bi2+  Bi125  1  0.85452446  0.57375148  0.71899367  1
  Bi2+  Bi126  1  0.78712798  0.72500937  0.21077162  1
  Bi2+  Bi127  1  0.89120921  0.78466565  0.67037107  1
  S2-  S128  1  0.03400613  0.11828793  0.15696167  1
  S2-  S129  1  -0.03261221  0.14609002  0.65824627  1
  S2-  S130  1  0.00274791  0.41145309  0.15116913  1
  S2-  S131  1  -0.00337998  0.39303469  0.65709188  1
  S2-  S132  1  0.10549482  0.66466570  0.15685199  1
  S2-  S133  1  0.08020703  0.62791776  0.64838569  1
  S2-  S134  1  -0.05116231  0.87442887  0.15341178  1
  S2-  S135  1  0.11834418  0.89567571  0.64007672  1
  S2-  S136  1  0.38041566  0.11359079  0.13822100  1
  S2-  S137  1  0.22122987  0.12908761  0.66746913  1
  S2-  S138  1  0.20252011  0.31411142  0.18883751  1
  S2-  S139  1  0.21851670  0.37147299  0.65328619  1
  S2-  S140  1  0.26433554  0.52454585  0.16860845  1
  S2-  S141  1  0.27820508  0.56773747  0.69050633  1
  S2-  S142  1  0.24770659  0.83912348  0.14656377  1
  S2-  S143  1  0.30344310  0.77964700  0.64436877  1
  S2-  S144  1  0.61001822  0.12229916  0.14218104  1
  S2-  S145  1  0.46205322  0.18965451  0.66486318  1
  S2-  S146  1  0.41876155  0.35246023  0.15063687  1
  S2-  S147  1  0.49088201  0.40092923  0.66236617  1
  S2-  S148  1  0.41470360  0.67066496  0.14502264  1
  S2-  S149  1  0.51613381  0.63442708  0.64990402  1
  S2-  S150  1  0.48998243  0.88643511  0.14960016  1
  S2-  S151  1  0.47159747  0.98568055  0.64624608  1
  S2-  S152  1  0.81638991  0.05988400  0.16352559  1
  S2-  S153  1  0.70297176  0.06099443  0.66860284  1
  S2-  S154  1  0.78740277  0.28024359  0.14122679  1
  S2-  S155  1  0.75509094  0.27082360  0.64862610  1
  S2-  S156  1  0.87251569  0.62420494  0.14299309  1
  S2-  S157  1  0.75666162  0.51066394  0.63756319  1
  S2-  S158  1  0.70594363  0.85845672  0.16025378  1
  S2-  S159  1  0.63245064  0.84554077  0.64520697  1
  S2-  S160  1  0.12962497  0.12235181  0.36121243  1
  S2-  S161  1  0.11370181  0.07855932  0.84887078  1
  S2-  S162  1  0.10991418  0.33675227  0.34695281  1
  S2-  S163  1  0.14100706  0.24350423  0.77705411  1
  S2-  S164  1  0.18458654  0.51019281  0.29830809  1
  S2-  S165  1  0.13844071  0.44263886  0.80069608  1
  S2-  S166  1  0.10543387  0.70029369  0.34780125  1
  S2-  S167  1  0.12331297  0.67442121  0.84942039  1
  S2-  S168  1  0.39589621  0.11066912  0.36815450  1
  S2-  S169  1  0.29952593  -0.02225125  0.83397475  1
  S2-  S170  1  0.37491346  0.32481191  0.35196798  1
  S2-  S171  1  0.30999363  0.20405596  0.84595783  1
  S2-  S172  1  0.38697547  0.46764695  0.27661019  1
  S2-  S173  1  0.31157610  0.51977489  0.83728510  1
  S2-  S174  1  0.37417708  0.65825485  0.34190382  1
  S2-  S175  1  0.36633528  0.74431936  0.83615522  1
  S2-  S176  1  0.70508616  -0.01075723  0.36130686  1
  S2-  S177  1  0.52174941  0.03016720  0.85300773  1
  S2-  S178  1  0.62591623  0.22711679  0.34644259  1
  S2-  S179  1  0.50875173  0.26775940  0.85988357  1
  S2-  S180  1  0.55953239  0.48068605  0.35215236  1
  S2-  S181  1  0.52419875  0.51534634  0.85885876  1
  S2-  S182  1  0.60479603  0.75480948  0.33897899  1
  S2-  S183  1  0.60047245  0.78299920  0.84176621  1
  S2-  S184  1  0.87510202  0.13454791  0.35192819  1
  S2-  S185  1  0.75399116  -0.00835665  0.86170438  1
  S2-  S186  1  0.84646891  0.35501769  0.35741713  1
  S2-  S187  1  0.96562737  0.26727033  0.84775464  1
  S2-  S188  1  0.96952208  0.51914588  0.34597481  1
  S2-  S189  1  0.96448882  0.51795783  0.84733284  1
  S2-  S190  1  0.86748717  0.82202941  0.35457042  1
  S2-  S191  1  0.86945207  0.76212832  0.84457091  1
  S2-  S192  1  -0.01195605  0.11092223  0.45527633  1
  S2-  S193  1  0.00786632  0.13698237  0.95241126  1
  S2-  S194  1  -0.00030243  0.37304391  0.45364198  1
  S2-  S195  1  0.01636258  0.38377697  0.94713445  1
  S2-  S196  1  -0.00244665  0.61771343  0.45587394  1
  S2-  S197  1  0.00801553  0.63195794  0.95909115  1
  S2-  S198  1  -0.00598975  0.87218431  0.45738090  1
  S2-  S199  1  0.00587675  0.88575604  0.95254070  1
  S2-  S200  1  0.24545933  0.11834676  0.46155889  1
  S2-  S201  1  0.24838630  0.13573077  0.95483489  1
  S2-  S202  1  0.24467975  0.37659587  0.44665741  1
  S2-  S203  1  0.24842974  0.37986191  0.92803582  1
  S2-  S204  1  0.24794554  0.61385165  0.43862262  1
  S2-  S205  1  0.25569144  0.63395005  0.94626497  1
  S2-  S206  1  0.24504062  0.87213893  0.45654402  1
  S2-  S207  1  0.25391025  0.88403168  0.94564573  1
  S2-  S208  1  0.49770855  0.11735829  0.46823641  1
  S2-  S209  1  0.50772058  0.13466347  0.95837324  1
  S2-  S210  1  0.49098089  0.37644950  0.45809535  1
  S2-  S211  1  0.50725568  0.38709876  0.95994831  1
  S2-  S212  1  0.49580271  0.62042454  0.44721899  1
  S2-  S213  1  0.50434835  0.63931583  0.95586450  1
  S2-  S214  1  0.49466910  0.87109201  0.46013689  1
  S2-  S215  1  0.50484448  0.88352405  0.94759358  1
  S2-  S216  1  0.74726647  0.11687732  0.46412004  1
  S2-  S217  1  0.75764198  0.13923136  0.95887222  1
  S2-  S218  1  0.74070590  0.37287862  0.46212220  1
  S2-  S219  1  0.75838073  0.38296124  0.95955581  1
  S2-  S220  1  0.74633420  0.61846429  0.45251806  1
  S2-  S221  1  0.75736425  0.63395267  0.95722670  1
  S2-  S222  1  0.75016279  0.87069623  0.46460033  1
  S2-  S223  1  0.75713150  0.88183930  0.96105679  1
  S2-  S224  1  0.13247551  0.01004943  0.04569809  1
  S2-  S225  1  0.11851640  0.00062150  0.54100766  1
  S2-  S226  1  0.13818671  0.26537312  0.06021440  1
  S2-  S227  1  0.11726015  0.24609196  0.54379838  1
  S2-  S228  1  0.14181216  0.51264669  0.05790510  1
  S2-  S229  1  0.12157791  0.50227934  0.54954596  1
  S2-  S230  1  0.13307656  0.76139927  0.04358927  1
  S2-  S231  1  0.12153400  0.74263612  0.54632233  1
  S2-  S232  1  0.38307916  0.00616629  0.03303323  1
  S2-  S233  1  0.36485336  -0.00463374  0.54585343  1
  S2-  S234  1  0.37743553  0.26719888  0.04115354  1
  S2-  S235  1  0.36665561  0.24545324  0.54990596  1
  S2-  S236  1  0.37826222  0.51293910  0.04595638  1
  S2-  S237  1  0.36417545  0.50369145  0.56079933  1
  S2-  S238  1  0.38171198  0.76142877  0.03878161  1
  S2-  S239  1  0.36791933  0.74495384  0.53736718  1
  S2-  S240  1  0.63284140  0.00673877  0.04101318  1
  S2-  S241  1  0.62382529  -0.00445913  0.55220954  1
  S2-  S242  1  0.62887507  0.26481707  0.04501739  1
  S2-  S243  1  0.61484209  0.24925144  0.55386222  1
  S2-  S244  1  0.63036958  0.51286725  0.04334724  1
  S2-  S245  1  0.61529348  0.49801361  0.54670895  1
  S2-  S246  1  0.63002787  0.76084948  0.04750165  1
  S2-  S247  1  0.62396794  0.74139483  0.54320265  1
  S2-  S248  1  0.88369684  0.01361954  0.04327774  1
  S2-  S249  1  0.86717981  -0.00532066  0.56589457  1
  S2-  S250  1  0.88708174  0.26472867  0.03943898  1
  S2-  S251  1  0.87388906  0.25249769  0.54524970  1
  S2-  S252  1  0.88117765  0.50630138  0.04284045  1
  S2-  S253  1  0.87491287  0.49874930  0.53846744  1
  S2-  S254  1  0.88129733  0.76290330  0.04829396  1
  S2-  S255  1  0.86744919  0.74232863  0.54803260  1
