# generated using pymatgen
data_La12Ce14Pr13Nd13Sm12(BiS2)64
_symmetry_space_group_name_H-M   'P 1'
_cell_length_a   16.10899239
_cell_length_b   16.07668916
_cell_length_c   27.58129638
_cell_angle_alpha   89.80330615
_cell_angle_beta   90.12108363
_cell_angle_gamma   89.87518095
_symmetry_Int_Tables_number   1
_chemical_formula_structural   La12Ce14Pr13Nd13Sm12(BiS2)64
_chemical_formula_sum   'La12 Ce14 Pr13 Nd13 Sm12 Bi64 S128'
_cell_volume   7142.90871314
_cell_formula_units_Z   1
loop_
 _symmetry_equiv_pos_site_id
 _symmetry_equiv_pos_as_xyz
  1  'x, y, z'
loop_
 _atom_type_symbol
 _atom_type_oxidation_number
  La3+  3.0
  Ce3+  3.0
  Pr3+  3.0
  Nd3+  3.0
  Sm3+  3.0
  Bi2+  2.0
  S2-  -2.0
loop_
 _atom_site_type_symbol
 _atom_site_label
 _atom_site_symmetry_multiplicity
 _atom_site_fract_x
 _atom_site_fract_y
 _atom_site_fract_z
 _atom_site_occupancy
  La3+  La0  1  0.48521066  0.60216692  0.08159149  1
  La3+  La1  1  0.61118916  0.48939080  0.38440283  1
  La3+  La2  1  0.24684768  0.63198284  0.55746639  1
  La3+  La3  1  0.49149871  0.85677554  0.07052705  1
  La3+  La4  1  0.37972069  0.25258177  0.42134258  1
  La3+  La5  1  0.86481975  0.48005950  0.92049630  1
  La3+  La6  1  -0.01540359  0.86243730  0.61299705  1
  La3+  La7  1  0.87518751  0.00394092  0.43076454  1
  La3+  La8  1  0.11988073  -0.00151315  0.92079876  1
  La3+  La9  1  0.61589398  0.49976821  0.92844288  1
  La3+  La10  1  0.75308053  0.37602353  0.56610561  1
  La3+  La11  1  0.75025255  0.62561608  0.56526347  1
  Ce3+  Ce12  1  0.36570916  -0.01938636  0.93509281  1
  Ce3+  Ce13  1  0.11592608  0.74080238  0.94346244  1
  Ce3+  Ce14  1  0.49853368  0.12843810  0.55160854  1
  Ce3+  Ce15  1  0.35798456  0.49310677  0.93254649  1
  Ce3+  Ce16  1  0.49075890  0.36586952  0.05059858  1
  Ce3+  Ce17  1  0.00516602  0.11624503  0.56208709  1
  Ce3+  Ce18  1  0.11841709  0.23343790  0.95105014  1
  Ce3+  Ce19  1  0.61439852  0.23839338  0.94124514  1
  Ce3+  Ce20  1  0.49513852  0.87884754  0.55980183  1
  Ce3+  Ce21  1  0.24322853  0.36064627  0.06476810  1
  Ce3+  Ce22  1  0.62918595  0.25350785  0.44082966  1
  Ce3+  Ce23  1  0.62549555  -0.00040744  0.44117668  1
  Ce3+  Ce24  1  0.50481653  0.62609273  0.55193965  1
  Ce3+  Ce25  1  -0.01087626  0.36204295  0.05818922  1
  Pr3+  Pr26  1  0.87577098  0.25359310  0.43661405  1
  Pr3+  Pr27  1  0.13214463  0.75983079  0.43017594  1
  Pr3+  Pr28  1  -0.00690569  0.61035747  0.05930122  1
  Pr3+  Pr29  1  0.74133164  0.11292870  0.06589270  1
  Pr3+  Pr30  1  0.48979795  0.11114363  0.06260177  1
  Pr3+  Pr31  1  0.00269479  0.38062298  0.55434736  1
  Pr3+  Pr32  1  0.12438750  0.50508528  0.42711844  1
  Pr3+  Pr33  1  0.24047951  0.86425333  0.06364016  1
  Pr3+  Pr34  1  0.36814746  0.73566343  0.93753294  1
  Pr3+  Pr35  1  0.24004173  0.10768063  0.07403571  1
  Pr3+  Pr36  1  0.61718138  -0.01266422  0.94133833  1
  Pr3+  Pr37  1  0.75402290  0.12629204  0.56574079  1
  Pr3+  Pr38  1  0.86577862  0.51421845  0.42910377  1
  Nd3+  Nd39  1  0.37826648  0.75341884  0.43330281  1
  Nd3+  Nd40  1  0.75312974  0.60201261  0.07398009  1
  Nd3+  Nd41  1  -0.00863930  0.86517933  0.05519169  1
  Nd3+  Nd42  1  0.23887657  0.61029870  0.06387674  1
  Nd3+  Nd43  1  0.74975239  0.87650186  0.56019447  1
  Nd3+  Nd44  1  0.87590599  0.75982857  0.43340367  1
  Nd3+  Nd45  1  0.26359137  0.13556073  0.57126953  1
  Nd3+  Nd46  1  0.11680787  0.48589474  0.93922558  1
  Nd3+  Nd47  1  0.25244304  0.37933832  0.55314426  1
  Nd3+  Nd48  1  0.12856058  0.25334135  0.44501785  1
  Nd3+  Nd49  1  0.74296218  0.85973505  0.05866432  1
  Nd3+  Nd50  1  0.37076316  0.00412503  0.42817246  1
  Nd3+  Nd51  1  0.25114821  0.88085757  0.56514569  1
  Sm3+  Sm52  1  -0.01026289  0.11166663  0.06282723  1
  Sm3+  Sm53  1  0.86582216  0.23024631  0.93731778  1
  Sm3+  Sm54  1  0.86737921  0.73453020  0.94284614  1
  Sm3+  Sm55  1  0.00060401  0.63320832  0.54670444  1
  Sm3+  Sm56  1  0.74221111  0.36312447  0.05460644  1
  Sm3+  Sm57  1  0.62190819  0.75547468  0.42447127  1
  Sm3+  Sm58  1  0.50191904  0.37976741  0.55048817  1
  Sm3+  Sm59  1  0.86578360  -0.01217786  0.93859841  1
  Sm3+  Sm60  1  0.36516295  0.23638250  0.94633461  1
  Sm3+  Sm61  1  0.13169397  0.00637371  0.44435803  1
  Sm3+  Sm62  1  0.37513512  0.50576866  0.43446634  1
  Sm3+  Sm63  1  0.62030518  0.73261681  0.95435281  1
  Bi2+  Bi64  1  -0.05535347  0.01336010  0.30187195  1
  Bi2+  Bi65  1  -0.01302479  0.09731050  0.79085621  1
  Bi2+  Bi66  1  -0.03125410  0.39820675  0.30866779  1
  Bi2+  Bi67  1  0.01045605  0.39682205  0.81136084  1
  Bi2+  Bi68  1  0.04684002  0.58355612  0.30423136  1
  Bi2+  Bi69  1  0.06610293  0.56450342  0.76599949  1
  Bi2+  Bi70  1  0.06889033  0.78426753  0.30222798  1
  Bi2+  Bi71  1  0.01188663  0.79092027  0.80878686  1
  Bi2+  Bi72  1  0.26361786  0.17141536  0.29667877  1
  Bi2+  Bi73  1  0.23181517  0.14829138  0.79471285  1
  Bi2+  Bi74  1  0.16335429  0.41416585  0.25856465  1
  Bi2+  Bi75  1  0.28505004  0.36239449  0.79027721  1
  Bi2+  Bi76  1  0.24064887  0.65522762  0.28532747  1
  Bi2+  Bi77  1  0.26256351  0.60982158  0.80102884  1
  Bi2+  Bi78  1  0.31983890  0.90527829  0.29487733  1
  Bi2+  Bi79  1  0.26597690  0.86958155  0.80076471  1
  Bi2+  Bi80  1  0.51634800  0.09236325  0.27882140  1
  Bi2+  Bi81  1  0.49261164  0.15455831  0.76721184  1
  Bi2+  Bi82  1  0.46813963  0.37408059  0.28075738  1
  Bi2+  Bi83  1  0.46958721  0.43876709  0.77218200  1
  Bi2+  Bi84  1  0.50866875  0.64017482  0.28431765  1
  Bi2+  Bi85  1  0.48984391  0.63397378  0.74823269  1
  Bi2+  Bi86  1  0.51685282  0.89069290  0.28517684  1
  Bi2+  Bi87  1  0.50975533  0.95771704  0.77610316  1
  Bi2+  Bi88  1  0.69271315  0.07248913  0.32434775  1
  Bi2+  Bi89  1  0.66268125  0.12798615  0.82178837  1
  Bi2+  Bi90  1  0.82285494  0.26778704  0.29046234  1
  Bi2+  Bi91  1  0.73472993  0.34400524  0.78246248  1
  Bi2+  Bi92  1  0.77620341  0.59466561  0.29005372  1
  Bi2+  Bi93  1  0.76549161  0.62959724  0.81539720  1
  Bi2+  Bi94  1  0.81245278  0.84125115  0.26360355  1
  Bi2+  Bi95  1  0.79101995  0.99019051  0.79279519  1
  Bi2+  Bi96  1  0.12917809  -0.03414527  0.27502064  1
  Bi2+  Bi97  1  0.10769444  -0.01223519  0.71316148  1
  Bi2+  Bi98  1  0.06049401  0.24451587  0.25759732  1
  Bi2+  Bi99  1  0.09979707  0.26706439  0.73936476  1
  Bi2+  Bi100  1  0.12129565  0.58742115  0.18689188  1
  Bi2+  Bi101  1  0.13642632  0.43870979  0.68195731  1
  Bi2+  Bi102  1  0.16425107  0.77744352  0.19618254  1
  Bi2+  Bi103  1  0.14679682  0.71713931  0.70418985  1
  Bi2+  Bi104  1  0.37176903  0.05074488  0.19044550  1
  Bi2+  Bi105  1  0.35362211  0.01930815  0.70026951  1
  Bi2+  Bi106  1  0.38903551  0.29043549  0.18976297  1
  Bi2+  Bi107  1  0.39156815  0.27824455  0.69783823  1
  Bi2+  Bi108  1  0.32024546  0.52137446  0.21737858  1
  Bi2+  Bi109  1  0.31889693  0.50940365  0.70446144  1
  Bi2+  Bi110  1  0.35223286  0.84366185  0.18888420  1
  Bi2+  Bi111  1  0.38552054  0.79870048  0.72645945  1
  Bi2+  Bi112  1  0.74631141  0.01767161  0.22195822  1
  Bi2+  Bi113  1  0.59665166  -0.05191324  0.67200194  1
  Bi2+  Bi114  1  0.63652439  0.24266293  0.26138643  1
  Bi2+  Bi115  1  0.63289688  0.24590872  0.70248928  1
  Bi2+  Bi116  1  0.62256445  0.50903763  0.18177554  1
  Bi2+  Bi117  1  0.61200265  0.49909763  0.69951697  1
  Bi2+  Bi118  1  0.64497228  0.77123036  0.21249893  1
  Bi2+  Bi119  1  0.60907672  0.79217224  0.73824467  1
  Bi2+  Bi120  1  0.95103782  -0.02432906  0.19518478  1
  Bi2+  Bi121  1  0.73329073  0.07477439  0.69634312  1
  Bi2+  Bi122  1  0.90312337  0.20581259  0.19182580  1
  Bi2+  Bi123  1  0.90114179  0.26057928  0.75271519  1
  Bi2+  Bi124  1  0.89000424  0.45365721  0.20516505  1
  Bi2+  Bi125  1  0.89666450  0.56151935  0.68581027  1
  Bi2+  Bi126  1  0.94929077  0.70537767  0.22003927  1
  Bi2+  Bi127  1  0.80511800  0.80969486  0.72745428  1
  S2-  S128  1  0.03865721  0.10655070  0.15607699  1
  S2-  S129  1  -0.00400373  0.03482880  0.64895556  1
  S2-  S130  1  -0.01113302  0.35707815  0.15519067  1
  S2-  S131  1  -0.02661465  0.41310364  0.65064329  1
  S2-  S132  1  -0.09460741  0.59224311  0.14365867  1
  S2-  S133  1  0.02800004  0.65824398  0.64176098  1
  S2-  S134  1  0.00441174  0.82487012  0.15066339  1
  S2-  S135  1  -0.02350271  0.82423867  0.71855747  1
  S2-  S136  1  0.26586472  0.18148254  0.16823949  1
  S2-  S137  1  0.20827360  0.08506812  0.66529836  1
  S2-  S138  1  0.24339698  0.39312553  0.15977136  1
  S2-  S139  1  0.26058421  0.30857047  0.64257009  1
  S2-  S140  1  0.33920102  0.61951978  0.14279477  1
  S2-  S141  1  0.27881515  0.65790067  0.65425252  1
  S2-  S142  1  0.24145235  0.97234979  0.14284083  1
  S2-  S143  1  0.15183652  0.86235514  0.64836576  1
  S2-  S144  1  0.49228951  0.17178372  0.15702516  1
  S2-  S145  1  0.41084227  0.13445940  0.63493292  1
  S2-  S146  1  0.48393483  0.42954250  0.14024811  1
  S2-  S147  1  0.52451267  0.36797048  0.64810091  1
  S2-  S148  1  0.52466015  0.67284071  0.17794631  1
  S2-  S149  1  0.54604174  0.62602099  0.64707130  1
  S2-  S150  1  0.49728342  0.93295229  0.15934685  1
  S2-  S151  1  0.38192397  0.88158029  0.63610643  1
  S2-  S152  1  0.74497120  0.15922846  0.16091548  1
  S2-  S153  1  0.76345773  0.24872120  0.63974435  1
  S2-  S154  1  0.74786125  0.41275175  0.14806861  1
  S2-  S155  1  0.76127437  0.49255161  0.64289329  1
  S2-  S156  1  0.72485507  0.64450043  0.17189906  1
  S2-  S157  1  0.80187675  0.68747521  0.65632778  1
  S2-  S158  1  0.75009848  0.87802302  0.15516545  1
  S2-  S159  1  0.82079670  0.90745867  0.64848198  1
  S2-  S160  1  0.22330999  0.00690475  0.35982000  1
  S2-  S161  1  0.03862485  -0.05410581  0.83537217  1
  S2-  S162  1  0.12728238  0.21584923  0.34842527  1
  S2-  S163  1  0.10623791  0.16295106  0.86317916  1
  S2-  S164  1  0.21526744  0.50086891  0.34188682  1
  S2-  S165  1  0.22572478  0.47460816  0.86223416  1
  S2-  S166  1  0.26026084  0.76970306  0.35748974  1
  S2-  S167  1  0.16847658  0.74238272  0.85076651  1
  S2-  S168  1  0.39900985  0.11825699  0.35064368  1
  S2-  S169  1  0.26012526  0.01298066  0.85520875  1
  S2-  S170  1  0.33406628  0.30865999  0.32611812  1
  S2-  S171  1  0.34883565  0.23283267  0.84920372  1
  S2-  S172  1  0.44384120  0.51493461  0.34577098  1
  S2-  S173  1  0.38973498  0.61474983  0.86342853  1
  S2-  S174  1  0.47921729  0.75471178  0.34935742  1
  S2-  S175  1  0.39260822  0.85609570  0.86401560  1
  S2-  S176  1  0.63448794  -0.09577738  0.35922636  1
  S2-  S177  1  0.64659921  -0.05401515  0.84570808  1
  S2-  S178  1  0.58934467  0.31158394  0.35149237  1
  S2-  S179  1  0.61388859  0.28821882  0.84821591  1
  S2-  S180  1  0.60829870  0.49275379  0.27550970  1
  S2-  S181  1  0.72624257  0.48456625  0.85008323  1
  S2-  S182  1  0.65101373  0.65555680  0.34476737  1
  S2-  S183  1  0.62924848  0.66179562  0.86557133  1
  S2-  S184  1  0.86552254  -0.12081052  0.35390362  1
  S2-  S185  1  0.86225636  0.10290675  0.86549775  1
  S2-  S186  1  0.87330122  0.14072423  0.35872939  1
  S2-  S187  1  0.86918807  0.32713598  0.85564417  1
  S2-  S188  1  0.77619267  0.46154277  0.34714481  1
  S2-  S189  1  0.92871610  0.55888962  0.83501134  1
  S2-  S190  1  0.87982933  0.64580873  0.35396315  1
  S2-  S191  1  0.85104977  0.77500524  0.84801875  1
  S2-  S192  1  0.00683287  0.12777712  0.45585139  1
  S2-  S193  1  -0.01059534  0.10951909  0.96101066  1
  S2-  S194  1  0.00015245  0.37985077  0.44723512  1
  S2-  S195  1  -0.00558499  0.35848824  0.95379080  1
  S2-  S196  1  0.00596994  0.63362784  0.44646289  1
  S2-  S197  1  -0.00669531  0.61232188  0.95315555  1
  S2-  S198  1  0.01022444  0.88474440  0.44310283  1
  S2-  S199  1  -0.01215497  0.86526411  0.95133709  1
  S2-  S200  1  0.25480170  0.13419689  0.45809333  1
  S2-  S201  1  0.24613111  0.11388514  0.96529710  1
  S2-  S202  1  0.25162036  0.38049144  0.44827807  1
  S2-  S203  1  0.24108768  0.35716088  0.95927994  1
  S2-  S204  1  0.25211545  0.62593450  0.45054830  1
  S2-  S205  1  0.23620584  0.61509820  0.95967208  1
  S2-  S206  1  0.25426759  0.88113944  0.46005053  1
  S2-  S207  1  0.23660350  0.86494660  0.95819381  1
  S2-  S208  1  0.50556203  0.12694205  0.44928881  1
  S2-  S209  1  0.48986214  0.11195764  0.95236815  1
  S2-  S210  1  0.49953140  0.38356879  0.44830774  1
  S2-  S211  1  0.48729560  0.36684854  0.94632141  1
  S2-  S212  1  0.50358434  0.62602108  0.44890029  1
  S2-  S213  1  0.49407615  0.61417049  0.96879752  1
  S2-  S214  1  0.49770568  0.88055476  0.45518589  1
  S2-  S215  1  0.50157998  0.85813325  0.96349017  1
  S2-  S216  1  0.74850882  0.12823602  0.45992743  1
  S2-  S217  1  0.73892678  0.11244802  0.96040973  1
  S2-  S218  1  0.75114906  0.37529129  0.45649681  1
  S2-  S219  1  0.73909506  0.35924543  0.95398023  1
  S2-  S220  1  0.74966871  0.64223843  0.45716107  1
  S2-  S221  1  0.74996545  0.61276047  0.96410500  1
  S2-  S222  1  0.74702505  0.87477694  0.45792995  1
  S2-  S223  1  0.74420219  0.86056550  0.95417534  1
  S2-  S224  1  0.11119371  -0.00988227  0.04242366  1
  S2-  S225  1  0.13868817  0.01155228  0.54516442  1
  S2-  S226  1  0.11504460  0.23553544  0.05517683  1
  S2-  S227  1  0.12634032  0.25134902  0.54894306  1
  S2-  S228  1  0.11704003  0.48435358  0.04518937  1
  S2-  S229  1  0.12563575  0.50502888  0.53726214  1
  S2-  S230  1  0.11583172  0.73812239  0.04837159  1
  S2-  S231  1  0.12434800  0.75679190  0.53786117  1
  S2-  S232  1  0.37048961  -0.01436668  0.04279295  1
  S2-  S233  1  0.37600134  0.00618432  0.53496064  1
  S2-  S234  1  0.36699128  0.23774000  0.04938128  1
  S2-  S235  1  0.37914106  0.25869871  0.53251942  1
  S2-  S236  1  0.36017666  0.48572699  0.03998926  1
  S2-  S237  1  0.37600809  0.50329065  0.54263477  1
  S2-  S238  1  0.36459675  0.73863865  0.04546556  1
  S2-  S239  1  0.37783521  0.74971451  0.53920946  1
  S2-  S240  1  0.61866769  -0.01304765  0.04892877  1
  S2-  S241  1  0.62548897  0.00418750  0.54609731  1
  S2-  S242  1  0.61623322  0.23969353  0.04787636  1
  S2-  S243  1  0.62258600  0.25152577  0.54400649  1
  S2-  S244  1  0.62087342  0.48821549  0.04222873  1
  S2-  S245  1  0.62396483  0.49924841  0.54530408  1
  S2-  S246  1  0.62205051  0.73078636  0.05744461  1
  S2-  S247  1  0.62260847  0.75715259  0.54779242  1
  S2-  S248  1  0.86510426  -0.01161134  0.04466713  1
  S2-  S249  1  0.87676594  0.00222889  0.54032464  1
  S2-  S250  1  0.86592385  0.23667865  0.04479313  1
  S2-  S251  1  0.88472908  0.24847353  0.54176065  1
  S2-  S252  1  0.86839329  0.48233955  0.03653778  1
  S2-  S253  1  0.88115730  0.50689874  0.53577931  1
  S2-  S254  1  0.86753590  0.73737833  0.04770375  1
  S2-  S255  1  0.88369483  0.76039745  0.54365955  1
