# generated using pymatgen
data_La12Ce14Pr13Nd13Sm12(BiS2)64
_symmetry_space_group_name_H-M   'P 1'
_cell_length_a   16.21645665
_cell_length_b   16.22884661
_cell_length_c   27.36196645
_cell_angle_alpha   89.98217602
_cell_angle_beta   90.14088237
_cell_angle_gamma   90.04557670
_symmetry_Int_Tables_number   1
_chemical_formula_structural   La12Ce14Pr13Nd13Sm12(BiS2)64
_chemical_formula_sum   'La12 Ce14 Pr13 Nd13 Sm12 Bi64 S128'
_cell_volume   7200.94437334
_cell_formula_units_Z   1
loop_
 _symmetry_equiv_pos_site_id
 _symmetry_equiv_pos_as_xyz
  1  'x, y, z'
loop_
 _atom_type_symbol
 _atom_type_oxidation_number
  La3+  3.0
  Ce3+  3.0
  Pr3+  3.0
  Nd3+  3.0
  Sm3+  3.0
  Bi2+  2.0
  S2-  -2.0
loop_
 _atom_site_type_symbol
 _atom_site_label
 _atom_site_symmetry_multiplicity
 _atom_site_fract_x
 _atom_site_fract_y
 _atom_site_fract_z
 _atom_site_occupancy
  La3+  La0  1  0.11514816  0.75343824  0.43236859  1
  La3+  La1  1  0.12222498  0.75081622  0.92691323  1
  La3+  La2  1  0.62868422  0.50262840  0.42228117  1
  La3+  La3  1  0.38554690  0.00564845  0.89642561  1
  La3+  La4  1  0.00739723  0.88123941  0.58357952  1
  La3+  La5  1  0.13032701  0.24540156  0.43073827  1
  La3+  La6  1  0.75432481  0.12832447  0.56800297  1
  La3+  La7  1  0.11631055  0.49591727  0.92946367  1
  La3+  La8  1  0.61745826  0.75009808  0.93669888  1
  La3+  La9  1  0.63100993  0.24628538  0.43421776  1
  La3+  La10  1  0.74826101  0.11182787  0.08685456  1
  La3+  La11  1  0.11379057  0.00070834  0.92216729  1
  Ce3+  Ce12  1  0.87908101  -0.00068111  0.44401475  1
  Ce3+  Ce13  1  0.87892908  0.75059604  0.45282103  1
  Ce3+  Ce14  1  0.25033986  0.62562604  0.55213604  1
  Ce3+  Ce15  1  0.37951683  0.24700142  0.44576760  1
  Ce3+  Ce16  1  0.50446339  0.37841359  0.55002835  1
  Ce3+  Ce17  1  -0.00305129  0.37143396  0.05724758  1
  Ce3+  Ce18  1  0.37121774  0.75074186  0.94286163  1
  Ce3+  Ce19  1  0.74912676  0.37154266  0.06560891  1
  Ce3+  Ce20  1  0.25504309  0.12478624  0.55957115  1
  Ce3+  Ce21  1  0.12966622  0.49989047  0.43049611  1
  Ce3+  Ce22  1  0.24695551  0.87389174  0.04794214  1
  Ce3+  Ce23  1  0.86835695  0.49705297  0.94493188  1
  Ce3+  Ce24  1  0.00154473  0.87232067  0.05435930  1
  Ce3+  Ce25  1  0.37819467  0.74979715  0.44072950  1
  Pr3+  Pr26  1  0.37705087  0.50288622  0.42398912  1
  Pr3+  Pr27  1  0.00569170  0.37351401  0.55371905  1
  Pr3+  Pr28  1  0.75399326  0.62341827  0.56264310  1
  Pr3+  Pr29  1  0.37205039  0.49617909  0.94463063  1
  Pr3+  Pr30  1  0.24586844  0.62262035  0.05333621  1
  Pr3+  Pr31  1  0.50450628  0.87402297  0.56406348  1
  Pr3+  Pr32  1  0.62729739  -0.00099872  0.44061377  1
  Pr3+  Pr33  1  0.24831575  0.12085167  0.04861199  1
  Pr3+  Pr34  1  0.88199912  0.50029132  0.43072845  1
  Pr3+  Pr35  1  0.49618443  0.12099255  0.06564711  1
  Pr3+  Pr36  1  0.37204791  0.24923939  0.93552944  1
  Pr3+  Pr37  1  0.74906680  0.87066734  0.05804853  1
  Pr3+  Pr38  1  0.50394146  0.62035141  0.55937951  1
  Nd3+  Nd39  1  0.86845625  0.24558599  0.95216936  1
  Nd3+  Nd40  1  0.87252020  0.00197730  0.94374127  1
  Nd3+  Nd41  1  0.01112572  0.12103229  0.07211289  1
  Nd3+  Nd42  1  0.11804085  0.24622491  0.93848928  1
  Nd3+  Nd43  1  0.00677129  0.62106134  0.56763090  1
  Nd3+  Nd44  1  0.87010963  0.74704739  0.93989889  1
  Nd3+  Nd45  1  0.49697294  0.87307949  0.05956383  1
  Nd3+  Nd46  1  0.37731499  -0.00174645  0.44187384  1
  Nd3+  Nd47  1  0.62179205  0.00270375  0.94227699  1
  Nd3+  Nd48  1  0.25335788  0.37833332  0.55537957  1
  Nd3+  Nd49  1  0.49874520  0.37142390  0.06421517  1
  Nd3+  Nd50  1  0.50393617  0.12464862  0.56203487  1
  Nd3+  Nd51  1  0.00029715  0.62325184  0.05719803  1
  Sm3+  Sm52  1  0.87832394  0.24476109  0.44081730  1
  Sm3+  Sm53  1  0.62245352  0.24512370  0.95521342  1
  Sm3+  Sm54  1  0.00669840  0.12654970  0.55972318  1
  Sm3+  Sm55  1  0.75330353  0.37606788  0.55354351  1
  Sm3+  Sm56  1  0.25302008  0.87362258  0.55615150  1
  Sm3+  Sm57  1  0.62102282  0.49526076  0.95343740  1
  Sm3+  Sm58  1  0.62909537  0.74889630  0.44598380  1
  Sm3+  Sm59  1  0.49732250  0.62312855  0.05669242  1
  Sm3+  Sm60  1  0.24590365  0.37411964  0.05716394  1
  Sm3+  Sm61  1  0.74710167  0.62398571  0.05538123  1
  Sm3+  Sm62  1  0.75346939  0.87490128  0.55573245  1
  Sm3+  Sm63  1  0.12731759  -0.00077213  0.44658433  1
  Bi2+  Bi64  1  0.01175688  0.08508034  0.29014701  1
  Bi2+  Bi65  1  0.00778917  0.13365795  0.79239679  1
  Bi2+  Bi66  1  0.03385944  0.40954722  0.27950879  1
  Bi2+  Bi67  1  -0.01434261  0.32810319  0.78020003  1
  Bi2+  Bi68  1  0.01793074  0.65958293  0.29463371  1
  Bi2+  Bi69  1  0.00678063  0.61022045  0.79592390  1
  Bi2+  Bi70  1  -0.01500653  0.89527916  0.25289935  1
  Bi2+  Bi71  1  0.01262665  0.87402523  0.79721810  1
  Bi2+  Bi72  1  0.21095515  0.13887366  0.30535149  1
  Bi2+  Bi73  1  0.20539997  0.18076661  0.74850231  1
  Bi2+  Bi74  1  0.25117771  0.38797572  0.26194661  1
  Bi2+  Bi75  1  0.24023587  0.36984670  0.78698810  1
  Bi2+  Bi76  1  0.26834370  0.61150773  0.29052796  1
  Bi2+  Bi77  1  0.29084021  0.56449846  0.78402634  1
  Bi2+  Bi78  1  0.22659185  0.87772773  0.29040845  1
  Bi2+  Bi79  1  0.25649666  0.83920707  0.78545072  1
  Bi2+  Bi80  1  0.50012318  0.11635513  0.31641777  1
  Bi2+  Bi81  1  0.53702056  0.13741619  0.78925161  1
  Bi2+  Bi82  1  0.44819560  0.39389792  0.26307119  1
  Bi2+  Bi83  1  0.51018234  0.41218729  0.78611355  1
  Bi2+  Bi84  1  0.54419225  0.61632645  0.28765899  1
  Bi2+  Bi85  1  0.56355079  0.63519455  0.79199707  1
  Bi2+  Bi86  1  0.51727043  0.87216447  0.26251378  1
  Bi2+  Bi87  1  0.50760394  0.86074812  0.79461436  1
  Bi2+  Bi88  1  0.75218241  0.14399043  0.30823823  1
  Bi2+  Bi89  1  0.76415964  0.15401895  0.80334914  1
  Bi2+  Bi90  1  0.69366507  0.39701079  0.29201274  1
  Bi2+  Bi91  1  0.72102293  0.34647852  0.79731171  1
  Bi2+  Bi92  1  0.79892327  0.71450186  0.31565286  1
  Bi2+  Bi93  1  0.76276696  0.54613026  0.80049951  1
  Bi2+  Bi94  1  0.78325704  0.88223634  0.25715324  1
  Bi2+  Bi95  1  0.74810460  0.89362134  0.76067551  1
  Bi2+  Bi96  1  0.16682460  -0.00087137  0.20808721  1
  Bi2+  Bi97  1  0.12290774  -0.02035368  0.69968312  1
  Bi2+  Bi98  1  0.10560520  0.25441701  0.19145299  1
  Bi2+  Bi99  1  0.05689890  0.24680531  0.68354833  1
  Bi2+  Bi100  1  0.13094241  0.50118619  0.19046457  1
  Bi2+  Bi101  1  0.13577963  0.50224971  0.68716784  1
  Bi2+  Bi102  1  0.14035086  0.75158544  0.17761690  1
  Bi2+  Bi103  1  0.13535685  0.73439057  0.69626269  1
  Bi2+  Bi104  1  0.35198399  0.01884457  0.24545218  1
  Bi2+  Bi105  1  0.38015369  0.01077145  0.69634544  1
  Bi2+  Bi106  1  0.35791973  0.21888711  0.24214612  1
  Bi2+  Bi107  1  0.39515540  0.25562290  0.75577922  1
  Bi2+  Bi108  1  0.40036828  0.55853390  0.20915884  1
  Bi2+  Bi109  1  0.38033976  0.46379643  0.70242648  1
  Bi2+  Bi110  1  0.36371247  0.76148690  0.24647203  1
  Bi2+  Bi111  1  0.40362157  0.70445386  0.74110402  1
  Bi2+  Bi112  1  0.61604235  0.00798832  0.20612460  1
  Bi2+  Bi113  1  0.61892800  -0.00580220  0.69483673  1
  Bi2+  Bi114  1  0.62649699  0.27084993  0.20084658  1
  Bi2+  Bi115  1  0.60419239  0.30037468  0.71016501  1
  Bi2+  Bi116  1  0.68185582  0.54612460  0.21815345  1
  Bi2+  Bi117  1  0.62223942  0.54590151  0.69332108  1
  Bi2+  Bi118  1  0.62557888  0.74034489  0.20816698  1
  Bi2+  Bi119  1  0.65576106  0.74338161  0.69828768  1
  Bi2+  Bi120  1  0.87722157  0.03695513  0.20424537  1
  Bi2+  Bi121  1  0.86497842  0.04359064  0.73166761  1
  Bi2+  Bi122  1  0.86330618  0.33478078  0.24712855  1
  Bi2+  Bi123  1  0.86441424  0.23024870  0.69469207  1
  Bi2+  Bi124  1  0.87445631  0.52917272  0.25431099  1
  Bi2+  Bi125  1  0.85044860  0.42800612  0.72464629  1
  Bi2+  Bi126  1  0.88584988  0.73233034  0.21194140  1
  Bi2+  Bi127  1  0.82770306  0.71147488  0.75320187  1
  S2-  S128  1  -0.02484790  0.17124120  0.16643181  1
  S2-  S129  1  0.00781384  0.03326596  0.64152949  1
  S2-  S130  1  0.01630649  0.38597872  0.15263204  1
  S2-  S131  1  0.01563582  0.42039149  0.64955676  1
  S2-  S132  1  0.02586905  0.62263936  0.15492609  1
  S2-  S133  1  0.01961760  0.63078205  0.66794134  1
  S2-  S134  1  0.01926767  0.86678117  0.15000518  1
  S2-  S135  1  0.00930007  0.84644097  0.68734673  1
  S2-  S136  1  0.16530779  0.11852386  0.13677743  1
  S2-  S137  1  0.24568087  0.10330999  0.65598936  1
  S2-  S138  1  0.23950243  0.36407499  0.15460876  1
  S2-  S139  1  0.25220505  0.38536830  0.65439584  1
  S2-  S140  1  0.24620160  0.62059231  0.15316263  1
  S2-  S141  1  0.24260387  0.62608333  0.64920082  1
  S2-  S142  1  0.24381892  0.86274690  0.14572816  1
  S2-  S143  1  0.22926510  0.87036894  0.65394849  1
  S2-  S144  1  0.54416171  0.13310283  0.16221934  1
  S2-  S145  1  0.49049847  0.11409280  0.66023381  1
  S2-  S146  1  0.50936900  0.36762660  0.16293428  1
  S2-  S147  1  0.52071677  0.41113847  0.64477607  1
  S2-  S148  1  0.50252394  0.65326812  0.15195802  1
  S2-  S149  1  0.50453558  0.66205793  0.65646815  1
  S2-  S150  1  0.50947149  0.90334206  0.15688632  1
  S2-  S151  1  0.47697839  0.89434216  0.66269477  1
  S2-  S152  1  0.75563418  0.15794418  0.18521543  1
  S2-  S153  1  0.72234423  0.10430349  0.66550713  1
  S2-  S154  1  0.75421964  0.37181432  0.16248011  1
  S2-  S155  1  0.74679182  0.33803359  0.64866772  1
  S2-  S156  1  0.75440742  0.66406305  0.14943040  1
  S2-  S157  1  0.77332781  0.61702000  0.66146481  1
  S2-  S158  1  0.74992728  0.95351640  0.14478623  1
  S2-  S159  1  0.74298976  0.87782881  0.65252450  1
  S2-  S160  1  0.12681540  -0.01288557  0.34919736  1
  S2-  S161  1  0.15682744  -0.04493711  0.82611226  1
  S2-  S162  1  0.07985471  0.23262478  0.33489736  1
  S2-  S163  1  0.16363263  0.25353904  0.84373661  1
  S2-  S164  1  0.01016609  0.51644156  0.35884171  1
  S2-  S165  1  0.13331681  0.52526937  0.83089550  1
  S2-  S166  1  0.15706295  0.73252585  0.33496096  1
  S2-  S167  1  0.11612001  0.74162965  0.82609536  1
  S2-  S168  1  0.41084449  -0.01931260  0.34594524  1
  S2-  S169  1  0.35692934  -0.03464392  0.79692633  1
  S2-  S170  1  0.36617875  0.22426463  0.35039956  1
  S2-  S171  1  0.39599038  0.16465835  0.84960955  1
  S2-  S172  1  0.24731366  0.48755348  0.35445461  1
  S2-  S173  1  0.36819764  0.44451540  0.85038114  1
  S2-  S174  1  0.38671444  0.70786531  0.34714085  1
  S2-  S175  1  0.37856889  0.76094501  0.84660769  1
  S2-  S176  1  0.63695739  0.02609017  0.34190751  1
  S2-  S177  1  0.54803531  -0.00279195  0.85213882  1
  S2-  S178  1  0.61548968  0.24856448  0.33380507  1
  S2-  S179  1  0.62954678  0.22394989  0.85871093  1
  S2-  S180  1  0.49782728  0.49014117  0.35001466  1
  S2-  S181  1  0.61346178  0.50227426  0.85726771  1
  S2-  S182  1  0.63912020  0.72720409  0.34972692  1
  S2-  S183  1  0.62809637  0.78200074  0.83909391  1
  S2-  S184  1  0.87237458  0.04329272  0.34932842  1
  S2-  S185  1  0.96302582  0.00357218  0.85873397  1
  S2-  S186  1  0.84088743  0.26402496  0.34557029  1
  S2-  S187  1  0.89887882  0.23252439  0.85458932  1
  S2-  S188  1  0.76068701  0.50217646  0.35577545  1
  S2-  S189  1  0.92445172  0.51367812  0.85369140  1
  S2-  S190  1  0.95564613  0.76388591  0.36673535  1
  S2-  S191  1  0.89912423  0.76873695  0.84335708  1
  S2-  S192  1  0.00375918  0.12303266  0.45529308  1
  S2-  S193  1  -0.00364521  0.12597626  0.96267638  1
  S2-  S194  1  0.00167343  0.36712420  0.44830803  1
  S2-  S195  1  -0.00609062  0.36988098  0.95087774  1
  S2-  S196  1  0.00060987  0.62513993  0.46329490  1
  S2-  S197  1  -0.00349507  0.62601218  0.95149083  1
  S2-  S198  1  0.00277320  0.88218698  0.46727108  1
  S2-  S199  1  -0.00548755  0.87058487  0.95082185  1
  S2-  S200  1  0.25336175  0.12021775  0.45293988  1
  S2-  S201  1  0.24799326  0.12029324  0.94304979  1
  S2-  S202  1  0.25557599  0.36927210  0.45064823  1
  S2-  S203  1  0.24430628  0.37111120  0.95226541  1
  S2-  S204  1  0.24967629  0.63051667  0.44893122  1
  S2-  S205  1  0.24670993  0.62179894  0.94572029  1
  S2-  S206  1  0.25092317  0.87463007  0.45117314  1
  S2-  S207  1  0.25114527  0.87949676  0.94116517  1
  S2-  S208  1  0.50285108  0.12253349  0.45588253  1
  S2-  S209  1  0.49616923  0.12375466  0.95923238  1
  S2-  S210  1  0.50336641  0.37137220  0.44672288  1
  S2-  S211  1  0.49988208  0.36962692  0.95765284  1
  S2-  S212  1  0.50529419  0.62699591  0.45307910  1
  S2-  S213  1  0.49675206  0.62068995  0.95184249  1
  S2-  S214  1  0.50497103  0.87264404  0.45557528  1
  S2-  S215  1  0.49304838  0.87842395  0.95312040  1
  S2-  S216  1  0.75405885  0.12375022  0.45861287  1
  S2-  S217  1  0.74600610  0.12164217  0.96443763  1
  S2-  S218  1  0.75693638  0.37025584  0.45172705  1
  S2-  S219  1  0.74381847  0.37143167  0.95783579  1
  S2-  S220  1  0.75510161  0.62822533  0.45685946  1
  S2-  S221  1  0.74335782  0.62247611  0.95076411  1
  S2-  S222  1  0.75206276  0.87407322  0.45091280  1
  S2-  S223  1  0.74769460  0.87634003  0.95042700  1
  S2-  S224  1  0.12324907  -0.00421762  0.03439882  1
  S2-  S225  1  0.13331139  0.00033118  0.54827749  1
  S2-  S226  1  0.12485234  0.25202274  0.04309701  1
  S2-  S227  1  0.13054251  0.24814118  0.54204211  1
  S2-  S228  1  0.12239094  0.49634979  0.03944090  1
  S2-  S229  1  0.12846724  0.49940868  0.53838638  1
  S2-  S230  1  0.12324872  0.74710299  0.03591222  1
  S2-  S231  1  0.12574118  0.75314306  0.54675956  1
  S2-  S232  1  0.37255015  -0.00212345  0.05348701  1
  S2-  S233  1  0.37844915  -0.00222721  0.54817758  1
  S2-  S234  1  0.37099275  0.25031683  0.04752637  1
  S2-  S235  1  0.37983067  0.25129945  0.55291491  1
  S2-  S236  1  0.37397939  0.49640877  0.05160731  1
  S2-  S237  1  0.37675271  0.50124201  0.53841463  1
  S2-  S238  1  0.37419229  0.74654830  0.04833697  1
  S2-  S239  1  0.37810232  0.75070086  0.54852139  1
  S2-  S240  1  0.62099688  -0.00293527  0.04697409  1
  S2-  S241  1  0.62908008  -0.00066028  0.54795840  1
  S2-  S242  1  0.62505206  0.24557325  0.05783584  1
  S2-  S243  1  0.62766469  0.25082729  0.54462651  1
  S2-  S244  1  0.62244884  0.50022641  0.05744406  1
  S2-  S245  1  0.63253078  0.49890344  0.53703669  1
  S2-  S246  1  0.62171131  0.74699365  0.04442446  1
  S2-  S247  1  0.63019091  0.74986804  0.55013100  1
  S2-  S248  1  0.87913807  -0.00094863  0.04880059  1
  S2-  S249  1  0.87479954  0.00053539  0.55036316  1
  S2-  S250  1  0.87178704  0.24308851  0.05770807  1
  S2-  S251  1  0.88086448  0.24877790  0.54616306  1
  S2-  S252  1  0.87153175  0.50148325  0.05217388  1
  S2-  S253  1  0.87783263  0.49770710  0.54569650  1
  S2-  S254  1  0.87327729  0.74597688  0.04615254  1
  S2-  S255  1  0.88028518  0.75240322  0.55977956  1
