# generated using pymatgen
data_La12Ce14Pr13Nd13Sm12(BiS2)64
_symmetry_space_group_name_H-M   'P 1'
_cell_length_a   16.12759884
_cell_length_b   16.07315579
_cell_length_c   27.39888782
_cell_angle_alpha   89.83243057
_cell_angle_beta   90.16559713
_cell_angle_gamma   89.90845988
_symmetry_Int_Tables_number   1
_chemical_formula_structural   La12Ce14Pr13Nd13Sm12(BiS2)64
_chemical_formula_sum   'La12 Ce14 Pr13 Nd13 Sm12 Bi64 S128'
_cell_volume   7102.30909220
_cell_formula_units_Z   1
loop_
 _symmetry_equiv_pos_site_id
 _symmetry_equiv_pos_as_xyz
  1  'x, y, z'
loop_
 _atom_type_symbol
 _atom_type_oxidation_number
  La3+  3.0
  Ce3+  3.0
  Pr3+  3.0
  Nd3+  3.0
  Sm3+  3.0
  Bi2+  2.0
  S2-  -2.0
loop_
 _atom_site_type_symbol
 _atom_site_label
 _atom_site_symmetry_multiplicity
 _atom_site_fract_x
 _atom_site_fract_y
 _atom_site_fract_z
 _atom_site_occupancy
  La3+  La0  1  0.24952135  0.60410316  0.61131842  1
  La3+  La1  1  0.85418212  -0.01072819  0.89654160  1
  La3+  La2  1  0.38579492  0.76341617  0.42419180  1
  La3+  La3  1  0.49438530  0.11388815  0.07015706  1
  La3+  La4  1  0.74791004  0.11646980  0.06431368  1
  La3+  La5  1  0.64143414  0.27060723  0.42508270  1
  La3+  La6  1  0.02184188  0.15108681  0.61549863  1
  La3+  La7  1  0.39367582  0.75137790  0.89776703  1
  La3+  La8  1  0.74951781  0.37152135  0.09340258  1
  La3+  La9  1  0.50313517  0.39150311  0.56026557  1
  La3+  La10  1  0.38086463  0.26491156  0.40028722  1
  La3+  La11  1  0.23660727  0.10292832  0.10472768  1
  Ce3+  Ce12  1  0.25306427  0.13719874  0.55108070  1
  Ce3+  Ce13  1  0.51055108  0.14155610  0.55419533  1
  Ce3+  Ce14  1  0.25208350  0.36574681  0.07278560  1
  Ce3+  Ce15  1  0.24896032  0.61482358  0.05594506  1
  Ce3+  Ce16  1  -0.00355902  0.36464719  0.06582454  1
  Ce3+  Ce17  1  0.75950261  0.39101231  0.56320611  1
  Ce3+  Ce18  1  0.12186835  0.48962487  0.94419545  1
  Ce3+  Ce19  1  0.00921190  0.89576259  0.55998957  1
  Ce3+  Ce20  1  0.01124545  0.64323261  0.55144172  1
  Ce3+  Ce21  1  -0.00086117  0.11614145  0.05560287  1
  Ce3+  Ce22  1  0.11933701  -0.00718366  0.93422624  1
  Ce3+  Ce23  1  0.24781896  0.86460667  0.04959129  1
  Ce3+  Ce24  1  0.86599929  0.74139475  0.93633102  1
  Ce3+  Ce25  1  0.88115891  0.51434031  0.43791977  1
  Pr3+  Pr26  1  0.60930592  -0.01419999  0.93451521  1
  Pr3+  Pr27  1  -0.00139244  0.86911595  0.05324114  1
  Pr3+  Pr28  1  0.62064125  0.24399658  0.94510544  1
  Pr3+  Pr29  1  0.75367005  0.14626283  0.57840227  1
  Pr3+  Pr30  1  0.36808027  -0.00690631  0.94156374  1
  Pr3+  Pr31  1  0.13237007  0.01202722  0.43141527  1
  Pr3+  Pr32  1  0.12744780  0.26266605  0.41386602  1
  Pr3+  Pr33  1  0.38093328  0.51604752  0.43322632  1
  Pr3+  Pr34  1  0.01029403  0.39158448  0.55750088  1
  Pr3+  Pr35  1  0.87012835  0.24336802  0.93684881  1
  Pr3+  Pr36  1  0.75075514  0.61888056  0.06816995  1
  Pr3+  Pr37  1  0.74884025  0.87069700  0.06314703  1
  Pr3+  Pr38  1  0.11996782  0.73991246  0.93646418  1
  Nd3+  Nd39  1  0.63782974  0.76818231  0.42607741  1
  Nd3+  Nd40  1  0.37370606  0.48940258  0.93633959  1
  Nd3+  Nd41  1  0.36926538  0.24574221  0.94632712  1
  Nd3+  Nd42  1  0.63057764  0.02355943  0.43581133  1
  Nd3+  Nd43  1  0.63313118  0.51347633  0.43655226  1
  Nd3+  Nd44  1  0.49582730  0.86684687  0.07137032  1
  Nd3+  Nd45  1  0.49360013  0.61413730  0.06480425  1
  Nd3+  Nd46  1  0.50570072  0.64548754  0.56329970  1
  Nd3+  Nd47  1  0.88151938  0.02112027  0.44554734  1
  Nd3+  Nd48  1  0.26098603  0.87587415  0.55916138  1
  Nd3+  Nd49  1  0.13220210  0.51399790  0.43236865  1
  Nd3+  Nd50  1  0.25520206  0.38330617  0.54762682  1
  Nd3+  Nd51  1  0.13051550  0.76720358  0.42988878  1
  Sm3+  Sm52  1  0.61871467  0.49001231  0.95542506  1
  Sm3+  Sm53  1  0.86564297  0.48619183  0.94114599  1
  Sm3+  Sm54  1  0.11962825  0.24257106  0.94562042  1
  Sm3+  Sm55  1  0.62018986  0.74030047  0.95128133  1
  Sm3+  Sm56  1  0.87776137  0.76663339  0.44443469  1
  Sm3+  Sm57  1  0.75641911  0.89144028  0.55702198  1
  Sm3+  Sm58  1  0.75412680  0.64092009  0.56170227  1
  Sm3+  Sm59  1  0.38257008  0.01604342  0.44486170  1
  Sm3+  Sm60  1  0.49594280  0.36040770  0.07849429  1
  Sm3+  Sm61  1  0.88368320  0.26130383  0.44919584  1
  Sm3+  Sm62  1  -0.00416746  0.61570201  0.05175153  1
  Sm3+  Sm63  1  0.51059588  0.88674138  0.55505515  1
  Bi2+  Bi64  1  -0.01536840  0.11422236  0.28101173  1
  Bi2+  Bi65  1  0.01328969  0.11081869  0.80881397  1
  Bi2+  Bi66  1  -0.02373761  0.34841236  0.29042924  1
  Bi2+  Bi67  1  -0.00142233  0.39926021  0.81044237  1
  Bi2+  Bi68  1  -0.00411232  0.64676214  0.29002519  1
  Bi2+  Bi69  1  -0.01874153  0.59832338  0.79027200  1
  Bi2+  Bi70  1  0.01273401  0.84324275  0.29022793  1
  Bi2+  Bi71  1  -0.00063762  0.82165732  0.78009048  1
  Bi2+  Bi72  1  0.26034214  0.11215399  0.29684663  1
  Bi2+  Bi73  1  0.30122964  0.14809322  0.79604844  1
  Bi2+  Bi74  1  0.23802893  0.42549439  0.29209666  1
  Bi2+  Bi75  1  0.27159728  0.35086089  0.79169676  1
  Bi2+  Bi76  1  0.18590522  0.63180931  0.31975351  1
  Bi2+  Bi77  1  0.23087687  0.61134296  0.81232086  1
  Bi2+  Bi78  1  0.26714532  0.80823498  0.29642629  1
  Bi2+  Bi79  1  0.31122593  0.94202935  0.78689758  1
  Bi2+  Bi80  1  0.50657508  0.05986366  0.30190238  1
  Bi2+  Bi81  1  0.50393060  0.14378227  0.79695502  1
  Bi2+  Bi82  1  0.51252427  0.43191384  0.27772077  1
  Bi2+  Bi83  1  0.52798715  0.35866927  0.80386994  1
  Bi2+  Bi84  1  0.51001061  0.62655694  0.30692520  1
  Bi2+  Bi85  1  0.52624567  0.60496592  0.79267782  1
  Bi2+  Bi86  1  0.53316304  0.85314360  0.25829572  1
  Bi2+  Bi87  1  0.57302834  0.87879087  0.79501336  1
  Bi2+  Bi88  1  0.74858319  0.10671885  0.31030419  1
  Bi2+  Bi89  1  0.75039130  0.09669348  0.77720401  1
  Bi2+  Bi90  1  0.77267662  0.38741135  0.29686292  1
  Bi2+  Bi91  1  0.78967142  0.41125929  0.76720684  1
  Bi2+  Bi92  1  0.70385950  0.67059491  0.28794350  1
  Bi2+  Bi93  1  0.79958919  0.58734937  0.82592360  1
  Bi2+  Bi94  1  0.80689047  0.85735291  0.27688216  1
  Bi2+  Bi95  1  0.75140979  0.75983845  0.77980676  1
  Bi2+  Bi96  1  0.09754559  -0.02818670  0.21046115  1
  Bi2+  Bi97  1  0.13754689  -0.06515886  0.73181047  1
  Bi2+  Bi98  1  0.08529681  0.25124616  0.21418126  1
  Bi2+  Bi99  1  0.18830468  0.26753624  0.70711141  1
  Bi2+  Bi100  1  0.14519619  0.44458998  0.19408168  1
  Bi2+  Bi101  1  0.01393811  0.47679931  0.70375263  1
  Bi2+  Bi102  1  0.13523326  0.73350186  0.22227952  1
  Bi2+  Bi103  1  0.06558906  0.77920469  0.67465273  1
  Bi2+  Bi104  1  0.35697190  -0.07014833  0.20992497  1
  Bi2+  Bi105  1  0.40065319  0.04666834  0.70765345  1
  Bi2+  Bi106  1  0.36635636  0.27343503  0.21151845  1
  Bi2+  Bi107  1  0.40562342  0.25135213  0.71225015  1
  Bi2+  Bi108  1  0.32825363  0.53763613  0.21137468  1
  Bi2+  Bi109  1  0.37573721  0.47212018  0.70610975  1
  Bi2+  Bi110  1  0.40084012  0.72936026  0.21178448  1
  Bi2+  Bi111  1  0.36927272  0.73651963  0.71091053  1
  Bi2+  Bi112  1  0.62637697  0.02131008  0.20860830  1
  Bi2+  Bi113  1  0.60019879  0.01801918  0.71571541  1
  Bi2+  Bi114  1  0.61589816  0.26052410  0.21781187  1
  Bi2+  Bi115  1  0.61890209  0.27030101  0.70456549  1
  Bi2+  Bi116  1  0.63412537  0.53550717  0.21582347  1
  Bi2+  Bi117  1  0.66016831  0.54516680  0.72381560  1
  Bi2+  Bi118  1  0.67836257  0.81230050  0.18604843  1
  Bi2+  Bi119  1  0.61298982  0.77570522  0.69856573  1
  Bi2+  Bi120  1  0.89047786  -0.01198323  0.20725376  1
  Bi2+  Bi121  1  0.87084625  -0.05692788  0.68625671  1
  Bi2+  Bi122  1  0.87064146  0.23504898  0.21632986  1
  Bi2+  Bi123  1  0.88151560  0.25845985  0.71306675  1
  Bi2+  Bi124  1  0.96501593  0.50278982  0.21066827  1
  Bi2+  Bi125  1  0.82947332  0.52837653  0.66897148  1
  Bi2+  Bi126  1  0.83453203  0.69821937  0.19721583  1
  Bi2+  Bi127  1  0.87817144  0.72150767  0.69364078  1
  S2-  S128  1  0.07288359  0.10771636  0.14643497  1
  S2-  S129  1  0.03603617  0.17322650  0.72314139  1
  S2-  S130  1  -0.09946133  0.36635141  0.14767253  1
  S2-  S131  1  0.00321023  0.32502777  0.65024993  1
  S2-  S132  1  -0.02713128  0.63869057  0.14725754  1
  S2-  S133  1  0.07746820  0.61163331  0.64099184  1
  S2-  S134  1  -0.01206963  0.88003789  0.15438484  1
  S2-  S135  1  0.03258812  0.97661697  0.64804433  1
  S2-  S136  1  0.32105759  0.09146003  0.19743386  1
  S2-  S137  1  0.19568831  0.14437592  0.64274877  1
  S2-  S138  1  0.23245616  0.26199565  0.15327517  1
  S2-  S139  1  0.24855049  0.42445504  0.64572119  1
  S2-  S140  1  0.21610464  0.62573245  0.15216376  1
  S2-  S141  1  0.25627350  0.59998130  0.71991060  1
  S2-  S142  1  0.22799522  0.92224834  0.14140030  1
  S2-  S143  1  0.25572917  0.78040833  0.64447991  1
  S2-  S144  1  0.49361925  0.22177642  0.15318247  1
  S2-  S145  1  0.60288361  0.13912730  0.63826663  1
  S2-  S146  1  0.37637172  0.40693040  0.14880752  1
  S2-  S147  1  0.51931727  0.39531205  0.66067865  1
  S2-  S148  1  0.51691161  0.63467521  0.16299934  1
  S2-  S149  1  0.41643102  0.60858578  0.64838109  1
  S2-  S150  1  0.49850199  0.98522299  0.14540915  1
  S2-  S151  1  0.47882518  0.82438628  0.64624462  1
  S2-  S152  1  0.73940950  0.21508086  0.15253556  1
  S2-  S153  1  0.85971308  0.11648480  0.65917997  1
  S2-  S154  1  0.60704435  0.38367360  0.15621850  1
  S2-  S155  1  0.74718386  0.29788159  0.64648969  1
  S2-  S156  1  0.76500369  0.53612514  0.15580019  1
  S2-  S157  1  0.63605786  0.64570160  0.63495517  1
  S2-  S158  1  0.75161336  0.99033416  0.14031290  1
  S2-  S159  1  0.71441827  0.90851044  0.65274997  1
  S2-  S160  1  0.11791272  0.11401407  0.34845661  1
  S2-  S161  1  0.12172796  -0.02312112  0.83650062  1
  S2-  S162  1  0.24077290  0.26267319  0.33465556  1
  S2-  S163  1  0.06552077  0.25046547  0.85142080  1
  S2-  S164  1  0.09616606  0.41235595  0.35195952  1
  S2-  S165  1  0.15768927  0.46546660  0.84889568  1
  S2-  S166  1  0.13923571  0.88645509  0.35499078  1
  S2-  S167  1  0.09406845  0.71779896  0.83802008  1
  S2-  S168  1  0.36490228  -0.00216320  0.34774223  1
  S2-  S169  1  0.45070720  -0.06713332  0.86080579  1
  S2-  S170  1  0.41583157  0.19870889  0.30366336  1
  S2-  S171  1  0.38626956  0.35656932  0.86794640  1
  S2-  S172  1  0.39592049  0.41597301  0.34671837  1
  S2-  S173  1  0.38567835  0.58879053  0.85161502  1
  S2-  S174  1  0.36540659  0.63120079  0.35252065  1
  S2-  S175  1  0.30734624  0.77263437  0.80810095  1
  S2-  S176  1  0.65537864  -0.02464082  0.34177978  1
  S2-  S177  1  0.69663037  -0.01065287  0.84778677  1
  S2-  S178  1  0.61126093  0.18311192  0.33807877  1
  S2-  S179  1  0.62954549  0.24048211  0.84339801  1
  S2-  S180  1  0.63586102  0.41171354  0.35415651  1
  S2-  S181  1  0.59440771  0.48292466  0.85700981  1
  S2-  S182  1  0.51807244  0.78526302  0.35276448  1
  S2-  S183  1  0.55968056  0.73560907  0.85829592  1
  S2-  S184  1  0.88478234  0.01313605  0.34565343  1
  S2-  S185  1  0.88502667  -0.00650937  0.77860528  1
  S2-  S186  1  0.80419042  0.25196117  0.36097318  1
  S2-  S187  1  0.85718604  0.14947227  0.85031544  1
  S2-  S188  1  0.83792215  0.51679076  0.34369422  1
  S2-  S189  1  0.85459827  0.37347953  0.86515461  1
  S2-  S190  1  0.78040958  0.76517853  0.36267396  1
  S2-  S191  1  0.86219572  0.82735604  0.85190759  1
  S2-  S192  1  0.00579014  0.14263850  0.44803727  1
  S2-  S193  1  -0.00366386  0.11495108  0.95069017  1
  S2-  S194  1  0.00283673  0.38757485  0.45292387  1
  S2-  S195  1  -0.00271143  0.36907727  0.96097168  1
  S2-  S196  1  0.00382620  0.64275006  0.44420863  1
  S2-  S197  1  -0.00873612  0.61236056  0.94758616  1
  S2-  S198  1  -0.00040178  0.88878320  0.45270584  1
  S2-  S199  1  -0.00543968  0.86850998  0.94702930  1
  S2-  S200  1  0.26150499  0.14277354  0.44702290  1
  S2-  S201  1  0.24459653  0.12092053  0.93977718  1
  S2-  S202  1  0.25528885  0.38550542  0.44477333  1
  S2-  S203  1  0.24254619  0.36510117  0.96335540  1
  S2-  S204  1  0.24916287  0.64213923  0.44696673  1
  S2-  S205  1  0.24835990  0.61761770  0.95083587  1
  S2-  S206  1  0.26325044  0.88866937  0.45345548  1
  S2-  S207  1  0.25034834  0.86075890  0.94175469  1
  S2-  S208  1  0.50156752  0.14532028  0.44875094  1
  S2-  S209  1  0.49278924  0.11818958  0.95526861  1
  S2-  S210  1  0.50390675  0.38620257  0.45270855  1
  S2-  S211  1  0.49788925  0.36717127  0.97110183  1
  S2-  S212  1  0.51423063  0.63827174  0.45355692  1
  S2-  S213  1  0.49577777  0.61849250  0.96035958  1
  S2-  S214  1  0.50955340  0.89663785  0.45201537  1
  S2-  S215  1  0.49189610  0.85788831  0.96694458  1
  S2-  S216  1  0.75599341  0.14031011  0.46345587  1
  S2-  S217  1  0.74169156  0.11379941  0.95458684  1
  S2-  S218  1  0.76259161  0.39209215  0.45926563  1
  S2-  S219  1  0.74164180  0.36943912  0.96649940  1
  S2-  S220  1  0.75613355  0.63810487  0.45815939  1
  S2-  S221  1  0.74263493  0.61507912  0.95986221  1
  S2-  S222  1  0.75668731  0.89555826  0.45469882  1
  S2-  S223  1  0.74145337  0.86543166  0.95603931  1
  S2-  S224  1  0.12526805  -0.00629644  0.03882203  1
  S2-  S225  1  0.13976790  0.00639680  0.53846204  1
  S2-  S226  1  0.12276996  0.24079734  0.04836767  1
  S2-  S227  1  0.12841867  0.26131676  0.54149047  1
  S2-  S228  1  0.12035368  0.49167344  0.05082245  1
  S2-  S229  1  0.13523867  0.51463574  0.53767460  1
  S2-  S230  1  0.12075559  0.73914611  0.04347096  1
  S2-  S231  1  0.12763143  0.76866068  0.53545875  1
  S2-  S232  1  0.36412712  -0.00594062  0.04642668  1
  S2-  S233  1  0.38459937  0.01029860  0.55039053  1
  S2-  S234  1  0.36474788  0.23409173  0.05006763  1
  S2-  S235  1  0.38080337  0.26053300  0.55508729  1
  S2-  S236  1  0.37260470  0.49235842  0.04351548  1
  S2-  S237  1  0.37516012  0.51591228  0.54116637  1
  S2-  S238  1  0.37114358  0.74242145  0.06233982  1
  S2-  S239  1  0.39006452  0.76674443  0.53343104  1
  S2-  S240  1  0.61861626  -0.01128107  0.04099948  1
  S2-  S241  1  0.63202092  0.01232410  0.54257088  1
  S2-  S242  1  0.62060146  0.24062034  0.05015665  1
  S2-  S243  1  0.63145976  0.26900838  0.53821675  1
  S2-  S244  1  0.62176077  0.49489513  0.05601867  1
  S2-  S245  1  0.63350548  0.51305466  0.54238106  1
  S2-  S246  1  0.62058220  0.74183722  0.05461612  1
  S2-  S247  1  0.63588447  0.76861659  0.53600399  1
  S2-  S248  1  0.87621024  -0.00735329  0.04400852  1
  S2-  S249  1  0.87833814  0.01380639  0.54979979  1
  S2-  S250  1  0.87512432  0.24096735  0.04495753  1
  S2-  S251  1  0.88525974  0.26321069  0.55034752  1
  S2-  S252  1  0.87355739  0.49382786  0.04442754  1
  S2-  S253  1  0.88364225  0.51911897  0.54422892  1
  S2-  S254  1  0.87224961  0.74330541  0.04341490  1
  S2-  S255  1  0.87933548  0.76556991  0.54807742  1
