# generated using pymatgen
data_La12Ce14Pr13Nd13Sm12(BiS2)64
_symmetry_space_group_name_H-M   'P 1'
_cell_length_a   16.18798209
_cell_length_b   16.18109204
_cell_length_c   27.07462488
_cell_angle_alpha   90.11421215
_cell_angle_beta   90.02514542
_cell_angle_gamma   89.99848855
_symmetry_Int_Tables_number   1
_chemical_formula_structural   La12Ce14Pr13Nd13Sm12(BiS2)64
_chemical_formula_sum   'La12 Ce14 Pr13 Nd13 Sm12 Bi64 S128'
_cell_volume   7091.89156790
_cell_formula_units_Z   1
loop_
 _symmetry_equiv_pos_site_id
 _symmetry_equiv_pos_as_xyz
  1  'x, y, z'
loop_
 _atom_type_symbol
 _atom_type_oxidation_number
  La3+  3.0
  Ce3+  3.0
  Pr3+  3.0
  Nd3+  3.0
  Sm3+  3.0
  Bi2+  2.0
  S2-  -2.0
loop_
 _atom_site_type_symbol
 _atom_site_label
 _atom_site_symmetry_multiplicity
 _atom_site_fract_x
 _atom_site_fract_y
 _atom_site_fract_z
 _atom_site_occupancy
  La3+  La0  1  0.36286839  0.25528760  0.90858838  1
  La3+  La1  1  0.63468524  0.49198215  0.40138229  1
  La3+  La2  1  0.12357005  -0.00068490  0.43667957  1
  La3+  La3  1  0.24772255  0.62572779  0.07952105  1
  La3+  La4  1  0.49747495  0.12597546  0.60178402  1
  La3+  La5  1  0.37529684  0.75176931  0.42361907  1
  La3+  La6  1  0.36835091  0.49304993  0.41056830  1
  La3+  La7  1  0.86961577  0.49201350  0.93611120  1
  La3+  La8  1  0.63339271  0.76135924  0.41244201  1
  La3+  La9  1  0.00039383  0.88958104  0.57934227  1
  La3+  La10  1  0.23584422  0.35653786  0.08688098  1
  La3+  La11  1  0.62222717  -0.01387176  0.92163239  1
  Ce3+  Ce12  1  0.74299415  0.61970850  0.06111138  1
  Ce3+  Ce13  1  0.25523381  0.88145592  0.55963435  1
  Ce3+  Ce14  1  0.00152895  0.62970255  0.56220621  1
  Ce3+  Ce15  1  0.12170069  0.24215404  0.93655129  1
  Ce3+  Ce16  1  0.87257680  0.50428437  0.44608732  1
  Ce3+  Ce17  1  0.25418357  0.13724166  0.56664358  1
  Ce3+  Ce18  1  0.87279450  0.25711870  0.44703661  1
  Ce3+  Ce19  1  0.49646232  0.37955286  0.55849719  1
  Ce3+  Ce20  1  0.87039371  -0.01036735  0.94156800  1
  Ce3+  Ce21  1  0.36808210  0.74487168  0.94108159  1
  Ce3+  Ce22  1  0.11996837  -0.00908626  0.94953007  1
  Ce3+  Ce23  1  0.74034939  0.11625235  0.05571590  1
  Ce3+  Ce24  1  0.62311144  0.25478381  0.44785351  1
  Ce3+  Ce25  1  0.49833886  0.87392637  0.55711614  1
  Pr3+  Pr26  1  0.75002835  0.12804788  0.56623594  1
  Pr3+  Pr27  1  -0.00698440  0.11604248  0.05874250  1
  Pr3+  Pr28  1  0.12355849  0.49214854  0.94712705  1
  Pr3+  Pr29  1  0.74105120  0.87369758  0.57072876  1
  Pr3+  Pr30  1  0.36780177  0.49220523  0.95410229  1
  Pr3+  Pr31  1  0.25022159  0.11608886  0.05610967  1
  Pr3+  Pr32  1  0.87473463  0.00445680  0.44144043  1
  Pr3+  Pr33  1  -0.00613719  0.86771551  0.06697445  1
  Pr3+  Pr34  1  0.87268612  0.75352227  0.44467911  1
  Pr3+  Pr35  1  0.49218384  0.36398917  0.06344121  1
  Pr3+  Pr36  1  0.62469890  0.00481334  0.44291167  1
  Pr3+  Pr37  1  0.62100093  0.24331943  0.93318226  1
  Pr3+  Pr38  1  0.36178478  -0.01565033  0.92147642  1
  Nd3+  Nd39  1  0.25131778  0.38666157  0.56390379  1
  Nd3+  Nd40  1  0.37619433  0.00220951  0.43645194  1
  Nd3+  Nd41  1  -0.00787165  0.61838007  0.06140174  1
  Nd3+  Nd42  1  0.74649113  0.37907186  0.56763011  1
  Nd3+  Nd43  1  0.61838514  0.49197650  0.94512889  1
  Nd3+  Nd44  1  0.74520055  0.62866611  0.56093644  1
  Nd3+  Nd45  1  0.74274391  0.36857975  0.06285254  1
  Nd3+  Nd46  1  0.50065722  0.62552976  0.53622684  1
  Nd3+  Nd47  1  0.12499179  0.25381187  0.43914902  1
  Nd3+  Nd48  1  0.73622732  0.87911406  0.08808110  1
  Nd3+  Nd49  1  0.12349321  0.75291069  0.44806013  1
  Nd3+  Nd50  1  0.62196809  0.74369132  0.93751116  1
  Nd3+  Nd51  1  0.37390567  0.25299577  0.43986665  1
  Sm3+  Sm52  1  0.49292385  0.11846190  0.04155279  1
  Sm3+  Sm53  1  0.86836973  0.74472207  0.95271768  1
  Sm3+  Sm54  1  0.25446143  0.62554677  0.55550982  1
  Sm3+  Sm55  1  0.87011368  0.24117244  0.94800871  1
  Sm3+  Sm56  1  -0.00514045  0.36834069  0.05841890  1
  Sm3+  Sm57  1  0.00276983  0.13166402  0.55899830  1
  Sm3+  Sm58  1  0.12343682  0.50516504  0.43384347  1
  Sm3+  Sm59  1  0.25119791  0.87169335  0.06840887  1
  Sm3+  Sm60  1  0.00047165  0.38076170  0.55172663  1
  Sm3+  Sm61  1  0.49714891  0.62091455  0.06070789  1
  Sm3+  Sm62  1  0.11939374  0.74278193  0.94884173  1
  Sm3+  Sm63  1  0.49832406  0.87184073  0.05669082  1
  Bi2+  Bi64  1  0.00497031  0.17218208  0.29865127  1
  Bi2+  Bi65  1  -0.01050411  0.15899585  0.79795155  1
  Bi2+  Bi66  1  -0.01786288  0.38439845  0.28465563  1
  Bi2+  Bi67  1  0.03965085  0.37086269  0.78495148  1
  Bi2+  Bi68  1  0.01236629  0.57387471  0.32258663  1
  Bi2+  Bi69  1  -0.01163685  0.68192606  0.78963391  1
  Bi2+  Bi70  1  -0.00740157  0.89902998  0.30058856  1
  Bi2+  Bi71  1  0.00641791  0.94709317  0.79802369  1
  Bi2+  Bi72  1  0.32393675  0.08984116  0.29259019  1
  Bi2+  Bi73  1  0.18319381  0.12946511  0.77802694  1
  Bi2+  Bi74  1  0.24793475  0.35241565  0.28614978  1
  Bi2+  Bi75  1  0.23351884  0.39897237  0.79255802  1
  Bi2+  Bi76  1  0.19042511  0.61458605  0.28075074  1
  Bi2+  Bi77  1  0.28382681  0.61605343  0.77850032  1
  Bi2+  Bi78  1  0.24168105  0.84566820  0.29657718  1
  Bi2+  Bi79  1  0.21639432  0.83756457  0.79585674  1
  Bi2+  Bi80  1  0.51563160  0.13740795  0.29403024  1
  Bi2+  Bi81  1  0.52088658  0.13044947  0.79867157  1
  Bi2+  Bi82  1  0.51035682  0.38176702  0.29047365  1
  Bi2+  Bi83  1  0.48923233  0.43569434  0.78800194  1
  Bi2+  Bi84  1  0.44695532  0.68113217  0.26272049  1
  Bi2+  Bi85  1  0.48243653  0.64173033  0.79524849  1
  Bi2+  Bi86  1  0.48855654  0.94106529  0.28641200  1
  Bi2+  Bi87  1  0.48062935  0.83707846  0.78066479  1
  Bi2+  Bi88  1  0.72041349  0.13423307  0.27160779  1
  Bi2+  Bi89  1  0.76467584  0.15246882  0.79413702  1
  Bi2+  Bi90  1  0.77893983  0.34562435  0.30016886  1
  Bi2+  Bi91  1  0.76539963  0.39645725  0.80150887  1
  Bi2+  Bi92  1  0.83396687  0.62500995  0.28656846  1
  Bi2+  Bi93  1  0.68272014  0.64291339  0.77945655  1
  Bi2+  Bi94  1  0.74696680  0.87679628  0.28952440  1
  Bi2+  Bi95  1  0.75744813  0.82735524  0.79767871  1
  Bi2+  Bi96  1  0.16950867  0.00642160  0.23684257  1
  Bi2+  Bi97  1  0.12356825  -0.03108189  0.70507163  1
  Bi2+  Bi98  1  0.10740967  0.23590786  0.21266858  1
  Bi2+  Bi99  1  0.10280221  0.24139086  0.69767281  1
  Bi2+  Bi100  1  0.09138797  0.49727249  0.21102772  1
  Bi2+  Bi101  1  0.13952034  0.52015601  0.71355873  1
  Bi2+  Bi102  1  0.11936755  0.82309640  0.20338386  1
  Bi2+  Bi103  1  0.13273633  0.72027237  0.71076100  1
  Bi2+  Bi104  1  0.32338638  0.01013023  0.16707528  1
  Bi2+  Bi105  1  0.31975287  0.00723254  0.73776162  1
  Bi2+  Bi106  1  0.37457473  0.19684773  0.20216117  1
  Bi2+  Bi107  1  0.36921298  0.25307987  0.71059164  1
  Bi2+  Bi108  1  0.38877568  0.50402804  0.20630958  1
  Bi2+  Bi109  1  0.40138817  0.52209126  0.69876021  1
  Bi2+  Bi110  1  0.38859834  0.84142112  0.20214758  1
  Bi2+  Bi111  1  0.35602758  0.74778931  0.70120315  1
  Bi2+  Bi112  1  0.60174104  0.01694379  0.20235193  1
  Bi2+  Bi113  1  0.65383243  -0.01082451  0.70422711  1
  Bi2+  Bi114  1  0.60076340  0.24559455  0.20585852  1
  Bi2+  Bi115  1  0.62202343  0.32750724  0.72123398  1
  Bi2+  Bi116  1  0.64191457  0.50443197  0.19908518  1
  Bi2+  Bi117  1  0.67298927  0.50647960  0.69302103  1
  Bi2+  Bi118  1  0.64022078  0.75801547  0.21497404  1
  Bi2+  Bi119  1  0.57431387  0.75926812  0.69079767  1
  Bi2+  Bi120  1  0.87803077  0.05510540  0.21304528  1
  Bi2+  Bi121  1  0.88013055  0.03279173  0.71724772  1
  Bi2+  Bi122  1  0.86045590  0.24835884  0.21323488  1
  Bi2+  Bi123  1  0.91222269  0.28143214  0.71173799  1
  Bi2+  Bi124  1  0.89087423  0.50127670  0.20431457  1
  Bi2+  Bi125  1  0.85498372  0.52986719  0.72816274  1
  Bi2+  Bi126  1  0.93559407  0.76056367  0.22296678  1
  Bi2+  Bi127  1  0.84149975  0.72076684  0.71630538  1
  S2-  S128  1  -0.00063714  0.12789090  0.15951125  1
  S2-  S129  1  0.00329119  0.04337167  0.64307093  1
  S2-  S130  1  0.08062178  0.36149207  0.14361918  1
  S2-  S131  1  0.01185989  0.37440758  0.64936557  1
  S2-  S132  1  -0.00216421  0.62880253  0.16074557  1
  S2-  S133  1  0.02516178  0.60506265  0.65795345  1
  S2-  S134  1  -0.02266310  0.90755145  0.16503213  1
  S2-  S135  1  0.02411687  0.83512846  0.67496389  1
  S2-  S136  1  0.22848857  0.19969058  0.14398856  1
  S2-  S137  1  0.34462759  0.11198547  0.65186471  1
  S2-  S138  1  0.30954140  0.37068746  0.18289997  1
  S2-  S139  1  0.25317734  0.29165197  0.64874949  1
  S2-  S140  1  0.24556665  0.57103829  0.17736740  1
  S2-  S141  1  0.25961742  0.51938922  0.63425175  1
  S2-  S142  1  0.25799741  0.76774238  0.14634406  1
  S2-  S143  1  0.29034030  0.88670434  0.65667693  1
  S2-  S144  1  0.51130528  0.13378067  0.14021986  1
  S2-  S145  1  0.54991639  0.11805354  0.70148194  1
  S2-  S146  1  0.52818092  0.38284104  0.16251074  1
  S2-  S147  1  0.49199747  0.30090209  0.64811001  1
  S2-  S148  1  0.48828606  0.63004662  0.15955179  1
  S2-  S149  1  0.48032164  0.63909904  0.63751240  1
  S2-  S150  1  0.58568164  0.87154765  0.14221540  1
  S2-  S151  1  0.53214804  0.93132873  0.64846127  1
  S2-  S152  1  0.74504273  0.03323375  0.14108335  1
  S2-  S153  1  0.75188865  0.11730771  0.66798359  1
  S2-  S154  1  0.76750850  0.39948926  0.16038626  1
  S2-  S155  1  0.75738925  0.33291810  0.66424634  1
  S2-  S156  1  0.71969637  0.63335117  0.15871921  1
  S2-  S157  1  0.71865619  0.73398412  0.63936956  1
  S2-  S158  1  0.77852466  0.83081960  0.18545106  1
  S2-  S159  1  0.80202697  0.92026408  0.66388143  1
  S2-  S160  1  0.08895924  0.02837309  0.33905409  1
  S2-  S161  1  0.15628639  -0.03334764  0.85571616  1
  S2-  S162  1  0.15357755  0.25424774  0.33966536  1
  S2-  S163  1  0.21493250  0.25174992  0.85314428  1
  S2-  S164  1  0.21865722  0.48479176  0.35162365  1
  S2-  S165  1  0.11164089  0.48682262  0.84646101  1
  S2-  S166  1  0.10050796  0.79973654  0.35334889  1
  S2-  S167  1  0.11945209  0.72821124  0.85020106  1
  S2-  S168  1  0.37754172  -0.10684383  0.35679169  1
  S2-  S169  1  0.37397074  0.05938310  0.82863786  1
  S2-  S170  1  0.37531729  0.33067983  0.34970974  1
  S2-  S171  1  0.43125498  0.26491039  0.81259167  1
  S2-  S172  1  0.42902870  0.51947404  0.31253660  1
  S2-  S173  1  0.35592144  0.43402243  0.86007448  1
  S2-  S174  1  0.30795783  0.69276472  0.33308423  1
  S2-  S175  1  0.36072058  0.83986438  0.85851328  1
  S2-  S176  1  0.63612587  -0.07999820  0.35451801  1
  S2-  S177  1  0.66189409  0.03842888  0.82384080  1
  S2-  S178  1  0.63378424  0.32474850  0.35759460  1
  S2-  S179  1  0.64412921  0.24711650  0.83211393  1
  S2-  S180  1  0.62364290  0.51239877  0.29306409  1
  S2-  S181  1  0.62934684  0.47321593  0.84684283  1
  S2-  S182  1  0.57090559  0.73175663  0.31422261  1
  S2-  S183  1  0.61610732  0.84095065  0.85425986  1
  S2-  S184  1  0.86026379  -0.02709438  0.34171025  1
  S2-  S185  1  0.85641347  -0.04352601  0.84506078  1
  S2-  S186  1  0.86766441  0.21626652  0.35239342  1
  S2-  S187  1  0.86221775  0.26435947  0.85101049  1
  S2-  S188  1  0.79771400  0.49214134  0.35782745  1
  S2-  S189  1  0.87222330  0.50453620  0.83562228  1
  S2-  S190  1  0.78840316  0.74975229  0.35524485  1
  S2-  S191  1  0.86773024  0.72993751  0.85451020  1
  S2-  S192  1  -0.00022670  0.12984974  0.45460748  1
  S2-  S193  1  -0.00627963  0.11733408  0.95075918  1
  S2-  S194  1  0.00059715  0.38011860  0.44565573  1
  S2-  S195  1  -0.00532852  0.36575556  0.95294073  1
  S2-  S196  1  -0.00124472  0.62894412  0.45546104  1
  S2-  S197  1  -0.00538621  0.61959937  0.95473539  1
  S2-  S198  1  -0.00236527  0.87803177  0.46411095  1
  S2-  S199  1  -0.00490323  0.86418777  0.95752859  1
  S2-  S200  1  0.25054305  0.12796945  0.45137823  1
  S2-  S201  1  0.24652521  0.11586834  0.94966014  1
  S2-  S202  1  0.24569348  0.37581670  0.45676422  1
  S2-  S203  1  0.24354399  0.36668929  0.96602315  1
  S2-  S204  1  0.24636419  0.62714820  0.45087493  1
  S2-  S205  1  0.24469523  0.62044154  0.96163646  1
  S2-  S206  1  0.24882789  0.87673656  0.45369830  1
  S2-  S207  1  0.24121206  0.86386053  0.96358997  1
  S2-  S208  1  0.49846030  0.12883025  0.44105396  1
  S2-  S209  1  0.49251716  0.11960979  0.93691468  1
  S2-  S210  1  0.50269121  0.38229929  0.45204617  1
  S2-  S211  1  0.49506409  0.36622040  0.95419680  1
  S2-  S212  1  0.50547488  0.62212415  0.43055313  1
  S2-  S213  1  0.49555769  0.61861667  0.95323145  1
  S2-  S214  1  0.50172793  0.87722638  0.45260941  1
  S2-  S215  1  0.49456697  0.86709637  0.95388354  1
  S2-  S216  1  0.74947334  0.12982818  0.45633157  1
  S2-  S217  1  0.74665574  0.11784067  0.94874210  1
  S2-  S218  1  0.74845485  0.37881051  0.46175520  1
  S2-  S219  1  0.74527491  0.36637481  0.95546432  1
  S2-  S220  1  0.74462870  0.62396417  0.45517787  1
  S2-  S221  1  0.74384050  0.61827435  0.95276101  1
  S2-  S222  1  0.75210358  0.88150774  0.46193209  1
  S2-  S223  1  0.74676844  0.86551633  0.95887335  1
  S2-  S224  1  0.12236012  -0.00900334  0.05732177  1
  S2-  S225  1  0.13204710  0.00831954  0.54600756  1
  S2-  S226  1  0.11402142  0.24020599  0.04143381  1
  S2-  S227  1  0.12295578  0.25590520  0.54549841  1
  S2-  S228  1  0.11977969  0.49742709  0.05368937  1
  S2-  S229  1  0.12173437  0.50455555  0.53946722  1
  S2-  S230  1  0.11757923  0.74377974  0.05339044  1
  S2-  S231  1  0.13045598  0.75324791  0.55488371  1
  S2-  S232  1  0.37430161  -0.00955352  0.03471719  1
  S2-  S233  1  0.38014442  0.00676319  0.54267536  1
  S2-  S234  1  0.37126670  0.24214235  0.04458168  1
  S2-  S235  1  0.37829470  0.25288084  0.54401374  1
  S2-  S236  1  0.37097249  0.49523417  0.06042346  1
  S2-  S237  1  0.37577980  0.50354888  0.53032172  1
  S2-  S238  1  0.37812543  0.74647133  0.04729644  1
  S2-  S239  1  0.37330245  0.75009849  0.53652937  1
  S2-  S240  1  0.61670678  -0.00413876  0.03455313  1
  S2-  S241  1  0.62193208  0.00929397  0.54923315  1
  S2-  S242  1  0.61938184  0.24315063  0.04187182  1
  S2-  S243  1  0.62251679  0.25002023  0.55365046  1
  S2-  S244  1  0.61750688  0.49348246  0.05129001  1
  S2-  S245  1  0.62341456  0.50259626  0.55241055  1
  S2-  S246  1  0.61902869  0.74390347  0.04445372  1
  S2-  S247  1  0.62022910  0.75280090  0.53201053  1
  S2-  S248  1  0.86849381  -0.00944789  0.04754579  1
  S2-  S249  1  0.87366564  0.00649329  0.54776106  1
  S2-  S250  1  0.86915014  0.24503483  0.05358260  1
  S2-  S251  1  0.87785353  0.25415710  0.55381406  1
  S2-  S252  1  0.86982986  0.49143945  0.04673964  1
  S2-  S253  1  0.87295751  0.50339368  0.55474108  1
  S2-  S254  1  0.86535512  0.74615822  0.05846382  1
  S2-  S255  1  0.87681910  0.75461736  0.55264597  1
