# generated using pymatgen
data_La12Ce14Pr13Nd13Sm12(BiS2)64
_symmetry_space_group_name_H-M   'P 1'
_cell_length_a   16.11197632
_cell_length_b   16.17044766
_cell_length_c   27.16621202
_cell_angle_alpha   89.80745912
_cell_angle_beta   90.51806756
_cell_angle_gamma   90.05029149
_symmetry_Int_Tables_number   1
_chemical_formula_structural   La12Ce14Pr13Nd13Sm12(BiS2)64
_chemical_formula_sum   'La12 Ce14 Pr13 Nd13 Sm12 Bi64 S128'
_cell_volume   7077.49517348
_cell_formula_units_Z   1
loop_
 _symmetry_equiv_pos_site_id
 _symmetry_equiv_pos_as_xyz
  1  'x, y, z'
loop_
 _atom_type_symbol
 _atom_type_oxidation_number
  La3+  3.0
  Ce3+  3.0
  Pr3+  3.0
  Nd3+  3.0
  Sm3+  3.0
  Bi2+  2.0
  S2-  -2.0
loop_
 _atom_site_type_symbol
 _atom_site_label
 _atom_site_symmetry_multiplicity
 _atom_site_fract_x
 _atom_site_fract_y
 _atom_site_fract_z
 _atom_site_occupancy
  La3+  La0  1  0.01359021  0.60495397  0.07986807  1
  La3+  La1  1  0.12464276  0.23804308  0.92618349  1
  La3+  La2  1  0.37408077  0.24938450  0.89158032  1
  La3+  La3  1  0.12512283  0.48927268  0.93585103  1
  La3+  La4  1  0.61991425  0.23594729  0.93492733  1
  La3+  La5  1  0.86848518  0.75818341  0.40431472  1
  La3+  La6  1  0.60958518  0.00941290  0.43527697  1
  La3+  La7  1  0.38795773  0.21358806  0.38639830  1
  La3+  La8  1  0.37284103  -0.01265481  0.89609767  1
  La3+  La9  1  0.25989986  0.86610676  0.06992523  1
  La3+  La10  1  0.00129899  0.35887732  0.06391410  1
  La3+  La11  1  0.87278764  0.22792073  0.92267321  1
  Ce3+  Ce12  1  0.00475738  0.11740022  0.06361654  1
  Ce3+  Ce13  1  0.24941755  0.87294768  0.56270400  1
  Ce3+  Ce14  1  0.62735183  0.74243198  0.93630647  1
  Ce3+  Ce15  1  0.75682453  0.86329607  0.06068097  1
  Ce3+  Ce16  1  -0.00427227  0.87414126  0.55339304  1
  Ce3+  Ce17  1  0.75593857  0.36341216  0.04836899  1
  Ce3+  Ce18  1  0.49706722  0.62745719  0.56792586  1
  Ce3+  Ce19  1  0.62063251  0.75140197  0.43815976  1
  Ce3+  Ce20  1  0.11764490  0.50008645  0.44236728  1
  Ce3+  Ce21  1  0.12289881  0.00155825  0.44204590  1
  Ce3+  Ce22  1  0.12863000  0.25039887  0.43820970  1
  Ce3+  Ce23  1  0.87000165  0.25045757  0.44760497  1
  Ce3+  Ce24  1  0.37269502  -0.01199750  0.44206462  1
  Ce3+  Ce25  1  0.37302149  0.48966797  0.44056621  1
  Pr3+  Pr26  1  0.01265937  0.86328268  0.08184485  1
  Pr3+  Pr27  1  0.50407644  0.86978769  0.57714130  1
  Pr3+  Pr28  1  0.87998728  0.49146935  0.92888546  1
  Pr3+  Pr29  1  0.25934481  0.11634829  0.04888738  1
  Pr3+  Pr30  1  0.75339102  0.11342520  0.06383995  1
  Pr3+  Pr31  1  0.62247855  0.50233710  0.44766847  1
  Pr3+  Pr32  1  0.37230653  0.49260087  0.92781589  1
  Pr3+  Pr33  1  -0.00249842  0.12119630  0.56189059  1
  Pr3+  Pr34  1  0.12498744  0.74302903  0.94438790  1
  Pr3+  Pr35  1  0.37223624  0.74890087  0.43488145  1
  Pr3+  Pr36  1  0.86184803  0.00626479  0.42915346  1
  Pr3+  Pr37  1  0.36827981  0.74172367  0.92833086  1
  Pr3+  Pr38  1  0.62398032  -0.01881817  0.93133145  1
  Nd3+  Nd39  1  0.49816257  0.37807015  0.57272518  1
  Nd3+  Nd40  1  0.50231904  0.86298663  0.05944464  1
  Nd3+  Nd41  1  0.50690236  0.12279289  0.57586390  1
  Nd3+  Nd42  1  0.50409520  0.36476260  0.05955414  1
  Nd3+  Nd43  1  0.87961920  -0.01267615  0.94511577  1
  Nd3+  Nd44  1  0.13011632  -0.01140119  0.94498701  1
  Nd3+  Nd45  1  0.24723037  0.62450709  0.55599698  1
  Nd3+  Nd46  1  0.75001321  0.37684034  0.57003451  1
  Nd3+  Nd47  1  0.50287609  0.61366504  0.05223836  1
  Nd3+  Nd48  1  0.24814752  0.37375404  0.56402185  1
  Nd3+  Nd49  1  0.25514657  0.12357248  0.56072760  1
  Nd3+  Nd50  1  0.00103213  0.36548908  0.56786247  1
  Nd3+  Nd51  1  0.75845026  0.61418926  0.05712722  1
  Sm3+  Sm52  1  0.75031417  0.87236021  0.55581075  1
  Sm3+  Sm53  1  0.25815329  0.36151697  0.05275210  1
  Sm3+  Sm54  1  0.50156448  0.11255506  0.05167886  1
  Sm3+  Sm55  1  0.62747198  0.48959696  0.94142274  1
  Sm3+  Sm56  1  0.74940501  0.11909761  0.56937656  1
  Sm3+  Sm57  1  0.75282496  0.62564185  0.55448853  1
  Sm3+  Sm58  1  0.11801394  0.74883260  0.44084935  1
  Sm3+  Sm59  1  0.87294843  0.49821948  0.44471219  1
  Sm3+  Sm60  1  0.88514802  0.73877468  0.94722821  1
  Sm3+  Sm61  1  0.61829311  0.25550134  0.45399486  1
  Sm3+  Sm62  1  0.25803657  0.61191064  0.06435253  1
  Sm3+  Sm63  1  -0.00300687  0.62487057  0.55628093  1
  Bi2+  Bi64  1  -0.05561427  0.16974307  0.30653293  1
  Bi2+  Bi65  1  -0.01863764  0.10089057  0.79312277  1
  Bi2+  Bi66  1  0.07479113  0.31325548  0.29690083  1
  Bi2+  Bi67  1  -0.04892203  0.38098885  0.78926774  1
  Bi2+  Bi68  1  0.01595321  0.59614904  0.30214894  1
  Bi2+  Bi69  1  0.00206799  0.63665275  0.79049398  1
  Bi2+  Bi70  1  0.01595752  0.85656956  0.28983295  1
  Bi2+  Bi71  1  -0.02864324  0.90168318  0.81362391  1
  Bi2+  Bi72  1  0.21727006  0.08822011  0.29346041  1
  Bi2+  Bi73  1  0.22084554  0.12174312  0.78868978  1
  Bi2+  Bi74  1  0.27321432  0.42935739  0.28277645  1
  Bi2+  Bi75  1  0.26170745  0.41420818  0.78103596  1
  Bi2+  Bi76  1  0.28993725  0.62803976  0.28972240  1
  Bi2+  Bi77  1  0.28574993  0.63000954  0.78080590  1
  Bi2+  Bi78  1  0.26455308  0.90859070  0.27316151  1
  Bi2+  Bi79  1  0.25103255  0.85016772  0.79155361  1
  Bi2+  Bi80  1  0.53079168  0.12379366  0.28395546  1
  Bi2+  Bi81  1  0.50491812  0.12069505  0.77252753  1
  Bi2+  Bi82  1  0.53300939  0.38222503  0.29726962  1
  Bi2+  Bi83  1  0.52939974  0.37321908  0.77654549  1
  Bi2+  Bi84  1  0.46257192  0.60971750  0.34093978  1
  Bi2+  Bi85  1  0.48294524  0.62670334  0.78553530  1
  Bi2+  Bi86  1  0.49804755  0.79918238  0.32161966  1
  Bi2+  Bi87  1  0.52490431  0.87836278  0.77934154  1
  Bi2+  Bi88  1  0.73900878  0.15685316  0.28522486  1
  Bi2+  Bi89  1  0.74487674  0.19099934  0.80589978  1
  Bi2+  Bi90  1  0.78809239  0.40785636  0.28906967  1
  Bi2+  Bi91  1  0.77819163  0.45900050  0.80760654  1
  Bi2+  Bi92  1  0.64008450  0.63758113  0.29062620  1
  Bi2+  Bi93  1  0.80676817  0.65434984  0.81102335  1
  Bi2+  Bi94  1  0.73741574  0.90635220  0.29276803  1
  Bi2+  Bi95  1  0.78548043  0.85300438  0.79101518  1
  Bi2+  Bi96  1  0.00057019  0.06818838  0.20967465  1
  Bi2+  Bi97  1  0.06158970  -0.01135555  0.71220098  1
  Bi2+  Bi98  1  0.14579382  0.20504287  0.20944477  1
  Bi2+  Bi99  1  0.10617568  0.29480055  0.70982364  1
  Bi2+  Bi100  1  0.13980435  0.46794158  0.20685277  1
  Bi2+  Bi101  1  0.10474899  0.55036143  0.70595624  1
  Bi2+  Bi102  1  0.09522938  0.74243537  0.20293794  1
  Bi2+  Bi103  1  0.08032568  0.79495470  0.73958810  1
  Bi2+  Bi104  1  0.38526740  0.00838115  0.20041001  1
  Bi2+  Bi105  1  0.34409601  -0.00645699  0.68658879  1
  Bi2+  Bi106  1  0.37142033  0.24290532  0.17961446  1
  Bi2+  Bi107  1  0.34299009  0.25338930  0.68825733  1
  Bi2+  Bi108  1  0.41583092  0.51477709  0.21859526  1
  Bi2+  Bi109  1  0.42849379  0.53314715  0.68743994  1
  Bi2+  Bi110  1  0.35230613  0.76090620  0.21623460  1
  Bi2+  Bi111  1  0.36584811  0.72476198  0.69057633  1
  Bi2+  Bi112  1  0.56061677  -0.06067809  0.24377271  1
  Bi2+  Bi113  1  0.72033592  0.03169846  0.73158962  1
  Bi2+  Bi114  1  0.65898479  0.30923682  0.21953038  1
  Bi2+  Bi115  1  0.68450530  0.25979828  0.70607907  1
  Bi2+  Bi116  1  0.63184855  0.50002430  0.20935705  1
  Bi2+  Bi117  1  0.61647461  0.52167877  0.71584217  1
  Bi2+  Bi118  1  0.55142099  0.74850552  0.21048053  1
  Bi2+  Bi119  1  0.63985784  0.70993784  0.73335903  1
  Bi2+  Bi120  1  0.82441230  -0.01216705  0.20075305  1
  Bi2+  Bi121  1  0.88482412  0.05691282  0.67689729  1
  Bi2+  Bi122  1  0.87167741  0.22677636  0.19922344  1
  Bi2+  Bi123  1  0.87610464  0.24091035  0.71918559  1
  Bi2+  Bi124  1  0.86134779  0.49875657  0.19803226  1
  Bi2+  Bi125  1  0.85607881  0.54232261  0.71003800  1
  Bi2+  Bi126  1  0.82720622  0.73903538  0.20986653  1
  Bi2+  Bi127  1  0.83891555  0.79257155  0.68878562  1
  S2-  S128  1  0.01345659  0.23332612  0.13746182  1
  S2-  S129  1  0.01803573  0.21920715  0.64474351  1
  S2-  S130  1  0.00575149  0.46051396  0.14709625  1
  S2-  S131  1  0.01546674  0.41739032  0.66328873  1
  S2-  S132  1  -0.05015471  0.64770199  0.17327634  1
  S2-  S133  1  -0.02175164  0.62751739  0.65439504  1
  S2-  S134  1  -0.04765076  0.84696117  0.17919221  1
  S2-  S135  1  -0.00375607  0.85333170  0.65096122  1
  S2-  S136  1  0.25946546  0.10796704  0.15138373  1
  S2-  S137  1  0.23154663  0.12935504  0.66140603  1
  S2-  S138  1  0.23335863  0.35051116  0.15165619  1
  S2-  S139  1  0.23468302  0.38836735  0.66582283  1
  S2-  S140  1  0.17098411  0.60915263  0.15081484  1
  S2-  S141  1  0.21861255  0.63044383  0.65492485  1
  S2-  S142  1  0.15364607  0.86531164  0.15207221  1
  S2-  S143  1  0.25245287  0.85533107  0.66067605  1
  S2-  S144  1  0.48827555  0.12698532  0.15137408  1
  S2-  S145  1  0.44822739  0.13180108  0.67080443  1
  S2-  S146  1  0.46231450  0.37260935  0.15671600  1
  S2-  S147  1  0.48391596  0.35425559  0.67324825  1
  S2-  S148  1  0.45312114  0.63165860  0.14755609  1
  S2-  S149  1  0.51713363  0.73366237  0.64371253  1
  S2-  S150  1  0.39531156  0.87100504  0.13980486  1
  S2-  S151  1  0.48924212  0.92660948  0.67694790  1
  S2-  S152  1  0.73478140  0.11753395  0.16464797  1
  S2-  S153  1  0.64927452  0.11657207  0.64945586  1
  S2-  S154  1  0.81114023  0.36377582  0.14105816  1
  S2-  S155  1  0.75536940  0.40989320  0.66781665  1
  S2-  S156  1  0.73833068  0.61420955  0.15691167  1
  S2-  S157  1  0.75124346  0.65034223  0.65262218  1
  S2-  S158  1  0.72893332  0.85547315  0.15674618  1
  S2-  S159  1  0.72206219  0.89067240  0.65338185  1
  S2-  S160  1  0.11525958  -0.02774838  0.34431099  1
  S2-  S161  1  0.19393603  -0.01682760  0.85166396  1
  S2-  S162  1  0.21224317  0.23372834  0.35283967  1
  S2-  S163  1  0.20596268  0.27454870  0.83754427  1
  S2-  S164  1  0.12285395  0.46918836  0.34537667  1
  S2-  S165  1  0.23354374  0.51190188  0.85443936  1
  S2-  S166  1  0.10398111  0.73368836  0.34198668  1
  S2-  S167  1  0.22563485  0.73512523  0.85872444  1
  S2-  S168  1  0.47005276  0.04651368  0.36824170  1
  S2-  S169  1  0.35715760  0.02218107  0.78850962  1
  S2-  S170  1  0.38854796  0.20208830  0.27778625  1
  S2-  S171  1  0.36169832  0.21103732  0.78676790  1
  S2-  S172  1  0.38470541  0.38790237  0.35966295  1
  S2-  S173  1  0.40050329  0.40348599  0.84010757  1
  S2-  S174  1  0.35107546  0.87236060  0.36123286  1
  S2-  S175  1  0.40605027  0.83497098  0.84115511  1
  S2-  S176  1  0.72486670  0.03433596  0.35942101  1
  S2-  S177  1  0.53428691  0.01355683  0.84456289  1
  S2-  S178  1  0.56062805  0.24222594  0.36119420  1
  S2-  S179  1  0.53910194  0.24139357  0.84472267  1
  S2-  S180  1  0.64911479  0.45803299  0.35086082  1
  S2-  S181  1  0.61291197  0.46899059  0.84431693  1
  S2-  S182  1  0.70860939  0.76063242  0.35233829  1
  S2-  S183  1  0.63699440  0.84108041  0.85495873  1
  S2-  S184  1  0.89337149  -0.09358220  0.34591376  1
  S2-  S185  1  0.84797319  0.07644483  0.85922848  1
  S2-  S186  1  0.80762076  0.26585975  0.35628383  1
  S2-  S187  1  0.99648286  0.24424713  0.85145814  1
  S2-  S188  1  0.89533863  0.50121783  0.34682342  1
  S2-  S189  1  1.00718354  0.49821196  0.85672291  1
  S2-  S190  1  0.89851026  0.70383380  0.30511102  1
  S2-  S191  1  0.99666625  0.75474564  0.87204083  1
  S2-  S192  1  -0.00310498  0.12567708  0.45263881  1
  S2-  S193  1  0.00381950  0.10946136  0.95639879  1
  S2-  S194  1  -0.00383396  0.37264483  0.45804104  1
  S2-  S195  1  -0.00255980  0.36209551  0.95496044  1
  S2-  S196  1  -0.00889110  0.62835624  0.45031234  1
  S2-  S197  1  0.00190478  0.61419850  0.96608364  1
  S2-  S198  1  -0.00268274  0.87486763  0.44964452  1
  S2-  S199  1  0.00361060  0.87033240  0.97129296  1
  S2-  S200  1  0.25622770  0.12019619  0.45359162  1
  S2-  S201  1  0.26148656  0.11697122  0.94095328  1
  S2-  S202  1  0.24122920  0.37877103  0.45882320  1
  S2-  S203  1  0.25840210  0.36034912  0.94922766  1
  S2-  S204  1  0.24471473  0.62420345  0.44879107  1
  S2-  S205  1  0.25151720  0.61535759  0.96142523  1
  S2-  S206  1  0.23835204  0.86977318  0.45796925  1
  S2-  S207  1  0.25556213  0.86961558  0.95890006  1
  S2-  S208  1  0.49238630  0.13674330  0.46955635  1
  S2-  S209  1  0.49477379  0.11118087  0.94732625  1
  S2-  S210  1  0.50192046  0.37934574  0.46720195  1
  S2-  S211  1  0.50206269  0.36898583  0.95289757  1
  S2-  S212  1  0.49614138  0.62464429  0.46149909  1
  S2-  S213  1  0.50295273  0.61520925  0.94447721  1
  S2-  S214  1  0.49914496  0.87038569  0.46396862  1
  S2-  S215  1  0.49859969  0.86195324  0.95455490  1
  S2-  S216  1  0.74099835  0.13213838  0.46518728  1
  S2-  S217  1  0.74353823  0.10825068  0.95720851  1
  S2-  S218  1  0.74808747  0.37739492  0.46338457  1
  S2-  S219  1  0.75066818  0.36262456  0.94265926  1
  S2-  S220  1  0.75392697  0.62485419  0.44935040  1
  S2-  S221  1  0.75324655  0.61680483  0.94961350  1
  S2-  S222  1  0.74371536  0.87777778  0.45261169  1
  S2-  S223  1  0.75899784  0.86169490  0.95462181  1
  S2-  S224  1  0.12921958  -0.00520426  0.05181849  1
  S2-  S225  1  0.12463125  0.00001853  0.55046241  1
  S2-  S226  1  0.13400828  0.24009005  0.03589838  1
  S2-  S227  1  0.12875008  0.24643577  0.54409772  1
  S2-  S228  1  0.13776922  0.48483522  0.04386689  1
  S2-  S229  1  0.11994931  0.49954648  0.54945645  1
  S2-  S230  1  0.13233896  0.73668357  0.05100209  1
  S2-  S231  1  0.12085072  0.74767740  0.54677298  1
  S2-  S232  1  0.38305606  -0.00793782  0.04267170  1
  S2-  S233  1  0.37789540  -0.00377739  0.55114699  1
  S2-  S234  1  0.38384462  0.24083220  0.04575001  1
  S2-  S235  1  0.37513389  0.25243094  0.56318002  1
  S2-  S236  1  0.37835586  0.48949228  0.04265233  1
  S2-  S237  1  0.37140406  0.49950717  0.54982545  1
  S2-  S238  1  0.37800791  0.73520337  0.03933320  1
  S2-  S239  1  0.37085866  0.74906409  0.54422813  1
  S2-  S240  1  0.62622068  -0.01273503  0.04584920  1
  S2-  S241  1  0.62559752  -0.00344585  0.54593384  1
  S2-  S242  1  0.62667177  0.23889271  0.04591174  1
  S2-  S243  1  0.62529562  0.25483893  0.55806452  1
  S2-  S244  1  0.63006157  0.49040823  0.04715527  1
  S2-  S245  1  0.62538536  0.50319854  0.55712854  1
  S2-  S246  1  0.62828825  0.73783529  0.04477300  1
  S2-  S247  1  0.63026323  0.74767445  0.54406340  1
  S2-  S248  1  0.88089149  -0.01078132  0.05352170  1
  S2-  S249  1  0.86989487  -0.00095326  0.54075727  1
  S2-  S250  1  0.87384551  0.23371781  0.03549128  1
  S2-  S251  1  0.86784096  0.24815042  0.55460670  1
  S2-  S252  1  0.87649431  0.49057187  0.03794968  1
  S2-  S253  1  0.87649485  0.49841459  0.55070251  1
  S2-  S254  1  0.88282546  0.73891350  0.05219944  1
  S2-  S255  1  0.87320638  0.74838093  0.54345408  1
