# generated using pymatgen
data_La12Ce14Pr13Nd13Sm12(BiS2)64
_symmetry_space_group_name_H-M   'P 1'
_cell_length_a   16.07527294
_cell_length_b   16.10174565
_cell_length_c   27.36260795
_cell_angle_alpha   89.96133564
_cell_angle_beta   89.87527606
_cell_angle_gamma   89.97848639
_symmetry_Int_Tables_number   1
_chemical_formula_structural   La12Ce14Pr13Nd13Sm12(BiS2)64
_chemical_formula_sum   'La12 Ce14 Pr13 Nd13 Sm12 Bi64 S128'
_cell_volume   7082.51735289
_cell_formula_units_Z   1
loop_
 _symmetry_equiv_pos_site_id
 _symmetry_equiv_pos_as_xyz
  1  'x, y, z'
loop_
 _atom_type_symbol
 _atom_type_oxidation_number
  La3+  3.0
  Ce3+  3.0
  Pr3+  3.0
  Nd3+  3.0
  Sm3+  3.0
  Bi2+  2.0
  S2-  -2.0
loop_
 _atom_site_type_symbol
 _atom_site_label
 _atom_site_symmetry_multiplicity
 _atom_site_fract_x
 _atom_site_fract_y
 _atom_site_fract_z
 _atom_site_occupancy
  La3+  La0  1  0.22861597  0.87081132  0.59637307  1
  La3+  La1  1  0.22653157  0.62121952  0.58016326  1
  La3+  La2  1  0.87264431  0.00586598  0.38588805  1
  La3+  La3  1  0.23415573  0.12190574  0.56603976  1
  La3+  La4  1  0.86710541  0.50124099  0.90754729  1
  La3+  La5  1  0.23757116  0.36317372  0.09834843  1
  La3+  La6  1  0.74883157  0.12132684  0.07291950  1
  La3+  La7  1  0.48850562  0.10604271  0.60437933  1
  La3+  La8  1  -0.00450518  0.86686513  0.06791873  1
  La3+  La9  1  0.37558651  0.73141063  0.91784305  1
  La3+  La10  1  0.71586782  0.86080373  0.11022215  1
  La3+  La11  1  0.49236737  0.61783936  0.07042462  1
  Ce3+  Ce12  1  -0.01895363  0.37352655  0.55049871  1
  Ce3+  Ce13  1  0.12100623  0.49870835  0.93817171  1
  Ce3+  Ce14  1  0.85290560  0.50466903  0.43364686  1
  Ce3+  Ce15  1  -0.01739763  0.87220826  0.55773914  1
  Ce3+  Ce16  1  0.10649699  0.24495518  0.43834743  1
  Ce3+  Ce17  1  0.37396611  -0.00469719  0.93004957  1
  Ce3+  Ce18  1  0.60403786  0.49836902  0.44847332  1
  Ce3+  Ce19  1  0.37016350  0.49252457  0.95187672  1
  Ce3+  Ce20  1  0.60760597  -0.00276933  0.43934214  1
  Ce3+  Ce21  1  0.11946817  0.73628970  0.93488795  1
  Ce3+  Ce22  1  0.62084057  0.73980981  0.94015324  1
  Ce3+  Ce23  1  0.35912304  0.24716855  0.43831681  1
  Ce3+  Ce24  1  0.10803672  -0.00499583  0.44106761  1
  Ce3+  Ce25  1  0.24921075  0.86592541  0.04701502  1
  Pr3+  Pr26  1  -0.00343132  0.36751506  0.05303430  1
  Pr3+  Pr27  1  0.86962020  -0.00895687  0.94213981  1
  Pr3+  Pr28  1  0.47922226  0.37317577  0.56674634  1
  Pr3+  Pr29  1  0.10950514  0.74612909  0.44245072  1
  Pr3+  Pr30  1  0.73394903  0.11740897  0.56411461  1
  Pr3+  Pr31  1  0.36171818  -0.00156021  0.44041411  1
  Pr3+  Pr32  1  0.73454476  0.63065014  0.56933778  1
  Pr3+  Pr33  1  0.59887961  0.74586342  0.43111357  1
  Pr3+  Pr34  1  0.50044984  0.36722889  0.09155543  1
  Pr3+  Pr35  1  0.73338402  0.37425038  0.56367891  1
  Pr3+  Pr36  1  0.37101649  0.24569656  0.93917199  1
  Pr3+  Pr37  1  0.85174042  0.74685758  0.42640207  1
  Pr3+  Pr38  1  -0.01458728  0.11814948  0.56451734  1
  Nd3+  Nd39  1  0.73209766  0.87092768  0.55498144  1
  Nd3+  Nd40  1  0.12146515  0.24257824  0.93562638  1
  Nd3+  Nd41  1  0.85517278  0.24505312  0.44218541  1
  Nd3+  Nd42  1  0.62363724  -0.00714918  0.94342625  1
  Nd3+  Nd43  1  0.74284930  0.61524821  0.06396666  1
  Nd3+  Nd44  1  0.23351279  0.37218921  0.55234002  1
  Nd3+  Nd45  1  0.47670505  0.62568140  0.55924123  1
  Nd3+  Nd46  1  0.60343711  0.24925276  0.45205826  1
  Nd3+  Nd47  1  -0.00367992  0.61524297  0.06579984  1
  Nd3+  Nd48  1  0.49405286  0.12049234  0.06203584  1
  Nd3+  Nd49  1  -0.02003592  0.62150264  0.56587608  1
  Nd3+  Nd50  1  0.24122388  0.61661906  0.07769204  1
  Nd3+  Nd51  1  0.35153202  0.49389081  0.40534856  1
  Sm3+  Sm52  1  0.47958391  0.86269641  0.56891846  1
  Sm3+  Sm53  1  0.86960445  0.74043602  0.95095132  1
  Sm3+  Sm54  1  0.74896256  0.36346915  0.05634782  1
  Sm3+  Sm55  1  0.87326343  0.24117915  0.93706353  1
  Sm3+  Sm56  1  0.35615794  0.74525164  0.44252153  1
  Sm3+  Sm57  1  0.11941228  -0.01974162  0.92999886  1
  Sm3+  Sm58  1  0.49131386  0.86785639  0.05224377  1
  Sm3+  Sm59  1  0.24778851  0.11967801  0.05391354  1
  Sm3+  Sm60  1  0.10868028  0.49959383  0.43857186  1
  Sm3+  Sm61  1  0.62307837  0.24418882  0.94004328  1
  Sm3+  Sm62  1  0.62477513  0.48948701  0.94258675  1
  Sm3+  Sm63  1  -0.00008306  0.11638642  0.05302785  1
  Bi2+  Bi64  1  0.10833955  0.10930280  0.27683216  1
  Bi2+  Bi65  1  -0.01669817  0.15940225  0.79694761  1
  Bi2+  Bi66  1  -0.00023302  0.38381998  0.29409323  1
  Bi2+  Bi67  1  0.00735294  0.36167546  0.74104223  1
  Bi2+  Bi68  1  -0.01832244  0.58551262  0.28727339  1
  Bi2+  Bi69  1  -0.00393849  0.60450274  0.78951504  1
  Bi2+  Bi70  1  0.02305152  0.85495782  0.28662675  1
  Bi2+  Bi71  1  -0.04086696  0.87189295  0.78565182  1
  Bi2+  Bi72  1  0.29191084  0.11754190  0.32704223  1
  Bi2+  Bi73  1  0.23954863  0.15608682  0.80700894  1
  Bi2+  Bi74  1  0.26723493  0.31058450  0.28890054  1
  Bi2+  Bi75  1  0.29127786  0.41356112  0.78437950  1
  Bi2+  Bi76  1  0.27892025  0.66481632  0.31688646  1
  Bi2+  Bi77  1  0.25278268  0.63044323  0.79038047  1
  Bi2+  Bi78  1  0.28410455  0.92745985  0.29119018  1
  Bi2+  Bi79  1  0.21175368  0.90744691  0.79606959  1
  Bi2+  Bi80  1  0.47983444  0.10875895  0.28747718  1
  Bi2+  Bi81  1  0.53378989  0.16500007  0.80060311  1
  Bi2+  Bi82  1  0.54387795  0.36931741  0.30184419  1
  Bi2+  Bi83  1  0.49229510  0.41536012  0.77251041  1
  Bi2+  Bi84  1  0.56302536  0.64120442  0.30191659  1
  Bi2+  Bi85  1  0.49797073  0.60358595  0.79547762  1
  Bi2+  Bi86  1  0.47895632  0.87488185  0.28824731  1
  Bi2+  Bi87  1  0.57231252  0.86468569  0.78492197  1
  Bi2+  Bi88  1  0.72670422  0.13913126  0.29596429  1
  Bi2+  Bi89  1  0.74762872  0.06295428  0.79978350  1
  Bi2+  Bi90  1  0.80610429  0.36104020  0.29837640  1
  Bi2+  Bi91  1  0.76150756  0.36538792  0.79159922  1
  Bi2+  Bi92  1  0.80865551  0.63157094  0.24178418  1
  Bi2+  Bi93  1  0.75226369  0.63780497  0.79343581  1
  Bi2+  Bi94  1  0.74417150  0.87822806  0.28299630  1
  Bi2+  Bi95  1  0.76553045  0.84159471  0.80013231  1
  Bi2+  Bi96  1  0.19766127  -0.00600253  0.19556348  1
  Bi2+  Bi97  1  0.03194862  0.00772290  0.71184791  1
  Bi2+  Bi98  1  0.12649421  0.26717101  0.21084804  1
  Bi2+  Bi99  1  0.14642686  0.23503928  0.71188222  1
  Bi2+  Bi100  1  0.16780484  0.47087717  0.25333116  1
  Bi2+  Bi101  1  0.16715661  0.50242091  0.71148924  1
  Bi2+  Bi102  1  0.15322552  0.70783334  0.23373421  1
  Bi2+  Bi103  1  0.05294842  0.74321591  0.71722013  1
  Bi2+  Bi104  1  0.39739094  0.02260009  0.18761975  1
  Bi2+  Bi105  1  0.39168217  0.02545518  0.72733086  1
  Bi2+  Bi106  1  0.38187769  0.21545452  0.20767446  1
  Bi2+  Bi107  1  0.35424028  0.27457967  0.70267053  1
  Bi2+  Bi108  1  0.39071837  0.51976734  0.20789164  1
  Bi2+  Bi109  1  0.37643400  0.53927207  0.70730228  1
  Bi2+  Bi110  1  0.35100766  0.76851341  0.22278567  1
  Bi2+  Bi111  1  0.37976109  0.79300940  0.71108132  1
  Bi2+  Bi112  1  0.58510840  -0.00969998  0.21448093  1
  Bi2+  Bi113  1  0.69423498  -0.03966770  0.71062759  1
  Bi2+  Bi114  1  0.63587717  0.28637727  0.21652184  1
  Bi2+  Bi115  1  0.73022748  0.21263299  0.72143723  1
  Bi2+  Bi116  1  0.71885444  0.46626361  0.21546079  1
  Bi2+  Bi117  1  0.64624467  0.50711120  0.71329116  1
  Bi2+  Bi118  1  0.56111076  0.69728731  0.19799038  1
  Bi2+  Bi119  1  0.61396657  0.69985385  0.71239952  1
  Bi2+  Bi120  1  0.89785450  0.00705003  0.18685179  1
  Bi2+  Bi121  1  0.86433258  -0.00996411  0.65255305  1
  Bi2+  Bi122  1  0.88529328  0.26886948  0.20780732  1
  Bi2+  Bi123  1  0.91055098  0.17521641  0.68774640  1
  Bi2+  Bi124  1  0.91597627  0.48411006  0.19135798  1
  Bi2+  Bi125  1  0.84127513  0.47214547  0.70461753  1
  Bi2+  Bi126  1  0.97110690  0.74621353  0.19493694  1
  Bi2+  Bi127  1  0.85450445  0.74731564  0.70270746  1
  S2-  S128  1  -0.04451116  0.15295235  0.14553972  1
  S2-  S129  1  0.10651296  0.11758343  0.64195058  1
  S2-  S130  1  0.05234658  0.38037614  0.14758985  1
  S2-  S131  1  -0.03718449  0.39504476  0.64630618  1
  S2-  S132  1  0.09828106  0.65485264  0.14305706  1
  S2-  S133  1  0.08546790  0.60915808  0.64761184  1
  S2-  S134  1  0.04459888  0.92550155  0.15850296  1
  S2-  S135  1  0.06760394  0.87086023  0.64629036  1
  S2-  S136  1  0.23385119  0.19807095  0.14171973  1
  S2-  S137  1  0.33005104  0.12573938  0.65186559  1
  S2-  S138  1  0.23538185  0.50299500  0.16226412  1
  S2-  S139  1  0.21711124  0.36128252  0.65119196  1
  S2-  S140  1  0.37082526  0.65694097  0.14455452  1
  S2-  S141  1  0.26322153  0.73221744  0.65910004  1
  S2-  S142  1  0.27644457  0.86576750  0.14285483  1
  S2-  S143  1  0.26879871  0.93006598  0.69587679  1
  S2-  S144  1  0.52541646  0.21581073  0.14516377  1
  S2-  S145  1  0.49379608  0.18472530  0.70284746  1
  S2-  S146  1  0.37814970  0.36842112  0.16458861  1
  S2-  S147  1  0.46537679  0.40178538  0.66569894  1
  S2-  S148  1  0.52916973  0.51213104  0.15290677  1
  S2-  S149  1  0.48346557  0.72981943  0.64093083  1
  S2-  S150  1  0.54785928  0.84257578  0.14607694  1
  S2-  S151  1  0.47796894  0.94874155  0.65653352  1
  S2-  S152  1  0.72777592  0.02379707  0.15599688  1
  S2-  S153  1  0.65387073  0.10162772  0.65270575  1
  S2-  S154  1  0.75770486  0.26562686  0.13941368  1
  S2-  S155  1  0.70644977  0.36071309  0.66244662  1
  S2-  S156  1  0.71127899  0.68766524  0.15317350  1
  S2-  S157  1  0.86052452  0.60769368  0.64163758  1
  S2-  S158  1  0.82606519  0.84907814  0.18976845  1
  S2-  S159  1  0.71901411  0.77073889  0.63836585  1
  S2-  S160  1  0.04335785  -0.00343956  0.34921966  1
  S2-  S161  1  0.13053285  0.04771894  0.83864563  1
  S2-  S162  1  0.08143478  0.24618557  0.34182824  1
  S2-  S163  1  0.11511079  0.26073025  0.83683265  1
  S2-  S164  1  0.19755402  0.51735066  0.35420900  1
  S2-  S165  1  0.12309661  0.61340327  0.86239232  1
  S2-  S166  1  0.10960809  0.74642572  0.34092832  1
  S2-  S167  1  0.09565365  0.84582970  0.85709255  1
  S2-  S168  1  0.48496656  -0.00793610  0.36445381  1
  S2-  S169  1  0.34810503  0.00158805  0.83187031  1
  S2-  S170  1  0.38973670  0.34409001  0.35560770  1
  S2-  S171  1  0.39539854  0.22759027  0.83971239  1
  S2-  S172  1  0.40293631  0.54973752  0.31200019  1
  S2-  S173  1  0.36461757  0.57371199  0.86479026  1
  S2-  S174  1  0.46114042  0.75052128  0.36229741  1
  S2-  S175  1  0.31496580  0.77813271  0.82060432  1
  S2-  S176  1  0.70052836  -0.00103506  0.35345605  1
  S2-  S177  1  0.58366250  0.01112770  0.84650224  1
  S2-  S178  1  0.61441492  0.24544712  0.35168058  1
  S2-  S179  1  0.62832741  0.27857011  0.84310474  1
  S2-  S180  1  0.62544380  0.49806100  0.35112941  1
  S2-  S181  1  0.71289879  0.50006960  0.85572703  1
  S2-  S182  1  0.67769721  0.74778444  0.33786741  1
  S2-  S183  1  0.52941144  0.74150135  0.85614801  1
  S2-  S184  1  0.85082882  0.02114441  0.27742768  1
  S2-  S185  1  0.89505920  0.01920322  0.84317807  1
  S2-  S186  1  0.85374619  0.17690904  0.35181172  1
  S2-  S187  1  0.86532653  0.25809898  0.83959633  1
  S2-  S188  1  0.85612511  0.60972840  0.35590271  1
  S2-  S189  1  0.97408278  0.46007413  0.82956857  1
  S2-  S190  1  0.87611456  0.84252064  0.34170220  1
  S2-  S191  1  0.88472111  0.66639587  0.86079684  1
  S2-  S192  1  -0.01834688  0.12103826  0.45587045  1
  S2-  S193  1  -0.00149831  0.11524441  0.94899955  1
  S2-  S194  1  -0.01919985  0.37640779  0.44442267  1
  S2-  S195  1  -0.00677567  0.36891814  0.94695286  1
  S2-  S196  1  -0.01480988  0.62065239  0.45547311  1
  S2-  S197  1  -0.01111856  0.61290127  0.96235897  1
  S2-  S198  1  -0.01741161  0.87130868  0.45193378  1
  S2-  S199  1  -0.00912167  0.86476737  0.95937501  1
  S2-  S200  1  0.23169013  0.12284543  0.45666636  1
  S2-  S201  1  0.24505261  0.11588226  0.94948278  1
  S2-  S202  1  0.23142152  0.37343594  0.44819742  1
  S2-  S203  1  0.24393885  0.36965919  0.94096060  1
  S2-  S204  1  0.23510145  0.61925461  0.46009957  1
  S2-  S205  1  0.24611981  0.61650751  0.96564832  1
  S2-  S206  1  0.23636833  0.87147177  0.44035332  1
  S2-  S207  1  0.25134708  0.86578989  0.94333895  1
  S2-  S208  1  0.48158349  0.12742399  0.45748794  1
  S2-  S209  1  0.49884541  0.12037216  0.95509368  1
  S2-  S210  1  0.47835929  0.37837045  0.46085343  1
  S2-  S211  1  0.50019796  0.36916314  0.94550779  1
  S2-  S212  1  0.46854919  0.60998457  0.45425772  1
  S2-  S213  1  0.50376560  0.61049647  0.96102114  1
  S2-  S214  1  0.47862355  0.86940720  0.46407741  1
  S2-  S215  1  0.49573777  0.87090036  0.94972150  1
  S2-  S216  1  0.72880985  0.12672314  0.45886688  1
  S2-  S217  1  0.74682043  0.12069160  0.95478922  1
  S2-  S218  1  0.73222670  0.37324231  0.45633791  1
  S2-  S219  1  0.75216088  0.36609714  0.95308387  1
  S2-  S220  1  0.72729047  0.62289710  0.45936631  1
  S2-  S221  1  0.74630479  0.61610260  0.95974303  1
  S2-  S222  1  0.72684298  0.86702344  0.45210590  1
  S2-  S223  1  0.74651377  0.86462294  0.94489020  1
  S2-  S224  1  0.12468420  -0.00531578  0.03828718  1
  S2-  S225  1  0.11264936  -0.00996822  0.54414529  1
  S2-  S226  1  0.12161848  0.24186807  0.04063305  1
  S2-  S227  1  0.10528047  0.25028442  0.54314308  1
  S2-  S228  1  0.12281140  0.49135762  0.04471693  1
  S2-  S229  1  0.10700132  0.49553270  0.54191339  1
  S2-  S230  1  0.12088355  0.74555880  0.04077970  1
  S2-  S231  1  0.10961128  0.74796024  0.54701970  1
  S2-  S232  1  0.37221506  -0.00361591  0.03930323  1
  S2-  S233  1  0.35434848  -0.01228043  0.55022203  1
  S2-  S234  1  0.37081621  0.24619922  0.04527347  1
  S2-  S235  1  0.35933572  0.24822531  0.54658652  1
  S2-  S236  1  0.36903295  0.48316703  0.05379349  1
  S2-  S237  1  0.35366441  0.50004851  0.55979834  1
  S2-  S238  1  0.37416504  0.74535445  0.03428151  1
  S2-  S239  1  0.34848347  0.74941932  0.54457662  1
  S2-  S240  1  0.61847060  -0.00874408  0.04906974  1
  S2-  S241  1  0.60373944  -0.00819814  0.54780028  1
  S2-  S242  1  0.62093290  0.24545173  0.04160225  1
  S2-  S243  1  0.60431704  0.24642786  0.55764704  1
  S2-  S244  1  0.62482061  0.48417902  0.04634947  1
  S2-  S245  1  0.60600358  0.50273835  0.55613699  1
  S2-  S246  1  0.61969842  0.74535186  0.04363899  1
  S2-  S247  1  0.60306325  0.74442802  0.53822588  1
  S2-  S248  1  0.87221497  -0.00582771  0.04891124  1
  S2-  S249  1  0.85783303  -0.00531516  0.54320226  1
  S2-  S250  1  0.87552412  0.24088429  0.03865007  1
  S2-  S251  1  0.85716856  0.24632374  0.54924768  1
  S2-  S252  1  0.86777877  0.49137664  0.05497438  1
  S2-  S253  1  0.85511999  0.49800276  0.53918513  1
  S2-  S254  1  0.86633198  0.74164917  0.05535993  1
  S2-  S255  1  0.86124920  0.74809633  0.53850349  1
