# generated using pymatgen
data_La12Ce14Pr13Nd13Sm12(BiS2)64
_symmetry_space_group_name_H-M   'P 1'
_cell_length_a   16.16269943
_cell_length_b   16.12014067
_cell_length_c   27.17929595
_cell_angle_alpha   89.84653526
_cell_angle_beta   89.98639770
_cell_angle_gamma   90.00309897
_symmetry_Int_Tables_number   1
_chemical_formula_structural   La12Ce14Pr13Nd13Sm12(BiS2)64
_chemical_formula_sum   'La12 Ce14 Pr13 Nd13 Sm12 Bi64 S128'
_cell_volume   7081.40374143
_cell_formula_units_Z   1
loop_
 _symmetry_equiv_pos_site_id
 _symmetry_equiv_pos_as_xyz
  1  'x, y, z'
loop_
 _atom_type_symbol
 _atom_type_oxidation_number
  La3+  3.0
  Ce3+  3.0
  Pr3+  3.0
  Nd3+  3.0
  Sm3+  3.0
  Bi2+  2.0
  S2-  -2.0
loop_
 _atom_site_type_symbol
 _atom_site_label
 _atom_site_symmetry_multiplicity
 _atom_site_fract_x
 _atom_site_fract_y
 _atom_site_fract_z
 _atom_site_occupancy
  La3+  La0  1  0.36456849  0.01773512  0.92507342  1
  La3+  La1  1  0.49224839  0.90108300  0.08094362  1
  La3+  La2  1  0.49383777  0.10808118  0.56637646  1
  La3+  La3  1  0.86140607  0.25824590  0.93237922  1
  La3+  La4  1  0.61202845  0.00919250  0.93185455  1
  La3+  La5  1  0.48179527  0.61470530  0.58491267  1
  La3+  La6  1  0.24094846  0.90186040  0.07645950  1
  La3+  La7  1  0.62066236  0.52749324  0.93152761  1
  La3+  La8  1  0.49846038  0.39124065  0.06965347  1
  La3+  La9  1  -0.01203865  0.14767847  0.07704356  1
  La3+  La10  1  0.11038861  0.26982122  0.92970983  1
  La3+  La11  1  0.74692314  0.88713851  0.07040661  1
  Ce3+  Ce12  1  0.36424534  0.73700958  0.42612530  1
  Ce3+  Ce13  1  -0.00493883  0.61497819  0.55266617  1
  Ce3+  Ce14  1  0.61550512  0.76290717  0.95908521  1
  Ce3+  Ce15  1  -0.00413649  0.86955797  0.55720542  1
  Ce3+  Ce16  1  0.37311870  0.24205603  0.44576154  1
  Ce3+  Ce17  1  0.74319223  0.11432432  0.55513550  1
  Ce3+  Ce18  1  0.37083538  -0.00965509  0.43217340  1
  Ce3+  Ce19  1  0.37216500  0.52035056  0.94023046  1
  Ce3+  Ce20  1  0.11601556  -0.00584963  0.42497476  1
  Ce3+  Ce21  1  0.12065303  0.74822641  0.42651230  1
  Ce3+  Ce22  1  0.49270447  0.37188012  0.56351397  1
  Ce3+  Ce23  1  -0.00613697  0.10911411  0.56207835  1
  Ce3+  Ce24  1  0.74340248  0.36630871  0.56578806  1
  Ce3+  Ce25  1  0.48989631  0.13831069  0.05649612  1
  Pr3+  Pr26  1  0.74266716  0.61598720  0.56013907  1
  Pr3+  Pr27  1  0.12027081  0.76478899  0.94459406  1
  Pr3+  Pr28  1  0.11773550  0.48670259  0.43063713  1
  Pr3+  Pr29  1  0.87269472  0.49215255  0.87920169  1
  Pr3+  Pr30  1  0.86677835  0.25093110  0.43618266  1
  Pr3+  Pr31  1  0.36755053  0.76827084  0.95593713  1
  Pr3+  Pr32  1  0.86546908  0.01269278  0.93732188  1
  Pr3+  Pr33  1  0.37047309  0.26883255  0.93264862  1
  Pr3+  Pr34  1  0.11683606  0.01525477  0.93448484  1
  Pr3+  Pr35  1  0.24129650  0.63642271  0.07271226  1
  Pr3+  Pr36  1  0.74376941  0.64065740  0.07558556  1
  Pr3+  Pr37  1  0.11632401  0.23837050  0.42865698  1
  Pr3+  Pr38  1  0.11543512  0.52439966  0.93161165  1
  Nd3+  Nd39  1  0.24310386  0.11427836  0.55038120  1
  Nd3+  Nd40  1  0.74172957  0.39165526  0.05898801  1
  Nd3+  Nd41  1  0.61991998  0.26844747  0.94208983  1
  Nd3+  Nd42  1  0.48546769  0.63953021  0.07960704  1
  Nd3+  Nd43  1  0.86875570  0.74286636  0.44070622  1
  Nd3+  Nd44  1  -0.00291377  0.35514556  0.57136194  1
  Nd3+  Nd45  1  0.86740714  -0.00353921  0.43362511  1
  Nd3+  Nd46  1  0.61675177  0.24389773  0.44432437  1
  Nd3+  Nd47  1  0.86685630  0.75666520  0.93908135  1
  Nd3+  Nd48  1  0.61819756  -0.01041355  0.43311479  1
  Nd3+  Nd49  1  -0.00392706  0.63836435  0.06758360  1
  Nd3+  Nd50  1  0.23831122  0.61581910  0.56049886  1
  Nd3+  Nd51  1  0.36938912  0.49410533  0.44024249  1
  Sm3+  Sm52  1  0.86878742  0.49052569  0.44125703  1
  Sm3+  Sm53  1  -0.00652619  0.89216678  0.05776117  1
  Sm3+  Sm54  1  -0.00967003  0.39010236  0.05436945  1
  Sm3+  Sm55  1  0.24006962  0.14076828  0.05365220  1
  Sm3+  Sm56  1  0.61830975  0.73888147  0.43870120  1
  Sm3+  Sm57  1  0.74089493  0.13227509  0.06752834  1
  Sm3+  Sm58  1  0.24206503  0.38901320  0.05063931  1
  Sm3+  Sm59  1  0.61756355  0.49499841  0.44135438  1
  Sm3+  Sm60  1  0.73915122  0.86450265  0.55782585  1
  Sm3+  Sm61  1  0.24531805  0.86452780  0.55137755  1
  Sm3+  Sm62  1  0.49165094  0.86154957  0.54852958  1
  Sm3+  Sm63  1  0.24156249  0.36478376  0.55349481  1
  Bi2+  Bi64  1  -0.01654788  0.10552454  0.28194327  1
  Bi2+  Bi65  1  0.02462963  0.08444793  0.81205468  1
  Bi2+  Bi66  1  -0.00956343  0.36845078  0.28544590  1
  Bi2+  Bi67  1  -0.00045732  0.36270438  0.77213612  1
  Bi2+  Bi68  1  0.04043616  0.57206655  0.31589925  1
  Bi2+  Bi69  1  0.09357086  0.59187572  0.77121883  1
  Bi2+  Bi70  1  0.02295912  0.84931703  0.26345032  1
  Bi2+  Bi71  1  -0.07681153  0.89986471  0.82756856  1
  Bi2+  Bi72  1  0.22956192  0.13314885  0.27186543  1
  Bi2+  Bi73  1  0.27160421  0.11327707  0.78293523  1
  Bi2+  Bi74  1  0.25487162  0.32825722  0.28707912  1
  Bi2+  Bi75  1  0.26043094  0.40002572  0.79576912  1
  Bi2+  Bi76  1  0.23778070  0.54892208  0.29665623  1
  Bi2+  Bi77  1  0.27782401  0.59898801  0.81922344  1
  Bi2+  Bi78  1  0.27700470  0.84837015  0.30451643  1
  Bi2+  Bi79  1  0.12105550  0.87625527  0.80979734  1
  Bi2+  Bi80  1  0.50265645  0.15629932  0.30332165  1
  Bi2+  Bi81  1  0.52039755  0.09080159  0.79859828  1
  Bi2+  Bi82  1  0.55772812  0.33876417  0.27406821  1
  Bi2+  Bi83  1  0.45044969  0.36173272  0.80721701  1
  Bi2+  Bi84  1  0.51396794  0.52890721  0.27095639  1
  Bi2+  Bi85  1  0.47640737  0.65063491  0.80245608  1
  Bi2+  Bi86  1  0.53477086  0.88452756  0.30291138  1
  Bi2+  Bi87  1  0.41187780  0.86308478  0.77745123  1
  Bi2+  Bi88  1  0.78031745  0.17243665  0.26347139  1
  Bi2+  Bi89  1  0.76392124  0.13003296  0.78311854  1
  Bi2+  Bi90  1  0.74350690  0.43802452  0.29644076  1
  Bi2+  Bi91  1  0.74662744  0.37612196  0.77263316  1
  Bi2+  Bi92  1  0.84812246  0.61278243  0.29988377  1
  Bi2+  Bi93  1  0.72400134  0.65109802  0.79700631  1
  Bi2+  Bi94  1  0.79010097  0.89877319  0.29025932  1
  Bi2+  Bi95  1  0.73036586  0.85797042  0.79849700  1
  Bi2+  Bi96  1  0.14279369  -0.02051907  0.20588962  1
  Bi2+  Bi97  1  0.11409137  0.00400046  0.71903981  1
  Bi2+  Bi98  1  0.12241756  0.26052520  0.20317233  1
  Bi2+  Bi99  1  0.15523176  0.20972942  0.70555827  1
  Bi2+  Bi100  1  0.07650480  0.49123658  0.20731883  1
  Bi2+  Bi101  1  0.20435976  0.50654189  0.69280793  1
  Bi2+  Bi102  1  0.12587925  0.69207954  0.23755533  1
  Bi2+  Bi103  1  0.07378442  0.76500212  0.71613497  1
  Bi2+  Bi104  1  0.37043529  -0.03934034  0.20254210  1
  Bi2+  Bi105  1  0.37390636  -0.00253219  0.69486932  1
  Bi2+  Bi106  1  0.38251001  0.22140212  0.21966122  1
  Bi2+  Bi107  1  0.34528175  0.26996309  0.72389615  1
  Bi2+  Bi108  1  0.32575521  0.46777935  0.20374162  1
  Bi2+  Bi109  1  0.39127935  0.52181277  0.72515749  1
  Bi2+  Bi110  1  0.42770707  0.70371018  0.22620690  1
  Bi2+  Bi111  1  0.27190334  0.75952678  0.72237002  1
  Bi2+  Bi112  1  0.60560444  0.07130237  0.21829440  1
  Bi2+  Bi113  1  0.62845742  0.01412255  0.68501626  1
  Bi2+  Bi114  1  0.66178522  0.25016502  0.18595568  1
  Bi2+  Bi115  1  0.58814710  0.25546219  0.75224719  1
  Bi2+  Bi116  1  0.70102378  0.53678229  0.19757607  1
  Bi2+  Bi117  1  0.63410257  0.55266089  0.69335932  1
  Bi2+  Bi118  1  0.71362660  0.73390875  0.24643388  1
  Bi2+  Bi119  1  0.58713083  0.82498776  0.72371498  1
  Bi2+  Bi120  1  0.85415285  -0.01111117  0.19543274  1
  Bi2+  Bi121  1  0.90924209  0.00577506  0.72316561  1
  Bi2+  Bi122  1  0.85275958  0.33213986  0.20591075  1
  Bi2+  Bi123  1  0.88011513  0.19587384  0.70182858  1
  Bi2+  Bi124  1  0.89144230  0.53269501  0.16974141  1
  Bi2+  Bi125  1  0.88214355  0.52802751  0.67606748  1
  Bi2+  Bi126  1  0.90964357  0.72283441  0.20178909  1
  Bi2+  Bi127  1  0.88039429  0.74842909  0.75787476  1
  S2-  S128  1  0.06063608  0.11005654  0.17184583  1
  S2-  S129  1  0.01361915  0.21525398  0.63942135  1
  S2-  S130  1  -0.01064051  0.30209264  0.14019395  1
  S2-  S131  1  -0.00406640  0.41546520  0.66773067  1
  S2-  S132  1  0.11455984  0.63137781  0.14377534  1
  S2-  S133  1  0.00437306  0.64528038  0.64838493  1
  S2-  S134  1  -0.00366931  0.89279102  0.15747318  1
  S2-  S135  1  0.00422801  0.97792834  0.63468566  1
  S2-  S136  1  0.25937983  0.04986209  0.13866320  1
  S2-  S137  1  0.24266305  0.09546809  0.64907036  1
  S2-  S138  1  0.20499945  0.39540312  0.14736908  1
  S2-  S139  1  0.23207209  0.34913560  0.65163815  1
  S2-  S140  1  0.35201351  0.62648801  0.15283562  1
  S2-  S141  1  0.32685638  0.63183813  0.64634337  1
  S2-  S142  1  0.25740242  0.84698374  0.17670290  1
  S2-  S143  1  0.26281624  0.87126905  0.65049850  1
  S2-  S144  1  0.48303119  0.05259948  0.14230412  1
  S2-  S145  1  0.48247871  0.12126148  0.66687470  1
  S2-  S146  1  0.42238681  0.35338585  0.15927394  1
  S2-  S147  1  0.49803814  0.46375378  0.64696485  1
  S2-  S148  1  0.55609910  0.62282174  0.17281378  1
  S2-  S149  1  0.54025911  0.68756412  0.67120216  1
  S2-  S150  1  0.48909659  0.84356596  0.18224959  1
  S2-  S151  1  0.49647251  0.91216221  0.64241284  1
  S2-  S152  1  0.85182402  0.12804529  0.14434212  1
  S2-  S153  1  0.73063913  0.14376630  0.65162790  1
  S2-  S154  1  0.63614642  0.40432765  0.14064605  1
  S2-  S155  1  0.73508186  0.41392394  0.66089661  1
  S2-  S156  1  0.76239974  0.76562641  0.15063071  1
  S2-  S157  1  0.75132943  0.65156508  0.65969492  1
  S2-  S158  1  0.70196024  0.98615419  0.15060795  1
  S2-  S159  1  0.73028371  0.89649530  0.65458667  1
  S2-  S160  1  0.12055388  -0.12070695  0.34925875  1
  S2-  S161  1  0.23149106  -0.00564145  0.85592814  1
  S2-  S162  1  0.11172749  0.11713003  0.35064107  1
  S2-  S163  1  0.08606600  0.24294153  0.83017896  1
  S2-  S164  1  0.11420918  0.36175873  0.35549283  1
  S2-  S165  1  0.04192013  0.46898201  0.84353575  1
  S2-  S166  1  0.23669555  0.71367132  0.35484769  1
  S2-  S167  1  0.12631418  0.66297394  0.86228833  1
  S2-  S168  1  0.38594180  -0.02389167  0.33324492  1
  S2-  S169  1  0.48429933  -0.04038019  0.85698223  1
  S2-  S170  1  0.38298496  0.26035889  0.34970605  1
  S2-  S171  1  0.38920495  0.15856891  0.85189396  1
  S2-  S172  1  0.38528655  0.50993347  0.34081830  1
  S2-  S173  1  0.48275821  0.51429122  0.86312339  1
  S2-  S174  1  0.42386279  0.75851651  0.32946562  1
  S2-  S175  1  0.35697211  0.75307157  0.85446567  1
  S2-  S176  1  0.65294966  -0.00861084  0.33540435  1
  S2-  S177  1  0.68016102  0.01765109  0.83598628  1
  S2-  S178  1  0.64051457  0.24760566  0.34562448  1
  S2-  S179  1  0.66122760  0.25904492  0.84450155  1
  S2-  S180  1  0.62547967  0.54015942  0.34568504  1
  S2-  S181  1  0.70627721  0.49451186  0.84187119  1
  S2-  S182  1  0.63421014  0.77451089  0.34187471  1
  S2-  S183  1  0.60537701  0.69719882  0.86825319  1
  S2-  S184  1  0.91603888  -0.02153063  0.33785453  1
  S2-  S185  1  0.87156245  0.12608073  0.85909967  1
  S2-  S186  1  0.88189815  0.17469085  0.34452785  1
  S2-  S187  1  0.87141132  0.33067012  0.83759569  1
  S2-  S188  1  0.86680820  0.38723967  0.36287912  1
  S2-  S189  1  0.87571790  0.48937515  0.76878943  1
  S2-  S190  1  0.87462533  0.76920749  0.34246772  1
  S2-  S191  1  0.87198427  0.66339873  0.85357188  1
  S2-  S192  1  -0.01100312  0.11723932  0.45624880  1
  S2-  S193  1  -0.00578501  0.13959251  0.95902752  1
  S2-  S194  1  -0.00614262  0.36878257  0.46251834  1
  S2-  S195  1  -0.01591482  0.39234099  0.95120355  1
  S2-  S196  1  -0.00706186  0.61654926  0.44732992  1
  S2-  S197  1  -0.00572951  0.64274065  0.96275005  1
  S2-  S198  1  -0.00986435  0.86890507  0.45210735  1
  S2-  S199  1  -0.00718572  0.88784155  0.95342165  1
  S2-  S200  1  0.24998106  0.11699138  0.44486244  1
  S2-  S201  1  0.23797592  0.14768266  0.94973200  1
  S2-  S202  1  0.24803641  0.36614849  0.45006173  1
  S2-  S203  1  0.24289019  0.39317090  0.94446580  1
  S2-  S204  1  0.23888605  0.61090765  0.45548535  1
  S2-  S205  1  0.24560410  0.63947108  0.96600336  1
  S2-  S206  1  0.24759072  0.86887511  0.44814619  1
  S2-  S207  1  0.24027226  0.89122363  0.96382209  1
  S2-  S208  1  0.49646354  0.11472555  0.45448514  1
  S2-  S209  1  0.49620026  0.14410664  0.95267966  1
  S2-  S210  1  0.49579777  0.37156949  0.45462079  1
  S2-  S211  1  0.49513671  0.38816856  0.96011575  1
  S2-  S212  1  0.49457008  0.61828459  0.45158737  1
  S2-  S213  1  0.48765499  0.64229246  0.97110135  1
  S2-  S214  1  0.49493436  0.86258435  0.44528403  1
  S2-  S215  1  0.49316120  0.88718282  0.96964743  1
  S2-  S216  1  0.74031765  0.11789808  0.44823960  1
  S2-  S217  1  0.73634329  0.13511842  0.95939074  1
  S2-  S218  1  0.73748522  0.37220359  0.45902200  1
  S2-  S219  1  0.74353230  0.39420082  0.95325936  1
  S2-  S220  1  0.74518352  0.61646321  0.45176339  1
  S2-  S221  1  0.74258632  0.64550209  0.96771885  1
  S2-  S222  1  0.74243298  0.86534390  0.45101710  1
  S2-  S223  1  0.74353694  0.88538729  0.95675870  1
  S2-  S224  1  0.11182717  0.01987190  0.04403253  1
  S2-  S225  1  0.12475200  -0.01176612  0.53393459  1
  S2-  S226  1  0.11897238  0.26639903  0.03946677  1
  S2-  S227  1  0.12329444  0.23919861  0.53688785  1
  S2-  S228  1  0.11580891  0.50774626  0.04051690  1
  S2-  S229  1  0.11804337  0.48747974  0.54418682  1
  S2-  S230  1  0.11839388  0.77141648  0.05167980  1
  S2-  S231  1  0.11952368  0.74410841  0.54056210  1
  S2-  S232  1  0.36538942  0.02048199  0.03557673  1
  S2-  S233  1  0.36850490  -0.01207214  0.53964168  1
  S2-  S234  1  0.36383273  0.26329179  0.04238742  1
  S2-  S235  1  0.36939448  0.24178349  0.55294057  1
  S2-  S236  1  0.36642061  0.50916709  0.04810760  1
  S2-  S237  1  0.36282464  0.48962525  0.54617429  1
  S2-  S238  1  0.36553133  0.77160838  0.06151142  1
  S2-  S239  1  0.36765138  0.74134774  0.53877379  1
  S2-  S240  1  0.61757157  0.01654514  0.04178920  1
  S2-  S241  1  0.61807520  -0.01333835  0.54017348  1
  S2-  S242  1  0.61991657  0.25839203  0.04758237  1
  S2-  S243  1  0.61490654  0.24316300  0.55164068  1
  S2-  S244  1  0.61730831  0.52338248  0.04505828  1
  S2-  S245  1  0.61724968  0.49500139  0.54587125  1
  S2-  S246  1  0.61182407  0.76575088  0.06343069  1
  S2-  S247  1  0.61581516  0.74055409  0.54529545  1
  S2-  S248  1  0.86908730  0.01151659  0.04372897  1
  S2-  S249  1  0.86130720  -0.01319727  0.54150446  1
  S2-  S250  1  0.85941474  0.26576625  0.04199785  1
  S2-  S251  1  0.86463119  0.24094883  0.54498849  1
  S2-  S252  1  0.86876526  0.51373954  0.05564350  1
  S2-  S253  1  0.87028496  0.48900372  0.54644396  1
  S2-  S254  1  0.87608997  0.76390978  0.04728777  1
  S2-  S255  1  0.86794177  0.74454787  0.54760988  1
