# generated using pymatgen
data_La12Ce14Pr13Nd13Sm12(BiS2)64
_symmetry_space_group_name_H-M   'P 1'
_cell_length_a   16.17324932
_cell_length_b   16.19214740
_cell_length_c   27.20705416
_cell_angle_alpha   90.04288374
_cell_angle_beta   90.02922416
_cell_angle_gamma   90.05641239
_symmetry_Int_Tables_number   1
_chemical_formula_structural   La12Ce14Pr13Nd13Sm12(BiS2)64
_chemical_formula_sum   'La12 Ce14 Pr13 Nd13 Sm12 Bi64 S128'
_cell_volume   7124.96708638
_cell_formula_units_Z   1
loop_
 _symmetry_equiv_pos_site_id
 _symmetry_equiv_pos_as_xyz
  1  'x, y, z'
loop_
 _atom_type_symbol
 _atom_type_oxidation_number
  La3+  3.0
  Ce3+  3.0
  Pr3+  3.0
  Nd3+  3.0
  Sm3+  3.0
  Bi2+  2.0
  S2-  -2.0
loop_
 _atom_site_type_symbol
 _atom_site_label
 _atom_site_symmetry_multiplicity
 _atom_site_fract_x
 _atom_site_fract_y
 _atom_site_fract_z
 _atom_site_occupancy
  La3+  La0  1  0.73419210  0.12913858  0.05080950  1
  La3+  La1  1  0.73592471  0.62971215  0.06599283  1
  La3+  La2  1  0.60492682  0.50514090  0.93317202  1
  La3+  La3  1  0.36092884  0.75774514  0.94764830  1
  La3+  La4  1  0.48139403  0.88883734  0.07708808  1
  La3+  La5  1  0.11822990  0.00832770  0.41361433  1
  La3+  La6  1  0.22654848  0.13315241  0.07589834  1
  La3+  La7  1  0.48298649  0.63963259  0.08980315  1
  La3+  La8  1  0.49883994  0.37967215  0.07979661  1
  La3+  La9  1  0.23299503  0.62787284  0.07606483  1
  La3+  La10  1  0.61818725  -0.01039780  0.89325690  1
  La3+  La11  1  0.01950490  0.37415042  0.58931987  1
  Ce3+  Ce12  1  0.63554658  -0.00134654  0.43945248  1
  Ce3+  Ce13  1  0.86142281  0.00526076  0.93861356  1
  Ce3+  Ce14  1  0.36751236  0.50462143  0.95120478  1
  Ce3+  Ce15  1  0.38285592  0.75376272  0.43162341  1
  Ce3+  Ce16  1  0.50795061  0.87334643  0.55495730  1
  Ce3+  Ce17  1  0.60870275  0.75817761  0.95016946  1
  Ce3+  Ce18  1  0.50762800  0.12578948  0.55300513  1
  Ce3+  Ce19  1  0.85789223  0.25545884  0.93287676  1
  Ce3+  Ce20  1  0.25840040  0.12384330  0.54804013  1
  Ce3+  Ce21  1  0.01003955  0.87945401  0.56685807  1
  Ce3+  Ce22  1  0.88220785  0.00215436  0.44910438  1
  Ce3+  Ce23  1  0.88305149  0.49787065  0.44514298  1
  Ce3+  Ce24  1  0.12941855  0.75475553  0.44565561  1
  Ce3+  Ce25  1  -0.00941906  0.88077932  0.05843291  1
  Pr3+  Pr26  1  0.64604607  0.75740259  0.41420780  1
  Pr3+  Pr27  1  0.85919794  0.75484642  0.94068127  1
  Pr3+  Pr28  1  0.22684339  0.88263899  0.07305566  1
  Pr3+  Pr29  1  0.11569566  0.00642082  0.93016602  1
  Pr3+  Pr30  1  0.88081506  0.25222736  0.44319940  1
  Pr3+  Pr31  1  0.38400975  0.00055261  0.43382448  1
  Pr3+  Pr32  1  0.39067420  0.25493754  0.42368393  1
  Pr3+  Pr33  1  0.63724889  0.25500503  0.43647552  1
  Pr3+  Pr34  1  0.48560536  0.12713164  0.06422183  1
  Pr3+  Pr35  1  0.11674886  0.51069384  0.93300747  1
  Pr3+  Pr36  1  0.76311040  0.38303451  0.57966665  1
  Pr3+  Pr37  1  0.86857511  0.51163340  0.90049916  1
  Pr3+  Pr38  1  0.37599381  0.50501479  0.42142460  1
  Nd3+  Nd39  1  0.75519540  0.12891778  0.56751812  1
  Nd3+  Nd40  1  0.01214473  0.11923528  0.56829938  1
  Nd3+  Nd41  1  0.50921917  0.37773034  0.55325121  1
  Nd3+  Nd42  1  0.23696274  0.38155644  0.05864957  1
  Nd3+  Nd43  1  0.11100572  0.75537351  0.94154817  1
  Nd3+  Nd44  1  0.12735958  0.49957052  0.43294674  1
  Nd3+  Nd45  1  0.36270267  0.25216839  0.95008332  1
  Nd3+  Nd46  1  0.75514050  0.87457111  0.56335497  1
  Nd3+  Nd47  1  0.64223116  0.50377568  0.42904166  1
  Nd3+  Nd48  1  0.50769044  0.62600947  0.54609189  1
  Nd3+  Nd49  1  0.74517786  0.62821220  0.56687460  1
  Nd3+  Nd50  1  0.26042734  0.37685324  0.55490324  1
  Nd3+  Nd51  1  0.59949903  0.25192557  0.92783877  1
  Sm3+  Sm52  1  0.88206097  0.75099798  0.45089153  1
  Sm3+  Sm53  1  0.13264028  0.25208458  0.43972226  1
  Sm3+  Sm54  1  0.73587647  0.38106361  0.04853331  1
  Sm3+  Sm55  1  -0.01591060  0.62594610  0.05404464  1
  Sm3+  Sm56  1  0.11148403  0.25679780  0.94076357  1
  Sm3+  Sm57  1  0.35924452  0.00301273  0.94259969  1
  Sm3+  Sm58  1  -0.01649023  0.38249691  0.04942229  1
  Sm3+  Sm59  1  -0.01294623  0.13323571  0.05375319  1
  Sm3+  Sm60  1  0.00840624  0.62353491  0.55602643  1
  Sm3+  Sm61  1  0.73629340  0.88345709  0.06042183  1
  Sm3+  Sm62  1  0.25780667  0.62559903  0.55010058  1
  Sm3+  Sm63  1  0.25730204  0.87615669  0.55012901  1
  Bi2+  Bi64  1  -0.02814827  0.22941011  0.30823270  1
  Bi2+  Bi65  1  0.04729184  0.04399419  0.80506637  1
  Bi2+  Bi66  1  -0.00687103  0.42416356  0.33406504  1
  Bi2+  Bi67  1  0.09230060  0.38796278  0.77993382  1
  Bi2+  Bi68  1  -0.03009732  0.61216561  0.29530551  1
  Bi2+  Bi69  1  0.01558788  0.65554529  0.79585483  1
  Bi2+  Bi70  1  0.01481432  0.87476626  0.30141430  1
  Bi2+  Bi71  1  -0.00027214  0.85448324  0.81004672  1
  Bi2+  Bi72  1  0.22111610  0.17173523  0.27422392  1
  Bi2+  Bi73  1  0.22884216  0.13366564  0.81405325  1
  Bi2+  Bi74  1  0.16377038  0.40526151  0.27972397  1
  Bi2+  Bi75  1  0.28543214  0.40647465  0.80073454  1
  Bi2+  Bi76  1  0.17345075  0.62702429  0.28743679  1
  Bi2+  Bi77  1  0.27804383  0.60125125  0.79254771  1
  Bi2+  Bi78  1  0.27065989  0.86147068  0.30144995  1
  Bi2+  Bi79  1  0.23012330  0.82740086  0.80638287  1
  Bi2+  Bi80  1  0.54357193  0.13675085  0.28611804  1
  Bi2+  Bi81  1  0.48221539  0.12394442  0.79341515  1
  Bi2+  Bi82  1  0.52005039  0.37555568  0.27717636  1
  Bi2+  Bi83  1  0.51738893  0.38495599  0.80837137  1
  Bi2+  Bi84  1  0.48921258  0.60848639  0.28268949  1
  Bi2+  Bi85  1  0.46454925  0.62647738  0.74809133  1
  Bi2+  Bi86  1  0.52363268  0.93794374  0.28959815  1
  Bi2+  Bi87  1  0.47763578  0.86855033  0.78901240  1
  Bi2+  Bi88  1  0.73607352  0.10764372  0.30262349  1
  Bi2+  Bi89  1  0.86619560  0.09620023  0.77894876  1
  Bi2+  Bi90  1  0.77385208  0.36239769  0.28633547  1
  Bi2+  Bi91  1  0.73986929  0.35060277  0.77826786  1
  Bi2+  Bi92  1  0.74419111  0.61634300  0.30289384  1
  Bi2+  Bi93  1  0.74284106  0.60563472  0.78281535  1
  Bi2+  Bi94  1  0.80443840  0.88776578  0.29761967  1
  Bi2+  Bi95  1  0.80260602  0.84699918  0.79037305  1
  Bi2+  Bi96  1  0.07852698  0.01178686  0.21557704  1
  Bi2+  Bi97  1  0.14785158  -0.03382144  0.71135175  1
  Bi2+  Bi98  1  0.09034592  0.26553611  0.20836891  1
  Bi2+  Bi99  1  0.16069697  0.23923165  0.70575424  1
  Bi2+  Bi100  1  0.12888134  0.54718766  0.18689132  1
  Bi2+  Bi101  1  0.16529714  0.52208511  0.70663098  1
  Bi2+  Bi102  1  0.11009807  0.74668177  0.20283990  1
  Bi2+  Bi103  1  0.08668088  0.77444116  0.71124780  1
  Bi2+  Bi104  1  0.38467525  0.01153086  0.21688582  1
  Bi2+  Bi105  1  0.32613539  0.04410946  0.72577201  1
  Bi2+  Bi106  1  0.39532208  0.23860527  0.23263121  1
  Bi2+  Bi107  1  0.34719644  0.24412225  0.74103031  1
  Bi2+  Bi108  1  0.31020637  0.46818554  0.20529443  1
  Bi2+  Bi109  1  0.36444604  0.47847774  0.69754314  1
  Bi2+  Bi110  1  0.36739051  0.76060171  0.22072771  1
  Bi2+  Bi111  1  0.32674856  0.75667559  0.71029475  1
  Bi2+  Bi112  1  0.64907936  -0.00533519  0.20665100  1
  Bi2+  Bi113  1  0.60786873  -0.01469937  0.68515674  1
  Bi2+  Bi114  1  0.67317774  0.23564225  0.21107236  1
  Bi2+  Bi115  1  0.60487189  0.21303971  0.70354269  1
  Bi2+  Bi116  1  0.68917279  0.49632856  0.20335960  1
  Bi2+  Bi117  1  0.60427210  0.50119781  0.68209537  1
  Bi2+  Bi118  1  0.64167131  0.74326004  0.20668608  1
  Bi2+  Bi119  1  0.61932415  0.74529894  0.75974458  1
  Bi2+  Bi120  1  0.90304380  0.06133538  0.24793298  1
  Bi2+  Bi121  1  0.87703646  -0.05610602  0.70080348  1
  Bi2+  Bi122  1  0.88068690  0.26267460  0.20476613  1
  Bi2+  Bi123  1  0.93463328  0.25988863  0.73391421  1
  Bi2+  Bi124  1  0.90797722  0.46679466  0.22610409  1
  Bi2+  Bi125  1  0.90394196  0.51307752  0.70456226  1
  Bi2+  Bi126  1  0.91203654  0.76837931  0.23064022  1
  Bi2+  Bi127  1  0.89313610  0.73555600  0.71023316  1
  S2-  S128  1  0.08005226  0.12529232  0.13818587  1
  S2-  S129  1  0.01841762  0.21527846  0.65173007  1
  S2-  S130  1  -0.01372451  0.37210597  0.14795877  1
  S2-  S131  1  -0.11113052  0.36677214  0.65812768  1
  S2-  S132  1  -0.00347603  0.64585173  0.15154463  1
  S2-  S133  1  0.02676814  0.53950369  0.64100433  1
  S2-  S134  1  0.08704988  0.89232780  0.14111004  1
  S2-  S135  1  0.01984922  0.99101233  0.64242182  1
  S2-  S136  1  0.30872682  0.13052917  0.16809998  1
  S2-  S137  1  0.24550056  0.11795028  0.64576216  1
  S2-  S138  1  0.22847659  0.34879142  0.15579551  1
  S2-  S139  1  0.17550457  0.37692046  0.64220555  1
  S2-  S140  1  0.34073679  0.63019782  0.15818221  1
  S2-  S141  1  0.28047387  0.61849966  0.64738004  1
  S2-  S142  1  0.31468332  0.88338257  0.16288642  1
  S2-  S143  1  0.25990919  0.87357332  0.64873350  1
  S2-  S144  1  0.50245256  0.02389034  0.14634651  1
  S2-  S145  1  0.49881890  0.11564017  0.65079556  1
  S2-  S146  1  0.44857759  0.38917985  0.17847062  1
  S2-  S147  1  0.47773387  0.38339237  0.65179408  1
  S2-  S148  1  0.55997118  0.58916317  0.18071679  1
  S2-  S149  1  0.59419986  0.64168662  0.63234171  1
  S2-  S150  1  0.50493050  0.78279628  0.15853619  1
  S2-  S151  1  0.50338420  0.87469040  0.65293015  1
  S2-  S152  1  0.73780325  0.11328969  0.15159717  1
  S2-  S153  1  0.72874701  0.11964136  0.66679127  1
  S2-  S154  1  0.65925187  0.36474049  0.13665229  1
  S2-  S155  1  0.68397132  0.34269210  0.67242490  1
  S2-  S156  1  0.76175099  0.63397496  0.16656323  1
  S2-  S157  1  0.76206499  0.52924657  0.64843123  1
  S2-  S158  1  0.73021600  0.87031914  0.15947188  1
  S2-  S159  1  0.72951433  0.87364344  0.66169462  1
  S2-  S160  1  0.16246951  -0.02055414  0.31229861  1
  S2-  S161  1  0.24427495  -0.02548440  0.86280725  1
  S2-  S162  1  0.11187615  0.16501108  0.35563203  1
  S2-  S163  1  0.10886472  0.24981934  0.84296894  1
  S2-  S164  1  0.23117961  0.50517461  0.35431718  1
  S2-  S165  1  0.02509173  0.50669757  0.84844951  1
  S2-  S166  1  0.14040622  0.76993474  0.34877872  1
  S2-  S167  1  0.15741926  0.67659192  0.85687691  1
  S2-  S168  1  0.37172804  -0.00716414  0.33286147  1
  S2-  S169  1  0.45300422  -0.00409439  0.85774558  1
  S2-  S170  1  0.31698629  0.26059578  0.32857049  1
  S2-  S171  1  0.45054952  0.25974402  0.86419331  1
  S2-  S172  1  0.41378132  0.47723287  0.32035991  1
  S2-  S173  1  0.45934567  0.50424222  0.86802729  1
  S2-  S174  1  0.38198532  0.73039250  0.33317330  1
  S2-  S175  1  0.37898809  0.77406189  0.84652565  1
  S2-  S176  1  0.65700806  -0.08665291  0.35458972  1
  S2-  S177  1  0.60902324  0.02499643  0.78542483  1
  S2-  S178  1  0.52731249  0.27088998  0.35588834  1
  S2-  S179  1  0.64352210  0.25025321  0.82797012  1
  S2-  S180  1  0.60404222  0.51430246  0.32715564  1
  S2-  S181  1  0.65737709  0.47998723  0.83489647  1
  S2-  S182  1  0.60794837  0.72177662  0.31258403  1
  S2-  S183  1  0.60397037  0.82132110  0.85781372  1
  S2-  S184  1  0.95633119  0.00071127  0.36232141  1
  S2-  S185  1  0.78629544  -0.01051947  0.85037999  1
  S2-  S186  1  0.76454532  0.25106071  0.36343733  1
  S2-  S187  1  0.86585529  0.25266824  0.83443221  1
  S2-  S188  1  0.78666769  0.49548941  0.36509331  1
  S2-  S189  1  0.84885020  0.46853305  0.80075415  1
  S2-  S190  1  0.80753965  0.74990103  0.36148203  1
  S2-  S191  1  0.84626618  0.66701326  0.85319360  1
  S2-  S192  1  0.00485288  0.12917221  0.46203023  1
  S2-  S193  1  -0.01290817  0.13276446  0.94872332  1
  S2-  S194  1  0.00991146  0.37269436  0.45805708  1
  S2-  S195  1  -0.01497742  0.38079399  0.94514961  1
  S2-  S196  1  0.00583453  0.62768958  0.45073989  1
  S2-  S197  1  -0.01502031  0.62883302  0.95183298  1
  S2-  S198  1  0.00413988  0.87453799  0.45990758  1
  S2-  S199  1  -0.01302723  0.88017796  0.95103162  1
  S2-  S200  1  0.26081210  0.12792013  0.44266720  1
  S2-  S201  1  0.23408240  0.13426505  0.96077628  1
  S2-  S202  1  0.25821016  0.37189164  0.44872555  1
  S2-  S203  1  0.23769976  0.37925346  0.95150489  1
  S2-  S204  1  0.25491325  0.63225567  0.44729371  1
  S2-  S205  1  0.23984812  0.62760055  0.96576223  1
  S2-  S206  1  0.25419325  0.88036596  0.44474286  1
  S2-  S207  1  0.23165628  0.87702306  0.96515366  1
  S2-  S208  1  0.51142485  0.12362753  0.44659821  1
  S2-  S209  1  0.48396710  0.12463628  0.95869751  1
  S2-  S210  1  0.50790321  0.38894039  0.44851428  1
  S2-  S211  1  0.48652384  0.37776935  0.96837869  1
  S2-  S212  1  0.51019818  0.62819448  0.43972391  1
  S2-  S213  1  0.48632517  0.63513957  0.96717425  1
  S2-  S214  1  0.50836993  0.87456076  0.44643723  1
  S2-  S215  1  0.48473900  0.88254767  0.96377435  1
  S2-  S216  1  0.75656661  0.12268474  0.46058539  1
  S2-  S217  1  0.73051612  0.12886264  0.94239626  1
  S2-  S218  1  0.75852356  0.37725414  0.46688525  1
  S2-  S219  1  0.73825211  0.38248431  0.94444464  1
  S2-  S220  1  0.75882772  0.62916826  0.46078211  1
  S2-  S221  1  0.73447378  0.62840908  0.95581213  1
  S2-  S222  1  0.76271665  0.87714493  0.45884164  1
  S2-  S223  1  0.73655115  0.88083363  0.95567204  1
  S2-  S224  1  0.10697720  0.00874514  0.03666155  1
  S2-  S225  1  0.13641035  -0.00161594  0.53558662  1
  S2-  S226  1  0.10763557  0.26129026  0.04410379  1
  S2-  S227  1  0.13619512  0.24895435  0.54244560  1
  S2-  S228  1  0.10883942  0.50362083  0.04263271  1
  S2-  S229  1  0.13658247  0.50349497  0.53761045  1
  S2-  S230  1  0.10819477  0.74869309  0.04654371  1
  S2-  S231  1  0.13331692  0.74924742  0.55214265  1
  S2-  S232  1  0.35173565  0.00997269  0.04882980  1
  S2-  S233  1  0.38213361  -0.00234552  0.54163981  1
  S2-  S234  1  0.36297966  0.25633974  0.05616511  1
  S2-  S235  1  0.38380875  0.25222978  0.53816060  1
  S2-  S236  1  0.36484285  0.50256992  0.05671167  1
  S2-  S237  1  0.38119822  0.50348548  0.53548590  1
  S2-  S238  1  0.35516990  0.75871621  0.05527010  1
  S2-  S239  1  0.38041062  0.75050883  0.54032950  1
  S2-  S240  1  0.61616621  0.00212072  0.04791327  1
  S2-  S241  1  0.63296356  0.00013029  0.54643896  1
  S2-  S242  1  0.61057641  0.25179669  0.03781313  1
  S2-  S243  1  0.63132126  0.25233364  0.54607863  1
  S2-  S244  1  0.61245176  0.50751940  0.04672659  1
  S2-  S245  1  0.63093051  0.50020925  0.53779684  1
  S2-  S246  1  0.61453000  0.75883951  0.05413862  1
  S2-  S247  1  0.63204079  0.75578380  0.53211599  1
  S2-  S248  1  0.86609337  0.00545714  0.04737910  1
  S2-  S249  1  0.87675426  0.00082666  0.55311770  1
  S2-  S250  1  0.86188341  0.25710305  0.04196564  1
  S2-  S251  1  0.88182560  0.24771704  0.55080519  1
  S2-  S252  1  0.86044332  0.50245366  0.05296119  1
  S2-  S253  1  0.88465988  0.50566218  0.54735435  1
  S2-  S254  1  0.86432320  0.75634604  0.04915920  1
  S2-  S255  1  0.88303860  0.74885596  0.55595570  1
