# generated using pymatgen
data_La12Ce14Pr13Nd13Sm12(BiS2)64
_symmetry_space_group_name_H-M   'P 1'
_cell_length_a   16.16217724
_cell_length_b   16.17302951
_cell_length_c   27.35959416
_cell_angle_alpha   90.12505041
_cell_angle_beta   90.02907491
_cell_angle_gamma   90.02577634
_symmetry_Int_Tables_number   1
_chemical_formula_structural   La12Ce14Pr13Nd13Sm12(BiS2)64
_chemical_formula_sum   'La12 Ce14 Pr13 Nd13 Sm12 Bi64 S128'
_cell_volume   7151.54310537
_cell_formula_units_Z   1
loop_
 _symmetry_equiv_pos_site_id
 _symmetry_equiv_pos_as_xyz
  1  'x, y, z'
loop_
 _atom_type_symbol
 _atom_type_oxidation_number
  La3+  3.0
  Ce3+  3.0
  Pr3+  3.0
  Nd3+  3.0
  Sm3+  3.0
  Bi2+  2.0
  S2-  -2.0
loop_
 _atom_site_type_symbol
 _atom_site_label
 _atom_site_symmetry_multiplicity
 _atom_site_fract_x
 _atom_site_fract_y
 _atom_site_fract_z
 _atom_site_occupancy
  La3+  La0  1  0.10757837  0.22804001  0.91937698  1
  La3+  La1  1  0.36875025  0.75571784  0.38573106  1
  La3+  La2  1  0.52701891  0.35398598  0.57660505  1
  La3+  La3  1  0.27609400  0.61138233  0.57144915  1
  La3+  La4  1  0.23467594  0.35666582  0.06235246  1
  La3+  La5  1  0.14667437  -0.01247033  0.44295404  1
  La3+  La6  1  0.74409038  0.11710176  0.10735238  1
  La3+  La7  1  0.51753081  0.86516030  0.56649397  1
  La3+  La8  1  0.73421282  0.86434269  0.07058134  1
  La3+  La9  1  0.01857509  0.86287041  0.57262825  1
  La3+  La10  1  0.65014277  0.24427306  0.42703299  1
  La3+  La11  1  0.26069162  0.12701587  0.58753398  1
  Ce3+  Ce12  1  0.85883964  0.73550741  0.94477639  1
  Ce3+  Ce13  1  0.61084337  0.73508341  0.94196549  1
  Ce3+  Ce14  1  0.36509965  0.73432789  0.94099310  1
  Ce3+  Ce15  1  0.61270748  -0.01233281  0.94229689  1
  Ce3+  Ce16  1  -0.01260988  0.61253858  0.05531078  1
  Ce3+  Ce17  1  0.11124045  0.48518424  0.94207916  1
  Ce3+  Ce18  1  0.40353371  0.49710674  0.43640654  1
  Ce3+  Ce19  1  0.73632767  0.60947930  0.05352211  1
  Ce3+  Ce20  1  0.64058472  -0.01075054  0.44384265  1
  Ce3+  Ce21  1  -0.00926604  0.86087768  0.05851518  1
  Ce3+  Ce22  1  0.39287931  0.24163507  0.43781622  1
  Ce3+  Ce23  1  0.77004203  0.86468927  0.55377994  1
  Ce3+  Ce24  1  0.86391816  -0.01620560  0.94481156  1
  Ce3+  Ce25  1  0.77022017  0.36055290  0.56198240  1
  Pr3+  Pr26  1  0.64507898  0.49244055  0.44270147  1
  Pr3+  Pr27  1  0.73475256  0.35698937  0.05603690  1
  Pr3+  Pr28  1  -0.00463353  0.10302037  0.07039895  1
  Pr3+  Pr29  1  0.14826285  0.23877343  0.42927598  1
  Pr3+  Pr30  1  0.76358668  0.62200827  0.57533153  1
  Pr3+  Pr31  1  0.48672573  0.86305505  0.05642505  1
  Pr3+  Pr32  1  0.51681760  0.61468696  0.56866020  1
  Pr3+  Pr33  1  0.89457471  -0.01381134  0.43237528  1
  Pr3+  Pr34  1  0.39093631  -0.01123984  0.45044463  1
  Pr3+  Pr35  1  0.90063719  0.23220654  0.41941864  1
  Pr3+  Pr36  1  0.86470576  0.23267634  0.93959735  1
  Pr3+  Pr37  1  0.02295230  0.61302530  0.57786190  1
  Pr3+  Pr38  1  0.60847267  0.22467504  0.92601805  1
  Nd3+  Nd39  1  0.48602575  0.60788089  0.06219762  1
  Nd3+  Nd40  1  0.35386316  0.23621278  0.92752218  1
  Nd3+  Nd41  1  0.14547889  0.49565008  0.43943201  1
  Nd3+  Nd42  1  0.01647425  0.36332600  0.55075725  1
  Nd3+  Nd43  1  0.14452845  0.73613065  0.45164518  1
  Nd3+  Nd44  1  0.23798202  0.86088871  0.05696494  1
  Nd3+  Nd45  1  0.36252324  0.48628617  0.93664131  1
  Nd3+  Nd46  1  0.89169112  0.74048435  0.43686782  1
  Nd3+  Nd47  1  0.89069020  0.49533570  0.44730752  1
  Nd3+  Nd48  1  0.23432317  0.60937694  0.05871826  1
  Nd3+  Nd49  1  0.26865035  0.36383118  0.55354978  1
  Nd3+  Nd50  1  0.77142404  0.11622794  0.55641329  1
  Nd3+  Nd51  1  0.11183926  0.73705296  0.93021217  1
  Sm3+  Sm52  1  0.63375656  0.73938548  0.43884051  1
  Sm3+  Sm53  1  0.86292150  0.48554421  0.94440007  1
  Sm3+  Sm54  1  0.10358304  -0.01943471  0.92476858  1
  Sm3+  Sm55  1  0.35932547  -0.01329399  0.94601549  1
  Sm3+  Sm56  1  0.48744767  0.35814747  0.05167777  1
  Sm3+  Sm57  1  0.51828962  0.11709756  0.55256814  1
  Sm3+  Sm58  1  0.49009267  0.11410117  0.05898591  1
  Sm3+  Sm59  1  0.26827396  0.86772237  0.56444477  1
  Sm3+  Sm60  1  -0.01563420  0.35504531  0.05876923  1
  Sm3+  Sm61  1  0.23376606  0.11070245  0.05581819  1
  Sm3+  Sm62  1  0.61300445  0.47778370  0.93740724  1
  Sm3+  Sm63  1  0.01136913  0.11484983  0.56596952  1
  Bi2+  Bi64  1  0.00516193  0.12491798  0.28841174  1
  Bi2+  Bi65  1  -0.00699956  0.11524837  0.79159828  1
  Bi2+  Bi66  1  0.00440146  0.43775232  0.25709013  1
  Bi2+  Bi67  1  -0.00232710  0.39928880  0.80297209  1
  Bi2+  Bi68  1  -0.05453513  0.62226610  0.31790213  1
  Bi2+  Bi69  1  0.05733153  0.65082943  0.80265743  1
  Bi2+  Bi70  1  -0.00523641  0.88960044  0.27582472  1
  Bi2+  Bi71  1  -0.00888330  0.85681159  0.79681682  1
  Bi2+  Bi72  1  0.20151602  0.13108834  0.28695530  1
  Bi2+  Bi73  1  0.27779744  0.14277427  0.80050821  1
  Bi2+  Bi74  1  0.27701290  0.34662784  0.28485710  1
  Bi2+  Bi75  1  0.19988159  0.39971244  0.71519993  1
  Bi2+  Bi76  1  0.20685965  0.60323939  0.29967006  1
  Bi2+  Bi77  1  0.22336505  0.61532668  0.74606187  1
  Bi2+  Bi78  1  0.24551496  0.88925538  0.29619847  1
  Bi2+  Bi79  1  0.31592092  0.87555312  0.78405488  1
  Bi2+  Bi80  1  0.46104140  0.13076715  0.28966197  1
  Bi2+  Bi81  1  0.56010630  0.16104661  0.77562391  1
  Bi2+  Bi82  1  0.46015045  0.38331552  0.25238138  1
  Bi2+  Bi83  1  0.49338035  0.38764567  0.80849315  1
  Bi2+  Bi84  1  0.50092780  0.59580254  0.29570082  1
  Bi2+  Bi85  1  0.47424665  0.64635183  0.80692294  1
  Bi2+  Bi86  1  0.57129733  0.85920245  0.28273082  1
  Bi2+  Bi87  1  0.56433237  0.91302904  0.81232304  1
  Bi2+  Bi88  1  0.71877085  0.13264167  0.30503035  1
  Bi2+  Bi89  1  0.76169800  0.12688100  0.78287978  1
  Bi2+  Bi90  1  0.70325813  0.41152235  0.31019833  1
  Bi2+  Bi91  1  0.75011101  0.39714188  0.78240826  1
  Bi2+  Bi92  1  0.76175324  0.69241821  0.32132237  1
  Bi2+  Bi93  1  0.78635359  0.63764221  0.79477678  1
  Bi2+  Bi94  1  0.76839663  0.88316613  0.29490387  1
  Bi2+  Bi95  1  0.74592054  0.92966333  0.77568039  1
  Bi2+  Bi96  1  0.14717989  -0.00579253  0.19454879  1
  Bi2+  Bi97  1  0.15284390  0.00647715  0.70263666  1
  Bi2+  Bi98  1  0.17159565  0.26904561  0.20179309  1
  Bi2+  Bi99  1  0.08412551  0.24778327  0.72599172  1
  Bi2+  Bi100  1  0.13034677  0.54014699  0.19722539  1
  Bi2+  Bi101  1  0.03689040  0.52086727  0.70813400  1
  Bi2+  Bi102  1  0.07524482  0.71913897  0.24375462  1
  Bi2+  Bi103  1  0.12527744  0.78185694  0.72328104  1
  Bi2+  Bi104  1  0.34771370  0.02634899  0.21459240  1
  Bi2+  Bi105  1  0.44834917  -0.00494271  0.73399820  1
  Bi2+  Bi106  1  0.36331555  0.22341394  0.20187709  1
  Bi2+  Bi107  1  0.40287122  0.24029745  0.69887765  1
  Bi2+  Bi108  1  0.37232668  0.52628478  0.19265079  1
  Bi2+  Bi109  1  0.37135493  0.49286263  0.72174239  1
  Bi2+  Bi110  1  0.38432746  0.77096267  0.18419398  1
  Bi2+  Bi111  1  0.39944956  0.73839374  0.72028366  1
  Bi2+  Bi112  1  0.54531272  0.01475313  0.21516088  1
  Bi2+  Bi113  1  0.63447406  0.02955822  0.69751262  1
  Bi2+  Bi114  1  0.61087539  0.28731363  0.19863217  1
  Bi2+  Bi115  1  0.72767694  0.20884416  0.67753433  1
  Bi2+  Bi116  1  0.67314124  0.56085367  0.24585453  1
  Bi2+  Bi117  1  0.64321906  0.54112087  0.73663131  1
  Bi2+  Bi118  1  0.68299721  0.76880472  0.20539531  1
  Bi2+  Bi119  1  0.64292946  0.75342331  0.71181350  1
  Bi2+  Bi120  1  0.87999841  0.00076397  0.20901703  1
  Bi2+  Bi121  1  0.88290628  0.02321497  0.71071908  1
  Bi2+  Bi122  1  0.86792403  0.28824612  0.20993542  1
  Bi2+  Bi123  1  0.87647864  0.32768649  0.70924230  1
  Bi2+  Bi124  1  0.86716131  0.55610870  0.21675850  1
  Bi2+  Bi125  1  0.83779685  0.53798229  0.69438840  1
  Bi2+  Bi126  1  0.87647920  0.75798156  0.21508045  1
  Bi2+  Bi127  1  0.87473319  0.73107310  0.71136741  1
  S2-  S128  1  -0.09512660  0.14666494  0.15377157  1
  S2-  S129  1  0.11393841  0.13861364  0.64492615  1
  S2-  S130  1  -0.01178295  0.36583135  0.15714223  1
  S2-  S131  1  0.01349651  0.34433931  0.64960008  1
  S2-  S132  1  0.03382521  0.65450569  0.14531193  1
  S2-  S133  1  0.00283146  0.74198596  0.64774047  1
  S2-  S134  1  0.00735015  0.94596351  0.14177123  1
  S2-  S135  1  0.01583326  0.96275472  0.65694733  1
  S2-  S136  1  0.13581579  0.13465670  0.13577584  1
  S2-  S137  1  0.31558529  0.08123302  0.68674553  1
  S2-  S138  1  0.24308782  0.41961498  0.15561768  1
  S2-  S139  1  0.26633036  0.28767868  0.64286055  1
  S2-  S140  1  0.27068854  0.64618754  0.15356187  1
  S2-  S141  1  0.15786375  0.59395889  0.64770090  1
  S2-  S142  1  0.24013766  0.86708766  0.15617048  1
  S2-  S143  1  0.23369537  0.86811333  0.66177989  1
  S2-  S144  1  0.57584988  0.14105931  0.14249177  1
  S2-  S145  1  0.51821564  0.18550993  0.64132708  1
  S2-  S146  1  0.50452604  0.39316224  0.14715881  1
  S2-  S147  1  0.46924520  0.38479093  0.67360748  1
  S2-  S148  1  0.48586287  0.63321645  0.16108914  1
  S2-  S149  1  0.39856363  0.60953350  0.64894346  1
  S2-  S150  1  0.51743501  0.86900423  0.15432160  1
  S2-  S151  1  0.51941937  0.82601437  0.66552467  1
  S2-  S152  1  0.73762221  0.17236830  0.21272343  1
  S2-  S153  1  0.88054272  0.13981344  0.63440355  1
  S2-  S154  1  0.74702626  0.36227687  0.15666665  1
  S2-  S155  1  0.67470923  0.35641647  0.64179353  1
  S2-  S156  1  0.72824991  0.62176761  0.14965708  1
  S2-  S157  1  0.63272315  0.62006806  0.64614312  1
  S2-  S158  1  0.74687527  0.96252689  0.15505823  1
  S2-  S159  1  0.76354485  0.80624025  0.64438921  1
  S2-  S160  1  0.12338391  -0.00028952  0.34313148  1
  S2-  S161  1  0.13433869  0.08731565  0.84850849  1
  S2-  S162  1  0.03513035  0.24457863  0.35096199  1
  S2-  S163  1  0.23307919  0.26663716  0.85227791  1
  S2-  S164  1  0.11627755  0.48588084  0.34032831  1
  S2-  S165  1  0.11667870  0.49637521  0.84522541  1
  S2-  S166  1  0.19332943  0.75565994  0.35670833  1
  S2-  S167  1  0.12287919  0.85255819  0.85572113  1
  S2-  S168  1  0.36289415  -0.06987426  0.35656501  1
  S2-  S169  1  0.34882774  0.00093371  0.84802387  1
  S2-  S170  1  0.28606551  0.22639763  0.35949136  1
  S2-  S171  1  0.42718570  0.22697138  0.83404079  1
  S2-  S172  1  0.35898134  0.58373577  0.35317222  1
  S2-  S173  1  0.36770949  0.47506760  0.83687318  1
  S2-  S174  1  0.35676830  0.76442908  0.27666932  1
  S2-  S175  1  0.33733409  0.73359868  0.84531459  1
  S2-  S176  1  0.64188154  -0.01128466  0.34612492  1
  S2-  S177  1  0.59309082  0.07516020  0.85903282  1
  S2-  S178  1  0.57485071  0.22530816  0.33387220  1
  S2-  S179  1  0.64298364  0.31805991  0.84364963  1
  S2-  S180  1  0.54653598  0.48052057  0.35858196  1
  S2-  S181  1  0.58146410  0.52134934  0.84456958  1
  S2-  S182  1  0.53895656  0.74053761  0.35460161  1
  S2-  S183  1  0.59261349  0.75042452  0.84484498  1
  S2-  S184  1  0.87671140  0.08972129  0.34784029  1
  S2-  S185  1  0.94582840  -0.01191578  0.85899181  1
  S2-  S186  1  0.77655877  0.27619568  0.34973141  1
  S2-  S187  1  0.96343080  0.24651437  0.85560114  1
  S2-  S188  1  0.83570978  0.49048656  0.35212918  1
  S2-  S189  1  0.86411660  0.48854603  0.84618827  1
  S2-  S190  1  0.91391276  0.85678485  0.36188380  1
  S2-  S191  1  0.86551396  0.76104584  0.84854769  1
  S2-  S192  1  0.02004972  0.10991010  0.45698574  1
  S2-  S193  1  -0.01272879  0.10696460  0.95974349  1
  S2-  S194  1  0.01702415  0.37383455  0.44733645  1
  S2-  S195  1  -0.01417175  0.36453066  0.95535863  1
  S2-  S196  1  0.01705803  0.61669038  0.46089582  1
  S2-  S197  1  -0.01482291  0.61165717  0.94934709  1
  S2-  S198  1  0.02206395  0.86090004  0.46297531  1
  S2-  S199  1  -0.01441068  0.85520488  0.95619360  1
  S2-  S200  1  0.26884800  0.11393760  0.46055690  1
  S2-  S201  1  0.23870243  0.10924790  0.95463226  1
  S2-  S202  1  0.27066780  0.37362602  0.44882278  1
  S2-  S203  1  0.23825646  0.36535670  0.95567119  1
  S2-  S204  1  0.26968111  0.61500491  0.46223735  1
  S2-  S205  1  0.23630788  0.61138069  0.95066579  1
  S2-  S206  1  0.27044136  0.85898580  0.46159109  1
  S2-  S207  1  0.24181973  0.86034036  0.95224794  1
  S2-  S208  1  0.51600880  0.11488325  0.44864698  1
  S2-  S209  1  0.47814784  0.11175549  0.95624589  1
  S2-  S210  1  0.51943079  0.36039091  0.45796548  1
  S2-  S211  1  0.48490921  0.35805994  0.94755515  1
  S2-  S212  1  0.52134718  0.61647362  0.46266138  1
  S2-  S213  1  0.48949910  0.60711253  0.95481447  1
  S2-  S214  1  0.51676827  0.86569346  0.45837757  1
  S2-  S215  1  0.48539109  0.86379360  0.95073645  1
  S2-  S216  1  0.76726367  0.11087512  0.45170949  1
  S2-  S217  1  0.74189794  0.10875269  0.94547781  1
  S2-  S218  1  0.77123781  0.36925594  0.45786502  1
  S2-  S219  1  0.74067920  0.36112668  0.95060424  1
  S2-  S220  1  0.76524044  0.62042687  0.46024037  1
  S2-  S221  1  0.73451088  0.60586235  0.94771591  1
  S2-  S222  1  0.76162872  0.86213888  0.45031425  1
  S2-  S223  1  0.73469957  0.86113218  0.95771805  1
  S2-  S224  1  0.11788908  -0.01778151  0.03489481  1
  S2-  S225  1  0.14614042  -0.00694024  0.55068925  1
  S2-  S226  1  0.10922610  0.23854284  0.03583411  1
  S2-  S227  1  0.13950189  0.24296498  0.53659150  1
  S2-  S228  1  0.10800358  0.48398993  0.04841300  1
  S2-  S229  1  0.14267270  0.48559334  0.54551383  1
  S2-  S230  1  0.11586488  0.73686397  0.03822417  1
  S2-  S231  1  0.14939751  0.74076236  0.55422810  1
  S2-  S232  1  0.36165423  -0.00906216  0.05171435  1
  S2-  S233  1  0.39105774  -0.00459902  0.55846517  1
  S2-  S234  1  0.36218574  0.23361252  0.04636411  1
  S2-  S235  1  0.39253002  0.23758734  0.54239094  1
  S2-  S236  1  0.36316163  0.48430765  0.04368997  1
  S2-  S237  1  0.39837729  0.48074113  0.54666774  1
  S2-  S238  1  0.36255165  0.73392863  0.04597233  1
  S2-  S239  1  0.39073764  0.74706914  0.55783065  1
  S2-  S240  1  0.61215210  -0.00862263  0.04724059  1
  S2-  S241  1  0.64346344  -0.00694637  0.55068524  1
  S2-  S242  1  0.60992234  0.23723537  0.03551108  1
  S2-  S243  1  0.64585016  0.23368157  0.53585056  1
  S2-  S244  1  0.61025352  0.48392652  0.04313412  1
  S2-  S245  1  0.64631237  0.48985711  0.54729541  1
  S2-  S246  1  0.61054794  0.73493072  0.04859480  1
  S2-  S247  1  0.64236675  0.74383540  0.54305856  1
  S2-  S248  1  0.86082486  -0.01252339  0.04836081  1
  S2-  S249  1  0.89281009  -0.01212710  0.54162237  1
  S2-  S250  1  0.85974614  0.23413893  0.04596340  1
  S2-  S251  1  0.89444891  0.24214239  0.53224463  1
  S2-  S252  1  0.86353865  0.48408047  0.04967577  1
  S2-  S253  1  0.89270400  0.49362131  0.55382748  1
  S2-  S254  1  0.86063083  0.73753146  0.05157755  1
  S2-  S255  1  0.89022617  0.73593785  0.54296361  1
