# generated using pymatgen
data_La12Ce14Pr13Nd13Sm12(BiS2)64
_symmetry_space_group_name_H-M   'P 1'
_cell_length_a   16.04973356
_cell_length_b   16.08692620
_cell_length_c   27.28576634
_cell_angle_alpha   90.05982430
_cell_angle_beta   89.88506594
_cell_angle_gamma   89.99384918
_symmetry_Int_Tables_number   1
_chemical_formula_structural   La12Ce14Pr13Nd13Sm12(BiS2)64
_chemical_formula_sum   'La12 Ce14 Pr13 Nd13 Sm12 Bi64 S128'
_cell_volume   7044.91794602
_cell_formula_units_Z   1
loop_
 _symmetry_equiv_pos_site_id
 _symmetry_equiv_pos_as_xyz
  1  'x, y, z'
loop_
 _atom_type_symbol
 _atom_type_oxidation_number
  La3+  3.0
  Ce3+  3.0
  Pr3+  3.0
  Nd3+  3.0
  Sm3+  3.0
  Bi2+  2.0
  S2-  -2.0
loop_
 _atom_site_type_symbol
 _atom_site_label
 _atom_site_symmetry_multiplicity
 _atom_site_fract_x
 _atom_site_fract_y
 _atom_site_fract_z
 _atom_site_occupancy
  La3+  La0  1  0.26514604  0.87053083  0.57382599  1
  La3+  La1  1  0.12920743  0.00103541  0.44869399  1
  La3+  La2  1  -0.00121023  0.88557586  0.61487353  1
  La3+  La3  1  0.12931587  0.46354343  0.90112108  1
  La3+  La4  1  0.13298944  0.72176307  0.91874367  1
  La3+  La5  1  0.37270840  0.01413751  0.41900049  1
  La3+  La6  1  0.37249640  0.74833634  0.40857447  1
  La3+  La7  1  0.62926864  0.00869692  0.42749729  1
  La3+  La8  1  0.63826548  0.75989796  0.38925849  1
  La3+  La9  1  0.75560244  0.83471216  0.07483696  1
  La3+  La10  1  0.38806809  0.20790824  0.90119516  1
  La3+  La11  1  0.50556633  0.63519649  0.55447752  1
  Ce3+  Ce12  1  0.50593049  0.38361275  0.56884321  1
  Ce3+  Ce13  1  0.25478612  0.59183918  0.04756451  1
  Ce3+  Ce14  1  0.63165395  -0.03393288  0.94832962  1
  Ce3+  Ce15  1  0.12917171  0.21056569  0.93349386  1
  Ce3+  Ce16  1  0.75553941  0.34673939  0.06084026  1
  Ce3+  Ce17  1  0.00606127  0.38731719  0.57285799  1
  Ce3+  Ce18  1  0.87741189  0.75501426  0.44098296  1
  Ce3+  Ce19  1  0.38611482  0.50552028  0.43540540  1
  Ce3+  Ce20  1  0.87804876  0.00207111  0.44044635  1
  Ce3+  Ce21  1  0.25854176  0.09386450  0.05830060  1
  Ce3+  Ce22  1  0.38110262  0.25976391  0.44204855  1
  Ce3+  Ce23  1  0.13254527  -0.02913946  0.93794458  1
  Ce3+  Ce24  1  0.50234804  0.87830187  0.53875256  1
  Ce3+  Ce25  1  0.01099441  0.59217989  0.05654914  1
  Pr3+  Pr26  1  0.38220309  0.46460105  0.92873509  1
  Pr3+  Pr27  1  0.88198740  0.25465076  0.44728165  1
  Pr3+  Pr28  1  0.38902399  0.71813034  0.93253212  1
  Pr3+  Pr29  1  0.62722320  0.25562429  0.43129990  1
  Pr3+  Pr30  1  0.01054483  0.09402408  0.07537318  1
  Pr3+  Pr31  1  0.12987095  0.25343751  0.44611490  1
  Pr3+  Pr32  1  0.88313315  0.50575843  0.43609805  1
  Pr3+  Pr33  1  0.87843859  0.46612586  0.93169952  1
  Pr3+  Pr34  1  0.75549472  0.12701104  0.56166729  1
  Pr3+  Pr35  1  0.87878465  0.71472612  0.93564864  1
  Pr3+  Pr36  1  0.26205452  0.12545975  0.57252859  1
  Pr3+  Pr37  1  0.63610918  0.50556817  0.42899697  1
  Pr3+  Pr38  1  0.12876049  0.75484962  0.44118178  1
  Nd3+  Nd39  1  0.75488329  0.09068458  0.06909640  1
  Nd3+  Nd40  1  0.25615263  0.38116934  0.55760282  1
  Nd3+  Nd41  1  0.49830767  0.59123015  0.06958886  1
  Nd3+  Nd42  1  0.38806272  -0.03441116  0.93880761  1
  Nd3+  Nd43  1  0.75726238  0.58507117  0.06738419  1
  Nd3+  Nd44  1  0.12673168  0.50425876  0.43434306  1
  Nd3+  Nd45  1  0.75567568  0.38194731  0.55957490  1
  Nd3+  Nd46  1  0.00930678  0.12899326  0.56918411  1
  Nd3+  Nd47  1  0.00947065  0.84137866  0.06655623  1
  Nd3+  Nd48  1  0.50504219  0.09130646  0.06695511  1
  Nd3+  Nd49  1  0.88044641  -0.03445248  0.94847503  1
  Nd3+  Nd50  1  0.88213583  0.21661529  0.94868999  1
  Nd3+  Nd51  1  0.50260775  0.34640463  0.06433628  1
  Sm3+  Sm52  1  0.62858149  0.21647761  0.94635011  1
  Sm3+  Sm53  1  0.75708062  0.63377789  0.55657820  1
  Sm3+  Sm54  1  0.25707304  0.34089768  0.04548970  1
  Sm3+  Sm55  1  0.25830786  0.84126336  0.05776110  1
  Sm3+  Sm56  1  0.00750647  0.63331001  0.56848204  1
  Sm3+  Sm57  1  0.50362291  0.12951109  0.55900547  1
  Sm3+  Sm58  1  0.62562332  0.46619323  0.93518798  1
  Sm3+  Sm59  1  0.75686491  0.87982085  0.55862108  1
  Sm3+  Sm60  1  0.01136886  0.34623945  0.06315590  1
  Sm3+  Sm61  1  0.62895692  0.71512600  0.94580150  1
  Sm3+  Sm62  1  0.49789732  0.83719593  0.07769695  1
  Sm3+  Sm63  1  0.25526975  0.63164186  0.55339112  1
  Bi2+  Bi64  1  0.01752276  0.11302351  0.31955528  1
  Bi2+  Bi65  1  -0.04022704  0.15528906  0.76848297  1
  Bi2+  Bi66  1  0.00838743  0.37170683  0.28595947  1
  Bi2+  Bi67  1  -0.04441716  0.37735465  0.76672098  1
  Bi2+  Bi68  1  0.01612865  0.64944478  0.30760096  1
  Bi2+  Bi69  1  -0.09143973  0.62349990  0.78309081  1
  Bi2+  Bi70  1  0.02201311  0.84594468  0.27920485  1
  Bi2+  Bi71  1  -0.01844856  0.91743794  0.81460378  1
  Bi2+  Bi72  1  0.24851123  0.20909222  0.28020275  1
  Bi2+  Bi73  1  0.20760916  0.17324746  0.79835035  1
  Bi2+  Bi74  1  0.28676250  0.39892948  0.30562095  1
  Bi2+  Bi75  1  0.19465011  0.38315553  0.76581880  1
  Bi2+  Bi76  1  0.21393741  0.58738504  0.29876539  1
  Bi2+  Bi77  1  0.28215595  0.60646347  0.78651311  1
  Bi2+  Bi78  1  0.24886659  0.88589103  0.30023497  1
  Bi2+  Bi79  1  0.27171394  0.93078428  0.80307540  1
  Bi2+  Bi80  1  0.50355503  0.17933994  0.29624208  1
  Bi2+  Bi81  1  0.54452609  0.09178657  0.78158978  1
  Bi2+  Bi82  1  0.47780454  0.36879463  0.34254140  1
  Bi2+  Bi83  1  0.51398036  0.41740364  0.76044157  1
  Bi2+  Bi84  1  0.49048718  0.53867596  0.28012647  1
  Bi2+  Bi85  1  0.54783186  0.61112463  0.79584749  1
  Bi2+  Bi86  1  0.51556148  0.90430704  0.27601198  1
  Bi2+  Bi87  1  0.43364706  0.83231721  0.79112876  1
  Bi2+  Bi88  1  0.77108544  0.19490844  0.28140262  1
  Bi2+  Bi89  1  0.75784402  0.12420941  0.81176861  1
  Bi2+  Bi90  1  0.67486995  0.36102265  0.31195739  1
  Bi2+  Bi91  1  0.73587374  0.42546320  0.82045302  1
  Bi2+  Bi92  1  0.76088236  0.60863791  0.29022329  1
  Bi2+  Bi93  1  0.73928167  0.61778178  0.84328828  1
  Bi2+  Bi94  1  0.79571503  0.89383437  0.28538833  1
  Bi2+  Bi95  1  0.70019141  0.87813661  0.80259226  1
  Bi2+  Bi96  1  0.11973055  -0.01131939  0.21735356  1
  Bi2+  Bi97  1  0.11709595  0.03230150  0.71505576  1
  Bi2+  Bi98  1  0.12786216  0.29749597  0.20622889  1
  Bi2+  Bi99  1  0.04670488  0.26884544  0.68613769  1
  Bi2+  Bi100  1  0.11534705  0.51140832  0.20809968  1
  Bi2+  Bi101  1  0.10269976  0.55107646  0.73973339  1
  Bi2+  Bi102  1  0.13249818  0.71699500  0.21573462  1
  Bi2+  Bi103  1  0.14274209  0.76640849  0.71249351  1
  Bi2+  Bi104  1  0.35542355  0.01511764  0.20339823  1
  Bi2+  Bi105  1  0.41885896  -0.01654755  0.71516358  1
  Bi2+  Bi106  1  0.39632793  0.27777085  0.21260233  1
  Bi2+  Bi107  1  0.36236945  0.24912879  0.69428700  1
  Bi2+  Bi108  1  0.35863977  0.47428620  0.20123888  1
  Bi2+  Bi109  1  0.37095416  0.50834146  0.70330006  1
  Bi2+  Bi110  1  0.37252282  0.73033007  0.20520882  1
  Bi2+  Bi111  1  0.41175641  0.72494780  0.68686828  1
  Bi2+  Bi112  1  0.64971717  0.03881884  0.19779509  1
  Bi2+  Bi113  1  0.62023380  -0.02607395  0.70034773  1
  Bi2+  Bi114  1  0.59513765  0.28545419  0.21165143  1
  Bi2+  Bi115  1  0.64878341  0.26678553  0.77297032  1
  Bi2+  Bi116  1  0.63870609  0.47965754  0.21186436  1
  Bi2+  Bi117  1  0.67963234  0.51272220  0.72035609  1
  Bi2+  Bi118  1  0.64953401  0.77878104  0.19489520  1
  Bi2+  Bi119  1  0.60153397  0.77332688  0.72080961  1
  Bi2+  Bi120  1  0.96679314  0.10476521  0.21258946  1
  Bi2+  Bi121  1  0.81375531  0.02763649  0.70908231  1
  Bi2+  Bi122  1  0.84222267  0.35214459  0.22749100  1
  Bi2+  Bi123  1  0.84680848  0.26640468  0.69501007  1
  Bi2+  Bi124  1  0.91306166  0.53563123  0.22344725  1
  Bi2+  Bi125  1  0.86951330  0.48753856  0.68376741  1
  Bi2+  Bi126  1  0.90629289  0.73935069  0.21096911  1
  Bi2+  Bi127  1  0.79882615  0.76028056  0.72878773  1
  S2-  S128  1  0.01078651  0.23160280  0.14350979  1
  S2-  S129  1  -0.02720559  0.05077948  0.65488623  1
  S2-  S130  1  0.00741754  0.47629098  0.13356862  1
  S2-  S131  1  0.02915100  0.50865006  0.64314133  1
  S2-  S132  1  0.02290089  0.71204990  0.13494364  1
  S2-  S133  1  0.02149925  0.72469474  0.65314410  1
  S2-  S134  1  0.00320522  0.96195934  0.14551985  1
  S2-  S135  1  0.01794698  0.88470275  0.72520250  1
  S2-  S136  1  0.23306372  0.08981326  0.15637480  1
  S2-  S137  1  0.19529227  0.16203354  0.66654220  1
  S2-  S138  1  0.26298158  0.35377616  0.14521422  1
  S2-  S139  1  0.26828029  0.38441674  0.65743658  1
  S2-  S140  1  0.30715343  0.60992149  0.14109526  1
  S2-  S141  1  0.26230558  0.71002390  0.64201044  1
  S2-  S142  1  0.32957893  0.85787859  0.14963956  1
  S2-  S143  1  0.18803446  0.91240450  0.66307327  1
  S2-  S144  1  0.46948187  0.10962914  0.16567557  1
  S2-  S145  1  0.40266037  0.11071848  0.63986900  1
  S2-  S146  1  0.50550593  0.46393165  0.13977786  1
  S2-  S147  1  0.49685865  0.30933026  0.65758135  1
  S2-  S148  1  0.50621559  0.70476799  0.14915669  1
  S2-  S149  1  0.49754104  0.57545144  0.64978772  1
  S2-  S150  1  0.53951513  0.91094576  0.16749264  1
  S2-  S151  1  0.42551649  0.87017805  0.62855536  1
  S2-  S152  1  0.74995052  0.15128894  0.16299380  1
  S2-  S153  1  0.70295744  0.12087977  0.65742923  1
  S2-  S154  1  0.75933432  0.45286079  0.13826395  1
  S2-  S155  1  0.72691317  0.37426322  0.65762471  1
  S2-  S156  1  0.77215262  0.69647554  0.14497954  1
  S2-  S157  1  0.77244510  0.62949391  0.65525003  1
  S2-  S158  1  0.75886232  0.92601153  0.16831297  1
  S2-  S159  1  0.82619967  0.87661109  0.64973130  1
  S2-  S160  1  0.15499294  0.01709517  0.34881433  1
  S2-  S161  1  0.10413782  0.08450765  0.86399665  1
  S2-  S162  1  0.11085657  0.25145471  0.34616095  1
  S2-  S163  1  0.12650136  0.30347735  0.84687494  1
  S2-  S164  1  0.00872462  0.49269317  0.36043785  1
  S2-  S165  1  0.13037307  0.61160235  0.83657605  1
  S2-  S166  1  0.21128072  0.75244898  0.35186856  1
  S2-  S167  1  0.12780252  0.86513792  0.85608615  1
  S2-  S168  1  0.38513150  -0.00839009  0.31511849  1
  S2-  S169  1  0.35759105  0.04730558  0.85114302  1
  S2-  S170  1  0.35462787  0.17134778  0.36018263  1
  S2-  S171  1  0.34862619  0.25346806  0.80117913  1
  S2-  S172  1  0.37445541  0.59319637  0.35042198  1
  S2-  S173  1  0.27992162  0.45953141  0.84258949  1
  S2-  S174  1  0.39647814  0.79248529  0.30505023  1
  S2-  S175  1  0.30394605  0.74675455  0.84351112  1
  S2-  S176  1  0.65508505  -0.07651005  0.33865844  1
  S2-  S177  1  0.57880419  -0.03448708  0.85533194  1
  S2-  S178  1  0.63163810  0.13908086  0.35197094  1
  S2-  S179  1  0.55019152  0.21562398  0.85785780  1
  S2-  S180  1  0.61472270  0.59964456  0.34422764  1
  S2-  S181  1  0.51217192  0.46712759  0.85753171  1
  S2-  S182  1  0.59806065  0.75982429  0.28349458  1
  S2-  S183  1  0.52647281  0.72987317  0.86547601  1
  S2-  S184  1  0.87310664  0.00291132  0.34081878  1
  S2-  S185  1  0.82803908  -0.02636178  0.85238889  1
  S2-  S186  1  0.88608609  0.23702707  0.34685110  1
  S2-  S187  1  0.88272154  0.22488811  0.84898114  1
  S2-  S188  1  0.78269721  0.48786260  0.35306936  1
  S2-  S189  1  0.97238934  0.47324441  0.84690281  1
  S2-  S190  1  0.80679859  0.75405821  0.34893713  1
  S2-  S191  1  0.94005152  0.75488130  0.84298681  1
  S2-  S192  1  0.00397378  0.12827235  0.46157159  1
  S2-  S193  1  -0.00004734  0.09051573  0.96759725  1
  S2-  S194  1  0.00585144  0.37895246  0.46435014  1
  S2-  S195  1  0.00591736  0.34062005  0.95546036  1
  S2-  S196  1  0.00472872  0.63162708  0.45992599  1
  S2-  S197  1  0.00709263  0.59273208  0.94932857  1
  S2-  S198  1  0.00217865  0.87773673  0.43915418  1
  S2-  S199  1  0.00323062  0.84290733  0.96018879  1
  S2-  S200  1  0.25210011  0.13144505  0.46405575  1
  S2-  S201  1  0.26358653  0.09397182  0.95507054  1
  S2-  S202  1  0.25322948  0.38261726  0.45048490  1
  S2-  S203  1  0.26706409  0.32773888  0.94304800  1
  S2-  S204  1  0.25142169  0.62393745  0.45136669  1
  S2-  S205  1  0.25918873  0.59319680  0.94407770  1
  S2-  S206  1  0.25859113  0.88015092  0.45054301  1
  S2-  S207  1  0.26294571  0.84576300  0.95493250  1
  S2-  S208  1  0.50253555  0.13216744  0.45505513  1
  S2-  S209  1  0.50541383  0.09446637  0.96041965  1
  S2-  S210  1  0.50983071  0.38300071  0.46094155  1
  S2-  S211  1  0.50508537  0.33736601  0.95840312  1
  S2-  S212  1  0.51000847  0.63468003  0.44747015  1
  S2-  S213  1  0.50834135  0.59003015  0.96126157  1
  S2-  S214  1  0.50252868  0.87734807  0.43263265  1
  S2-  S215  1  0.50925780  0.84391025  0.96790499  1
  S2-  S216  1  0.75612780  0.13125512  0.45487054  1
  S2-  S217  1  0.75395901  0.09417066  0.96148052  1
  S2-  S218  1  0.75500463  0.37617717  0.45516494  1
  S2-  S219  1  0.75177469  0.34017897  0.95350766  1
  S2-  S220  1  0.75242765  0.63418272  0.45325321  1
  S2-  S221  1  0.75187587  0.58859223  0.95966225  1
  S2-  S222  1  0.75068282  0.87795172  0.45385443  1
  S2-  S223  1  0.75336990  0.83903177  0.95987739  1
  S2-  S224  1  0.13676127  -0.03453504  0.04615500  1
  S2-  S225  1  0.12945241  0.00033026  0.55570547  1
  S2-  S226  1  0.13376330  0.21831699  0.04193264  1
  S2-  S227  1  0.13062371  0.25684792  0.55212796  1
  S2-  S228  1  0.13632384  0.46379710  0.03542999  1
  S2-  S229  1  0.13397391  0.50801239  0.54102405  1
  S2-  S230  1  0.13788130  0.72076691  0.03425096  1
  S2-  S231  1  0.13039464  0.75603120  0.54522405  1
  S2-  S232  1  0.38360484  -0.03314688  0.04678738  1
  S2-  S233  1  0.38153304  0.00422572  0.53225247  1
  S2-  S234  1  0.38307716  0.21881607  0.05464997  1
  S2-  S235  1  0.38174816  0.25772789  0.54633895  1
  S2-  S236  1  0.37809716  0.46531201  0.03673219  1
  S2-  S237  1  0.37823637  0.50607947  0.54345781  1
  S2-  S238  1  0.38030089  0.71942589  0.04011251  1
  S2-  S239  1  0.37804094  0.75045348  0.52685199  1
  S2-  S240  1  0.62953572  -0.03449476  0.05434225  1
  S2-  S241  1  0.62758675  0.00393938  0.54168369  1
  S2-  S242  1  0.62910518  0.21968819  0.05226822  1
  S2-  S243  1  0.62886604  0.25317411  0.54516373  1
  S2-  S244  1  0.62914800  0.46678457  0.03872875  1
  S2-  S245  1  0.63433002  0.50722813  0.54479455  1
  S2-  S246  1  0.62787414  0.71338063  0.04836360  1
  S2-  S247  1  0.63301133  0.75895145  0.55849808  1
  S2-  S248  1  0.87635944  -0.03400247  0.05247407  1
  S2-  S249  1  0.88214512  0.00190858  0.54587583  1
  S2-  S250  1  0.87732651  0.21991081  0.05287983  1
  S2-  S251  1  0.88179800  0.25554539  0.55453809  1
  S2-  S252  1  0.88317539  0.46446372  0.03701138  1
  S2-  S253  1  0.87937844  0.50803633  0.54429122  1
  S2-  S254  1  0.88180698  0.71464850  0.04163365  1
  S2-  S255  1  0.88198392  0.75616590  0.54694892  1
