# generated using pymatgen
data_La12Ce14Pr13Nd13Sm12(BiS2)64
_symmetry_space_group_name_H-M   'P 1'
_cell_length_a   16.12636377
_cell_length_b   16.13426905
_cell_length_c   27.14327312
_cell_angle_alpha   89.85226323
_cell_angle_beta   89.71899784
_cell_angle_gamma   90.10251480
_symmetry_Int_Tables_number   1
_chemical_formula_structural   La12Ce14Pr13Nd13Sm12(BiS2)64
_chemical_formula_sum   'La12 Ce14 Pr13 Nd13 Sm12 Bi64 S128'
_cell_volume   7062.20941978
_cell_formula_units_Z   1
loop_
 _symmetry_equiv_pos_site_id
 _symmetry_equiv_pos_as_xyz
  1  'x, y, z'
loop_
 _atom_type_symbol
 _atom_type_oxidation_number
  La3+  3.0
  Ce3+  3.0
  Pr3+  3.0
  Nd3+  3.0
  Sm3+  3.0
  Bi2+  2.0
  S2-  -2.0
loop_
 _atom_site_type_symbol
 _atom_site_label
 _atom_site_symmetry_multiplicity
 _atom_site_fract_x
 _atom_site_fract_y
 _atom_site_fract_z
 _atom_site_occupancy
  La3+  La0  1  0.25227763  0.88593437  0.58686675  1
  La3+  La1  1  0.11808846  0.72690454  0.90213374  1
  La3+  La2  1  0.37933848  0.49879483  0.93665678  1
  La3+  La3  1  0.12569279  0.50966630  0.42758617  1
  La3+  La4  1  -0.01683226  0.13419210  0.58740017  1
  La3+  La5  1  0.75032322  0.87919158  0.56524924  1
  La3+  La6  1  0.88244173  0.24066922  0.41771109  1
  La3+  La7  1  0.61569300  0.25961655  0.39407922  1
  La3+  La8  1  0.75339601  0.62487598  0.10857879  1
  La3+  La9  1  0.22919217  0.62138598  0.59720764  1
  La3+  La10  1  0.61799864  0.51029455  0.42231214  1
  La3+  La11  1  0.86904678  0.26390567  0.91452840  1
  Ce3+  Ce12  1  0.74537455  0.13222828  0.54437430  1
  Ce3+  Ce13  1  0.88016848  -0.00528681  0.93607296  1
  Ce3+  Ce14  1  0.87759241  0.74099716  0.94706107  1
  Ce3+  Ce15  1  0.74265017  0.36378866  0.08090704  1
  Ce3+  Ce16  1  0.37584655  0.25418824  0.43754319  1
  Ce3+  Ce17  1  0.75288770  0.12165871  0.05066630  1
  Ce3+  Ce18  1  0.11999012  0.49222819  0.94085118  1
  Ce3+  Ce19  1  0.49537162  0.62570295  0.56857850  1
  Ce3+  Ce20  1  -0.00393616  0.12344561  0.05772062  1
  Ce3+  Ce21  1  0.12984255  0.75164760  0.44126605  1
  Ce3+  Ce22  1  0.49890027  0.62356874  0.06842128  1
  Ce3+  Ce23  1  0.86955041  0.50046647  0.43094205  1
  Ce3+  Ce24  1  0.37944568  0.24737219  0.93304025  1
  Ce3+  Ce25  1  0.37238304  0.50654312  0.44921805  1
  Pr3+  Pr26  1  0.62016606  0.75631043  0.43332128  1
  Pr3+  Pr27  1  0.74477072  0.62407995  0.55865997  1
  Pr3+  Pr28  1  0.24219103  0.87038881  0.06059190  1
  Pr3+  Pr29  1  0.49055697  0.87067337  0.07354350  1
  Pr3+  Pr30  1  0.49799452  0.38243727  0.56344592  1
  Pr3+  Pr31  1  -0.00528246  0.37746393  0.55522245  1
  Pr3+  Pr32  1  0.87325576  0.00085804  0.43492388  1
  Pr3+  Pr33  1  0.49956544  0.13213889  0.56186668  1
  Pr3+  Pr34  1  0.00826738  0.61280888  0.07808926  1
  Pr3+  Pr35  1  0.62525849  -0.00682623  0.94323650  1
  Pr3+  Pr36  1  0.61506488  0.00074735  0.43182355  1
  Pr3+  Pr37  1  0.00044656  0.87690522  0.55808097  1
  Pr3+  Pr38  1  0.49916915  0.12141382  0.05787777  1
  Nd3+  Nd39  1  0.37261403  0.74740562  0.93361027  1
  Nd3+  Nd40  1  0.37256539  -0.00443197  0.93772235  1
  Nd3+  Nd41  1  0.50734876  0.87342632  0.58450235  1
  Nd3+  Nd42  1  0.24771933  0.61891239  0.05989298  1
  Nd3+  Nd43  1  0.24661335  0.13044082  0.56562903  1
  Nd3+  Nd44  1  0.12281158  0.24396939  0.93633421  1
  Nd3+  Nd45  1  0.37055111  0.75600595  0.45718264  1
  Nd3+  Nd46  1  0.12251932  0.25321421  0.43830643  1
  Nd3+  Nd47  1  0.62169133  0.74530244  0.94095500  1
  Nd3+  Nd48  1  0.74710302  0.86902963  0.06529700  1
  Nd3+  Nd49  1  0.87128494  0.49679136  0.95922286  1
  Nd3+  Nd50  1  0.24546606  0.12074184  0.05187798  1
  Nd3+  Nd51  1  0.11981257  -0.00828460  0.92009371  1
  Sm3+  Sm52  1  0.74766264  0.37639002  0.54365632  1
  Sm3+  Sm53  1  0.87171472  0.75366076  0.44377574  1
  Sm3+  Sm54  1  0.62865528  0.49864834  0.95583299  1
  Sm3+  Sm55  1  0.62676466  0.24743906  0.93761080  1
  Sm3+  Sm56  1  0.37347534  0.00332503  0.45096752  1
  Sm3+  Sm57  1  -0.00480373  0.36478438  0.07089996  1
  Sm3+  Sm58  1  0.00464365  0.86721039  0.05618676  1
  Sm3+  Sm59  1  0.25107423  0.36797534  0.04948028  1
  Sm3+  Sm60  1  0.50131737  0.37045135  0.06110199  1
  Sm3+  Sm61  1  -0.00227781  0.62659964  0.55410091  1
  Sm3+  Sm62  1  0.12347443  0.00408523  0.44963565  1
  Sm3+  Sm63  1  0.24235221  0.37847945  0.55581289  1
  Bi2+  Bi64  1  0.01414704  0.06916538  0.29466903  1
  Bi2+  Bi65  1  0.05571314  0.13291784  0.79116746  1
  Bi2+  Bi66  1  0.01198927  0.33151215  0.28240962  1
  Bi2+  Bi67  1  0.00230791  0.37534447  0.79461796  1
  Bi2+  Bi68  1  0.02739637  0.66968109  0.28260434  1
  Bi2+  Bi69  1  -0.07231458  0.63141818  0.77219210  1
  Bi2+  Bi70  1  0.03303446  0.86527625  0.29636948  1
  Bi2+  Bi71  1  -0.12496516  0.90943016  0.80001789  1
  Bi2+  Bi72  1  0.26200107  0.15324069  0.28699601  1
  Bi2+  Bi73  1  0.28620504  0.18234333  0.69442660  1
  Bi2+  Bi74  1  0.24288576  0.34937620  0.29117618  1
  Bi2+  Bi75  1  0.28679747  0.35271997  0.78312890  1
  Bi2+  Bi76  1  0.29083904  0.60996299  0.30608612  1
  Bi2+  Bi77  1  0.24700069  0.61095142  0.78768606  1
  Bi2+  Bi78  1  0.23315827  0.86118341  0.30037668  1
  Bi2+  Bi79  1  0.24790646  0.90283769  0.79923708  1
  Bi2+  Bi80  1  0.45252726  0.10476066  0.28723016  1
  Bi2+  Bi81  1  0.50698457  0.16955311  0.79570460  1
  Bi2+  Bi82  1  0.43326926  0.38541701  0.27294046  1
  Bi2+  Bi83  1  0.47798271  0.35657285  0.81327434  1
  Bi2+  Bi84  1  0.47887164  0.69721786  0.28674661  1
  Bi2+  Bi85  1  0.50595845  0.63144300  0.79272614  1
  Bi2+  Bi86  1  0.50450587  0.90496878  0.28289479  1
  Bi2+  Bi87  1  0.52064133  0.88615231  0.79396354  1
  Bi2+  Bi88  1  0.64504458  0.06089053  0.30450387  1
  Bi2+  Bi89  1  0.70871155  0.14048956  0.79720567  1
  Bi2+  Bi90  1  0.74693142  0.38593741  0.27412639  1
  Bi2+  Bi91  1  0.75803974  0.42176264  0.79398231  1
  Bi2+  Bi92  1  0.74679563  0.64058551  0.29085162  1
  Bi2+  Bi93  1  0.74326506  0.61418265  0.82299529  1
  Bi2+  Bi94  1  0.81985360  0.90511704  0.29846943  1
  Bi2+  Bi95  1  0.71508635  0.80447728  0.81848671  1
  Bi2+  Bi96  1  0.09783552  0.02209189  0.17270965  1
  Bi2+  Bi97  1  0.09423750  -0.05221755  0.69999741  1
  Bi2+  Bi98  1  0.11424711  0.20834046  0.21490717  1
  Bi2+  Bi99  1  0.14788278  0.31761818  0.70024919  1
  Bi2+  Bi100  1  0.17443224  0.47672298  0.20716990  1
  Bi2+  Bi101  1  0.06415671  0.49676633  0.70871609  1
  Bi2+  Bi102  1  0.18248199  0.73287511  0.21898916  1
  Bi2+  Bi103  1  0.07782205  0.75513058  0.73311669  1
  Bi2+  Bi104  1  0.28005690  -0.01082496  0.21884100  1
  Bi2+  Bi105  1  0.42632357  0.04069074  0.71959668  1
  Bi2+  Bi106  1  0.36502866  0.26003327  0.19118549  1
  Bi2+  Bi107  1  0.45993943  0.25901203  0.67099519  1
  Bi2+  Bi108  1  0.37730997  0.53464327  0.19770181  1
  Bi2+  Bi109  1  0.40235965  0.43642318  0.70717181  1
  Bi2+  Bi110  1  0.37468740  0.72965361  0.18851161  1
  Bi2+  Bi111  1  0.38566522  0.76148234  0.71580688  1
  Bi2+  Bi112  1  0.70404879  -0.01030954  0.20660568  1
  Bi2+  Bi113  1  0.65853747  -0.00780836  0.72161247  1
  Bi2+  Bi114  1  0.59441602  0.23307433  0.19902843  1
  Bi2+  Bi115  1  0.63176367  0.27593637  0.72277076  1
  Bi2+  Bi116  1  0.57342011  0.51355819  0.21580436  1
  Bi2+  Bi117  1  0.59029799  0.47735410  0.73480102  1
  Bi2+  Bi118  1  0.63303703  0.77408847  0.22236974  1
  Bi2+  Bi119  1  0.64997119  0.72797735  0.71457484  1
  Bi2+  Bi120  1  0.90203178  0.00713344  0.19041181  1
  Bi2+  Bi121  1  0.84399816  0.05557323  0.72610933  1
  Bi2+  Bi122  1  0.86141431  0.20422146  0.20095706  1
  Bi2+  Bi123  1  0.85393400  0.27231663  0.69866433  1
  Bi2+  Bi124  1  0.93633254  0.52392432  0.23145373  1
  Bi2+  Bi125  1  0.86309700  0.48432629  0.70059178  1
  Bi2+  Bi126  1  0.91012346  0.80777146  0.21049709  1
  Bi2+  Bi127  1  0.84647007  0.78206285  0.71149732  1
  S2-  S128  1  -0.00059544  0.22977657  0.13881103  1
  S2-  S129  1  0.02809247  0.09283475  0.68845542  1
  S2-  S130  1  0.02218692  0.45120224  0.15949349  1
  S2-  S131  1  -0.01269077  0.28917507  0.64316847  1
  S2-  S132  1  -0.08616503  0.64120490  0.16318357  1
  S2-  S133  1  0.06152895  0.63412846  0.64582767  1
  S2-  S134  1  0.11414344  0.86861620  0.13513476  1
  S2-  S135  1  -0.04921616  0.88357838  0.65500247  1
  S2-  S136  1  0.26549085  0.12523286  0.15100841  1
  S2-  S137  1  0.22827970  0.03347488  0.65026133  1
  S2-  S138  1  0.24769660  0.35654768  0.14755255  1
  S2-  S139  1  0.20531570  0.45116127  0.64248763  1
  S2-  S140  1  0.15121847  0.61580777  0.14533037  1
  S2-  S141  1  0.31627574  0.62460030  0.68749165  1
  S2-  S142  1  0.35266150  0.88186855  0.14278726  1
  S2-  S143  1  0.19691246  0.80206140  0.67391126  1
  S2-  S144  1  0.48519922  0.13364669  0.15878120  1
  S2-  S145  1  0.54929730  0.07310321  0.65512502  1
  S2-  S146  1  0.59394449  0.36916064  0.14520944  1
  S2-  S147  1  0.52351832  0.50320675  0.63850718  1
  S2-  S148  1  0.58595861  0.64560619  0.15242982  1
  S2-  S149  1  0.50861014  0.72714379  0.64953545  1
  S2-  S150  1  0.58271100  0.89889895  0.16021434  1
  S2-  S151  1  0.39218736  0.90334374  0.66040426  1
  S2-  S152  1  0.72108868  0.14977010  0.14637642  1
  S2-  S153  1  0.81543928  0.13525010  0.63468684  1
  S2-  S154  1  0.81517941  0.35062755  0.17339713  1
  S2-  S155  1  0.75873780  0.38386311  0.64383404  1
  S2-  S156  1  0.73773626  0.54091599  0.20332761  1
  S2-  S157  1  0.76254390  0.64174891  0.65916317  1
  S2-  S158  1  0.76052564  0.78466507  0.15374889  1
  S2-  S159  1  0.65307636  0.87857174  0.64904430  1
  S2-  S160  1  0.14497164  -0.01266766  0.35142994  1
  S2-  S161  1  0.18996748  0.04649090  0.83147254  1
  S2-  S162  1  0.03695632  0.21242591  0.35521204  1
  S2-  S163  1  0.12075535  0.27756933  0.83760620  1
  S2-  S164  1  0.10940653  0.42640607  0.33770534  1
  S2-  S165  1  0.13050598  0.56451243  0.85116405  1
  S2-  S166  1  0.13969825  0.64982571  0.35974112  1
  S2-  S167  1  0.10507031  0.84531679  0.82446198  1
  S2-  S168  1  0.40723957  -0.01392518  0.35425656  1
  S2-  S169  1  0.39851733  -0.03369222  0.84007920  1
  S2-  S170  1  0.45471932  0.25332112  0.34893527  1
  S2-  S171  1  0.35034527  0.21779428  0.83779980  1
  S2-  S172  1  0.39791358  0.50770585  0.35173711  1
  S2-  S173  1  0.37152295  0.55330720  0.84002028  1
  S2-  S174  1  0.35808752  0.75196057  0.35521816  1
  S2-  S175  1  0.27486521  0.74654448  0.84728100  1
  S2-  S176  1  0.61323104  -0.12064907  0.35674512  1
  S2-  S177  1  0.62431933  0.00018086  0.84270593  1
  S2-  S178  1  0.67033764  0.22895452  0.29491609  1
  S2-  S179  1  0.71653152  0.28708135  0.85679868  1
  S2-  S180  1  0.62233845  0.41373388  0.33869775  1
  S2-  S181  1  0.60364615  0.53437655  0.85960850  1
  S2-  S182  1  0.61404410  0.64360158  0.35307638  1
  S2-  S183  1  0.50331551  0.75144889  0.86429054  1
  S2-  S184  1  0.86617154  0.06495873  0.34095173  1
  S2-  S185  1  0.97749610  0.01522636  0.85360211  1
  S2-  S186  1  0.85484491  0.29957002  0.32254621  1
  S2-  S187  1  0.92366288  0.22689881  0.81650009  1
  S2-  S188  1  0.84728323  0.52007916  0.33257110  1
  S2-  S189  1  0.88916578  0.43259565  0.86513948  1
  S2-  S190  1  0.83731552  0.75417994  0.34695657  1
  S2-  S191  1  0.94799178  0.70626243  0.86065527  1
  S2-  S192  1  0.00016810  0.12099182  0.46035356  1
  S2-  S193  1  -0.00787274  0.13135336  0.95113101  1
  S2-  S194  1  -0.00327807  0.37849768  0.44786039  1
  S2-  S195  1  -0.00107702  0.36808082  0.96263028  1
  S2-  S196  1  -0.00833715  0.62973374  0.44953956  1
  S2-  S197  1  0.00057725  0.61316644  0.96698206  1
  S2-  S198  1  -0.00040304  0.87632095  0.45006727  1
  S2-  S199  1  0.00263267  0.86594198  0.95144807  1
  S2-  S200  1  0.24822924  0.12769697  0.45436827  1
  S2-  S201  1  0.24946434  0.12329281  0.94693550  1
  S2-  S202  1  0.24780108  0.37729371  0.45021112  1
  S2-  S203  1  0.25177086  0.37069564  0.94422928  1
  S2-  S204  1  0.24933913  0.62871320  0.46488178  1
  S2-  S205  1  0.24879236  0.61791467  0.95505467  1
  S2-  S206  1  0.24799684  0.88307246  0.46434185  1
  S2-  S207  1  0.24704194  0.87338729  0.95042145  1
  S2-  S208  1  0.49851117  0.13033102  0.45360106  1
  S2-  S209  1  0.50256401  0.12215652  0.94891899  1
  S2-  S210  1  0.49821693  0.37754798  0.45429356  1
  S2-  S211  1  0.50558706  0.37220586  0.95557696  1
  S2-  S212  1  0.49375253  0.63253465  0.46041975  1
  S2-  S213  1  0.50060858  0.62030885  0.96305924  1
  S2-  S214  1  0.49416668  0.87969185  0.46776067  1
  S2-  S215  1  0.49683285  0.87485449  0.96258444  1
  S2-  S216  1  0.73892815  0.13055524  0.43956335  1
  S2-  S217  1  0.75210943  0.12192315  0.94486236  1
  S2-  S218  1  0.74676942  0.37179543  0.44058072  1
  S2-  S219  1  0.74452685  0.37342568  0.96742414  1
  S2-  S220  1  0.75124424  0.62984307  0.45156011  1
  S2-  S221  1  0.74801852  0.62287364  0.96003300  1
  S2-  S222  1  0.75018874  0.87823466  0.45636072  1
  S2-  S223  1  0.75163585  0.86947065  0.95625277  1
  S2-  S224  1  0.11985890  0.00138989  0.03101054  1
  S2-  S225  1  0.11587681  0.00928480  0.55318674  1
  S2-  S226  1  0.12613608  0.24828308  0.04263740  1
  S2-  S227  1  0.12230364  0.25189978  0.54527700  1
  S2-  S228  1  0.12651124  0.48532386  0.04550412  1
  S2-  S229  1  0.11720240  0.50327769  0.53720320  1
  S2-  S230  1  0.12475861  0.74094571  0.04215741  1
  S2-  S231  1  0.12278384  0.75231075  0.54699380  1
  S2-  S232  1  0.37172130  -0.00047267  0.04369486  1
  S2-  S233  1  0.37552565  0.00909973  0.55268605  1
  S2-  S234  1  0.37677845  0.24759187  0.04127954  1
  S2-  S235  1  0.36857331  0.25739499  0.54455334  1
  S2-  S236  1  0.37564958  0.49211888  0.04741398  1
  S2-  S237  1  0.36215292  0.50378957  0.55396992  1
  S2-  S238  1  0.37165897  0.74202545  0.04309047  1
  S2-  S239  1  0.36188567  0.74929929  0.56134808  1
  S2-  S240  1  0.62525437  -0.00353472  0.04940680  1
  S2-  S241  1  0.62497908  0.00446771  0.54054091  1
  S2-  S242  1  0.62261298  0.24438332  0.04148192  1
  S2-  S243  1  0.62453024  0.25742520  0.55124319  1
  S2-  S244  1  0.62681426  0.50152914  0.05749695  1
  S2-  S245  1  0.62683625  0.50048141  0.53470202  1
  S2-  S246  1  0.62065096  0.75167309  0.04660123  1
  S2-  S247  1  0.62483668  0.75131305  0.54233816  1
  S2-  S248  1  0.87640058  -0.00823492  0.04462697  1
  S2-  S249  1  0.87410692  0.00326899  0.54293537  1
  S2-  S250  1  0.86943810  0.24873185  0.04301100  1
  S2-  S251  1  0.87114959  0.25456556  0.53128808  1
  S2-  S252  1  0.86876012  0.49357187  0.06379317  1
  S2-  S253  1  0.87272103  0.50331910  0.54055685  1
  S2-  S254  1  0.87918540  0.74648440  0.05167402  1
  S2-  S255  1  0.87447808  0.74941247  0.54939024  1
