# generated using pymatgen
data_La12Ce14Pr13Nd13Sm12(BiS2)64
_symmetry_space_group_name_H-M   'P 1'
_cell_length_a   16.10418742
_cell_length_b   16.16547420
_cell_length_c   27.31564783
_cell_angle_alpha   89.80174607
_cell_angle_beta   89.73443809
_cell_angle_gamma   90.06026063
_symmetry_Int_Tables_number   1
_chemical_formula_structural   La12Ce14Pr13Nd13Sm12(BiS2)64
_chemical_formula_sum   'La12 Ce14 Pr13 Nd13 Sm12 Bi64 S128'
_cell_volume   7111.00948104
_cell_formula_units_Z   1
loop_
 _symmetry_equiv_pos_site_id
 _symmetry_equiv_pos_as_xyz
  1  'x, y, z'
loop_
 _atom_type_symbol
 _atom_type_oxidation_number
  La3+  3.0
  Ce3+  3.0
  Pr3+  3.0
  Nd3+  3.0
  Sm3+  3.0
  Bi2+  2.0
  S2-  -2.0
loop_
 _atom_site_type_symbol
 _atom_site_label
 _atom_site_symmetry_multiplicity
 _atom_site_fract_x
 _atom_site_fract_y
 _atom_site_fract_z
 _atom_site_occupancy
  La3+  La0  1  0.37846598  0.74809301  0.93912318  1
  La3+  La1  1  0.00725778  0.86671618  0.57729543  1
  La3+  La2  1  0.38073629  0.25178114  0.93276340  1
  La3+  La3  1  0.39043780  0.50031070  0.42497362  1
  La3+  La4  1  0.51266499  0.87595129  0.59386082  1
  La3+  La5  1  0.88304804  0.24624620  0.42688367  1
  La3+  La6  1  0.49182016  0.61960204  0.08693173  1
  La3+  La7  1  0.49782544  0.87152845  0.10806770  1
  La3+  La8  1  0.24582889  0.12825818  0.06592385  1
  La3+  La9  1  0.38614982  -0.00337487  0.41569391  1
  La3+  La10  1  0.49855402  0.62044030  0.57623828  1
  La3+  La11  1  0.25745723  0.12074138  0.55789636  1
  Ce3+  Ce12  1  0.62423298  0.25118622  0.43875832  1
  Ce3+  Ce13  1  0.75434572  0.37155502  0.55551324  1
  Ce3+  Ce14  1  0.87442551  0.75457072  0.94674063  1
  Ce3+  Ce15  1  0.38438448  0.74950831  0.43833620  1
  Ce3+  Ce16  1  0.75293213  0.12042981  0.55247487  1
  Ce3+  Ce17  1  0.62089589  0.75260000  0.95082889  1
  Ce3+  Ce18  1  0.24931276  0.62736884  0.06085147  1
  Ce3+  Ce19  1  0.13222642  -0.00597671  0.44094724  1
  Ce3+  Ce20  1  0.87289974  0.50515424  0.94373953  1
  Ce3+  Ce21  1  0.24834925  0.87424313  0.06344019  1
  Ce3+  Ce22  1  0.62314597  0.25034263  0.94705507  1
  Ce3+  Ce23  1  0.49611813  0.37368393  0.06879171  1
  Ce3+  Ce24  1  0.87699625  0.25429298  0.94258743  1
  Ce3+  Ce25  1  0.88307501  -0.00907181  0.43643586  1
  Pr3+  Pr26  1  0.13748379  0.49636185  0.43450830  1
  Pr3+  Pr27  1  0.00258530  0.87663311  0.06865129  1
  Pr3+  Pr28  1  0.74941320  0.87600045  0.06780603  1
  Pr3+  Pr29  1  0.12034753  0.00807666  0.92797228  1
  Pr3+  Pr30  1  0.37609790  0.00255315  0.94805695  1
  Pr3+  Pr31  1  0.12693165  0.51019397  0.92558626  1
  Pr3+  Pr32  1  0.25894414  0.62141217  0.55510698  1
  Pr3+  Pr33  1  0.75599621  0.87107412  0.55820948  1
  Pr3+  Pr34  1  0.00575246  0.36980451  0.55694012  1
  Pr3+  Pr35  1  0.00370634  0.62498906  0.06701459  1
  Pr3+  Pr36  1  0.88449392  0.73783783  0.42962386  1
  Pr3+  Pr37  1  0.12346448  0.75703924  0.93072525  1
  Pr3+  Pr38  1  0.00085741  0.12710481  0.06688612  1
  Nd3+  Nd39  1  0.00532790  0.62110473  0.56315636  1
  Nd3+  Nd40  1  0.49395894  0.12450798  0.07877260  1
  Nd3+  Nd41  1  0.38153247  0.49755979  0.92946339  1
  Nd3+  Nd42  1  0.62867439  0.74632421  0.43839734  1
  Nd3+  Nd43  1  0.11803496  0.25954346  0.92197072  1
  Nd3+  Nd44  1  0.63427698  -0.00303140  0.43287437  1
  Nd3+  Nd45  1  0.50235065  0.37251064  0.56626229  1
  Nd3+  Nd46  1  0.26066394  0.87335852  0.56179254  1
  Nd3+  Nd47  1  0.25662827  0.36910895  0.55049903  1
  Nd3+  Nd48  1  0.88142004  0.49718522  0.43655831  1
  Nd3+  Nd49  1  0.62334152  0.00229423  0.94562099  1
  Nd3+  Nd50  1  0.00328636  0.12006772  0.55630664  1
  Nd3+  Nd51  1  0.75429433  0.62317516  0.55647436  1
  Sm3+  Sm52  1  0.37891405  0.24397809  0.41347401  1
  Sm3+  Sm53  1  0.74963317  0.37609875  0.05840464  1
  Sm3+  Sm54  1  0.00145457  0.37767377  0.05509769  1
  Sm3+  Sm55  1  0.74754946  0.62648354  0.05813117  1
  Sm3+  Sm56  1  0.24796312  0.37867633  0.05111015  1
  Sm3+  Sm57  1  0.13201373  0.24401361  0.42872889  1
  Sm3+  Sm58  1  0.74973980  0.12521059  0.05626584  1
  Sm3+  Sm59  1  0.62006916  0.50249312  0.94950016  1
  Sm3+  Sm60  1  0.50467948  0.11785597  0.55375204  1
  Sm3+  Sm61  1  0.13359620  0.74796334  0.44127302  1
  Sm3+  Sm62  1  0.87659415  0.00157171  0.94450658  1
  Sm3+  Sm63  1  0.62766568  0.49849297  0.44091230  1
  Bi2+  Bi64  1  -0.01419627  0.15868363  0.26413551  1
  Bi2+  Bi65  1  0.02688143  0.12868270  0.79028696  1
  Bi2+  Bi66  1  -0.04736881  0.35853150  0.28486267  1
  Bi2+  Bi67  1  -0.00843971  0.37622659  0.78922716  1
  Bi2+  Bi68  1  -0.07182706  0.67448948  0.26048815  1
  Bi2+  Bi69  1  -0.04194794  0.62016709  0.77553480  1
  Bi2+  Bi70  1  -0.04459860  0.93658522  0.29809682  1
  Bi2+  Bi71  1  0.00166053  0.87171469  0.80738853  1
  Bi2+  Bi72  1  0.22813877  0.14388558  0.28344918  1
  Bi2+  Bi73  1  0.22277409  0.12436557  0.75464522  1
  Bi2+  Bi74  1  0.20664410  0.40214560  0.28533271  1
  Bi2+  Bi75  1  0.23882859  0.32447084  0.78091643  1
  Bi2+  Bi76  1  0.19804588  0.62382544  0.29327282  1
  Bi2+  Bi77  1  0.22398166  0.52682505  0.76657237  1
  Bi2+  Bi78  1  0.19436978  0.88606796  0.29289750  1
  Bi2+  Bi79  1  0.23638645  0.87181206  0.73342413  1
  Bi2+  Bi80  1  0.50641578  0.13641277  0.28493197  1
  Bi2+  Bi81  1  0.44527841  0.14795743  0.78772281  1
  Bi2+  Bi82  1  0.47474690  0.36196393  0.27789858  1
  Bi2+  Bi83  1  0.49502957  0.37829162  0.80167162  1
  Bi2+  Bi84  1  0.52262337  0.61472042  0.28831385  1
  Bi2+  Bi85  1  0.46263327  0.64448700  0.81019249  1
  Bi2+  Bi86  1  0.51054978  0.84319187  0.31622246  1
  Bi2+  Bi87  1  0.50522698  0.88879027  0.81905857  1
  Bi2+  Bi88  1  0.70068605  0.16377968  0.27384479  1
  Bi2+  Bi89  1  0.71521999  0.13646136  0.80239676  1
  Bi2+  Bi90  1  0.76727460  0.32405957  0.32317648  1
  Bi2+  Bi91  1  0.76555517  0.40629757  0.80176591  1
  Bi2+  Bi92  1  0.75689967  0.51524018  0.30422028  1
  Bi2+  Bi93  1  0.72336349  0.58957115  0.76112398  1
  Bi2+  Bi94  1  0.75760342  0.90583386  0.29392167  1
  Bi2+  Bi95  1  0.77043095  0.86550791  0.78328938  1
  Bi2+  Bi96  1  0.13512965  0.01581738  0.21215592  1
  Bi2+  Bi97  1  0.07594991  0.00460916  0.69591208  1
  Bi2+  Bi98  1  0.10641381  0.28109446  0.20392489  1
  Bi2+  Bi99  1  0.13248692  0.27575896  0.68746814  1
  Bi2+  Bi100  1  0.07874754  0.53015567  0.21679072  1
  Bi2+  Bi101  1  0.07484946  0.54778686  0.69108984  1
  Bi2+  Bi102  1  0.06730259  0.75698143  0.19811967  1
  Bi2+  Bi103  1  0.13615878  0.70667781  0.76140237  1
  Bi2+  Bi104  1  0.38322676  -0.00843273  0.21602338  1
  Bi2+  Bi105  1  0.38459115  0.00550620  0.71446377  1
  Bi2+  Bi106  1  0.35336461  0.25564909  0.20969139  1
  Bi2+  Bi107  1  0.40860914  0.28120461  0.70221695  1
  Bi2+  Bi108  1  0.35643111  0.48605878  0.20625803  1
  Bi2+  Bi109  1  0.37948605  0.48642636  0.70389612  1
  Bi2+  Bi110  1  0.35369546  0.74133479  0.22106317  1
  Bi2+  Bi111  1  0.37897078  0.73955314  0.71600122  1
  Bi2+  Bi112  1  0.67536268  -0.00055295  0.21257959  1
  Bi2+  Bi113  1  0.63974725  0.01774420  0.70706188  1
  Bi2+  Bi114  1  0.55245864  0.25530817  0.18842302  1
  Bi2+  Bi115  1  0.59478815  0.22306750  0.71996117  1
  Bi2+  Bi116  1  0.64250424  0.41933213  0.22723664  1
  Bi2+  Bi117  1  0.63606721  0.42125203  0.71556409  1
  Bi2+  Bi118  1  0.69634981  0.71949056  0.21449679  1
  Bi2+  Bi119  1  0.64515048  0.76130721  0.72280070  1
  Bi2+  Bi120  1  0.93673689  0.00515561  0.18970023  1
  Bi2+  Bi121  1  0.83671897  0.03322788  0.73185948  1
  Bi2+  Bi122  1  0.84041205  0.24619732  0.20620281  1
  Bi2+  Bi123  1  0.85382445  0.24885392  0.75721900  1
  Bi2+  Bi124  1  0.88143932  0.50752937  0.20835038  1
  Bi2+  Bi125  1  0.86428220  0.50659910  0.69088705  1
  Bi2+  Bi126  1  0.88394383  0.81879702  0.17879633  1
  Bi2+  Bi127  1  0.86918907  0.75639458  0.70628022  1
  S2-  S128  1  0.11990426  0.14812682  0.14067550  1
  S2-  S129  1  0.03157481  0.16078592  0.65199827  1
  S2-  S130  1  0.01201686  0.39824096  0.15246122  1
  S2-  S131  1  0.01400565  0.38994340  0.65674277  1
  S2-  S132  1  0.12902164  0.62346307  0.13755607  1
  S2-  S133  1  -0.01254586  0.72372854  0.64226588  1
  S2-  S134  1  0.12809418  0.88956742  0.13943482  1
  S2-  S135  1  -0.06670157  0.94350932  0.65980675  1
  S2-  S136  1  0.34703392  0.11989621  0.15063738  1
  S2-  S137  1  0.27429155  0.10098655  0.65801861  1
  S2-  S138  1  0.25714694  0.37576998  0.15130732  1
  S2-  S139  1  0.27551092  0.36839340  0.64932262  1
  S2-  S140  1  0.34050981  0.63185892  0.14875690  1
  S2-  S141  1  0.33207723  0.62342951  0.64660325  1
  S2-  S142  1  0.33244890  0.86748779  0.15277221  1
  S2-  S143  1  0.14982054  0.87511851  0.64426452  1
  S2-  S144  1  0.52083621  0.02324712  0.16042282  1
  S2-  S145  1  0.50710689  0.03590312  0.64136762  1
  S2-  S146  1  0.48839161  0.46964126  0.14912485  1
  S2-  S147  1  0.51685592  0.48462234  0.64422960  1
  S2-  S148  1  0.55354807  0.66317908  0.18510924  1
  S2-  S149  1  0.52112448  0.72868153  0.65684231  1
  S2-  S150  1  0.48187048  0.84785654  0.22092508  1
  S2-  S151  1  0.36012544  0.86929218  0.64736278  1
  S2-  S152  1  0.77428766  0.10674233  0.15204182  1
  S2-  S153  1  0.75260851  0.11269149  0.64947282  1
  S2-  S154  1  0.76112288  0.37597236  0.15631051  1
  S2-  S155  1  0.77428217  0.38015619  0.65185923  1
  S2-  S156  1  0.76764836  0.61431536  0.15561676  1
  S2-  S157  1  0.75683870  0.64130678  0.65575954  1
  S2-  S158  1  0.66160766  0.86004645  0.15415435  1
  S2-  S159  1  0.67123337  0.88029807  0.64723319  1
  S2-  S160  1  0.13723874  0.02733893  0.34515372  1
  S2-  S161  1  0.13927223  -0.11829036  0.85570221  1
  S2-  S162  1  0.23792575  0.27099559  0.34998093  1
  S2-  S163  1  0.15332084  0.13291737  0.85515396  1
  S2-  S164  1  0.09315929  0.50381496  0.33753193  1
  S2-  S165  1  0.12231198  0.38961195  0.84854802  1
  S2-  S166  1  0.11873940  0.74566928  0.34285144  1
  S2-  S167  1  0.10383136  0.63849799  0.85501835  1
  S2-  S168  1  0.34479260  -0.09159733  0.32571732  1
  S2-  S169  1  0.40105803  0.01135292  0.84727695  1
  S2-  S170  1  0.36678443  0.11946493  0.34258143  1
  S2-  S171  1  0.35803163  0.36820223  0.85483850  1
  S2-  S172  1  0.30514521  0.50371944  0.33441571  1
  S2-  S173  1  0.32545483  0.58466401  0.84675907  1
  S2-  S174  1  0.40731662  0.70319216  0.34332198  1
  S2-  S175  1  0.37788548  0.79036469  0.83819579  1
  S2-  S176  1  0.54946629  -0.00049530  0.34651990  1
  S2-  S177  1  0.64040833  -0.00699893  0.84565636  1
  S2-  S178  1  0.52484464  0.26532699  0.35749885  1
  S2-  S179  1  0.52884112  0.24022463  0.86575537  1
  S2-  S180  1  0.53316145  0.50360991  0.35802755  1
  S2-  S181  1  0.53247442  0.50855365  0.86421280  1
  S2-  S182  1  0.63275877  0.72010448  0.33782642  1
  S2-  S183  1  0.58778388  0.74559960  0.85442395  1
  S2-  S184  1  0.83810646  0.03744972  0.34574465  1
  S2-  S185  1  0.96067922  0.00595903  0.85800745  1
  S2-  S186  1  1.01040777  0.24559280  0.35479901  1
  S2-  S187  1  0.96475114  0.24644437  0.85828438  1
  S2-  S188  1  0.88333044  0.59563475  0.35542837  1
  S2-  S189  1  0.90254231  0.49676561  0.84740716  1
  S2-  S190  1  0.86881090  0.79856798  0.33531221  1
  S2-  S191  1  0.86618982  0.77704482  0.84985285  1
  S2-  S192  1  0.00597159  0.11778811  0.45104117  1
  S2-  S193  1  -0.00433700  0.12861926  0.96105202  1
  S2-  S194  1  0.00751628  0.37512882  0.45047845  1
  S2-  S195  1  -0.00325354  0.38400967  0.95305915  1
  S2-  S196  1  0.01261585  0.62053456  0.45624250  1
  S2-  S197  1  -0.00618855  0.62900497  0.96013333  1
  S2-  S198  1  0.00695600  0.86728675  0.45133210  1
  S2-  S199  1  -0.00419983  0.87811028  0.96155432  1
  S2-  S200  1  0.25624523  0.12324537  0.45038769  1
  S2-  S201  1  0.25444621  0.13134063  0.95762219  1
  S2-  S202  1  0.26234829  0.37103983  0.44788910  1
  S2-  S203  1  0.24595713  0.37904566  0.95023842  1
  S2-  S204  1  0.25771409  0.62444918  0.44868914  1
  S2-  S205  1  0.24908393  0.63004832  0.95647073  1
  S2-  S206  1  0.25683572  0.87125790  0.45132365  1
  S2-  S207  1  0.25403662  0.87753855  0.95685516  1
  S2-  S208  1  0.50394505  0.12333548  0.45154362  1
  S2-  S209  1  0.50243546  0.12547171  0.96917339  1
  S2-  S210  1  0.50386845  0.37299886  0.46078068  1
  S2-  S211  1  0.50354992  0.37580532  0.96467364  1
  S2-  S212  1  0.50828493  0.62363526  0.46189151  1
  S2-  S213  1  0.50108570  0.62508008  0.96715507  1
  S2-  S214  1  0.50882943  0.87233113  0.44582169  1
  S2-  S215  1  0.50209267  0.87855000  0.95506873  1
  S2-  S216  1  0.75239793  0.12675363  0.44711721  1
  S2-  S217  1  0.75281078  0.12651648  0.95151105  1
  S2-  S218  1  0.75391389  0.37508919  0.45008694  1
  S2-  S219  1  0.74672460  0.37847482  0.95336710  1
  S2-  S220  1  0.75133958  0.61939493  0.45163340  1
  S2-  S221  1  0.74589677  0.62629658  0.95271341  1
  S2-  S222  1  0.75604251  0.86929165  0.44976425  1
  S2-  S223  1  0.74996361  0.87960275  0.95915147  1
  S2-  S224  1  0.12230154  0.00423450  0.03851099  1
  S2-  S225  1  0.12834397  -0.00248328  0.54528690  1
  S2-  S226  1  0.12135713  0.25842160  0.03708849  1
  S2-  S227  1  0.12965990  0.24615858  0.53661427  1
  S2-  S228  1  0.12338000  0.49877395  0.03799655  1
  S2-  S229  1  0.13198344  0.49665684  0.54389054  1
  S2-  S230  1  0.12212315  0.75223486  0.03897766  1
  S2-  S231  1  0.13402410  0.74345921  0.54491255  1
  S2-  S232  1  0.37873436  -0.00371754  0.05293184  1
  S2-  S233  1  0.38248981  -0.00316559  0.53810150  1
  S2-  S234  1  0.37368624  0.25435489  0.04621358  1
  S2-  S235  1  0.38425735  0.24534475  0.54697266  1
  S2-  S236  1  0.37182969  0.49792951  0.04172967  1
  S2-  S237  1  0.37917258  0.49326644  0.53862070  1
  S2-  S238  1  0.37996558  0.75382994  0.04943388  1
  S2-  S239  1  0.38314441  0.75000032  0.54324266  1
  S2-  S240  1  0.62714712  0.00345135  0.05155074  1
  S2-  S241  1  0.63007382  -0.00419082  0.53811748  1
  S2-  S242  1  0.62796474  0.24960829  0.05325508  1
  S2-  S243  1  0.62643988  0.24689855  0.54838714  1
  S2-  S244  1  0.62870742  0.50031800  0.05334853  1
  S2-  S245  1  0.63261395  0.49669626  0.54450186  1
  S2-  S246  1  0.62256948  0.74704908  0.05568081  1
  S2-  S247  1  0.63008931  0.74693224  0.54492935  1
  S2-  S248  1  0.87472905  0.00186988  0.04841280  1
  S2-  S249  1  0.87944194  -0.00335132  0.54196373  1
  S2-  S250  1  0.87459765  0.25295248  0.04944533  1
  S2-  S251  1  0.87991634  0.24639861  0.53972361  1
  S2-  S252  1  0.87338309  0.50118076  0.04994125  1
  S2-  S253  1  0.88088145  0.49831148  0.54339855  1
  S2-  S254  1  0.87442505  0.74797007  0.05166950  1
  S2-  S255  1  0.87852992  0.74555465  0.53834117  1
