# generated using pymatgen
data_La12Ce14Pr13Nd13Sm12(BiS2)64
_symmetry_space_group_name_H-M   'P 1'
_cell_length_a   16.16370001
_cell_length_b   16.18035142
_cell_length_c   27.27846280
_cell_angle_alpha   89.92179540
_cell_angle_beta   89.89279214
_cell_angle_gamma   89.99715182
_symmetry_Int_Tables_number   1
_chemical_formula_structural   La12Ce14Pr13Nd13Sm12(BiS2)64
_chemical_formula_sum   'La12 Ce14 Pr13 Nd13 Sm12 Bi64 S128'
_cell_volume   7134.23579466
_cell_formula_units_Z   1
loop_
 _symmetry_equiv_pos_site_id
 _symmetry_equiv_pos_as_xyz
  1  'x, y, z'
loop_
 _atom_type_symbol
 _atom_type_oxidation_number
  La3+  3.0
  Ce3+  3.0
  Pr3+  3.0
  Nd3+  3.0
  Sm3+  3.0
  Bi2+  2.0
  S2-  -2.0
loop_
 _atom_site_type_symbol
 _atom_site_label
 _atom_site_symmetry_multiplicity
 _atom_site_fract_x
 _atom_site_fract_y
 _atom_site_fract_z
 _atom_site_occupancy
  La3+  La0  1  0.12782777  0.00819648  0.44145977  1
  La3+  La1  1  0.73551925  0.36666863  0.11021849  1
  La3+  La2  1  0.62116616  0.75544653  0.43673193  1
  La3+  La3  1  0.37400900  0.49223613  0.92541524  1
  La3+  La4  1  0.48139269  0.37635454  0.07485048  1
  La3+  La5  1  0.24158519  0.12951869  0.57122092  1
  La3+  La6  1  0.85582095  -0.00973365  0.93432572  1
  La3+  La7  1  0.50290829  0.63260731  0.60945488  1
  La3+  La8  1  0.36990287  0.76428977  0.40293029  1
  La3+  La9  1  0.89711546  0.24910358  0.39819207  1
  La3+  La10  1  0.48090095  0.86940733  0.07407007  1
  La3+  La11  1  0.50191660  0.88289384  0.56431604  1
  Ce3+  Ce12  1  0.38121133  0.01442235  0.43388384  1
  Ce3+  Ce13  1  0.00193819  0.87651675  0.55895877  1
  Ce3+  Ce14  1  0.23692922  0.37433830  0.05988902  1
  Ce3+  Ce15  1  0.36336417  0.24711954  0.94619008  1
  Ce3+  Ce16  1  0.11099472  0.25081442  0.93838471  1
  Ce3+  Ce17  1  0.11342149  0.74876676  0.93338073  1
  Ce3+  Ce18  1  -0.01681305  0.12202663  0.05613599  1
  Ce3+  Ce19  1  0.61805699  0.50758677  0.42858060  1
  Ce3+  Ce20  1  0.73747476  0.11516176  0.07391673  1
  Ce3+  Ce21  1  0.87955276  0.75681974  0.43868996  1
  Ce3+  Ce22  1  0.62783894  0.00601895  0.44176525  1
  Ce3+  Ce23  1  0.74618709  0.62852407  0.55361761  1
  Ce3+  Ce24  1  0.00262823  0.62838859  0.55666698  1
  Ce3+  Ce25  1  0.12987546  0.50528295  0.44507572  1
  Pr3+  Pr26  1  0.48830912  0.12408378  0.06302618  1
  Pr3+  Pr27  1  0.37944086  0.25268037  0.44014970  1
  Pr3+  Pr28  1  -0.01477025  0.37072840  0.06379255  1
  Pr3+  Pr29  1  0.86114037  0.49473897  0.93523220  1
  Pr3+  Pr30  1  0.60643084  0.75001095  0.93292268  1
  Pr3+  Pr31  1  0.85839362  0.24666944  0.94365230  1
  Pr3+  Pr32  1  0.35515025  0.74711496  0.93422206  1
  Pr3+  Pr33  1  -0.01085074  0.86950501  0.06863038  1
  Pr3+  Pr34  1  0.23572670  0.86926643  0.06692092  1
  Pr3+  Pr35  1  0.87761061  0.50813934  0.42641875  1
  Pr3+  Pr36  1  0.60919639  -0.00558897  0.94478912  1
  Pr3+  Pr37  1  0.50571467  0.38039269  0.56087241  1
  Pr3+  Pr38  1  0.49971955  0.12845253  0.56949365  1
  Nd3+  Nd39  1  0.87832920  -0.00205734  0.43386390  1
  Nd3+  Nd40  1  0.48908937  0.62230888  0.06105949  1
  Nd3+  Nd41  1  0.63073998  0.25461556  0.43340774  1
  Nd3+  Nd42  1  0.37854727  0.50508496  0.43482398  1
  Nd3+  Nd43  1  0.73665332  0.61916412  0.05839217  1
  Nd3+  Nd44  1  -0.00174513  0.38386854  0.55798701  1
  Nd3+  Nd45  1  0.75288400  0.87975944  0.56096646  1
  Nd3+  Nd46  1  0.25861415  0.87534714  0.56164576  1
  Nd3+  Nd47  1  0.23750166  0.61993020  0.05539764  1
  Nd3+  Nd48  1  0.36070758  -0.00381876  0.94125902  1
  Nd3+  Nd49  1  0.75303565  0.38187163  0.54559268  1
  Nd3+  Nd50  1  0.10985518  -0.00227592  0.93940786  1
  Nd3+  Nd51  1  0.73733816  0.87080912  0.07004575  1
  Sm3+  Sm52  1  0.13393016  0.75443530  0.44539356  1
  Sm3+  Sm53  1  0.12652566  0.25750255  0.44750834  1
  Sm3+  Sm54  1  0.26287608  0.62905669  0.55689606  1
  Sm3+  Sm55  1  0.86180924  0.74670386  0.94766073  1
  Sm3+  Sm56  1  -0.01310453  0.61928075  0.05105636  1
  Sm3+  Sm57  1  0.61884818  0.49538799  0.94515306  1
  Sm3+  Sm58  1  -0.00652051  0.13122904  0.56741274  1
  Sm3+  Sm59  1  0.75919935  0.13381748  0.55137317  1
  Sm3+  Sm60  1  0.25595478  0.38217998  0.55586545  1
  Sm3+  Sm61  1  0.11068437  0.49603946  0.93794376  1
  Sm3+  Sm62  1  0.61383428  0.24752948  0.95094471  1
  Sm3+  Sm63  1  0.23407880  0.12255117  0.05354299  1
  Bi2+  Bi64  1  0.06286579  0.11590170  0.29276159  1
  Bi2+  Bi65  1  -0.02614930  0.14586684  0.78440948  1
  Bi2+  Bi66  1  0.04876796  0.38120528  0.28583032  1
  Bi2+  Bi67  1  -0.07759882  0.42994439  0.80439972  1
  Bi2+  Bi68  1  -0.04564559  0.65836052  0.32915817  1
  Bi2+  Bi69  1  0.02947315  0.60389996  0.81284600  1
  Bi2+  Bi70  1  -0.00557203  0.83932310  0.28101231  1
  Bi2+  Bi71  1  0.01817475  0.88433323  0.80696633  1
  Bi2+  Bi72  1  0.26024472  0.15920098  0.30268472  1
  Bi2+  Bi73  1  0.24525499  0.17915249  0.78330300  1
  Bi2+  Bi74  1  0.26780402  0.36100331  0.29571876  1
  Bi2+  Bi75  1  0.22961974  0.37909412  0.75751856  1
  Bi2+  Bi76  1  0.15176996  0.61743535  0.28904399  1
  Bi2+  Bi77  1  0.23712736  0.64683444  0.78235968  1
  Bi2+  Bi78  1  0.23639247  0.87388419  0.28926098  1
  Bi2+  Bi79  1  0.26926622  0.89791838  0.79497101  1
  Bi2+  Bi80  1  0.44585718  0.11071503  0.25720260  1
  Bi2+  Bi81  1  0.46413018  0.13470073  0.79088177  1
  Bi2+  Bi82  1  0.46129250  0.34998046  0.29591032  1
  Bi2+  Bi83  1  0.50273523  0.33681510  0.79440784  1
  Bi2+  Bi84  1  0.54932017  0.62633145  0.29566706  1
  Bi2+  Bi85  1  0.51170534  0.61634534  0.81539826  1
  Bi2+  Bi86  1  0.50964448  0.88136376  0.29466720  1
  Bi2+  Bi87  1  0.53975293  0.87737182  0.80945879  1
  Bi2+  Bi88  1  0.79742102  0.06061518  0.28554648  1
  Bi2+  Bi89  1  0.73568395  0.15851407  0.74481482  1
  Bi2+  Bi90  1  0.74169014  0.38859227  0.30713164  1
  Bi2+  Bi91  1  0.73578214  0.33206415  0.80363975  1
  Bi2+  Bi92  1  0.80671253  0.64754881  0.25740160  1
  Bi2+  Bi93  1  0.76510439  0.57877581  0.75892271  1
  Bi2+  Bi94  1  0.76071412  0.86292152  0.28746930  1
  Bi2+  Bi95  1  0.78346818  0.90320535  0.79147830  1
  Bi2+  Bi96  1  0.08687245  -0.01792594  0.21389128  1
  Bi2+  Bi97  1  0.05718002  0.00857328  0.71855137  1
  Bi2+  Bi98  1  0.16233424  0.23914612  0.20546880  1
  Bi2+  Bi99  1  0.09827493  0.24897142  0.71947684  1
  Bi2+  Bi100  1  0.10904996  0.41548060  0.17266827  1
  Bi2+  Bi101  1  0.12175932  0.53608185  0.71650251  1
  Bi2+  Bi102  1  0.09823772  0.72774860  0.20256015  1
  Bi2+  Bi103  1  0.08959229  0.74932482  0.73391108  1
  Bi2+  Bi104  1  0.30134194  -0.00260466  0.21644032  1
  Bi2+  Bi105  1  0.36748288  -0.00759078  0.71227302  1
  Bi2+  Bi106  1  0.36768770  0.27066596  0.20629220  1
  Bi2+  Bi107  1  0.40749790  0.25543931  0.70294899  1
  Bi2+  Bi108  1  0.25947964  0.51335312  0.21115493  1
  Bi2+  Bi109  1  0.37077848  0.48832492  0.70837171  1
  Bi2+  Bi110  1  0.39670828  0.73056581  0.19664324  1
  Bi2+  Bi111  1  0.37630896  0.75537977  0.71195647  1
  Bi2+  Bi112  1  0.62980264  0.00014800  0.23732902  1
  Bi2+  Bi113  1  0.58908989  0.03585236  0.72465496  1
  Bi2+  Bi114  1  0.61719796  0.22607495  0.21950738  1
  Bi2+  Bi115  1  0.59477036  0.22563928  0.67268168  1
  Bi2+  Bi116  1  0.59968361  0.50907623  0.21081433  1
  Bi2+  Bi117  1  0.63241279  0.41020445  0.71720543  1
  Bi2+  Bi118  1  0.69155645  0.76355196  0.19466120  1
  Bi2+  Bi119  1  0.64426758  0.74936797  0.70998531  1
  Bi2+  Bi120  1  0.89164223  0.00102036  0.18915229  1
  Bi2+  Bi121  1  0.84672253  -0.01486746  0.69844887  1
  Bi2+  Bi122  1  0.89161485  0.24835276  0.21238245  1
  Bi2+  Bi123  1  0.86065089  0.27439819  0.69014577  1
  Bi2+  Bi124  1  0.96749718  0.53801494  0.23507472  1
  Bi2+  Bi125  1  0.89726628  0.49050136  0.69430523  1
  Bi2+  Bi126  1  0.88654213  0.80444421  0.18474816  1
  Bi2+  Bi127  1  0.89282866  0.72718452  0.75506456  1
  S2-  S128  1  -0.01954240  0.15017763  0.15289049  1
  S2-  S129  1  0.10360530  0.12390435  0.64361838  1
  S2-  S130  1  -0.10053415  0.37147688  0.15096439  1
  S2-  S131  1  0.00627116  0.35832548  0.65648947  1
  S2-  S132  1  -0.00225561  0.62077142  0.14856269  1
  S2-  S133  1  -0.00034721  0.61441612  0.65349546  1
  S2-  S134  1  0.11398171  0.86785009  0.14057248  1
  S2-  S135  1  -0.02574042  0.89395762  0.65487183  1
  S2-  S136  1  0.25105247  0.12392535  0.15099262  1
  S2-  S137  1  0.32404049  0.12697620  0.65984569  1
  S2-  S138  1  0.33851736  0.39883668  0.13948237  1
  S2-  S139  1  0.27429483  0.38065224  0.65309225  1
  S2-  S140  1  0.25152721  0.66055861  0.15265600  1
  S2-  S141  1  0.32714588  0.62327003  0.64958732  1
  S2-  S142  1  0.34769153  0.87179290  0.14533631  1
  S2-  S143  1  0.27303666  0.87341176  0.66284210  1
  S2-  S144  1  0.52815094  0.11075848  0.16099111  1
  S2-  S145  1  0.49621418  0.00363024  0.64191007  1
  S2-  S146  1  0.57568740  0.35891318  0.15969888  1
  S2-  S147  1  0.50478526  0.46696000  0.64836768  1
  S2-  S148  1  0.46934777  0.59068895  0.15864394  1
  S2-  S149  1  0.50673310  0.63728663  0.72045118  1
  S2-  S150  1  0.53709812  0.80934528  0.16483247  1
  S2-  S151  1  0.50492109  0.79457268  0.65437861  1
  S2-  S152  1  0.74462186  0.20838808  0.16054689  1
  S2-  S153  1  0.85933524  0.13048146  0.63384342  1
  S2-  S154  1  0.74116205  0.41920340  0.21430103  1
  S2-  S155  1  0.76304969  0.39878465  0.64523890  1
  S2-  S156  1  0.71842283  0.59800744  0.15587498  1
  S2-  S157  1  0.67819078  0.63587743  0.64400634  1
  S2-  S158  1  0.73508896  0.98723575  0.14486784  1
  S2-  S159  1  0.72692166  0.87713697  0.66012529  1
  S2-  S160  1  0.14026857  -0.02411232  0.34307629  1
  S2-  S161  1  0.15407791  -0.02136417  0.84298903  1
  S2-  S162  1  0.06149487  0.25186891  0.35646803  1
  S2-  S163  1  0.11244587  0.20469598  0.84419923  1
  S2-  S164  1  0.16092324  0.47994062  0.34991955  1
  S2-  S165  1  0.08131894  0.44307486  0.84669249  1
  S2-  S166  1  0.20927638  0.74796716  0.35607447  1
  S2-  S167  1  0.22795527  0.76800473  0.85983942  1
  S2-  S168  1  0.37626597  -0.08067428  0.35079397  1
  S2-  S169  1  0.40387667  -0.02175522  0.84479982  1
  S2-  S170  1  0.39960200  0.14367089  0.36179590  1
  S2-  S171  1  0.36564134  0.25101745  0.84865033  1
  S2-  S172  1  0.46204384  0.49647163  0.34639766  1
  S2-  S173  1  0.34827508  0.55295994  0.83099486  1
  S2-  S174  1  0.41542833  0.71841717  0.30249212  1
  S2-  S175  1  0.44672010  0.76378842  0.84838433  1
  S2-  S176  1  0.60025460  0.00693732  0.34469068  1
  S2-  S177  1  0.67460397  -0.02469007  0.85224298  1
  S2-  S178  1  0.60441332  0.28291742  0.33547924  1
  S2-  S179  1  0.61796546  0.23860247  0.85201355  1
  S2-  S180  1  0.68820854  0.54037485  0.34054907  1
  S2-  S181  1  0.53011285  0.46731960  0.86344450  1
  S2-  S182  1  0.62489051  0.76960378  0.33570244  1
  S2-  S183  1  0.63853463  0.73789367  0.83241926  1
  S2-  S184  1  0.92915234  0.08394534  0.35375468  1
  S2-  S185  1  0.90529605  0.01260869  0.83871253  1
  S2-  S186  1  0.81161319  0.22850922  0.30739710  1
  S2-  S187  1  0.88666934  0.26295028  0.84427201  1
  S2-  S188  1  0.90257442  0.40949870  0.34426921  1
  S2-  S189  1  0.76825437  0.51077621  0.84954579  1
  S2-  S190  1  0.87682452  0.86863578  0.36131697  1
  S2-  S191  1  0.86744102  0.78703688  0.85341710  1
  S2-  S192  1  0.00562107  0.13310290  0.46318981  1
  S2-  S193  1  -0.01484814  0.12097043  0.95020253  1
  S2-  S194  1  0.00440955  0.38318357  0.45306994  1
  S2-  S195  1  -0.01425533  0.37243052  0.95623395  1
  S2-  S196  1  0.00773004  0.63154780  0.45168267  1
  S2-  S197  1  -0.01413550  0.62206336  0.94728657  1
  S2-  S198  1  0.00992407  0.87515327  0.45400148  1
  S2-  S199  1  -0.01232004  0.86984548  0.95780541  1
  S2-  S200  1  0.24870922  0.13519980  0.45941190  1
  S2-  S201  1  0.23667982  0.12155163  0.94892941  1
  S2-  S202  1  0.25428489  0.37787643  0.45158872  1
  S2-  S203  1  0.23730415  0.37464536  0.94948320  1
  S2-  S204  1  0.25736683  0.62943416  0.45298398  1
  S2-  S205  1  0.23451953  0.61514802  0.94840479  1
  S2-  S206  1  0.25466757  0.87960654  0.45646335  1
  S2-  S207  1  0.23574713  0.87727030  0.96063079  1
  S2-  S208  1  0.50969531  0.13257133  0.46271038  1
  S2-  S209  1  0.48786325  0.12187200  0.95510598  1
  S2-  S210  1  0.50287014  0.37645790  0.45320676  1
  S2-  S211  1  0.49051448  0.36641807  0.96499997  1
  S2-  S212  1  0.49224867  0.63737381  0.43719806  1
  S2-  S213  1  0.49120112  0.62170879  0.95409174  1
  S2-  S214  1  0.49979783  0.88331899  0.45404809  1
  S2-  S215  1  0.48338306  0.87211998  0.96142906  1
  S2-  S216  1  0.75751701  0.13131705  0.44636808  1
  S2-  S217  1  0.73507291  0.11958522  0.95832590  1
  S2-  S218  1  0.75246553  0.38006447  0.44083354  1
  S2-  S219  1  0.73458248  0.37122157  0.95173520  1
  S2-  S220  1  0.75368637  0.63311287  0.44770958  1
  S2-  S221  1  0.73614204  0.62640511  0.95298540  1
  S2-  S222  1  0.74807222  0.87998984  0.45493197  1
  S2-  S223  1  0.73591563  0.86581385  0.96169609  1
  S2-  S224  1  0.11036974  0.00107714  0.04574797  1
  S2-  S225  1  0.12597060  -0.00362095  0.54878216  1
  S2-  S226  1  0.11257457  0.24691985  0.04587450  1
  S2-  S227  1  0.12639588  0.26395749  0.55000131  1
  S2-  S228  1  0.11099843  0.49780589  0.04249208  1
  S2-  S229  1  0.13259351  0.50594595  0.55174107  1
  S2-  S230  1  0.11055234  0.74137139  0.03996128  1
  S2-  S231  1  0.13262557  0.75005499  0.55150127  1
  S2-  S232  1  0.36023409  0.00278535  0.04712336  1
  S2-  S233  1  0.37062663  0.00874056  0.54291207  1
  S2-  S234  1  0.35941043  0.24446678  0.05003642  1
  S2-  S235  1  0.37711026  0.25642446  0.54802720  1
  S2-  S236  1  0.36355580  0.50217269  0.03627524  1
  S2-  S237  1  0.37908459  0.50277186  0.54070213  1
  S2-  S238  1  0.36192620  0.74171801  0.04169128  1
  S2-  S239  1  0.38034901  0.75094113  0.55016027  1
  S2-  S240  1  0.60777324  -0.00750293  0.04993172  1
  S2-  S241  1  0.63633401  0.01107284  0.54806261  1
  S2-  S242  1  0.61613532  0.24687377  0.05418265  1
  S2-  S243  1  0.63211050  0.25366114  0.54111002  1
  S2-  S244  1  0.61423537  0.49455362  0.05004349  1
  S2-  S245  1  0.62556822  0.50490116  0.53659140  1
  S2-  S246  1  0.61428052  0.74665757  0.04539692  1
  S2-  S247  1  0.62694479  0.75638372  0.54394814  1
  S2-  S248  1  0.86476823  -0.00826316  0.04357695  1
  S2-  S249  1  0.87847460  0.00107840  0.53988315  1
  S2-  S250  1  0.85727314  0.24620596  0.04894591  1
  S2-  S251  1  0.87819210  0.26071400  0.53989256  1
  S2-  S252  1  0.86175592  0.49854399  0.04374996  1
  S2-  S253  1  0.87618308  0.50789835  0.53750768  1
  S2-  S254  1  0.86242953  0.74402774  0.05115907  1
  S2-  S255  1  0.87528523  0.75240561  0.54751003  1
