# generated using pymatgen
data_La12Ce14Pr13Nd13Sm12(BiS2)64
_symmetry_space_group_name_H-M   'P 1'
_cell_length_a   16.10915053
_cell_length_b   16.07566642
_cell_length_c   27.35136404
_cell_angle_alpha   90.26382626
_cell_angle_beta   89.80131181
_cell_angle_gamma   89.94487435
_symmetry_Int_Tables_number   1
_chemical_formula_structural   La12Ce14Pr13Nd13Sm12(BiS2)64
_chemical_formula_sum   'La12 Ce14 Pr13 Nd13 Sm12 Bi64 S128'
_cell_volume   7082.93395226
_cell_formula_units_Z   1
loop_
 _symmetry_equiv_pos_site_id
 _symmetry_equiv_pos_as_xyz
  1  'x, y, z'
loop_
 _atom_type_symbol
 _atom_type_oxidation_number
  La3+  3.0
  Ce3+  3.0
  Pr3+  3.0
  Nd3+  3.0
  Sm3+  3.0
  Bi2+  2.0
  S2-  -2.0
loop_
 _atom_site_type_symbol
 _atom_site_label
 _atom_site_symmetry_multiplicity
 _atom_site_fract_x
 _atom_site_fract_y
 _atom_site_fract_z
 _atom_site_occupancy
  La3+  La0  1  0.62128692  -0.01427534  0.43655007  1
  La3+  La1  1  0.25705356  0.38395813  0.06402883  1
  La3+  La2  1  0.63364211  0.75371204  0.93178206  1
  La3+  La3  1  0.12577177  -0.00881014  0.42797957  1
  La3+  La4  1  0.38823573  0.75545021  0.93815188  1
  La3+  La5  1  0.76888789  0.39578511  0.09397990  1
  La3+  La6  1  0.88429220  0.01000897  0.92712181  1
  La3+  La7  1  0.50353808  0.63474075  0.08055485  1
  La3+  La8  1  0.38674592  0.25907571  0.93618293  1
  La3+  La9  1  0.88814388  0.51496704  0.90507667  1
  La3+  La10  1  0.00557572  0.61304684  0.59784950  1
  La3+  La11  1  0.49076102  0.11850169  0.60468491  1
  Ce3+  Ce12  1  0.63848586  0.26237329  0.93911538  1
  Ce3+  Ce13  1  0.14230934  0.01370492  0.92409839  1
  Ce3+  Ce14  1  0.39499112  0.00823180  0.93621676  1
  Ce3+  Ce15  1  0.00157184  0.86441342  0.56046688  1
  Ce3+  Ce16  1  0.51513002  0.88879520  0.06954363  1
  Ce3+  Ce17  1  0.87426343  -0.00919250  0.45196004  1
  Ce3+  Ce18  1  0.37300736  0.48913140  0.44250877  1
  Ce3+  Ce19  1  0.38453204  0.50838785  0.94385098  1
  Ce3+  Ce20  1  0.76062717  0.63349365  0.05624791  1
  Ce3+  Ce21  1  0.51692626  0.13713106  0.06792827  1
  Ce3+  Ce22  1  0.00006317  0.11573927  0.56039613  1
  Ce3+  Ce23  1  0.75823002  0.88482094  0.05316068  1
  Ce3+  Ce24  1  0.74851432  0.36289834  0.56161400  1
  Ce3+  Ce25  1  0.88908872  0.75875551  0.93771465  1
  Pr3+  Pr26  1  0.01589311  0.88694455  0.05864521  1
  Pr3+  Pr27  1  0.13509048  0.75866488  0.92898961  1
  Pr3+  Pr28  1  0.49952630  0.36106165  0.55610745  1
  Pr3+  Pr29  1  0.49712708  0.86027327  0.57730500  1
  Pr3+  Pr30  1  0.26006193  0.13449312  0.05729510  1
  Pr3+  Pr31  1  0.37298495  0.23449971  0.42957727  1
  Pr3+  Pr32  1  0.61561510  0.23265832  0.42720616  1
  Pr3+  Pr33  1  0.00725346  0.13595191  0.05916922  1
  Pr3+  Pr34  1  0.87568186  0.73708900  0.44386429  1
  Pr3+  Pr35  1  0.13179716  0.26029592  0.93163073  1
  Pr3+  Pr36  1  0.24873948  0.86650089  0.57093647  1
  Pr3+  Pr37  1  -0.00198998  0.35785330  0.56894578  1
  Pr3+  Pr38  1  0.75179429  0.62275003  0.57442034  1
  Nd3+  Nd39  1  0.12611886  0.74230637  0.43430457  1
  Nd3+  Nd40  1  0.62462856  0.74012915  0.43726942  1
  Nd3+  Nd41  1  0.87782305  0.48973329  0.45151418  1
  Nd3+  Nd42  1  0.14807260  0.50826491  0.89467122  1
  Nd3+  Nd43  1  0.86826092  0.24074499  0.43235406  1
  Nd3+  Nd44  1  0.24374862  0.61260364  0.55834066  1
  Nd3+  Nd45  1  0.24822802  0.36000571  0.55730173  1
  Nd3+  Nd46  1  0.63679625  0.50954457  0.93876880  1
  Nd3+  Nd47  1  0.49924893  0.61397211  0.56004649  1
  Nd3+  Nd48  1  0.12317996  0.48595292  0.43678232  1
  Nd3+  Nd49  1  0.25682078  0.63719444  0.06190961  1
  Nd3+  Nd50  1  0.88778017  0.26639689  0.93808234  1
  Nd3+  Nd51  1  0.63513756  0.01642967  0.92762536  1
  Sm3+  Sm52  1  0.37486305  -0.01178731  0.44986878  1
  Sm3+  Sm53  1  0.51598441  0.38488640  0.06415639  1
  Sm3+  Sm54  1  0.12106895  0.24177056  0.41430372  1
  Sm3+  Sm55  1  0.25849384  0.88741612  0.04666566  1
  Sm3+  Sm56  1  0.00685886  0.38956047  0.05149879  1
  Sm3+  Sm57  1  0.76042943  0.13737430  0.05480547  1
  Sm3+  Sm58  1  0.74030498  0.86735212  0.56779734  1
  Sm3+  Sm59  1  0.24816856  0.11509565  0.55801240  1
  Sm3+  Sm60  1  0.62864554  0.48967563  0.44076088  1
  Sm3+  Sm61  1  0.00897861  0.63318239  0.04995156  1
  Sm3+  Sm62  1  0.74122107  0.11611649  0.55831609  1
  Sm3+  Sm63  1  0.37497960  0.73871532  0.44554644  1
  Bi2+  Bi64  1  0.00440528  0.17748915  0.27256053  1
  Bi2+  Bi65  1  -0.03755857  0.11207895  0.80568418  1
  Bi2+  Bi66  1  0.01653032  0.40281389  0.23060519  1
  Bi2+  Bi67  1  0.02429916  0.34783989  0.77593027  1
  Bi2+  Bi68  1  0.07121919  0.62219427  0.32432451  1
  Bi2+  Bi69  1  0.00428077  0.64140334  0.77891044  1
  Bi2+  Bi70  1  0.01665294  0.80478813  0.29210035  1
  Bi2+  Bi71  1  -0.04280169  0.89592184  0.82019865  1
  Bi2+  Bi72  1  0.23856822  0.10534269  0.29181917  1
  Bi2+  Bi73  1  0.23354868  0.12609145  0.77945515  1
  Bi2+  Bi74  1  0.23163374  0.38455532  0.29616295  1
  Bi2+  Bi75  1  0.27329417  0.40033320  0.77849437  1
  Bi2+  Bi76  1  0.25802658  0.62017973  0.29479983  1
  Bi2+  Bi77  1  0.27099647  0.63680331  0.78063133  1
  Bi2+  Bi78  1  0.21597111  0.84194324  0.26485023  1
  Bi2+  Bi79  1  0.14578029  0.89141905  0.80761231  1
  Bi2+  Bi80  1  0.48570476  0.11014460  0.29536143  1
  Bi2+  Bi81  1  0.46297307  0.10680879  0.80191060  1
  Bi2+  Bi82  1  0.46751419  0.32295497  0.25774552  1
  Bi2+  Bi83  1  0.48091692  0.39143663  0.79786560  1
  Bi2+  Bi84  1  0.45535879  0.64423602  0.30069011  1
  Bi2+  Bi85  1  0.48672655  0.65065087  0.78376571  1
  Bi2+  Bi86  1  0.49315796  0.86267641  0.28847698  1
  Bi2+  Bi87  1  0.52006764  0.84338076  0.78907582  1
  Bi2+  Bi88  1  0.76307933  0.13514502  0.30442463  1
  Bi2+  Bi89  1  0.73755243  0.16503824  0.79480942  1
  Bi2+  Bi90  1  0.76397355  0.40388941  0.29562634  1
  Bi2+  Bi91  1  0.67258457  0.36242641  0.80688649  1
  Bi2+  Bi92  1  0.64879934  0.64246889  0.31374005  1
  Bi2+  Bi93  1  0.73427605  0.64621451  0.79943204  1
  Bi2+  Bi94  1  0.75812357  0.89004329  0.30220448  1
  Bi2+  Bi95  1  0.77356776  0.90750250  0.77408072  1
  Bi2+  Bi96  1  0.09344326  0.00475233  0.18617336  1
  Bi2+  Bi97  1  0.11367238  -0.00789843  0.65242548  1
  Bi2+  Bi98  1  0.17327167  0.29668576  0.19962106  1
  Bi2+  Bi99  1  0.09319450  0.16830785  0.71114957  1
  Bi2+  Bi100  1  0.12477642  0.57066573  0.21305146  1
  Bi2+  Bi101  1  0.13897883  0.48567344  0.70971370  1
  Bi2+  Bi102  1  0.09738501  0.76041611  0.18165882  1
  Bi2+  Bi103  1  0.15001690  0.80336762  0.70630256  1
  Bi2+  Bi104  1  0.35808484  -0.02539469  0.23605170  1
  Bi2+  Bi105  1  0.27099764  -0.04617375  0.72411685  1
  Bi2+  Bi106  1  0.34873922  0.19335654  0.20846384  1
  Bi2+  Bi107  1  0.34490378  0.26739426  0.70359361  1
  Bi2+  Bi108  1  0.40463888  0.49707441  0.21462248  1
  Bi2+  Bi109  1  0.40231131  0.51844675  0.70299608  1
  Bi2+  Bi110  1  0.37001177  0.76211885  0.20768343  1
  Bi2+  Bi111  1  0.35263218  0.71179381  0.69051266  1
  Bi2+  Bi112  1  0.61903960  -0.04213222  0.21298944  1
  Bi2+  Bi113  1  0.64357341  0.01492927  0.71969082  1
  Bi2+  Bi114  1  0.61987008  0.20755061  0.20703636  1
  Bi2+  Bi115  1  0.61169337  0.25949518  0.71572492  1
  Bi2+  Bi116  1  0.64601552  0.55064258  0.21475500  1
  Bi2+  Bi117  1  0.59166692  0.47117733  0.71378287  1
  Bi2+  Bi118  1  0.65135286  0.74995179  0.20951772  1
  Bi2+  Bi119  1  0.64307989  0.74208460  0.69901930  1
  Bi2+  Bi120  1  0.88274566  0.01493800  0.25324199  1
  Bi2+  Bi121  1  0.93275430  0.00657899  0.70970575  1
  Bi2+  Bi122  1  0.86178006  0.24397125  0.19552622  1
  Bi2+  Bi123  1  0.85747998  0.19451167  0.70645923  1
  Bi2+  Bi124  1  0.90940274  0.56321729  0.26069576  1
  Bi2+  Bi125  1  0.84093052  0.46741868  0.71009521  1
  Bi2+  Bi126  1  0.84748974  0.74462509  0.23956678  1
  Bi2+  Bi127  1  0.89687480  0.77906891  0.72299836  1
  S2-  S128  1  -0.00690541  0.14026962  0.15991357  1
  S2-  S129  1  -0.01218183  0.22268847  0.63884772  1
  S2-  S130  1  -0.06835071  0.38414859  0.14210493  1
  S2-  S131  1  -0.00413156  0.43816762  0.66124320  1
  S2-  S132  1  -0.00276434  0.63861829  0.14916963  1
  S2-  S133  1  -0.08101592  0.60907141  0.68928136  1
  S2-  S134  1  -0.02239804  0.90294398  0.15718324  1
  S2-  S135  1  0.01409742  0.77947177  0.64550293  1
  S2-  S136  1  0.21459656  0.12743667  0.15444274  1
  S2-  S137  1  0.32228599  0.14012698  0.64575538  1
  S2-  S138  1  0.29267355  0.40222841  0.16248540  1
  S2-  S139  1  0.22257004  0.35464385  0.65616179  1
  S2-  S140  1  0.34629003  0.62951617  0.14766341  1
  S2-  S141  1  0.16235265  0.60852885  0.64671640  1
  S2-  S142  1  0.19718691  0.89358353  0.13710171  1
  S2-  S143  1  0.36416307  0.87219603  0.64921104  1
  S2-  S144  1  0.51888916  0.01636925  0.14008541  1
  S2-  S145  1  0.48453473  0.06166219  0.70866438  1
  S2-  S146  1  0.51690913  0.26509994  0.13923400  1
  S2-  S147  1  0.49248829  0.28404647  0.64691186  1
  S2-  S148  1  0.52648536  0.49524705  0.14492538  1
  S2-  S149  1  0.51223021  0.70848592  0.64326848  1
  S2-  S150  1  0.51325800  0.77259966  0.14622158  1
  S2-  S151  1  0.62362361  0.89152103  0.64688886  1
  S2-  S152  1  0.75260161  0.13212551  0.15384447  1
  S2-  S153  1  0.65899843  0.12871387  0.64463338  1
  S2-  S154  1  0.72246129  0.34409833  0.19104742  1
  S2-  S155  1  0.77794636  0.33393242  0.65709813  1
  S2-  S156  1  0.76159077  0.55637887  0.14437127  1
  S2-  S157  1  0.71209673  0.56074739  0.66883806  1
  S2-  S158  1  0.72587747  0.88254585  0.14933562  1
  S2-  S159  1  0.77623044  0.76098292  0.64408076  1
  S2-  S160  1  0.10166487  0.10425460  0.35047270  1
  S2-  S161  1  0.11744323  0.13395297  0.85554995  1
  S2-  S162  1  0.25954394  0.24308598  0.35014931  1
  S2-  S163  1  0.15278365  0.35053319  0.84418501  1
  S2-  S164  1  0.10265556  0.38613100  0.35549486  1
  S2-  S165  1  0.01072840  0.49725312  0.82976182  1
  S2-  S166  1  0.13926591  0.86077524  0.35874402  1
  S2-  S167  1  0.13982710  0.66372813  0.84309541  1
  S2-  S168  1  0.35996460  0.02377596  0.35311879  1
  S2-  S169  1  0.31850387  0.03396307  0.84901225  1
  S2-  S170  1  0.48562285  0.25578254  0.34924105  1
  S2-  S171  1  0.38671555  0.25968155  0.83527301  1
  S2-  S172  1  0.35006345  0.48990485  0.34599729  1
  S2-  S173  1  0.31269152  0.51917589  0.85478677  1
  S2-  S174  1  0.37674338  0.77563216  0.35017274  1
  S2-  S175  1  0.38880596  0.77513509  0.83762663  1
  S2-  S176  1  0.62561105  0.08620746  0.35133663  1
  S2-  S177  1  0.51600450  -0.02505704  0.85718225  1
  S2-  S178  1  0.71429967  0.27726911  0.34710823  1
  S2-  S179  1  0.59848587  0.17113071  0.85817205  1
  S2-  S180  1  0.62511700  0.47584103  0.34180521  1
  S2-  S181  1  0.59958015  0.61286449  0.86008959  1
  S2-  S182  1  0.61887824  0.85767856  0.36253641  1
  S2-  S183  1  0.67303999  0.80492437  0.83531804  1
  S2-  S184  1  0.87023372  0.01103208  0.35438978  1
  S2-  S185  1  0.75944133  0.02114533  0.85305844  1
  S2-  S186  1  0.91678305  0.25801227  0.33570030  1
  S2-  S187  1  0.92591829  0.27943693  0.83946546  1
  S2-  S188  1  0.85556959  0.50426094  0.35198577  1
  S2-  S189  1  0.79187331  0.49515932  0.81475453  1
  S2-  S190  1  0.85727232  0.76467649  0.34484045  1
  S2-  S191  1  0.88220836  0.67790230  0.84975881  1
  S2-  S192  1  -0.00271519  0.12033142  0.45504965  1
  S2-  S193  1  0.00551892  0.13508537  0.95385558  1
  S2-  S194  1  -0.00356020  0.36044833  0.45998300  1
  S2-  S195  1  0.01272644  0.39237182  0.94837119  1
  S2-  S196  1  0.00285259  0.61437406  0.45157489  1
  S2-  S197  1  0.01498583  0.62960560  0.94716706  1
  S2-  S198  1  -0.00247009  0.86528546  0.45432189  1
  S2-  S199  1  0.01387704  0.88668650  0.95026097  1
  S2-  S200  1  0.24746262  0.11385430  0.45500022  1
  S2-  S201  1  0.26174832  0.13681624  0.95254643  1
  S2-  S202  1  0.24877427  0.36349113  0.45329264  1
  S2-  S203  1  0.25793162  0.38529209  0.95526189  1
  S2-  S204  1  0.24834639  0.61507613  0.45192715  1
  S2-  S205  1  0.25710065  0.63246052  0.95602818  1
  S2-  S206  1  0.25418288  0.86306626  0.46219172  1
  S2-  S207  1  0.26243724  0.88345370  0.94382839  1
  S2-  S208  1  0.49406192  0.10995165  0.45305753  1
  S2-  S209  1  0.51074408  0.13660983  0.96202727  1
  S2-  S210  1  0.50165313  0.37032012  0.45117762  1
  S2-  S211  1  0.51201319  0.38566903  0.95385608  1
  S2-  S212  1  0.50098897  0.61383795  0.45358743  1
  S2-  S213  1  0.50615406  0.63074773  0.96622224  1
  S2-  S214  1  0.49376026  0.86027259  0.46390216  1
  S2-  S215  1  0.51334555  0.87899024  0.96121150  1
  S2-  S216  1  0.74935975  0.11453129  0.45547821  1
  S2-  S217  1  0.76462363  0.14147753  0.95156521  1
  S2-  S218  1  0.74960931  0.36881833  0.45649967  1
  S2-  S219  1  0.76379829  0.38921119  0.93738780  1
  S2-  S220  1  0.74802274  0.61460688  0.45970988  1
  S2-  S221  1  0.76434621  0.63211466  0.95141469  1
  S2-  S222  1  0.75210386  0.86277394  0.46323708  1
  S2-  S223  1  0.76197085  0.88104658  0.94864484  1
  S2-  S224  1  0.13434653  0.01355751  0.03421341  1
  S2-  S225  1  0.12570705  -0.00960886  0.53793797  1
  S2-  S226  1  0.12965666  0.26145583  0.04421732  1
  S2-  S227  1  0.12691872  0.23661070  0.54366374  1
  S2-  S228  1  0.13139425  0.51091948  0.05850173  1
  S2-  S229  1  0.12128651  0.48595777  0.54392842  1
  S2-  S230  1  0.13494522  0.75859076  0.03680632  1
  S2-  S231  1  0.12683645  0.74090605  0.54098173  1
  S2-  S232  1  0.38151371  0.00912641  0.04401862  1
  S2-  S233  1  0.37683537  -0.00556581  0.55278792  1
  S2-  S234  1  0.38441320  0.26129883  0.04483533  1
  S2-  S235  1  0.37396774  0.23855925  0.53946541  1
  S2-  S236  1  0.38367537  0.50578204  0.04695693  1
  S2-  S237  1  0.37269290  0.48953186  0.54996395  1
  S2-  S238  1  0.37874276  0.76452881  0.04551069  1
  S2-  S239  1  0.36994679  0.73479491  0.54764449  1
  S2-  S240  1  0.64153531  0.01325083  0.03698418  1
  S2-  S241  1  0.61904090  -0.00633113  0.54478710  1
  S2-  S242  1  0.64855646  0.26995890  0.04475840  1
  S2-  S243  1  0.62420304  0.24089186  0.53946536  1
  S2-  S244  1  0.64151320  0.50403998  0.04268606  1
  S2-  S245  1  0.62462508  0.49085987  0.54833044  1
  S2-  S246  1  0.63698963  0.75609068  0.04317905  1
  S2-  S247  1  0.62532815  0.73848726  0.54203836  1
  S2-  S248  1  0.88328895  0.01060588  0.04097759  1
  S2-  S249  1  0.86793595  -0.00957314  0.55848683  1
  S2-  S250  1  0.88182245  0.26406042  0.04303436  1
  S2-  S251  1  0.86702543  0.23635687  0.54059382  1
  S2-  S252  1  0.88640647  0.51092092  0.03908466  1
  S2-  S253  1  0.87500042  0.49383846  0.55669908  1
  S2-  S254  1  0.88804731  0.76095599  0.04508801  1
  S2-  S255  1  0.88289362  0.73566689  0.54762554  1
