# generated using pymatgen
data_La12Ce14Pr13Nd13Sm12(BiS2)64
_symmetry_space_group_name_H-M   'P 1'
_cell_length_a   16.14611185
_cell_length_b   16.13011345
_cell_length_c   27.31707863
_cell_angle_alpha   90.07957401
_cell_angle_beta   89.88703569
_cell_angle_gamma   90.01709474
_symmetry_Int_Tables_number   1
_chemical_formula_structural   La12Ce14Pr13Nd13Sm12(BiS2)64
_chemical_formula_sum   'La12 Ce14 Pr13 Nd13 Sm12 Bi64 S128'
_cell_volume   7114.40115013
_cell_formula_units_Z   1
loop_
 _symmetry_equiv_pos_site_id
 _symmetry_equiv_pos_as_xyz
  1  'x, y, z'
loop_
 _atom_type_symbol
 _atom_type_oxidation_number
  La3+  3.0
  Ce3+  3.0
  Pr3+  3.0
  Nd3+  3.0
  Sm3+  3.0
  Bi2+  2.0
  S2-  -2.0
loop_
 _atom_site_type_symbol
 _atom_site_label
 _atom_site_symmetry_multiplicity
 _atom_site_fract_x
 _atom_site_fract_y
 _atom_site_fract_z
 _atom_site_occupancy
  La3+  La0  1  0.24916477  0.37278522  0.56166845  1
  La3+  La1  1  0.38256115  0.72531269  0.92822737  1
  La3+  La2  1  0.87305556  0.50723765  0.42300550  1
  La3+  La3  1  0.50012221  0.60554914  0.07720005  1
  La3+  La4  1  0.64207967  -0.02991306  0.91614665  1
  La3+  La5  1  0.86901579  0.25466525  0.41441106  1
  La3+  La6  1  0.39371104  0.47265339  0.92913990  1
  La3+  La7  1  0.88556171  0.72564917  0.93829144  1
  La3+  La8  1  0.49586183  0.14053434  0.60180501  1
  La3+  La9  1  0.86922024  0.00407511  0.42928248  1
  La3+  La10  1  0.25742641  0.10121707  0.06397994  1
  La3+  La11  1  0.61886644  0.24460274  0.42231986  1
  Ce3+  Ce12  1  0.37581115  0.00764893  0.44993181  1
  Ce3+  Ce13  1  -0.00564487  0.87711505  0.55154258  1
  Ce3+  Ce14  1  0.88184501  0.48269669  0.93803310  1
  Ce3+  Ce15  1  0.50683870  0.85348028  0.05123045  1
  Ce3+  Ce16  1  0.62126238  0.00719656  0.45311002  1
  Ce3+  Ce17  1  0.63529295  0.72601885  0.94513193  1
  Ce3+  Ce18  1  0.76088650  0.35081811  0.06808414  1
  Ce3+  Ce19  1  0.49916463  0.87893677  0.56455113  1
  Ce3+  Ce20  1  0.12423179  0.75235237  0.44190594  1
  Ce3+  Ce21  1  0.62106380  0.50417783  0.43929265  1
  Ce3+  Ce22  1  0.25937054  0.85630034  0.06174512  1
  Ce3+  Ce23  1  0.74994717  0.87764942  0.56304780  1
  Ce3+  Ce24  1  0.24518914  0.12565401  0.56308141  1
  Ce3+  Ce25  1  0.50178430  0.37333037  0.55639140  1
  Pr3+  Pr26  1  0.51047163  0.10018607  0.05319333  1
  Pr3+  Pr27  1  0.37585540  0.24568443  0.42823787  1
  Pr3+  Pr28  1  0.37401884  0.75199754  0.44076189  1
  Pr3+  Pr29  1  0.13608396  0.72416251  0.94799566  1
  Pr3+  Pr30  1  0.12327328  0.00553878  0.43607783  1
  Pr3+  Pr31  1  0.13467668  0.22920537  0.94152954  1
  Pr3+  Pr32  1  0.75890883  0.60503436  0.07278254  1
  Pr3+  Pr33  1  -0.00637720  0.12806573  0.56379690  1
  Pr3+  Pr34  1  0.87950863  0.22744165  0.93892006  1
  Pr3+  Pr35  1  0.12739919  0.24840509  0.42432491  1
  Pr3+  Pr36  1  0.75722076  0.09302996  0.06382055  1
  Pr3+  Pr37  1  0.76074503  0.85067100  0.07036633  1
  Pr3+  Pr38  1  0.50580554  0.34391002  0.08661944  1
  Nd3+  Nd39  1  0.62177011  0.75195521  0.44531635  1
  Nd3+  Nd40  1  0.00765070  0.85451985  0.06625331  1
  Nd3+  Nd41  1  0.26327464  0.34889438  0.06865144  1
  Nd3+  Nd42  1  0.63515852  0.22695167  0.94355828  1
  Nd3+  Nd43  1  0.13057515  -0.02375119  0.93165683  1
  Nd3+  Nd44  1  0.24894044  0.87816243  0.55774979  1
  Nd3+  Nd45  1  0.00717350  0.59990111  0.07183523  1
  Nd3+  Nd46  1  0.49935503  0.62632948  0.56491679  1
  Nd3+  Nd47  1  0.74930000  0.37548938  0.54898687  1
  Nd3+  Nd48  1  0.75738547  0.62612733  0.56310039  1
  Nd3+  Nd49  1  0.38507911  0.22425808  0.93293791  1
  Nd3+  Nd50  1  0.38381673  -0.02346480  0.92680270  1
  Nd3+  Nd51  1  -0.00218665  0.62765491  0.55483130  1
  Sm3+  Sm52  1  0.26060388  0.59999184  0.06435898  1
  Sm3+  Sm53  1  0.25010455  0.62629884  0.55553534  1
  Sm3+  Sm54  1  0.37410513  0.50014687  0.44213767  1
  Sm3+  Sm55  1  0.00413514  0.10071467  0.05339183  1
  Sm3+  Sm56  1  0.74886969  0.13202357  0.56437556  1
  Sm3+  Sm57  1  0.12411275  0.50110785  0.44409244  1
  Sm3+  Sm58  1  -0.00439681  0.37472108  0.55062062  1
  Sm3+  Sm59  1  0.00586682  0.35216724  0.05278268  1
  Sm3+  Sm60  1  0.86809859  0.75688776  0.42716709  1
  Sm3+  Sm61  1  0.88754442  -0.03046243  0.92551618  1
  Sm3+  Sm62  1  0.13657386  0.47573932  0.94984065  1
  Sm3+  Sm63  1  0.62901363  0.47677583  0.95703305  1
  Bi2+  Bi64  1  0.01261422  0.16062416  0.27556609  1
  Bi2+  Bi65  1  0.01429146  0.13995785  0.78087645  1
  Bi2+  Bi66  1  0.03836429  0.34831708  0.30424349  1
  Bi2+  Bi67  1  -0.02397486  0.42383201  0.79570756  1
  Bi2+  Bi68  1  0.05244845  0.61917830  0.28168591  1
  Bi2+  Bi69  1  -0.05356399  0.62671561  0.76634926  1
  Bi2+  Bi70  1  0.04818852  0.88808548  0.28931075  1
  Bi2+  Bi71  1  -0.01232383  0.89428001  0.77837601  1
  Bi2+  Bi72  1  0.24955936  0.12824745  0.29422300  1
  Bi2+  Bi73  1  0.23914814  0.10099430  0.78921937  1
  Bi2+  Bi74  1  0.23221294  0.39690942  0.28456804  1
  Bi2+  Bi75  1  0.18393540  0.37274930  0.79950541  1
  Bi2+  Bi76  1  0.25304127  0.67814864  0.28529109  1
  Bi2+  Bi77  1  0.26910038  0.73154894  0.80522123  1
  Bi2+  Bi78  1  0.24960219  0.91343736  0.28069008  1
  Bi2+  Bi79  1  0.18818278  0.91363152  0.79539238  1
  Bi2+  Bi80  1  0.49876690  0.12749642  0.29297418  1
  Bi2+  Bi81  1  0.50402339  0.14228425  0.79461043  1
  Bi2+  Bi82  1  0.51257181  0.40033857  0.28501087  1
  Bi2+  Bi83  1  0.44668310  0.35376958  0.77068224  1
  Bi2+  Bi84  1  0.49552441  0.63734205  0.30275399  1
  Bi2+  Bi85  1  0.50494285  0.62105423  0.81145339  1
  Bi2+  Bi86  1  0.45225651  0.88848826  0.24938713  1
  Bi2+  Bi87  1  0.44783013  0.84070806  0.75938862  1
  Bi2+  Bi88  1  0.75162390  0.09549183  0.29534378  1
  Bi2+  Bi89  1  0.75648470  0.15231057  0.79095105  1
  Bi2+  Bi90  1  0.76511230  0.36772434  0.27357846  1
  Bi2+  Bi91  1  0.78377729  0.40433172  0.79297417  1
  Bi2+  Bi92  1  0.73153774  0.62430208  0.31034338  1
  Bi2+  Bi93  1  0.75318813  0.60566798  0.79839923  1
  Bi2+  Bi94  1  0.75900466  0.85245832  0.27291223  1
  Bi2+  Bi95  1  0.76630486  0.87653456  0.79159865  1
  Bi2+  Bi96  1  0.11731304  -0.01825710  0.20112696  1
  Bi2+  Bi97  1  0.11290035  0.07641357  0.67382658  1
  Bi2+  Bi98  1  0.13672460  0.27727738  0.21245192  1
  Bi2+  Bi99  1  0.08537370  0.26537110  0.69758916  1
  Bi2+  Bi100  1  0.13587637  0.56782889  0.17852370  1
  Bi2+  Bi101  1  0.11535068  0.53099379  0.74591094  1
  Bi2+  Bi102  1  0.10064130  0.77116774  0.18152334  1
  Bi2+  Bi103  1  0.10450196  0.74617610  0.74159686  1
  Bi2+  Bi104  1  0.36525632  0.04958964  0.21055675  1
  Bi2+  Bi105  1  0.29022498  -0.00757049  0.69790359  1
  Bi2+  Bi106  1  0.37770969  0.25822633  0.20447604  1
  Bi2+  Bi107  1  0.29684900  0.25972398  0.72608295  1
  Bi2+  Bi108  1  0.31801949  0.52372895  0.21821824  1
  Bi2+  Bi109  1  0.33656858  0.51785043  0.71129775  1
  Bi2+  Bi110  1  0.30082037  0.78016275  0.19280582  1
  Bi2+  Bi111  1  0.36647058  0.70970315  0.68971294  1
  Bi2+  Bi112  1  0.62957590  -0.01716192  0.23209237  1
  Bi2+  Bi113  1  0.61703327  -0.00918013  0.71143201  1
  Bi2+  Bi114  1  0.62177418  0.22047104  0.21153063  1
  Bi2+  Bi115  1  0.63414631  0.27032323  0.70588808  1
  Bi2+  Bi116  1  0.73598572  0.58235567  0.20422924  1
  Bi2+  Bi117  1  0.60176883  0.46998398  0.76357965  1
  Bi2+  Bi118  1  0.59430944  0.74311573  0.20809424  1
  Bi2+  Bi119  1  0.62252531  0.74862558  0.76172030  1
  Bi2+  Bi120  1  0.86130334  0.00375202  0.19086440  1
  Bi2+  Bi121  1  0.92673551  0.02823719  0.70068561  1
  Bi2+  Bi122  1  0.87901410  0.25926304  0.20760461  1
  Bi2+  Bi123  1  0.88967382  0.29602341  0.70107676  1
  Bi2+  Bi124  1  0.96730029  0.48598108  0.21489022  1
  Bi2+  Bi125  1  0.79621474  0.52600711  0.69011109  1
  Bi2+  Bi126  1  0.92482237  0.76934186  0.23450610  1
  Bi2+  Bi127  1  0.84673794  0.77034470  0.68060527  1
  S2-  S128  1  0.00319178  0.07803501  0.15120381  1
  S2-  S129  1  -0.12788922  0.14921689  0.63813776  1
  S2-  S130  1  0.00659246  0.34702591  0.15043563  1
  S2-  S131  1  -0.00313977  0.39102881  0.64922417  1
  S2-  S132  1  -0.11007997  0.58691968  0.14647329  1
  S2-  S133  1  -0.08417585  0.61839082  0.64070106  1
  S2-  S134  1  -0.10042479  0.86492452  0.14573919  1
  S2-  S135  1  -0.02258606  0.85409482  0.64751075  1
  S2-  S136  1  0.25061133  0.21816554  0.14145421  1
  S2-  S137  1  0.32629001  0.15555487  0.64612936  1
  S2-  S138  1  0.36764860  0.39167472  0.14832599  1
  S2-  S139  1  0.26358836  0.39378064  0.66122649  1
  S2-  S140  1  0.36055593  0.63190564  0.14318657  1
  S2-  S141  1  0.23120595  0.61406350  0.65220424  1
  S2-  S142  1  0.26207186  0.97492422  0.13631069  1
  S2-  S143  1  0.26000504  0.84736283  0.65545539  1
  S2-  S144  1  0.50570323  0.18538027  0.14237985  1
  S2-  S145  1  0.48226523  0.07409205  0.70185428  1
  S2-  S146  1  0.56340629  0.36797215  0.19055919  1
  S2-  S147  1  0.50567788  0.30379251  0.64625324  1
  S2-  S148  1  0.57440553  0.58867203  0.17209161  1
  S2-  S149  1  0.47706264  0.58724479  0.66086264  1
  S2-  S150  1  0.48360483  0.83999922  0.14757646  1
  S2-  S151  1  0.52196480  0.86944347  0.66160424  1
  S2-  S152  1  0.77177042  0.16896190  0.15818259  1
  S2-  S153  1  0.65784651  0.13326312  0.65251860  1
  S2-  S154  1  0.77667998  0.38132024  0.16508581  1
  S2-  S155  1  0.74829000  0.36293454  0.64917920  1
  S2-  S156  1  0.73098528  0.73091927  0.14835060  1
  S2-  S157  1  0.70896819  0.65698830  0.65760688  1
  S2-  S158  1  0.71448205  0.97399626  0.14004952  1
  S2-  S159  1  0.75396951  0.90544813  0.66076035  1
  S2-  S160  1  0.11532629  0.11021768  0.35518388  1
  S2-  S161  1  0.01656430  -0.00249955  0.85598436  1
  S2-  S162  1  0.25817225  0.26887530  0.35315337  1
  S2-  S163  1  0.13498842  0.21803070  0.84189752  1
  S2-  S164  1  0.12390187  0.49752351  0.34640317  1
  S2-  S165  1  0.12801670  0.50375281  0.85292779  1
  S2-  S166  1  0.12135413  0.75178012  0.34476782  1
  S2-  S167  1  0.11387240  0.73861371  0.84907072  1
  S2-  S168  1  0.37684210  0.07073306  0.36003312  1
  S2-  S169  1  0.37527100  0.10362959  0.85610813  1
  S2-  S170  1  0.49251324  0.26954063  0.34879834  1
  S2-  S171  1  0.37282557  0.34174520  0.85802967  1
  S2-  S172  1  0.41081398  0.50783591  0.34529410  1
  S2-  S173  1  0.35879111  0.59666353  0.85609458  1
  S2-  S174  1  0.38885115  0.74184298  0.34078923  1
  S2-  S175  1  0.38553120  0.85279181  0.85154254  1
  S2-  S176  1  0.62148257  0.05840738  0.35996507  1
  S2-  S177  1  0.57334986  0.00572576  0.81893173  1
  S2-  S178  1  0.72897681  0.25048431  0.33961444  1
  S2-  S179  1  0.63652410  0.23046032  0.84251636  1
  S2-  S180  1  0.63396427  0.47996173  0.34038802  1
  S2-  S181  1  0.55495180  0.48165413  0.86798167  1
  S2-  S182  1  0.61342128  0.74375599  0.34580902  1
  S2-  S183  1  0.65240396  0.80972891  0.85903308  1
  S2-  S184  1  0.84711065  -0.12130891  0.35408079  1
  S2-  S185  1  0.77922198  0.01430032  0.85054339  1
  S2-  S186  1  0.89144390  0.11577776  0.34955564  1
  S2-  S187  1  0.88301362  0.21479047  0.83792253  1
  S2-  S188  1  0.87919194  0.39459842  0.34414383  1
  S2-  S189  1  0.89297338  0.60077462  0.86525199  1
  S2-  S190  1  0.87676984  0.63985671  0.35300160  1
  S2-  S191  1  0.88504954  0.83116697  0.85548991  1
  S2-  S192  1  -0.00136949  0.12964871  0.45726777  1
  S2-  S193  1  0.00643984  0.10648613  0.95154501  1
  S2-  S194  1  0.00399857  0.37596680  0.44740187  1
  S2-  S195  1  0.00748031  0.35504462  0.94784250  1
  S2-  S196  1  0.00258219  0.62782117  0.45032942  1
  S2-  S197  1  0.01423804  0.59772063  0.96581875  1
  S2-  S198  1  -0.00087091  0.87699889  0.44618027  1
  S2-  S199  1  0.01318157  0.85121541  0.95926106  1
  S2-  S200  1  0.24725438  0.12732276  0.45922866  1
  S2-  S201  1  0.25359512  0.09998058  0.95447752  1
  S2-  S202  1  0.24836388  0.38107329  0.45423116  1
  S2-  S203  1  0.25679922  0.35230949  0.96089229  1
  S2-  S204  1  0.24946854  0.62434144  0.45015279  1
  S2-  S205  1  0.25700747  0.59735404  0.96106279  1
  S2-  S206  1  0.24948999  0.87970755  0.44985861  1
  S2-  S207  1  0.25441417  0.85575302  0.95367636  1
  S2-  S208  1  0.49835499  0.12802498  0.46061509  1
  S2-  S209  1  0.51482232  0.09999504  0.94822059  1
  S2-  S210  1  0.49728065  0.37952866  0.45262377  1
  S2-  S211  1  0.51249655  0.34609650  0.96560744  1
  S2-  S212  1  0.49598487  0.62631662  0.45705716  1
  S2-  S213  1  0.51039355  0.60597996  0.96546384  1
  S2-  S214  1  0.49761407  0.87779839  0.45562383  1
  S2-  S215  1  0.50987808  0.85221159  0.94832962  1
  S2-  S216  1  0.74848775  0.12897960  0.45769830  1
  S2-  S217  1  0.75963151  0.10268407  0.95636079  1
  S2-  S218  1  0.74435765  0.37960079  0.44536534  1
  S2-  S219  1  0.75660789  0.35647946  0.95544861  1
  S2-  S220  1  0.74617625  0.62969843  0.45515906  1
  S2-  S221  1  0.75343082  0.59904414  0.96321967  1
  S2-  S222  1  0.74174538  0.87763905  0.45701356  1
  S2-  S223  1  0.76219055  0.85020900  0.96158183  1
  S2-  S224  1  0.12722785  -0.02203342  0.03935696  1
  S2-  S225  1  0.12140508  -0.00135076  0.54329835  1
  S2-  S226  1  0.12544079  0.22724149  0.04625099  1
  S2-  S227  1  0.12013485  0.25175929  0.54472535  1
  S2-  S228  1  0.13503132  0.47290989  0.05416582  1
  S2-  S229  1  0.12235214  0.50272909  0.54884182  1
  S2-  S230  1  0.13526162  0.72616050  0.05387061  1
  S2-  S231  1  0.12522970  0.75046663  0.54868946  1
  S2-  S232  1  0.38556051  -0.02143595  0.03518903  1
  S2-  S233  1  0.37545198  0.00290701  0.55540711  1
  S2-  S234  1  0.38477202  0.22522399  0.04002030  1
  S2-  S235  1  0.37548859  0.25267782  0.54056485  1
  S2-  S236  1  0.38324140  0.47862632  0.04324437  1
  S2-  S237  1  0.37373045  0.50273505  0.54714784  1
  S2-  S238  1  0.37749417  0.73263069  0.03803710  1
  S2-  S239  1  0.37337369  0.75100251  0.54754043  1
  S2-  S240  1  0.62958409  -0.02563427  0.03305559  1
  S2-  S241  1  0.62255547  0.00438279  0.55636354  1
  S2-  S242  1  0.63795756  0.22739152  0.04931731  1
  S2-  S243  1  0.62570457  0.25142785  0.54043242  1
  S2-  S244  1  0.63067657  0.47393414  0.06075793  1
  S2-  S245  1  0.62541675  0.50443160  0.54837569  1
  S2-  S246  1  0.62794641  0.72675382  0.04817687  1
  S2-  S247  1  0.62347307  0.75109589  0.55101520  1
  S2-  S248  1  0.88678677  -0.02299581  0.03722999  1
  S2-  S249  1  0.87079780  0.00145284  0.54111134  1
  S2-  S250  1  0.88421608  0.22727863  0.04596270  1
  S2-  S251  1  0.87361413  0.25660538  0.53327185  1
  S2-  S252  1  0.88327795  0.47412957  0.04391474  1
  S2-  S253  1  0.87596752  0.49968133  0.53477008  1
  S2-  S254  1  0.88917671  0.72485403  0.04647511  1
  S2-  S255  1  0.87290694  0.75217408  0.53432743  1
