# generated using pymatgen
data_La12Ce14Pr13Nd13Sm12(BiS2)64
_symmetry_space_group_name_H-M   'P 1'
_cell_length_a   16.13801176
_cell_length_b   16.10239028
_cell_length_c   27.31207389
_cell_angle_alpha   90.01887926
_cell_angle_beta   89.72667043
_cell_angle_gamma   90.00930349
_symmetry_Int_Tables_number   1
_chemical_formula_structural   La12Ce14Pr13Nd13Sm12(BiS2)64
_chemical_formula_sum   'La12 Ce14 Pr13 Nd13 Sm12 Bi64 S128'
_cell_volume   7097.24968108
_cell_formula_units_Z   1
loop_
 _symmetry_equiv_pos_site_id
 _symmetry_equiv_pos_as_xyz
  1  'x, y, z'
loop_
 _atom_type_symbol
 _atom_type_oxidation_number
  La3+  3.0
  Ce3+  3.0
  Pr3+  3.0
  Nd3+  3.0
  Sm3+  3.0
  Bi2+  2.0
  S2-  -2.0
loop_
 _atom_site_type_symbol
 _atom_site_label
 _atom_site_symmetry_multiplicity
 _atom_site_fract_x
 _atom_site_fract_y
 _atom_site_fract_z
 _atom_site_occupancy
  La3+  La0  1  0.25101885  0.11734720  0.58265099  1
  La3+  La1  1  0.26630002  0.36986448  0.57619795  1
  La3+  La2  1  0.01073904  0.39086357  0.60994323  1
  La3+  La3  1  0.64464924  0.49433907  0.42317166  1
  La3+  La4  1  0.23985535  0.86504202  0.11644272  1
  La3+  La5  1  0.26112299  0.62371209  0.56047752  1
  La3+  La6  1  0.38584866  -0.02185120  0.91683665  1
  La3+  La7  1  0.00133291  0.11773476  0.58011038  1
  La3+  La8  1  0.75002381  0.85402618  0.07372753  1
  La3+  La9  1  0.63935111  -0.01652777  0.91839757  1
  La3+  La10  1  0.75902215  0.35984945  0.07736353  1
  La3+  La11  1  0.26074494  0.60998892  0.07483607  1
  Ce3+  Ce12  1  0.50755729  0.10346424  0.05499396  1
  Ce3+  Ce13  1  0.00651697  0.10852848  0.06037971  1
  Ce3+  Ce14  1  0.51037850  0.37706911  0.56081748  1
  Ce3+  Ce15  1  0.76372166  0.12410271  0.56019393  1
  Ce3+  Ce16  1  0.88749525  0.74902331  0.42233039  1
  Ce3+  Ce17  1  0.25912322  0.36139190  0.06583750  1
  Ce3+  Ce18  1  0.37705523  0.48569604  0.93571285  1
  Ce3+  Ce19  1  0.63843665  0.74973945  0.42903361  1
  Ce3+  Ce20  1  0.00535689  0.35774978  0.06186725  1
  Ce3+  Ce21  1  0.13770396  0.50239531  0.43983192  1
  Ce3+  Ce22  1  0.88208803  0.48276955  0.94330280  1
  Ce3+  Ce23  1  0.87977525  -0.01786284  0.94517856  1
  Ce3+  Ce24  1  0.13302621  0.48216573  0.94296728  1
  Ce3+  Ce25  1  0.00898570  0.87227144  0.55173022  1
  Pr3+  Pr26  1  0.51156251  0.85747056  0.57857440  1
  Pr3+  Pr27  1  0.75294702  0.11073164  0.06659283  1
  Pr3+  Pr28  1  0.13381162  0.73533021  0.94730577  1
  Pr3+  Pr29  1  0.14092439  0.75225533  0.39605042  1
  Pr3+  Pr30  1  0.63732424  0.24637555  0.44558652  1
  Pr3+  Pr31  1  -0.00204277  0.85934618  0.07106727  1
  Pr3+  Pr32  1  0.38344518  0.49075382  0.43067907  1
  Pr3+  Pr33  1  0.13263354  0.24874924  0.45782053  1
  Pr3+  Pr34  1  0.63436734  -0.00506373  0.44578870  1
  Pr3+  Pr35  1  0.13595853  0.00817821  0.43360378  1
  Pr3+  Pr36  1  0.13354630  -0.01876966  0.94368653  1
  Pr3+  Pr37  1  0.87896554  0.23452179  0.93773904  1
  Pr3+  Pr38  1  0.63250923  0.73082029  0.93208210  1
  Nd3+  Nd39  1  0.26004208  0.10481657  0.05842074  1
  Nd3+  Nd40  1  0.38317854  -0.00272397  0.44651960  1
  Nd3+  Nd41  1  0.38982559  0.74305629  0.42611701  1
  Nd3+  Nd42  1  0.88826031  -0.00415787  0.43767708  1
  Nd3+  Nd43  1  0.89053477  0.24579658  0.44063247  1
  Nd3+  Nd44  1  0.38208009  0.24386067  0.43807152  1
  Nd3+  Nd45  1  0.13274542  0.23349432  0.94437712  1
  Nd3+  Nd46  1  0.49828641  0.85777925  0.05637112  1
  Nd3+  Nd47  1  0.26013304  0.87429082  0.56042877  1
  Nd3+  Nd48  1  0.37973936  0.72884539  0.93284385  1
  Nd3+  Nd49  1  0.76303118  0.62137139  0.55313589  1
  Nd3+  Nd50  1  0.63407841  0.48504009  0.92824878  1
  Nd3+  Nd51  1  0.50887266  0.12245467  0.56778432  1
  Sm3+  Sm52  1  0.51379811  0.62163328  0.54843412  1
  Sm3+  Sm53  1  0.50733005  0.60658830  0.05505926  1
  Sm3+  Sm54  1  0.75799116  0.86749892  0.55945827  1
  Sm3+  Sm55  1  0.88874549  0.49724302  0.43666880  1
  Sm3+  Sm56  1  0.50719554  0.35896531  0.04967336  1
  Sm3+  Sm57  1  0.00774488  0.61145889  0.05929800  1
  Sm3+  Sm58  1  0.76300206  0.37532597  0.55835699  1
  Sm3+  Sm59  1  0.63137954  0.23448872  0.94146806  1
  Sm3+  Sm60  1  0.88011826  0.73378451  0.94663475  1
  Sm3+  Sm61  1  0.75204118  0.60476684  0.06277509  1
  Sm3+  Sm62  1  0.38189490  0.23361253  0.93965072  1
  Sm3+  Sm63  1  0.00976630  0.62466385  0.55322081  1
  Bi2+  Bi64  1  -0.02305061  0.16633262  0.29903262  1
  Bi2+  Bi65  1  -0.03196608  0.10057592  0.77287425  1
  Bi2+  Bi66  1  0.00456669  0.38927807  0.29236072  1
  Bi2+  Bi67  1  0.00765983  0.36003802  0.81094820  1
  Bi2+  Bi68  1  -0.03100040  0.57557401  0.25827380  1
  Bi2+  Bi69  1  -0.03750524  0.63463646  0.73839525  1
  Bi2+  Bi70  1  -0.08099351  0.86945286  0.28883324  1
  Bi2+  Bi71  1  -0.02153091  0.91024110  0.80032845  1
  Bi2+  Bi72  1  0.22286432  0.09362880  0.30555721  1
  Bi2+  Bi73  1  0.26706026  0.17959948  0.79317909  1
  Bi2+  Bi74  1  0.22739043  0.36225393  0.28891776  1
  Bi2+  Bi75  1  0.27957464  0.45958846  0.80809556  1
  Bi2+  Bi76  1  0.25744763  0.61581125  0.28432503  1
  Bi2+  Bi77  1  0.24257429  0.64799553  0.79298107  1
  Bi2+  Bi78  1  0.31336238  0.91936505  0.31212439  1
  Bi2+  Bi79  1  0.23404508  0.87143772  0.81259719  1
  Bi2+  Bi80  1  0.39781023  0.15308122  0.26746122  1
  Bi2+  Bi81  1  0.52849190  0.14952725  0.79139565  1
  Bi2+  Bi82  1  0.48632473  0.32669637  0.29352982  1
  Bi2+  Bi83  1  0.55915580  0.40704825  0.79387544  1
  Bi2+  Bi84  1  0.53022847  0.62200843  0.29225087  1
  Bi2+  Bi85  1  0.52264294  0.66817436  0.77125190  1
  Bi2+  Bi86  1  0.51202212  0.89479744  0.28770308  1
  Bi2+  Bi87  1  0.52729148  0.87052618  0.78479048  1
  Bi2+  Bi88  1  0.67287557  0.11441926  0.27297004  1
  Bi2+  Bi89  1  0.76662190  0.09121170  0.78303950  1
  Bi2+  Bi90  1  0.72840124  0.36252994  0.30584662  1
  Bi2+  Bi91  1  0.74409554  0.35968033  0.80453107  1
  Bi2+  Bi92  1  0.70675145  0.66477747  0.24764375  1
  Bi2+  Bi93  1  0.76614335  0.62500976  0.80030848  1
  Bi2+  Bi94  1  0.72282913  0.87895920  0.29130002  1
  Bi2+  Bi95  1  0.78689157  0.84264361  0.79029673  1
  Bi2+  Bi96  1  0.12669694  0.01038357  0.21539012  1
  Bi2+  Bi97  1  0.11805753  0.00566712  0.71441298  1
  Bi2+  Bi98  1  0.10122386  0.27644953  0.21215079  1
  Bi2+  Bi99  1  0.16387388  0.27507146  0.71915671  1
  Bi2+  Bi100  1  0.12570521  0.47914449  0.21388392  1
  Bi2+  Bi101  1  0.13736898  0.54541310  0.71798396  1
  Bi2+  Bi102  1  0.12270587  0.74815175  0.22600018  1
  Bi2+  Bi103  1  0.05682611  0.80154286  0.71731578  1
  Bi2+  Bi104  1  0.45295085  0.00667811  0.19807235  1
  Bi2+  Bi105  1  0.36506529  0.01432609  0.71705469  1
  Bi2+  Bi106  1  0.28848507  0.24919613  0.18564336  1
  Bi2+  Bi107  1  0.42660062  0.27367749  0.70430949  1
  Bi2+  Bi108  1  0.37391909  0.41613120  0.21364703  1
  Bi2+  Bi109  1  0.42145439  0.50605398  0.73324668  1
  Bi2+  Bi110  1  0.43532364  0.73190130  0.21566372  1
  Bi2+  Bi111  1  0.37612918  0.73599281  0.70324008  1
  Bi2+  Bi112  1  0.63397579  -0.00300307  0.15227999  1
  Bi2+  Bi113  1  0.66121189  -0.02090866  0.71554134  1
  Bi2+  Bi114  1  0.59910796  0.25135622  0.20640498  1
  Bi2+  Bi115  1  0.62791292  0.26898504  0.71008137  1
  Bi2+  Bi116  1  0.59961572  0.51549810  0.19875891  1
  Bi2+  Bi117  1  0.60293499  0.45803475  0.68091710  1
  Bi2+  Bi118  1  0.61103014  0.80896101  0.18776705  1
  Bi2+  Bi119  1  0.67672020  0.72968886  0.71104901  1
  Bi2+  Bi120  1  0.80567037  0.01261208  0.21025018  1
  Bi2+  Bi121  1  0.85417481  -0.02570038  0.68958339  1
  Bi2+  Bi122  1  0.87882412  0.20178144  0.19942352  1
  Bi2+  Bi123  1  0.83183758  0.25844161  0.71703443  1
  Bi2+  Bi124  1  0.84450460  0.43750691  0.22445974  1
  Bi2+  Bi125  1  0.78964542  0.49344355  0.72038349  1
  Bi2+  Bi126  1  0.87656683  0.74102206  0.20627995  1
  Bi2+  Bi127  1  0.87159165  0.77386132  0.67593679  1
  S2-  S128  1  0.00980903  0.10026343  0.15848191  1
  S2-  S129  1  0.11135012  0.14021998  0.65953933  1
  S2-  S130  1  -0.08565202  0.35210553  0.14515116  1
  S2-  S131  1  0.00232253  0.32654347  0.71203675  1
  S2-  S132  1  -0.00445780  0.63231506  0.15687251  1
  S2-  S133  1  0.00323166  0.55959526  0.64545749  1
  S2-  S134  1  0.07816109  0.86952346  0.16102602  1
  S2-  S135  1  0.00882148  0.95597208  0.63837414  1
  S2-  S136  1  0.24766181  0.03741772  0.15015461  1
  S2-  S137  1  0.29193448  0.23622604  0.65372072  1
  S2-  S138  1  0.26272893  0.47236751  0.14332574  1
  S2-  S139  1  0.17091675  0.41315378  0.65904209  1
  S2-  S140  1  0.23516743  0.69980583  0.16204317  1
  S2-  S141  1  0.25695289  0.63612438  0.66159545  1
  S2-  S142  1  0.23620143  0.87358744  0.22828054  1
  S2-  S143  1  0.24998003  0.97151271  0.64681966  1
  S2-  S144  1  0.48950510  0.15655677  0.14818782  1
  S2-  S145  1  0.47318110  0.11250648  0.66613383  1
  S2-  S146  1  0.52940042  0.38210464  0.14681021  1
  S2-  S147  1  0.40998257  0.40948604  0.64130942  1
  S2-  S148  1  0.46820952  0.60697089  0.15230743  1
  S2-  S149  1  0.48800079  0.69675272  0.63509421  1
  S2-  S150  1  0.40910039  0.85682095  0.14413933  1
  S2-  S151  1  0.44082998  0.89364102  0.67463401  1
  S2-  S152  1  0.73742731  0.22724100  0.14575064  1
  S2-  S153  1  0.85494583  0.13447961  0.64390369  1
  S2-  S154  1  0.73797053  0.49436406  0.14290169  1
  S2-  S155  1  0.84152770  0.38605431  0.64488748  1
  S2-  S156  1  0.73898945  0.71197552  0.14153593  1
  S2-  S157  1  0.70714016  0.59459551  0.64676945  1
  S2-  S158  1  0.87186928  0.88079272  0.14760401  1
  S2-  S159  1  0.65539744  0.86394244  0.64137001  1
  S2-  S160  1  0.15350222  -0.07944115  0.34652837  1
  S2-  S161  1  0.11109265  -0.01070448  0.84334862  1
  S2-  S162  1  0.11418716  0.16153228  0.36941101  1
  S2-  S163  1  0.13754904  0.25852797  0.84592245  1
  S2-  S164  1  0.14753285  0.58019458  0.35170837  1
  S2-  S165  1  0.11391304  0.48690014  0.84511689  1
  S2-  S166  1  -0.00785144  0.74871062  0.34096882  1
  S2-  S167  1  0.13358442  0.74542674  0.84581995  1
  S2-  S168  1  0.37395097  0.11060734  0.36829714  1
  S2-  S169  1  0.31538026  0.02908162  0.82173520  1
  S2-  S170  1  0.35947494  0.35608633  0.36068539  1
  S2-  S171  1  0.40082935  0.24469711  0.84134755  1
  S2-  S172  1  0.38541242  0.57988946  0.34285539  1
  S2-  S173  1  0.36718402  0.59670425  0.86083559  1
  S2-  S174  1  0.28933224  0.75684347  0.34241859  1
  S2-  S175  1  0.38026294  0.82913918  0.84716930  1
  S2-  S176  1  0.62265603  0.00379687  0.34508372  1
  S2-  S177  1  0.51710477  0.00852011  0.84492478  1
  S2-  S178  1  0.61815868  0.23341005  0.34582022  1
  S2-  S179  1  0.65536012  0.17226229  0.85072198  1
  S2-  S180  1  0.58424177  0.46089766  0.32970626  1
  S2-  S181  1  0.62330498  0.60714740  0.85487806  1
  S2-  S182  1  0.52161152  0.76314823  0.35614368  1
  S2-  S183  1  0.64100159  0.83975028  0.85168831  1
  S2-  S184  1  0.91937044  0.02341709  0.34058902  1
  S2-  S185  1  0.79412573  -0.01340564  0.86127692  1
  S2-  S186  1  0.84968081  0.24744246  0.34258302  1
  S2-  S187  1  0.92071429  0.21635375  0.84007513  1
  S2-  S188  1  0.79170070  0.48920202  0.35470350  1
  S2-  S189  1  0.87547468  0.45452990  0.84673466  1
  S2-  S190  1  0.75708554  0.74791364  0.35351573  1
  S2-  S191  1  0.87816382  0.72686890  0.84822206  1
  S2-  S192  1  0.00407024  0.11990896  0.46825876  1
  S2-  S193  1  0.00676619  0.10909247  0.95277484  1
  S2-  S194  1  0.01109930  0.37485022  0.43939572  1
  S2-  S195  1  0.00720313  0.35742543  0.95586786  1
  S2-  S196  1  0.00943109  0.62362244  0.44931413  1
  S2-  S197  1  0.00591610  0.60963587  0.95346410  1
  S2-  S198  1  0.01435334  0.87209820  0.44740749  1
  S2-  S199  1  0.00372583  0.85742297  0.95853493  1
  S2-  S200  1  0.25908610  0.12446914  0.47198243  1
  S2-  S201  1  0.25900923  0.10998294  0.95042078  1
  S2-  S202  1  0.25591010  0.37313606  0.46425779  1
  S2-  S203  1  0.25786662  0.35709741  0.95643832  1
  S2-  S204  1  0.25878009  0.62799529  0.45324873  1
  S2-  S205  1  0.25221337  0.60585047  0.96283286  1
  S2-  S206  1  0.26000400  0.87222353  0.45534449  1
  S2-  S207  1  0.25757797  0.85861542  0.94792763  1
  S2-  S208  1  0.51282889  0.12198163  0.46124806  1
  S2-  S209  1  0.50607931  0.11363896  0.95026067  1
  S2-  S210  1  0.51307821  0.37013096  0.45393980  1
  S2-  S211  1  0.50713518  0.36005074  0.94449738  1
  S2-  S212  1  0.51554542  0.61680459  0.44672166  1
  S2-  S213  1  0.50634186  0.60391828  0.95319641  1
  S2-  S214  1  0.50821064  0.87475068  0.46002367  1
  S2-  S215  1  0.50645016  0.85488987  0.95135411  1
  S2-  S216  1  0.76266383  0.12073826  0.45277356  1
  S2-  S217  1  0.75525222  0.11270355  0.95989203  1
  S2-  S218  1  0.76547973  0.36878439  0.45559969  1
  S2-  S219  1  0.75382040  0.35913343  0.95460517  1
  S2-  S220  1  0.76526516  0.62205566  0.45060564  1
  S2-  S221  1  0.75939876  0.60690001  0.95688520  1
  S2-  S222  1  0.76271845  0.87426048  0.45460501  1
  S2-  S223  1  0.75954474  0.85414565  0.96189352  1
  S2-  S224  1  0.13108772  -0.01858215  0.04919824  1
  S2-  S225  1  0.13354357  -0.00474872  0.54129777  1
  S2-  S226  1  0.13378939  0.23373715  0.05189130  1
  S2-  S227  1  0.12128527  0.25909685  0.56070515  1
  S2-  S228  1  0.12694702  0.48404749  0.04960765  1
  S2-  S229  1  0.13085767  0.49983976  0.54520284  1
  S2-  S230  1  0.12948247  0.73774337  0.05315337  1
  S2-  S231  1  0.13204236  0.74870784  0.55992284  1
  S2-  S232  1  0.38235580  -0.01377656  0.03803800  1
  S2-  S233  1  0.39057193  -0.00532851  0.55108643  1
  S2-  S234  1  0.38173019  0.23594541  0.04399293  1
  S2-  S235  1  0.39187624  0.24653979  0.54486333  1
  S2-  S236  1  0.38552484  0.48154323  0.04128760  1
  S2-  S237  1  0.38832899  0.50354371  0.53801498  1
  S2-  S238  1  0.38422244  0.72621398  0.04083679  1
  S2-  S239  1  0.38384077  0.74901125  0.53703142  1
  S2-  S240  1  0.63032087  -0.01926673  0.03730667  1
  S2-  S241  1  0.63648879  -0.00050620  0.55141168  1
  S2-  S242  1  0.62809833  0.23656207  0.04327807  1
  S2-  S243  1  0.63783810  0.24956241  0.55421466  1
  S2-  S244  1  0.62946645  0.48212916  0.03571548  1
  S2-  S245  1  0.63794201  0.49700433  0.53606507  1
  S2-  S246  1  0.62543612  0.72998008  0.04040105  1
  S2-  S247  1  0.63848751  0.74338978  0.53698904  1
  S2-  S248  1  0.87822775  -0.01059189  0.04824439  1
  S2-  S249  1  0.87657197  -0.00881782  0.54289940  1
  S2-  S250  1  0.88247085  0.23194879  0.04364755  1
  S2-  S251  1  0.88536943  0.25423679  0.54578139  1
  S2-  S252  1  0.88444197  0.48813780  0.04764126  1
  S2-  S253  1  0.88818911  0.49735367  0.54015631  1
  S2-  S254  1  0.88064739  0.72753062  0.04884975  1
  S2-  S255  1  0.88420545  0.74722189  0.53702075  1
