# generated using pymatgen
data_La12Ce14Pr13Nd13Sm12(BiS2)64
_symmetry_space_group_name_H-M   'P 1'
_cell_length_a   16.12188451
_cell_length_b   16.18290934
_cell_length_c   27.15959106
_cell_angle_alpha   90.06491299
_cell_angle_beta   90.30619851
_cell_angle_gamma   90.04757667
_symmetry_Int_Tables_number   1
_chemical_formula_structural   La12Ce14Pr13Nd13Sm12(BiS2)64
_chemical_formula_sum   'La12 Ce14 Pr13 Nd13 Sm12 Bi64 S128'
_cell_volume   7085.80180959
_cell_formula_units_Z   1
loop_
 _symmetry_equiv_pos_site_id
 _symmetry_equiv_pos_as_xyz
  1  'x, y, z'
loop_
 _atom_type_symbol
 _atom_type_oxidation_number
  La3+  3.0
  Ce3+  3.0
  Pr3+  3.0
  Nd3+  3.0
  Sm3+  3.0
  Bi2+  2.0
  S2-  -2.0
loop_
 _atom_site_type_symbol
 _atom_site_label
 _atom_site_symmetry_multiplicity
 _atom_site_fract_x
 _atom_site_fract_y
 _atom_site_fract_z
 _atom_site_occupancy
  La3+  La0  1  0.00304228  0.11370348  0.57484845  1
  La3+  La1  1  0.37163975  -0.01336485  0.42516315  1
  La3+  La2  1  0.60034793  0.01555162  0.92997313  1
  La3+  La3  1  0.47649911  0.40039088  0.08912517  1
  La3+  La4  1  0.62495380  0.74748824  0.42601174  1
  La3+  La5  1  -0.02542558  0.89056860  0.07749417  1
  La3+  La6  1  0.35024750  0.50808880  0.91965570  1
  La3+  La7  1  0.46788847  0.89158402  0.07471958  1
  La3+  La8  1  0.62168788  0.25081707  0.42046354  1
  La3+  La9  1  0.63002912  0.00664647  0.38281770  1
  La3+  La10  1  0.72526227  0.13983218  0.07583039  1
  La3+  La11  1  0.25986163  0.87170702  0.57965231  1
  Ce3+  Ce12  1  0.35332434  0.76551980  0.93708093  1
  Ce3+  Ce13  1  0.25181356  0.36847504  0.55679511  1
  Ce3+  Ce14  1  0.87606562  -0.00352485  0.43437053  1
  Ce3+  Ce15  1  0.25278626  0.12049378  0.55433383  1
  Ce3+  Ce16  1  0.37657700  0.49752055  0.43837247  1
  Ce3+  Ce17  1  0.74765394  0.11910830  0.55215669  1
  Ce3+  Ce18  1  0.73210097  0.38977518  0.06005390  1
  Ce3+  Ce19  1  -0.01676962  0.39788241  0.07517535  1
  Ce3+  Ce20  1  0.47645505  0.63458535  0.05617839  1
  Ce3+  Ce21  1  0.35673002  0.01651583  0.93184203  1
  Ce3+  Ce22  1  0.10140263  0.51327707  0.93337048  1
  Ce3+  Ce23  1  0.50181612  0.87171251  0.55400003  1
  Ce3+  Ce24  1  0.85444105  0.26192960  0.94896037  1
  Ce3+  Ce25  1  0.72797916  0.63714823  0.05409434  1
  Pr3+  Pr26  1  0.22857600  0.63663417  0.05224177  1
  Pr3+  Pr27  1  0.12635288  0.24601874  0.42847449  1
  Pr3+  Pr28  1  0.74857625  0.62098526  0.55982196  1
  Pr3+  Pr29  1  0.50315842  0.12075176  0.55166054  1
  Pr3+  Pr30  1  0.12458929  -0.01148469  0.43776673  1
  Pr3+  Pr31  1  0.72559627  0.88824973  0.06187346  1
  Pr3+  Pr32  1  0.50716735  0.61811179  0.56273506  1
  Pr3+  Pr33  1  0.37679070  0.24587127  0.43350646  1
  Pr3+  Pr34  1  0.00205664  0.86739536  0.57123928  1
  Pr3+  Pr35  1  0.00280995  0.36982332  0.55439832  1
  Pr3+  Pr36  1  0.10104507  0.26087476  0.94474146  1
  Pr3+  Pr37  1  0.50681848  0.37029870  0.57021124  1
  Pr3+  Pr38  1  -0.01960654  0.64376411  0.06806514  1
  Nd3+  Nd39  1  0.61897364  0.49469625  0.42669669  1
  Nd3+  Nd40  1  0.23449210  0.13666259  0.06400086  1
  Nd3+  Nd41  1  0.85690941  0.51471067  0.94040047  1
  Nd3+  Nd42  1  0.60089313  0.76271454  0.94612290  1
  Nd3+  Nd43  1  0.09330667  0.01310823  0.93265244  1
  Nd3+  Nd44  1  0.85483239  0.76859242  0.94106034  1
  Nd3+  Nd45  1  0.60272963  0.51228775  0.93811455  1
  Nd3+  Nd46  1  -0.00146717  0.62214128  0.57496899  1
  Nd3+  Nd47  1  0.60009042  0.26776155  0.94652399  1
  Nd3+  Nd48  1  0.22588278  0.39044319  0.06442743  1
  Nd3+  Nd49  1  -0.01899239  0.13533610  0.07216232  1
  Nd3+  Nd50  1  0.47896922  0.14245806  0.06596458  1
  Nd3+  Nd51  1  0.25833551  0.61373656  0.56908412  1
  Sm3+  Sm52  1  0.87567434  0.74509846  0.44396466  1
  Sm3+  Sm53  1  0.75057796  0.36915732  0.55656765  1
  Sm3+  Sm54  1  0.12397187  0.50034770  0.44516873  1
  Sm3+  Sm55  1  0.37148368  0.74609695  0.44186392  1
  Sm3+  Sm56  1  0.87645790  0.24375062  0.44418230  1
  Sm3+  Sm57  1  0.87517925  0.49759258  0.44183835  1
  Sm3+  Sm58  1  0.35299668  0.26469024  0.94489683  1
  Sm3+  Sm59  1  0.10106029  0.76739274  0.94150161  1
  Sm3+  Sm60  1  0.84585127  0.02137545  0.94122014  1
  Sm3+  Sm61  1  0.22929861  0.89169204  0.05009542  1
  Sm3+  Sm62  1  0.75067719  0.87452350  0.55134497  1
  Sm3+  Sm63  1  0.12306312  0.74378205  0.45506529  1
  Bi2+  Bi64  1  0.02847386  0.15293391  0.29835776  1
  Bi2+  Bi65  1  -0.00251270  0.12891069  0.80869675  1
  Bi2+  Bi66  1  0.07148059  0.34323123  0.30522734  1
  Bi2+  Bi67  1  -0.01433625  0.38625172  0.79171130  1
  Bi2+  Bi68  1  0.01151977  0.67664323  0.30385792  1
  Bi2+  Bi69  1  0.00494851  0.57824231  0.81345394  1
  Bi2+  Bi70  1  0.02796518  0.96260182  0.31372489  1
  Bi2+  Bi71  1  -0.01961085  0.86825891  0.80043475  1
  Bi2+  Bi72  1  0.24716638  0.12727056  0.28181141  1
  Bi2+  Bi73  1  0.30542629  0.04418209  0.80421315  1
  Bi2+  Bi74  1  0.25973701  0.36968533  0.28079283  1
  Bi2+  Bi75  1  0.18455132  0.36778286  0.78425580  1
  Bi2+  Bi76  1  0.25218255  0.55414033  0.32121472  1
  Bi2+  Bi77  1  0.20038709  0.59429318  0.76728708  1
  Bi2+  Bi78  1  0.21050281  0.87251781  0.29145106  1
  Bi2+  Bi79  1  0.30074843  0.85330239  0.77334177  1
  Bi2+  Bi80  1  0.51399103  0.14632955  0.27813242  1
  Bi2+  Bi81  1  0.57345557  0.10351497  0.78896546  1
  Bi2+  Bi82  1  0.53117160  0.38780428  0.28400246  1
  Bi2+  Bi83  1  0.52287889  0.37499558  0.80565686  1
  Bi2+  Bi84  1  0.55649110  0.63365829  0.31234272  1
  Bi2+  Bi85  1  0.51463064  0.63728546  0.81065948  1
  Bi2+  Bi86  1  0.48596916  0.88455541  0.28039102  1
  Bi2+  Bi87  1  0.48895484  0.85799500  0.73613445  1
  Bi2+  Bi88  1  0.80116018  0.11577136  0.27823105  1
  Bi2+  Bi89  1  0.78033047  0.11215149  0.77953594  1
  Bi2+  Bi90  1  0.79247025  0.36260830  0.28842279  1
  Bi2+  Bi91  1  0.75169132  0.38279506  0.72471307  1
  Bi2+  Bi92  1  0.75043869  0.61807773  0.30227727  1
  Bi2+  Bi93  1  0.77288242  0.59281413  0.77763004  1
  Bi2+  Bi94  1  0.77013052  0.83878957  0.27847818  1
  Bi2+  Bi95  1  0.73082647  0.86766998  0.79819652  1
  Bi2+  Bi96  1  0.14418091  -0.04469729  0.19322033  1
  Bi2+  Bi97  1  0.12189503  0.01255682  0.70744148  1
  Bi2+  Bi98  1  0.13856496  0.15241864  0.18639596  1
  Bi2+  Bi99  1  0.18341170  0.25183688  0.69415388  1
  Bi2+  Bi100  1  0.14458537  0.51157972  0.20615612  1
  Bi2+  Bi101  1  0.03576878  0.51967615  0.70189079  1
  Bi2+  Bi102  1  0.16830397  0.69760905  0.23584428  1
  Bi2+  Bi103  1  0.06593303  0.72859125  0.74141741  1
  Bi2+  Bi104  1  0.34063275  0.00774643  0.20952596  1
  Bi2+  Bi105  1  0.38624782  0.01558821  0.69907096  1
  Bi2+  Bi106  1  0.37617900  0.26753623  0.20999449  1
  Bi2+  Bi107  1  0.33500305  0.22658889  0.76554784  1
  Bi2+  Bi108  1  0.37180459  0.53189102  0.21127774  1
  Bi2+  Bi109  1  0.36322155  0.44335438  0.71280381  1
  Bi2+  Bi110  1  0.37179929  0.69448504  0.27917606  1
  Bi2+  Bi111  1  0.36104199  0.69273912  0.71677013  1
  Bi2+  Bi112  1  0.65193567  -0.02476850  0.17949924  1
  Bi2+  Bi113  1  0.63715250  0.00565400  0.69148931  1
  Bi2+  Bi114  1  0.68651333  0.24714516  0.20059657  1
  Bi2+  Bi115  1  0.63185489  0.22664099  0.70992832  1
  Bi2+  Bi116  1  0.67690251  0.51413041  0.21494236  1
  Bi2+  Bi117  1  0.58651113  0.51261439  0.69619834  1
  Bi2+  Bi118  1  0.63400396  0.70903112  0.21713817  1
  Bi2+  Bi119  1  0.63707880  0.72418241  0.73089931  1
  Bi2+  Bi120  1  0.93400007  -0.10135051  0.22369869  1
  Bi2+  Bi121  1  0.85673548  -0.04327449  0.72119192  1
  Bi2+  Bi122  1  0.99233362  0.27961012  0.20317701  1
  Bi2+  Bi123  1  0.90499149  0.26543029  0.71310601  1
  Bi2+  Bi124  1  0.94399489  0.46138649  0.24402850  1
  Bi2+  Bi125  1  0.84337165  0.54235044  0.67275869  1
  Bi2+  Bi126  1  0.90477600  0.65802094  0.20938558  1
  Bi2+  Bi127  1  0.85082527  0.72828812  0.70787409  1
  S2-  S128  1  -0.00778772  0.01658501  0.14791748  1
  S2-  S129  1  0.03733111  0.16779827  0.67234436  1
  S2-  S130  1  0.11353600  0.38473379  0.14375412  1
  S2-  S131  1  -0.00002271  0.37289388  0.65461052  1
  S2-  S132  1  -0.03264850  0.53031427  0.14640406  1
  S2-  S133  1  -0.01115563  0.74548826  0.64696963  1
  S2-  S134  1  -0.00812483  0.75941612  0.14754751  1
  S2-  S135  1  -0.01409944  0.97929898  0.64875236  1
  S2-  S136  1  0.35764171  0.13327374  0.13950035  1
  S2-  S137  1  0.24586353  0.09962276  0.65257178  1
  S2-  S138  1  0.33031073  0.39486042  0.14720587  1
  S2-  S139  1  0.23826199  0.41039730  0.65179315  1
  S2-  S140  1  0.25051329  0.62848199  0.15289781  1
  S2-  S141  1  0.22461601  0.65007947  0.66480788  1
  S2-  S142  1  0.29980539  0.89277377  0.14014754  1
  S2-  S143  1  0.19014174  0.88459867  0.67462024  1
  S2-  S144  1  0.58956134  0.12861742  0.14753282  1
  S2-  S145  1  0.50119971  0.10990936  0.65378233  1
  S2-  S146  1  0.52836158  0.33386669  0.18274553  1
  S2-  S147  1  0.44670672  0.33569211  0.66747014  1
  S2-  S148  1  0.48822336  0.56080231  0.14487402  1
  S2-  S149  1  0.43421548  0.57394233  0.65458793  1
  S2-  S150  1  0.51664502  0.87408877  0.17286101  1
  S2-  S151  1  0.41199697  0.86896891  0.63901000  1
  S2-  S152  1  0.80176057  0.14118049  0.17144213  1
  S2-  S153  1  0.73600799  0.13882808  0.65056597  1
  S2-  S154  1  0.75683039  0.39339582  0.15774603  1
  S2-  S155  1  0.64912261  0.38175821  0.63597651  1
  S2-  S156  1  0.74953038  0.64237819  0.15170014  1
  S2-  S157  1  0.63402082  0.63425898  0.63736287  1
  S2-  S158  1  0.79897996  0.89083708  0.15470354  1
  S2-  S159  1  0.73811425  0.88934780  0.65092821  1
  S2-  S160  1  0.23263368  -0.00079514  0.35695869  1
  S2-  S161  1  0.14062976  0.03761965  0.83417949  1
  S2-  S162  1  0.25414942  0.24511641  0.35659775  1
  S2-  S163  1  0.09307545  0.25510712  0.84355808  1
  S2-  S164  1  0.08502300  0.53975322  0.35236346  1
  S2-  S165  1  0.20749036  0.49984106  0.85449267  1
  S2-  S166  1  0.11021860  0.77806219  0.35866777  1
  S2-  S167  1  0.10655098  0.78232965  0.84334670  1
  S2-  S168  1  0.46261029  0.02197786  0.34002409  1
  S2-  S169  1  0.47358110  0.01648082  0.85723262  1
  S2-  S170  1  0.47704060  0.26379421  0.34767874  1
  S2-  S171  1  0.37986905  0.30562170  0.84942104  1
  S2-  S172  1  0.47794455  0.49184963  0.35821023  1
  S2-  S173  1  0.41593439  0.51207660  0.82207656  1
  S2-  S174  1  0.37168358  0.82362878  0.35279556  1
  S2-  S175  1  0.36636417  0.73935561  0.84016070  1
  S2-  S176  1  0.61092579  0.00555679  0.26897111  1
  S2-  S177  1  0.73340333  0.01191257  0.86207624  1
  S2-  S178  1  0.65862029  0.16134572  0.33326982  1
  S2-  S179  1  0.60770739  0.25274043  0.84615361  1
  S2-  S180  1  0.65731499  0.38299400  0.34990142  1
  S2-  S181  1  0.62132705  0.50761875  0.83841971  1
  S2-  S182  1  0.62045670  0.84297877  0.34039723  1
  S2-  S183  1  0.60682073  0.78423892  0.84748067  1
  S2-  S184  1  0.79946191  -0.00596109  0.34318603  1
  S2-  S185  1  0.95388079  -0.00300490  0.86613056  1
  S2-  S186  1  0.86997664  0.23434804  0.34516284  1
  S2-  S187  1  0.85971271  0.20492987  0.85551934  1
  S2-  S188  1  0.85606067  0.49531424  0.34387747  1
  S2-  S189  1  0.85828503  0.48357947  0.84176173  1
  S2-  S190  1  0.85573919  0.75554679  0.34491263  1
  S2-  S191  1  0.85009289  0.76925672  0.84135935  1
  S2-  S192  1  0.00273601  0.12095349  0.45386293  1
  S2-  S193  1  -0.02380368  0.13687199  0.96469715  1
  S2-  S194  1  -0.00037046  0.37268246  0.44766646  1
  S2-  S195  1  -0.02178381  0.38860682  0.95703811  1
  S2-  S196  1  -0.00312262  0.62179838  0.46452491  1
  S2-  S197  1  -0.02054358  0.64291818  0.95457832  1
  S2-  S198  1  -0.00256691  0.86670104  0.46095848  1
  S2-  S199  1  -0.02175722  0.88640494  0.96494642  1
  S2-  S200  1  0.24830977  0.12031378  0.45269561  1
  S2-  S201  1  0.23044834  0.13928328  0.95325646  1
  S2-  S202  1  0.24681068  0.37801935  0.45102099  1
  S2-  S203  1  0.22683085  0.38409666  0.95660545  1
  S2-  S204  1  0.24876136  0.62208800  0.45908538  1
  S2-  S205  1  0.22526945  0.64348069  0.94585917  1
  S2-  S206  1  0.24743928  0.86314391  0.46470809  1
  S2-  S207  1  0.22743555  0.89100986  0.94469583  1
  S2-  S208  1  0.50321783  0.11794337  0.44591329  1
  S2-  S209  1  0.47686540  0.14495340  0.95811939  1
  S2-  S210  1  0.49821978  0.37245445  0.45993653  1
  S2-  S211  1  0.47693839  0.39133916  0.95402812  1
  S2-  S212  1  0.49798613  0.62608130  0.45494291  1
  S2-  S213  1  0.47645291  0.63569834  0.94947096  1
  S2-  S214  1  0.49924284  0.86686829  0.45046938  1
  S2-  S215  1  0.47695482  0.88552377  0.95923680  1
  S2-  S216  1  0.75223419  0.12167966  0.44744368  1
  S2-  S217  1  0.72350788  0.14444114  0.96469380  1
  S2-  S218  1  0.75845197  0.37047954  0.45390588  1
  S2-  S219  1  0.73082406  0.38971946  0.95150511  1
  S2-  S220  1  0.75044561  0.62015804  0.45058319  1
  S2-  S221  1  0.72964195  0.63910311  0.94632111  1
  S2-  S222  1  0.75373969  0.87052992  0.44784599  1
  S2-  S223  1  0.72614535  0.88573851  0.95645893  1
  S2-  S224  1  0.11028999  0.01511501  0.04226532  1
  S2-  S225  1  0.12933677  -0.00816817  0.54687802  1
  S2-  S226  1  0.10438126  0.25700870  0.05018333  1
  S2-  S227  1  0.12497268  0.24376440  0.54161695  1
  S2-  S228  1  0.10217154  0.51652986  0.04004696  1
  S2-  S229  1  0.12324845  0.50017666  0.55036133  1
  S2-  S230  1  0.11001393  0.76848534  0.04637300  1
  S2-  S231  1  0.13169308  0.74145158  0.55717092  1
  S2-  S232  1  0.35382683  0.01452854  0.03727469  1
  S2-  S233  1  0.37732824  -0.00327636  0.53837373  1
  S2-  S234  1  0.35543605  0.26925409  0.04700182  1
  S2-  S235  1  0.37710500  0.24648729  0.54414826  1
  S2-  S236  1  0.35245539  0.51378922  0.03653070  1
  S2-  S237  1  0.37838520  0.49111229  0.54430072  1
  S2-  S238  1  0.35251151  0.76221277  0.04395143  1
  S2-  S239  1  0.37781611  0.73811827  0.54635553  1
  S2-  S240  1  0.59829940  0.01038446  0.04419233  1
  S2-  S241  1  0.62606103  -0.00622947  0.54628146  1
  S2-  S242  1  0.59964173  0.27382265  0.05263033  1
  S2-  S243  1  0.62839219  0.24630992  0.53720971  1
  S2-  S244  1  0.60599948  0.51212823  0.04488207  1
  S2-  S245  1  0.62976621  0.49391997  0.53377659  1
  S2-  S246  1  0.59900115  0.76194483  0.05349624  1
  S2-  S247  1  0.62891788  0.75145184  0.53632471  1
  S2-  S248  1  0.84976704  0.01646559  0.04648698  1
  S2-  S249  1  0.87404463  -0.00382872  0.54246219  1
  S2-  S250  1  0.86039812  0.26497217  0.05615927  1
  S2-  S251  1  0.87649453  0.24464533  0.55009647  1
  S2-  S252  1  0.85390404  0.51634646  0.04521297  1
  S2-  S253  1  0.87502936  0.49464328  0.54650919  1
  S2-  S254  1  0.85021202  0.76289010  0.04653204  1
  S2-  S255  1  0.87084577  0.74622394  0.54699569  1
