# generated using pymatgen
data_La12Ce14Pr13Nd13Sm12(BiS2)64
_symmetry_space_group_name_H-M   'P 1'
_cell_length_a   16.13020160
_cell_length_b   16.13950944
_cell_length_c   27.29849517
_cell_angle_alpha   89.90520474
_cell_angle_beta   89.98306127
_cell_angle_gamma   89.96809875
_symmetry_Int_Tables_number   1
_chemical_formula_structural   La12Ce14Pr13Nd13Sm12(BiS2)64
_chemical_formula_sum   'La12 Ce14 Pr13 Nd13 Sm12 Bi64 S128'
_cell_volume   7106.70277238
_cell_formula_units_Z   1
loop_
 _symmetry_equiv_pos_site_id
 _symmetry_equiv_pos_as_xyz
  1  'x, y, z'
loop_
 _atom_type_symbol
 _atom_type_oxidation_number
  La3+  3.0
  Ce3+  3.0
  Pr3+  3.0
  Nd3+  3.0
  Sm3+  3.0
  Bi2+  2.0
  S2-  -2.0
loop_
 _atom_site_type_symbol
 _atom_site_label
 _atom_site_symmetry_multiplicity
 _atom_site_fract_x
 _atom_site_fract_y
 _atom_site_fract_z
 _atom_site_occupancy
  La3+  La0  1  0.62100712  0.26055277  0.92618912  1
  La3+  La1  1  0.00510692  0.37833171  0.59958568  1
  La3+  La2  1  0.86605421  0.51038099  0.91916911  1
  La3+  La3  1  0.75019026  0.37607432  0.07186953  1
  La3+  La4  1  0.36384982  0.50485169  0.38820274  1
  La3+  La5  1  -0.00644371  0.87942002  0.58441613  1
  La3+  La6  1  0.13863713  0.51497377  0.90005526  1
  La3+  La7  1  0.75109635  0.37120748  0.57925365  1
  La3+  La8  1  0.87038383  0.25977765  0.91372510  1
  La3+  La9  1  0.50381907  0.89104775  0.07777444  1
  La3+  La10  1  0.23183916  0.64096046  0.07788710  1
  La3+  La11  1  0.25880510  0.62533891  0.57153397  1
  Ce3+  Ce12  1  0.62085336  0.50779863  0.94404066  1
  Ce3+  Ce13  1  0.37784683  -0.00325355  0.43909702  1
  Ce3+  Ce14  1  0.11432972  0.26021384  0.93114275  1
  Ce3+  Ce15  1  0.12746883  0.50503744  0.44823309  1
  Ce3+  Ce16  1  0.62493083  0.49937777  0.43262336  1
  Ce3+  Ce17  1  0.87211335  0.49966936  0.44399023  1
  Ce3+  Ce18  1  0.24351445  0.13565114  0.05103852  1
  Ce3+  Ce19  1  0.87269900  0.75499093  0.92875852  1
  Ce3+  Ce20  1  0.24588886  0.88510857  0.05983784  1
  Ce3+  Ce21  1  0.50307246  0.38360743  0.06649893  1
  Ce3+  Ce22  1  0.37209703  0.76313046  0.94264582  1
  Ce3+  Ce23  1  0.74564725  0.87938735  0.05965627  1
  Ce3+  Ce24  1  0.74632114  0.13649184  0.04907110  1
  Ce3+  Ce25  1  0.62223207  0.75039314  0.44407167  1
  Pr3+  Pr26  1  0.88083961  -0.00095155  0.43598669  1
  Pr3+  Pr27  1  0.24492996  0.38076803  0.06483623  1
  Pr3+  Pr28  1  0.38034020  0.25296681  0.43532804  1
  Pr3+  Pr29  1  0.50360133  0.87972467  0.56555332  1
  Pr3+  Pr30  1  0.49787819  0.12829223  0.56642393  1
  Pr3+  Pr31  1  0.61708566  0.00544771  0.93598052  1
  Pr3+  Pr32  1  0.36860274  0.26541719  0.92904712  1
  Pr3+  Pr33  1  0.37024843  0.01107929  0.94144454  1
  Pr3+  Pr34  1  0.12697645  0.00087775  0.44557068  1
  Pr3+  Pr35  1  0.49185933  0.63530748  0.07157131  1
  Pr3+  Pr36  1  0.24960959  0.87679619  0.56644969  1
  Pr3+  Pr37  1  0.75378251  0.62130183  0.55966960  1
  Pr3+  Pr38  1  0.75298777  0.87503977  0.55996382  1
  Nd3+  Nd39  1  -0.00596163  0.88114641  0.05644501  1
  Nd3+  Nd40  1  0.50358967  0.37740482  0.56420765  1
  Nd3+  Nd41  1  0.12826376  0.25798624  0.44247342  1
  Nd3+  Nd42  1  0.37638549  0.75246983  0.43543749  1
  Nd3+  Nd43  1  0.00140309  0.13080446  0.55894760  1
  Nd3+  Nd44  1  0.62650820  0.00331127  0.43994693  1
  Nd3+  Nd45  1  0.87614395  0.25521932  0.44223410  1
  Nd3+  Nd46  1  0.87881713  0.75197101  0.44181462  1
  Nd3+  Nd47  1  0.49319272  0.14415407  0.06388708  1
  Nd3+  Nd48  1  0.86830465  0.00281196  0.93978175  1
  Nd3+  Nd49  1  0.00378902  0.62645152  0.58256111  1
  Nd3+  Nd50  1  0.50021167  0.62398294  0.55900582  1
  Nd3+  Nd51  1  0.61529089  0.75765104  0.94093619  1
  Sm3+  Sm52  1  -0.00792566  0.38494987  0.04769069  1
  Sm3+  Sm53  1  0.62761027  0.25202009  0.44607703  1
  Sm3+  Sm54  1  0.75477236  0.12758859  0.55952784  1
  Sm3+  Sm55  1  0.12603549  0.74921432  0.44965175  1
  Sm3+  Sm56  1  0.11961088  0.00603312  0.93830197  1
  Sm3+  Sm57  1  -0.00619586  0.13381022  0.05075458  1
  Sm3+  Sm58  1  0.12416123  0.76348617  0.93095308  1
  Sm3+  Sm59  1  0.24796069  0.12852312  0.55565151  1
  Sm3+  Sm60  1  -0.00292088  0.63125534  0.04807180  1
  Sm3+  Sm61  1  0.25353007  0.37807235  0.55604892  1
  Sm3+  Sm62  1  0.74822910  0.63402781  0.05457746  1
  Sm3+  Sm63  1  0.36732723  0.51384215  0.95167030  1
  Bi2+  Bi64  1  -0.01652122  0.08338278  0.27871702  1
  Bi2+  Bi65  1  0.10870830  0.07390303  0.80082171  1
  Bi2+  Bi66  1  -0.02848778  0.38892352  0.28059068  1
  Bi2+  Bi67  1  0.02805117  0.33861351  0.78775618  1
  Bi2+  Bi68  1  -0.06295069  0.65423849  0.28345913  1
  Bi2+  Bi69  1  0.00262742  0.67332354  0.79084978  1
  Bi2+  Bi70  1  0.04514732  0.85028273  0.29978946  1
  Bi2+  Bi71  1  -0.01217106  0.86198513  0.81574639  1
  Bi2+  Bi72  1  0.22878937  0.11581905  0.30019158  1
  Bi2+  Bi73  1  0.28843086  0.14250685  0.81426061  1
  Bi2+  Bi74  1  0.22045758  0.37080515  0.29351571  1
  Bi2+  Bi75  1  0.31261893  0.36608704  0.80113725  1
  Bi2+  Bi76  1  0.22519913  0.63419658  0.28961532  1
  Bi2+  Bi77  1  0.29334958  0.64446309  0.78752555  1
  Bi2+  Bi78  1  0.24304226  0.93293918  0.25416676  1
  Bi2+  Bi79  1  0.28906933  0.92715552  0.78648870  1
  Bi2+  Bi80  1  0.42077629  0.09241397  0.32352763  1
  Bi2+  Bi81  1  0.48028555  0.13909690  0.78601069  1
  Bi2+  Bi82  1  0.48395087  0.26529371  0.28326187  1
  Bi2+  Bi83  1  0.51421040  0.37597838  0.77218756  1
  Bi2+  Bi84  1  0.50990947  0.64041145  0.29283355  1
  Bi2+  Bi85  1  0.49659434  0.56930070  0.80027812  1
  Bi2+  Bi86  1  0.50318337  0.90516365  0.30331194  1
  Bi2+  Bi87  1  0.55350688  0.91024932  0.80541860  1
  Bi2+  Bi88  1  0.74233234  0.14844003  0.31213325  1
  Bi2+  Bi89  1  0.77128840  0.02275150  0.75569298  1
  Bi2+  Bi90  1  0.76871684  0.38066560  0.28014009  1
  Bi2+  Bi91  1  0.75061950  0.37857909  0.78870892  1
  Bi2+  Bi92  1  0.74535916  0.59012052  0.28209240  1
  Bi2+  Bi93  1  0.68030624  0.62029818  0.77950507  1
  Bi2+  Bi94  1  0.74883854  0.80722521  0.28660537  1
  Bi2+  Bi95  1  0.79066047  0.85220587  0.81073682  1
  Bi2+  Bi96  1  0.12975489  0.06609175  0.20018256  1
  Bi2+  Bi97  1  0.15835175  -0.02376300  0.70291771  1
  Bi2+  Bi98  1  0.05912315  0.25477992  0.21500801  1
  Bi2+  Bi99  1  0.23916213  0.26384907  0.71476885  1
  Bi2+  Bi100  1  0.06848435  0.53876792  0.22699824  1
  Bi2+  Bi101  1  0.14882113  0.50696367  0.71909433  1
  Bi2+  Bi102  1  0.07966547  0.76691099  0.20252264  1
  Bi2+  Bi103  1  0.12811961  0.76681965  0.71821625  1
  Bi2+  Bi104  1  0.41083681  0.01539921  0.21514322  1
  Bi2+  Bi105  1  0.35896012  0.06209646  0.71082737  1
  Bi2+  Bi106  1  0.33188402  0.24977740  0.21098470  1
  Bi2+  Bi107  1  0.42653368  0.28066093  0.67953148  1
  Bi2+  Bi108  1  0.39361152  0.47761209  0.18924883  1
  Bi2+  Bi109  1  0.38000590  0.49987988  0.70615092  1
  Bi2+  Bi110  1  0.33231288  0.76455943  0.22072627  1
  Bi2+  Bi111  1  0.43564762  0.76835304  0.75336368  1
  Bi2+  Bi112  1  0.66641475  -0.03387780  0.23691481  1
  Bi2+  Bi113  1  0.62661806  -0.05871391  0.69722984  1
  Bi2+  Bi114  1  0.59586965  0.23059262  0.19298167  1
  Bi2+  Bi115  1  0.61159208  0.23783225  0.70301908  1
  Bi2+  Bi116  1  0.60902636  0.46698739  0.23633376  1
  Bi2+  Bi117  1  0.56651180  0.55382004  0.68242498  1
  Bi2+  Bi118  1  0.59912438  0.74601745  0.19553815  1
  Bi2+  Bi119  1  0.61634722  0.74574606  0.69771120  1
  Bi2+  Bi120  1  0.85733479  -0.03048773  0.21876604  1
  Bi2+  Bi121  1  0.95937004  -0.02647414  0.72286483  1
  Bi2+  Bi122  1  0.86550334  0.25033447  0.20185632  1
  Bi2+  Bi123  1  0.89101674  0.22322798  0.70487167  1
  Bi2+  Bi124  1  0.87744957  0.50929960  0.20283506  1
  Bi2+  Bi125  1  0.87482530  0.51714267  0.72255392  1
  Bi2+  Bi126  1  0.85618471  0.77601064  0.19113833  1
  Bi2+  Bi127  1  0.84621108  0.76508480  0.71026052  1
  S2-  S128  1  -0.02164097  0.14320943  0.14828306  1
  S2-  S129  1  -0.04574870  0.09235900  0.65105710  1
  S2-  S130  1  -0.10466462  0.38095955  0.13169808  1
  S2-  S131  1  0.03687508  0.28255760  0.68520439  1
  S2-  S132  1  0.07316933  0.63810407  0.13888587  1
  S2-  S133  1  0.00534175  0.51740264  0.66176960  1
  S2-  S134  1  -0.01957783  0.89572692  0.15531380  1
  S2-  S135  1  -0.00795351  0.74957607  0.65488689  1
  S2-  S136  1  0.26609827  0.13707440  0.14743068  1
  S2-  S137  1  0.22053944  0.12469767  0.65213424  1
  S2-  S138  1  0.24923618  0.38884043  0.16654672  1
  S2-  S139  1  0.21408358  0.40211466  0.65099820  1
  S2-  S140  1  0.32376708  0.61658721  0.16255897  1
  S2-  S141  1  0.17061841  0.63184812  0.65961929  1
  S2-  S142  1  0.21961301  0.80260548  0.14327521  1
  S2-  S143  1  0.24915891  0.83716661  0.66464068  1
  S2-  S144  1  0.52980208  0.07822947  0.15548430  1
  S2-  S145  1  0.55908238  0.09239328  0.65831671  1
  S2-  S146  1  0.45900170  0.27276588  0.13856154  1
  S2-  S147  1  0.61545755  0.39794486  0.64392589  1
  S2-  S148  1  0.53235006  0.60291876  0.17019274  1
  S2-  S149  1  0.39687810  0.62645288  0.64165696  1
  S2-  S150  1  0.44829657  0.83814097  0.17006625  1
  S2-  S151  1  0.47941403  0.85535144  0.66381009  1
  S2-  S152  1  0.74245453  0.20857279  0.13799491  1
  S2-  S153  1  0.75121638  0.20572072  0.64622361  1
  S2-  S154  1  0.62650639  0.39153266  0.14682405  1
  S2-  S155  1  0.85229688  0.38246175  0.66462154  1
  S2-  S156  1  0.73871726  0.67199033  0.15117417  1
  S2-  S157  1  0.80290739  0.61094982  0.65719278  1
  S2-  S158  1  0.65349476  0.89029168  0.14240459  1
  S2-  S159  1  0.84217903  0.89049853  0.64632707  1
  S2-  S160  1  0.09270825  0.00225025  0.34757534  1
  S2-  S161  1  0.13871457  -0.08882920  0.85561035  1
  S2-  S162  1  0.14263924  0.25364547  0.34246704  1
  S2-  S163  1  0.16062370  0.35049031  0.85068705  1
  S2-  S164  1  0.18022011  0.50752847  0.35439814  1
  S2-  S165  1  0.05215827  0.51127507  0.80897853  1
  S2-  S166  1  0.14482542  0.75002644  0.35090003  1
  S2-  S167  1  0.16326631  0.67843529  0.84871739  1
  S2-  S168  1  0.37114674  -0.11405273  0.36398780  1
  S2-  S169  1  0.40024256  -0.08771322  0.86093418  1
  S2-  S170  1  0.36310031  0.33993714  0.34866367  1
  S2-  S171  1  0.49288826  0.27445552  0.85561989  1
  S2-  S172  1  0.34125748  0.50323848  0.27697052  1
  S2-  S173  1  0.30601126  0.50709532  0.85863000  1
  S2-  S174  1  0.37041923  0.66759136  0.34708784  1
  S2-  S175  1  0.41638693  0.70457974  0.85371096  1
  S2-  S176  1  0.63637566  0.01407275  0.34027832  1
  S2-  S177  1  0.60377850  0.06073206  0.84019962  1
  S2-  S178  1  0.62740431  0.25310240  0.34724447  1
  S2-  S179  1  0.73253721  0.25486590  0.84487792  1
  S2-  S180  1  0.53156638  0.50760825  0.34739676  1
  S2-  S181  1  0.69770942  0.50125987  0.85556349  1
  S2-  S182  1  0.59545982  0.76654956  0.34689507  1
  S2-  S183  1  0.64510623  0.76581338  0.84207470  1
  S2-  S184  1  0.85836421  0.02836369  0.33851147  1
  S2-  S185  1  0.85597823  0.01827995  0.84072003  1
  S2-  S186  1  0.85936331  0.24971471  0.34278626  1
  S2-  S187  1  1.00591630  0.21524119  0.84763096  1
  S2-  S188  1  0.76323860  0.48457401  0.36641832  1
  S2-  S189  1  0.88595960  0.39390801  0.84057264  1
  S2-  S190  1  0.89035864  0.80616778  0.34752746  1
  S2-  S191  1  0.87352175  0.64698766  0.85170999  1
  S2-  S192  1  0.00342205  0.13031993  0.45134762  1
  S2-  S193  1  -0.00564770  0.12421545  0.94926155  1
  S2-  S194  1  0.00075556  0.37898499  0.44302553  1
  S2-  S195  1  0.00087413  0.39239637  0.94588251  1
  S2-  S196  1  0.00027648  0.62680975  0.45163390  1
  S2-  S197  1  0.00734672  0.63193099  0.94625061  1
  S2-  S198  1  0.00327286  0.87514653  0.46132515  1
  S2-  S199  1  -0.00464250  0.88183368  0.95113960  1
  S2-  S200  1  0.25151050  0.12769995  0.45134050  1
  S2-  S201  1  0.24035624  0.13393420  0.94635565  1
  S2-  S202  1  0.25429699  0.38004777  0.45334172  1
  S2-  S203  1  0.24551623  0.38716883  0.95878292  1
  S2-  S204  1  0.25221072  0.62968882  0.45987405  1
  S2-  S205  1  0.24787602  0.63816000  0.96314586  1
  S2-  S206  1  0.24680349  0.87474276  0.46038363  1
  S2-  S207  1  0.24631636  0.88511237  0.95664241  1
  S2-  S208  1  0.50326813  0.12693565  0.45765563  1
  S2-  S209  1  0.49274374  0.13398706  0.95383949  1
  S2-  S210  1  0.50564958  0.37188125  0.45676258  1
  S2-  S211  1  0.49130248  0.39105897  0.95814184  1
  S2-  S212  1  0.49827379  0.62716733  0.45418561  1
  S2-  S213  1  0.49522512  0.63181455  0.96263603  1
  S2-  S214  1  0.50518916  0.87948472  0.45951620  1
  S2-  S215  1  0.49789860  0.88334830  0.96631353  1
  S2-  S216  1  0.75362858  0.12731167  0.45470711  1
  S2-  S217  1  0.74628425  0.12851903  0.94540649  1
  S2-  S218  1  0.75022838  0.37101556  0.46608125  1
  S2-  S219  1  0.74554230  0.38358084  0.95748436  1
  S2-  S220  1  0.75128367  0.63173555  0.45355889  1
  S2-  S221  1  0.74208003  0.63739652  0.95205169  1
  S2-  S222  1  0.75087662  0.87692542  0.45280405  1
  S2-  S223  1  0.74352033  0.87951680  0.95240575  1
  S2-  S224  1  0.11769891  0.00809476  0.04412063  1
  S2-  S225  1  0.12298963  0.00221167  0.55237768  1
  S2-  S226  1  0.11447793  0.25898997  0.04402808  1
  S2-  S227  1  0.12575130  0.25584580  0.54928195  1
  S2-  S228  1  0.11710906  0.50337523  0.05133745  1
  S2-  S229  1  0.12453000  0.50022811  0.55041315  1
  S2-  S230  1  0.11575922  0.76255293  0.03598446  1
  S2-  S231  1  0.12246493  0.75347174  0.55270814  1
  S2-  S232  1  0.37138920  0.01078712  0.04932287  1
  S2-  S233  1  0.37273302  0.00369177  0.55053038  1
  S2-  S234  1  0.36589540  0.25832133  0.03532452  1
  S2-  S235  1  0.37257157  0.25075298  0.54424594  1
  S2-  S236  1  0.37003008  0.50666870  0.05516759  1
  S2-  S237  1  0.37856789  0.49399333  0.54913064  1
  S2-  S238  1  0.37191112  0.76171429  0.05038261  1
  S2-  S239  1  0.37868340  0.75827225  0.54447294  1
  S2-  S240  1  0.62342343  0.01401125  0.04212093  1
  S2-  S241  1  0.63133118  0.00472533  0.54722943  1
  S2-  S242  1  0.61990309  0.25839265  0.03652182  1
  S2-  S243  1  0.62502375  0.24614829  0.54867330  1
  S2-  S244  1  0.62444457  0.51510993  0.04849551  1
  S2-  S245  1  0.62659889  0.50350873  0.54016523  1
  S2-  S246  1  0.62063223  0.75461675  0.04658214  1
  S2-  S247  1  0.62738838  0.75031195  0.55144099  1
  S2-  S248  1  0.86952064  0.00780811  0.04652400  1
  S2-  S249  1  0.87657882  0.00458122  0.54228140  1
  S2-  S250  1  0.87542236  0.25470166  0.02924759  1
  S2-  S251  1  0.88401138  0.25602475  0.54838457  1
  S2-  S252  1  0.87103697  0.51369259  0.03603440  1
  S2-  S253  1  0.88272134  0.49961049  0.54843621  1
  S2-  S254  1  0.87288905  0.75567828  0.03966257  1
  S2-  S255  1  0.87794517  0.74909656  0.54675021  1
