# generated using pymatgen
data_La12Ce14Pr13Nd13Sm12(BiS2)64
_symmetry_space_group_name_H-M   'P 1'
_cell_length_a   16.15364813
_cell_length_b   16.17358518
_cell_length_c   27.34890130
_cell_angle_alpha   89.85181551
_cell_angle_beta   89.67996466
_cell_angle_gamma   90.00079125
_symmetry_Int_Tables_number   1
_chemical_formula_structural   La12Ce14Pr13Nd13Sm12(BiS2)64
_chemical_formula_sum   'La12 Ce14 Pr13 Nd13 Sm12 Bi64 S128'
_cell_volume   7145.10433775
_cell_formula_units_Z   1
loop_
 _symmetry_equiv_pos_site_id
 _symmetry_equiv_pos_as_xyz
  1  'x, y, z'
loop_
 _atom_type_symbol
 _atom_type_oxidation_number
  La3+  3.0
  Ce3+  3.0
  Pr3+  3.0
  Nd3+  3.0
  Sm3+  3.0
  Bi2+  2.0
  S2-  -2.0
loop_
 _atom_site_type_symbol
 _atom_site_label
 _atom_site_symmetry_multiplicity
 _atom_site_fract_x
 _atom_site_fract_y
 _atom_site_fract_z
 _atom_site_occupancy
  La3+  La0  1  0.88176417  -0.01649844  0.92946208  1
  La3+  La1  1  0.00883875  0.87320809  0.07226632  1
  La3+  La2  1  0.26425852  0.62094255  0.59898667  1
  La3+  La3  1  0.74583894  0.88294090  0.10785526  1
  La3+  La4  1  0.88100290  0.50293447  0.94334952  1
  La3+  La5  1  0.38294707  0.24965196  0.93867513  1
  La3+  La6  1  0.08481115  0.74865699  0.88202773  1
  La3+  La7  1  0.00889850  0.86155638  0.56984301  1
  La3+  La8  1  0.74907175  0.61417541  0.09870549  1
  La3+  La9  1  0.01628405  0.11448423  0.57372313  1
  La3+  La10  1  0.75938580  0.37159168  0.06766149  1
  La3+  La11  1  0.51856449  0.36251170  0.57685748  1
  Ce3+  Ce12  1  0.76492630  0.62192011  0.54270200  1
  Ce3+  Ce13  1  0.63630806  0.49544788  0.43897361  1
  Ce3+  Ce14  1  0.89129445  0.24748000  0.44139032  1
  Ce3+  Ce15  1  0.26328456  0.12147454  0.55911781  1
  Ce3+  Ce16  1  0.75377478  0.11412429  0.05205400  1
  Ce3+  Ce17  1  0.51164162  0.62343654  0.56369259  1
  Ce3+  Ce18  1  0.62728122  -0.00692169  0.93902904  1
  Ce3+  Ce19  1  0.37946659  0.49706791  0.94856251  1
  Ce3+  Ce20  1  0.63380819  0.25056483  0.94239427  1
  Ce3+  Ce21  1  0.13050920  0.50587206  0.94179615  1
  Ce3+  Ce22  1  0.62990086  0.74289372  0.95259902  1
  Ce3+  Ce23  1  0.87922385  0.24623976  0.94041826  1
  Ce3+  Ce24  1  0.38986607  0.74637903  0.44144491  1
  Ce3+  Ce25  1  0.87419310  0.75014302  0.96491316  1
  Pr3+  Pr26  1  0.36950933  0.74656003  0.93136027  1
  Pr3+  Pr27  1  0.63014211  0.50737626  0.93511679  1
  Pr3+  Pr28  1  0.50055733  0.62459768  0.06606522  1
  Pr3+  Pr29  1  0.00264277  0.11652693  0.05272056  1
  Pr3+  Pr30  1  0.38097931  -0.00478832  0.94424752  1
  Pr3+  Pr31  1  0.89638741  0.75252600  0.41907805  1
  Pr3+  Pr32  1  0.13972564  0.49728398  0.43942705  1
  Pr3+  Pr33  1  0.24999417  0.37077212  0.06821048  1
  Pr3+  Pr34  1  0.63540686  0.24525174  0.43803378  1
  Pr3+  Pr35  1  0.12785479  0.24854342  0.93853503  1
  Pr3+  Pr36  1  0.01247802  0.37474864  0.56140890  1
  Pr3+  Pr37  1  0.76416573  0.37400013  0.55575942  1
  Pr3+  Pr38  1  0.00612960  0.37110557  0.06794897  1
  Nd3+  Nd39  1  0.89594457  0.48769087  0.41379599  1
  Nd3+  Nd40  1  0.14066764  0.24694751  0.44258599  1
  Nd3+  Nd41  1  0.13713237  0.74455715  0.44275804  1
  Nd3+  Nd42  1  0.13245852  -0.00889153  0.93709810  1
  Nd3+  Nd43  1  0.50368592  0.86910554  0.06128589  1
  Nd3+  Nd44  1  0.25624100  0.12192354  0.05559957  1
  Nd3+  Nd45  1  0.76697894  0.11719198  0.55014764  1
  Nd3+  Nd46  1  0.50790000  0.37381424  0.06281058  1
  Nd3+  Nd47  1  0.00915959  0.62387118  0.06987103  1
  Nd3+  Nd48  1  0.90100765  -0.00037684  0.42978975  1
  Nd3+  Nd49  1  0.39086776  0.49750401  0.44397022  1
  Nd3+  Nd50  1  0.63984231  0.74708856  0.43835566  1
  Nd3+  Nd51  1  -0.00004419  0.61458138  0.56633232  1
  Sm3+  Sm52  1  0.51525585  0.11067475  0.56401922  1
  Sm3+  Sm53  1  0.39038969  0.24785787  0.45165010  1
  Sm3+  Sm54  1  0.25040656  0.62555836  0.06423851  1
  Sm3+  Sm55  1  0.25260314  0.86981784  0.06476732  1
  Sm3+  Sm56  1  0.76581305  0.87244051  0.55190635  1
  Sm3+  Sm57  1  0.13930991  -0.00123644  0.43925207  1
  Sm3+  Sm58  1  0.63845108  -0.00276049  0.43306002  1
  Sm3+  Sm59  1  0.50601545  0.12132325  0.05532075  1
  Sm3+  Sm60  1  0.38875751  -0.00331695  0.44224171  1
  Sm3+  Sm61  1  0.51439698  0.87274592  0.55704083  1
  Sm3+  Sm62  1  0.26233551  0.37667982  0.56251912  1
  Sm3+  Sm63  1  0.26141843  0.86849303  0.55160003  1
  Bi2+  Bi64  1  -0.00597532  0.15098235  0.29193849  1
  Bi2+  Bi65  1  0.00038071  0.12484051  0.78674971  1
  Bi2+  Bi66  1  0.02593218  0.34993935  0.29509436  1
  Bi2+  Bi67  1  0.03763119  0.34638527  0.79410114  1
  Bi2+  Bi68  1  -0.01928046  0.62099350  0.29858490  1
  Bi2+  Bi69  1  -0.01297708  0.57457186  0.78539206  1
  Bi2+  Bi70  1  0.02858443  0.88973353  0.29842782  1
  Bi2+  Bi71  1  -0.05618776  0.88157305  0.79621647  1
  Bi2+  Bi72  1  0.27564680  0.06137893  0.28941387  1
  Bi2+  Bi73  1  0.27068032  0.12186416  0.80315517  1
  Bi2+  Bi74  1  0.28387319  0.39105558  0.26490847  1
  Bi2+  Bi75  1  0.21576387  0.39444468  0.74730341  1
  Bi2+  Bi76  1  0.24206682  0.66527010  0.27170343  1
  Bi2+  Bi77  1  0.29730284  0.62886132  0.79588577  1
  Bi2+  Bi78  1  0.22554144  0.86731003  0.29462564  1
  Bi2+  Bi79  1  0.32020771  0.91558393  0.74693278  1
  Bi2+  Bi80  1  0.47056367  0.13752250  0.28174828  1
  Bi2+  Bi81  1  0.55093169  0.09240974  0.78413173  1
  Bi2+  Bi82  1  0.49072853  0.37092215  0.31491002  1
  Bi2+  Bi83  1  0.48806772  0.36599156  0.81582154  1
  Bi2+  Bi84  1  0.44429741  0.59932864  0.29130192  1
  Bi2+  Bi85  1  0.48491064  0.69045748  0.81603729  1
  Bi2+  Bi86  1  0.45506736  0.86761718  0.28430354  1
  Bi2+  Bi87  1  0.50272487  0.88525930  0.80504290  1
  Bi2+  Bi88  1  0.77747466  0.11340987  0.28854933  1
  Bi2+  Bi89  1  0.73110755  0.11983152  0.74330690  1
  Bi2+  Bi90  1  0.75498067  0.30437096  0.27391096  1
  Bi2+  Bi91  1  0.73688278  0.28855762  0.79954245  1
  Bi2+  Bi92  1  0.70265971  0.62407827  0.29931224  1
  Bi2+  Bi93  1  0.76872020  0.62782118  0.79376864  1
  Bi2+  Bi94  1  0.72831344  0.87489964  0.30460232  1
  Bi2+  Bi95  1  0.71275625  0.83964817  0.77504895  1
  Bi2+  Bi96  1  0.13702199  0.02232525  0.20982717  1
  Bi2+  Bi97  1  0.14131582  0.00174323  0.75974771  1
  Bi2+  Bi98  1  0.14335648  0.25636990  0.21728237  1
  Bi2+  Bi99  1  0.10022405  0.25162882  0.69814023  1
  Bi2+  Bi100  1  0.15291958  0.50906963  0.21696494  1
  Bi2+  Bi101  1  0.10585306  0.53331341  0.70184230  1
  Bi2+  Bi102  1  0.11168613  0.75950431  0.21108564  1
  Bi2+  Bi103  1  0.12598195  0.80644999  0.69652933  1
  Bi2+  Bi104  1  0.33688888  -0.06763783  0.20281591  1
  Bi2+  Bi105  1  0.42693856  0.07911047  0.70031525  1
  Bi2+  Bi106  1  0.34107750  0.22745536  0.21503481  1
  Bi2+  Bi107  1  0.32513177  0.24074848  0.71552680  1
  Bi2+  Bi108  1  0.34691108  0.53971069  0.19297800  1
  Bi2+  Bi109  1  0.40980802  0.51962303  0.72894763  1
  Bi2+  Bi110  1  0.34518607  0.74011062  0.16290490  1
  Bi2+  Bi111  1  0.45142123  0.77747934  0.71113421  1
  Bi2+  Bi112  1  0.61011100  0.02714487  0.20740950  1
  Bi2+  Bi113  1  0.66431692  -0.07657135  0.68000170  1
  Bi2+  Bi114  1  0.60727333  0.22439522  0.21213718  1
  Bi2+  Bi115  1  0.60040698  0.29943666  0.71453473  1
  Bi2+  Bi116  1  0.58898997  0.47043555  0.21304187  1
  Bi2+  Bi117  1  0.59969650  0.55376522  0.75507106  1
  Bi2+  Bi118  1  0.51977428  0.74274418  0.20954114  1
  Bi2+  Bi119  1  0.63645801  0.71737268  0.69048311  1
  Bi2+  Bi120  1  0.89374319  0.01055349  0.21997006  1
  Bi2+  Bi121  1  0.89840978  0.00439736  0.69161771  1
  Bi2+  Bi122  1  0.88846208  0.21933563  0.20392277  1
  Bi2+  Bi123  1  0.88935101  0.30518156  0.72064246  1
  Bi2+  Bi124  1  0.85473859  0.48802425  0.21464042  1
  Bi2+  Bi125  1  0.83103234  0.48089996  0.69968317  1
  Bi2+  Bi126  1  0.88171390  0.74623159  0.21572242  1
  Bi2+  Bi127  1  0.83689953  0.73487171  0.70590902  1
  S2-  S128  1  0.00444181  0.09011647  0.15180345  1
  S2-  S129  1  -0.04679086  0.17741245  0.66157871  1
  S2-  S130  1  -0.10123866  0.36008219  0.14819404  1
  S2-  S131  1  -0.01421234  0.47718901  0.64075953  1
  S2-  S132  1  -0.06881739  0.59764853  0.16090538  1
  S2-  S133  1  0.02128366  0.72993562  0.64098010  1
  S2-  S134  1  -0.09110986  0.88413336  0.15609799  1
  S2-  S135  1  0.03671632  0.97935520  0.64561499  1
  S2-  S136  1  0.23422619  0.14021298  0.15294779  1
  S2-  S137  1  0.22313328  0.14515219  0.65317459  1
  S2-  S138  1  0.13071354  0.37316360  0.14408744  1
  S2-  S139  1  0.24740545  0.46045794  0.64756192  1
  S2-  S140  1  0.13884318  0.62478969  0.14332385  1
  S2-  S141  1  0.21491147  0.66715142  0.69598411  1
  S2-  S142  1  0.14083042  0.88569040  0.14463895  1
  S2-  S143  1  0.27084138  0.86545466  0.64847343  1
  S2-  S144  1  0.50229450  0.11722242  0.15273807  1
  S2-  S145  1  0.52463048  0.21153194  0.64265899  1
  S2-  S146  1  0.51459914  0.35701625  0.16263817  1
  S2-  S147  1  0.49088196  0.41447947  0.67169741  1
  S2-  S148  1  0.58067351  0.61165389  0.15404090  1
  S2-  S149  1  0.42031826  0.63416006  0.64802530  1
  S2-  S150  1  0.57358544  0.88826152  0.15126743  1
  S2-  S151  1  0.52219938  0.97725318  0.63551310  1
  S2-  S152  1  0.74590281  0.05103151  0.14337386  1
  S2-  S153  1  0.74708775  0.07745519  0.64617335  1
  S2-  S154  1  0.72021242  0.45527875  0.15247422  1
  S2-  S155  1  0.72034012  0.37706841  0.65267145  1
  S2-  S156  1  0.75957606  0.63593884  0.20460604  1
  S2-  S157  1  0.83203626  0.61494234  0.63150421  1
  S2-  S158  1  0.74110134  0.83828013  0.21187250  1
  S2-  S159  1  0.85234075  0.86759927  0.63728397  1
  S2-  S160  1  0.04228489  0.03046708  0.36014168  1
  S2-  S161  1  0.09931750  -0.07781636  0.84832675  1
  S2-  S162  1  0.15090784  0.27939668  0.34547272  1
  S2-  S163  1  0.12837683  0.20974953  0.84094674  1
  S2-  S164  1  0.04516110  0.50400098  0.35411952  1
  S2-  S165  1  0.11353941  0.57587668  0.85281814  1
  S2-  S166  1  0.04513502  0.73997517  0.35671725  1
  S2-  S167  1  0.04097993  0.74595637  0.77874539  1
  S2-  S168  1  0.42214076  0.00234860  0.34683402  1
  S2-  S169  1  0.36272196  -0.01947143  0.84458718  1
  S2-  S170  1  0.40666595  0.24855099  0.35456900  1
  S2-  S171  1  0.35396901  0.25143120  0.84044546  1
  S2-  S172  1  0.35210130  0.47965006  0.34742042  1
  S2-  S173  1  0.37514568  0.49022665  0.85061335  1
  S2-  S174  1  0.39157000  0.73589897  0.34357436  1
  S2-  S175  1  0.25918585  0.75264435  0.85183724  1
  S2-  S176  1  0.65163205  0.02232002  0.33629981  1
  S2-  S177  1  0.64342299  -0.02031708  0.84185836  1
  S2-  S178  1  0.62913363  0.29347490  0.34180216  1
  S2-  S179  1  0.57817697  0.22955931  0.85084343  1
  S2-  S180  1  0.58575417  0.51751973  0.34585260  1
  S2-  S181  1  0.62519473  0.43994807  0.84026574  1
  S2-  S182  1  0.61781459  0.76617904  0.34062946  1
  S2-  S183  1  0.64013265  0.65547983  0.86852308  1
  S2-  S184  1  0.88245896  -0.10259691  0.35113949  1
  S2-  S185  1  0.88420615  0.03914270  0.83259056  1
  S2-  S186  1  0.89134003  0.32804993  0.35616990  1
  S2-  S187  1  0.89051794  0.28205602  0.84649479  1
  S2-  S188  1  0.82226790  0.51578870  0.32034485  1
  S2-  S189  1  0.86305092  0.51306689  0.84329484  1
  S2-  S190  1  0.83501172  0.71440769  0.32357610  1
  S2-  S191  1  0.90556946  0.78387137  0.86977848  1
  S2-  S192  1  0.01688359  0.12717735  0.46279735  1
  S2-  S193  1  0.00521299  0.11785212  0.94646525  1
  S2-  S194  1  0.01757813  0.36930287  0.45642392  1
  S2-  S195  1  0.00627741  0.37470961  0.95642348  1
  S2-  S196  1  0.01299653  0.62057238  0.45793512  1
  S2-  S197  1  0.00488056  0.62987784  0.95982409  1
  S2-  S198  1  0.02057974  0.87548816  0.45813348  1
  S2-  S199  1  0.00949509  0.86985860  0.96227325  1
  S2-  S200  1  0.26621556  0.12160758  0.45091028  1
  S2-  S201  1  0.25464949  0.12177387  0.95045452  1
  S2-  S202  1  0.26602704  0.37133778  0.45787958  1
  S2-  S203  1  0.25225832  0.37223830  0.95827929  1
  S2-  S204  1  0.26448336  0.62189497  0.44414765  1
  S2-  S205  1  0.25777417  0.61825569  0.96104917  1
  S2-  S206  1  0.26242036  0.87380869  0.44639375  1
  S2-  S207  1  0.25737925  0.87636594  0.96026310  1
  S2-  S208  1  0.51158616  0.11910913  0.45605887  1
  S2-  S209  1  0.50580102  0.12167508  0.95166703  1
  S2-  S210  1  0.51277367  0.37003129  0.46284568  1
  S2-  S211  1  0.50795109  0.37500000  0.95697784  1
  S2-  S212  1  0.51422986  0.62349077  0.45604638  1
  S2-  S213  1  0.49736186  0.62350917  0.96001384  1
  S2-  S214  1  0.51482859  0.87526927  0.45231367  1
  S2-  S215  1  0.50251872  0.86634019  0.95404936  1
  S2-  S216  1  0.76540485  0.12009317  0.44407508  1
  S2-  S217  1  0.75501899  0.11881331  0.94557019  1
  S2-  S218  1  0.75984276  0.37100717  0.44938986  1
  S2-  S219  1  0.75498376  0.37491175  0.95597580  1
  S2-  S220  1  0.76360262  0.62011741  0.43917752  1
  S2-  S221  1  0.75653122  0.62275860  0.96891723  1
  S2-  S222  1  0.75986203  0.87571783  0.44881159  1
  S2-  S223  1  0.74887933  0.86925104  0.94876375  1
  S2-  S224  1  0.13484988  -0.00052804  0.04280949  1
  S2-  S225  1  0.14375996  -0.00488501  0.54168697  1
  S2-  S226  1  0.12848607  0.24263170  0.04473937  1
  S2-  S227  1  0.13976610  0.25123406  0.54952383  1
  S2-  S228  1  0.13019762  0.49770948  0.04489216  1
  S2-  S229  1  0.13974122  0.50109729  0.54490256  1
  S2-  S230  1  0.13406795  0.74924199  0.04953040  1
  S2-  S231  1  0.14903124  0.73815095  0.54647855  1
  S2-  S232  1  0.38053827  -0.00313205  0.05201633  1
  S2-  S233  1  0.38571791  -0.00573993  0.54517002  1
  S2-  S234  1  0.38132256  0.24836141  0.04884941  1
  S2-  S235  1  0.38314051  0.24775256  0.55433065  1
  S2-  S236  1  0.37631070  0.49500672  0.05544470  1
  S2-  S237  1  0.38825402  0.49639801  0.54973385  1
  S2-  S238  1  0.37594660  0.74836012  0.04207577  1
  S2-  S239  1  0.38891256  0.75040944  0.54640337  1
  S2-  S240  1  0.62574032  -0.00524590  0.04344963  1
  S2-  S241  1  0.64064004  -0.00503566  0.53628613  1
  S2-  S242  1  0.62984789  0.24473200  0.05034071  1
  S2-  S243  1  0.64310583  0.24082177  0.54352227  1
  S2-  S244  1  0.62671328  0.49861251  0.04438823  1
  S2-  S245  1  0.63631935  0.49862905  0.54747491  1
  S2-  S246  1  0.63267679  0.74845220  0.05760357  1
  S2-  S247  1  0.63854584  0.75068665  0.54573435  1
  S2-  S248  1  0.87696696  -0.00906750  0.04096492  1
  S2-  S249  1  0.89008504  -0.00418015  0.53682987  1
  S2-  S250  1  0.87848658  0.24125877  0.04485317  1
  S2-  S251  1  0.88746142  0.24772429  0.54724134  1
  S2-  S252  1  0.88074389  0.49983445  0.05092246  1
  S2-  S253  1  0.88512559  0.49255551  0.52765494  1
  S2-  S254  1  0.87107634  0.74544125  0.06677954  1
  S2-  S255  1  0.88369710  0.74733598  0.53015372  1
