# generated using pymatgen
data_La12Ce14Pr13Nd13Sm12(BiS2)64
_symmetry_space_group_name_H-M   'P 1'
_cell_length_a   16.12782147
_cell_length_b   16.14172043
_cell_length_c   27.32231527
_cell_angle_alpha   90.04279866
_cell_angle_beta   90.27192844
_cell_angle_gamma   90.01105888
_symmetry_Int_Tables_number   1
_chemical_formula_structural   La12Ce14Pr13Nd13Sm12(BiS2)64
_chemical_formula_sum   'La12 Ce14 Pr13 Nd13 Sm12 Bi64 S128'
_cell_volume   7112.75755950
_cell_formula_units_Z   1
loop_
 _symmetry_equiv_pos_site_id
 _symmetry_equiv_pos_as_xyz
  1  'x, y, z'
loop_
 _atom_type_symbol
 _atom_type_oxidation_number
  La3+  3.0
  Ce3+  3.0
  Pr3+  3.0
  Nd3+  3.0
  Sm3+  3.0
  Bi2+  2.0
  S2-  -2.0
loop_
 _atom_site_type_symbol
 _atom_site_label
 _atom_site_symmetry_multiplicity
 _atom_site_fract_x
 _atom_site_fract_y
 _atom_site_fract_z
 _atom_site_occupancy
  La3+  La0  1  0.00215465  0.37590971  0.57499209  1
  La3+  La1  1  0.76320659  0.12637137  0.08286105  1
  La3+  La2  1  0.11653835  -0.00831780  0.41431733  1
  La3+  La3  1  0.11480032  0.24766076  0.43369851  1
  La3+  La4  1  0.24388378  0.11550878  0.56054113  1
  La3+  La5  1  0.38237742  0.00662294  0.40868992  1
  La3+  La6  1  0.86695690  0.23683087  0.90208382  1
  La3+  La7  1  0.25720421  0.14002189  0.07757044  1
  La3+  La8  1  0.02056090  0.87022850  0.09198409  1
  La3+  La9  1  -0.01286484  0.12532048  0.61189352  1
  La3+  La10  1  0.38025581  0.50618987  0.92619091  1
  La3+  La11  1  0.00490858  0.62514114  0.57446319  1
  Ce3+  Ce12  1  0.76130663  0.63691659  0.06422284  1
  Ce3+  Ce13  1  0.36856837  0.49727983  0.44339542  1
  Ce3+  Ce14  1  0.50727957  0.38445417  0.05826367  1
  Ce3+  Ce15  1  0.50543228  0.88257657  0.04953600  1
  Ce3+  Ce16  1  0.61839809  0.74391112  0.44450291  1
  Ce3+  Ce17  1  0.26342048  0.39080518  0.06782269  1
  Ce3+  Ce18  1  0.87205972  0.74290399  0.44209027  1
  Ce3+  Ce19  1  0.26962115  0.88422055  0.07229901  1
  Ce3+  Ce20  1  0.37212486  0.74532190  0.43930543  1
  Ce3+  Ce21  1  0.63935162  0.01475377  0.94052532  1
  Ce3+  Ce22  1  0.88414857  0.50653076  0.94535798  1
  Ce3+  Ce23  1  0.76190547  0.38089943  0.05512702  1
  Ce3+  Ce24  1  0.37700796  0.00964584  0.93842262  1
  Ce3+  Ce25  1  0.25668572  0.63010254  0.05278422  1
  Pr3+  Pr26  1  0.37820628  0.75609364  0.92544618  1
  Pr3+  Pr27  1  0.13148577  0.00972111  0.94949506  1
  Pr3+  Pr28  1  0.86399249  0.49170981  0.43971281  1
  Pr3+  Pr29  1  0.36897954  0.24590461  0.44084906  1
  Pr3+  Pr30  1  0.50716746  0.63537925  0.05475973  1
  Pr3+  Pr31  1  0.87174546  0.24479995  0.44557001  1
  Pr3+  Pr32  1  0.74557291  0.62113089  0.56066592  1
  Pr3+  Pr33  1  0.11814976  0.49769856  0.44588311  1
  Pr3+  Pr34  1  0.12139396  0.51093898  0.92623267  1
  Pr3+  Pr35  1  0.74943230  0.87151290  0.55329685  1
  Pr3+  Pr36  1  0.63673753  0.50868905  0.94218310  1
  Pr3+  Pr37  1  0.25298494  0.36790090  0.57154558  1
  Pr3+  Pr38  1  0.11339133  0.74218065  0.42515974  1
  Nd3+  Nd39  1  0.75876458  0.87995231  0.06840613  1
  Nd3+  Nd40  1  0.37654160  0.26193535  0.93153576  1
  Nd3+  Nd41  1  0.63410522  0.25492854  0.94838221  1
  Nd3+  Nd42  1  0.24631636  0.87457427  0.54355307  1
  Nd3+  Nd43  1  0.74862591  0.37039452  0.56756817  1
  Nd3+  Nd44  1  0.49520295  0.36943774  0.56601722  1
  Nd3+  Nd45  1  0.12387314  0.75935089  0.93055969  1
  Nd3+  Nd46  1  0.63407176  0.76180363  0.93566815  1
  Nd3+  Nd47  1  0.87246688  -0.00165184  0.43658376  1
  Nd3+  Nd48  1  0.74700407  0.11854547  0.56520892  1
  Nd3+  Nd49  1  0.50445595  0.13454917  0.05618782  1
  Nd3+  Nd50  1  0.13366748  0.26160200  0.93282760  1
  Nd3+  Nd51  1  0.01127713  0.13714660  0.07007440  1
  Sm3+  Sm52  1  0.61697189  0.49562007  0.44557042  1
  Sm3+  Sm53  1  0.00153611  0.87892058  0.55429076  1
  Sm3+  Sm54  1  0.01035963  0.38140581  0.05437712  1
  Sm3+  Sm55  1  0.25290864  0.62553740  0.56456575  1
  Sm3+  Sm56  1  0.01370214  0.63170055  0.06117901  1
  Sm3+  Sm57  1  0.88572449  0.00807440  0.95732617  1
  Sm3+  Sm58  1  0.49453848  0.87487279  0.55303955  1
  Sm3+  Sm59  1  0.62030809  0.24478377  0.45539953  1
  Sm3+  Sm60  1  0.49212686  0.11400823  0.56798363  1
  Sm3+  Sm61  1  0.62126992  -0.00114007  0.44191040  1
  Sm3+  Sm62  1  0.49307662  0.62184723  0.56823353  1
  Sm3+  Sm63  1  0.88149434  0.76168715  0.94534254  1
  Bi2+  Bi64  1  0.02509917  0.14943592  0.30707353  1
  Bi2+  Bi65  1  0.00145859  0.08246969  0.81484992  1
  Bi2+  Bi66  1  -0.03903075  0.39160365  0.28397744  1
  Bi2+  Bi67  1  0.00422726  0.38331954  0.79868077  1
  Bi2+  Bi68  1  0.01260662  0.61698927  0.28957987  1
  Bi2+  Bi69  1  -0.00651442  0.64102456  0.79201824  1
  Bi2+  Bi70  1  0.00130040  0.86089147  0.29062023  1
  Bi2+  Bi71  1  0.02570436  0.88610732  0.79421575  1
  Bi2+  Bi72  1  0.27507735  0.13990776  0.28635996  1
  Bi2+  Bi73  1  0.25057060  0.10196589  0.78605269  1
  Bi2+  Bi74  1  0.21325977  0.44116940  0.25494607  1
  Bi2+  Bi75  1  0.27336196  0.34852328  0.78756805  1
  Bi2+  Bi76  1  0.20905620  0.62298943  0.30405370  1
  Bi2+  Bi77  1  0.25637953  0.60231191  0.78262628  1
  Bi2+  Bi78  1  0.27510271  0.82995580  0.27609743  1
  Bi2+  Bi79  1  0.22162380  0.79930034  0.79752885  1
  Bi2+  Bi80  1  0.53356729  0.14156159  0.29097373  1
  Bi2+  Bi81  1  0.50398814  0.07471409  0.78483591  1
  Bi2+  Bi82  1  0.49845272  0.41975240  0.27429273  1
  Bi2+  Bi83  1  0.51297895  0.27120667  0.80682481  1
  Bi2+  Bi84  1  0.48632119  0.63737641  0.30034621  1
  Bi2+  Bi85  1  0.51747724  0.62475151  0.78356476  1
  Bi2+  Bi86  1  0.56865277  0.92157050  0.26535936  1
  Bi2+  Bi87  1  0.41491006  0.83971241  0.80130532  1
  Bi2+  Bi88  1  0.76101125  0.12806281  0.30495036  1
  Bi2+  Bi89  1  0.72227241  0.09588135  0.79362590  1
  Bi2+  Bi90  1  0.73633307  0.32626289  0.29956005  1
  Bi2+  Bi91  1  0.64265389  0.41314695  0.76492081  1
  Bi2+  Bi92  1  0.72305835  0.59784037  0.29540664  1
  Bi2+  Bi93  1  0.78589968  0.64491136  0.78202634  1
  Bi2+  Bi94  1  0.75133908  0.86393601  0.27420813  1
  Bi2+  Bi95  1  0.69980466  0.86926093  0.77342437  1
  Bi2+  Bi96  1  0.14490430  -0.00767633  0.20746478  1
  Bi2+  Bi97  1  0.13752816  -0.03327621  0.70477434  1
  Bi2+  Bi98  1  0.13218023  0.26539093  0.21459843  1
  Bi2+  Bi99  1  0.12982554  0.23956510  0.71392431  1
  Bi2+  Bi100  1  0.04508812  0.50903821  0.19050171  1
  Bi2+  Bi101  1  0.12705227  0.52196327  0.71093346  1
  Bi2+  Bi102  1  0.14531312  0.70179177  0.20362291  1
  Bi2+  Bi103  1  0.06752073  0.75952211  0.70867347  1
  Bi2+  Bi104  1  0.41283544  -0.00148182  0.20550088  1
  Bi2+  Bi105  1  0.37018367  -0.01890680  0.69982509  1
  Bi2+  Bi106  1  0.39482740  0.28102354  0.20652034  1
  Bi2+  Bi107  1  0.38864859  0.23107679  0.71837162  1
  Bi2+  Bi108  1  0.35940667  0.54007479  0.20701594  1
  Bi2+  Bi109  1  0.45463093  0.49351289  0.70327020  1
  Bi2+  Bi110  1  0.39204286  0.73326258  0.20288640  1
  Bi2+  Bi111  1  0.34610740  0.73632811  0.71184093  1
  Bi2+  Bi112  1  0.65521704  0.10499345  0.20491338  1
  Bi2+  Bi113  1  0.60551349  0.06846464  0.68826358  1
  Bi2+  Bi114  1  0.60694179  0.30061734  0.20641022  1
  Bi2+  Bi115  1  0.59397897  0.26005503  0.70014818  1
  Bi2+  Bi116  1  0.64563587  0.49644061  0.20753073  1
  Bi2+  Bi117  1  0.62510523  0.57235343  0.68784558  1
  Bi2+  Bi118  1  0.61798292  0.76354028  0.20766529  1
  Bi2+  Bi119  1  0.54835712  0.78855810  0.71948433  1
  Bi2+  Bi120  1  0.85864000  0.02321858  0.22258976  1
  Bi2+  Bi121  1  0.85269857  -0.03185077  0.70980762  1
  Bi2+  Bi122  1  0.87178442  0.24169687  0.23128384  1
  Bi2+  Bi123  1  0.85783756  0.25065217  0.72167421  1
  Bi2+  Bi124  1  0.84225580  0.51481054  0.20008167  1
  Bi2+  Bi125  1  0.85654503  0.50622326  0.71549783  1
  Bi2+  Bi126  1  0.83866901  0.70902502  0.22837263  1
  Bi2+  Bi127  1  0.86571220  0.77232630  0.70984831  1
  S2-  S128  1  0.11384221  0.12966191  0.15401133  1
  S2-  S129  1  -0.01139323  0.13649186  0.72654659  1
  S2-  S130  1  0.02421064  0.35152397  0.15286612  1
  S2-  S131  1  -0.01206977  0.28593854  0.65994235  1
  S2-  S132  1  0.00584772  0.71370197  0.14736655  1
  S2-  S133  1  -0.01712525  0.50686137  0.65004171  1
  S2-  S134  1  -0.01664731  0.92468743  0.19011086  1
  S2-  S135  1  -0.00329850  0.95457497  0.64344856  1
  S2-  S136  1  0.27793653  0.01698591  0.15164646  1
  S2-  S137  1  0.15327765  0.11650151  0.64949239  1
  S2-  S138  1  0.25650153  0.27989782  0.14585305  1
  S2-  S139  1  0.18081390  0.38688002  0.66530888  1
  S2-  S140  1  0.24357315  0.52836021  0.13256040  1
  S2-  S141  1  0.14434019  0.65149444  0.64054226  1
  S2-  S142  1  0.17393670  0.84711914  0.15105707  1
  S2-  S143  1  0.25229321  0.89636128  0.64413513  1
  S2-  S144  1  0.44569136  0.13974121  0.15029031  1
  S2-  S145  1  0.37210827  0.11354757  0.63980849  1
  S2-  S146  1  0.42430830  0.40649137  0.14165890  1
  S2-  S147  1  0.39219261  0.36457433  0.64530087  1
  S2-  S148  1  0.52118080  0.64247009  0.15529943  1
  S2-  S149  1  0.37210798  0.61633652  0.64007686  1
  S2-  S150  1  0.42452130  0.86889235  0.13582377  1
  S2-  S151  1  0.50205700  0.92018057  0.64818415  1
  S2-  S152  1  0.89692950  0.14453385  0.15025792  1
  S2-  S153  1  0.82293404  0.11661811  0.65408983  1
  S2-  S154  1  0.75978015  0.38215830  0.15286381  1
  S2-  S155  1  0.78503555  0.37579968  0.66449048  1
  S2-  S156  1  0.75150315  0.74830039  0.14077584  1
  S2-  S157  1  0.79163587  0.63732279  0.65633211  1
  S2-  S158  1  0.74144627  0.98282109  0.14902534  1
  S2-  S159  1  0.74987081  0.88008095  0.65326018  1
  S2-  S160  1  0.14511700  0.04127819  0.31250750  1
  S2-  S161  1  0.14930897  0.00683503  0.84818772  1
  S2-  S162  1  0.17269057  0.23887982  0.33470764  1
  S2-  S163  1  0.02401861  0.23851696  0.85349376  1
  S2-  S164  1  0.15172630  0.47578080  0.34710539  1
  S2-  S165  1  0.15927893  0.40985205  0.84612677  1
  S2-  S166  1  0.13387150  0.84556958  0.34361868  1
  S2-  S167  1  0.13526411  0.64341873  0.85393137  1
  S2-  S168  1  0.33810389  -0.02580506  0.30901397  1
  S2-  S169  1  0.37068545  0.01085353  0.84021240  1
  S2-  S170  1  0.40086638  0.17648963  0.35135476  1
  S2-  S171  1  0.25537990  0.22022119  0.85708974  1
  S2-  S172  1  0.41871889  0.49722934  0.35056891  1
  S2-  S173  1  0.39454916  0.38328812  0.85308674  1
  S2-  S174  1  0.39090052  0.75678811  0.34194217  1
  S2-  S175  1  0.38369592  0.62835716  0.85189981  1
  S2-  S176  1  0.53892057  0.00306836  0.35656782  1
  S2-  S177  1  0.62593991  -0.02474719  0.84511524  1
  S2-  S178  1  0.62992866  0.23383295  0.35820931  1
  S2-  S179  1  0.69775797  0.21002368  0.86045533  1
  S2-  S180  1  0.69433488  0.47153179  0.35989730  1
  S2-  S181  1  0.60422655  0.50621021  0.84309366  1
  S2-  S182  1  0.61562331  0.70976208  0.34847652  1
  S2-  S183  1  0.69669543  0.74540673  0.84410442  1
  S2-  S184  1  0.95411848  -0.00833903  0.34810885  1
  S2-  S185  1  0.85284303  0.06202903  0.86420107  1
  S2-  S186  1  0.96747458  0.27817962  0.36331314  1
  S2-  S187  1  0.85240694  0.33076368  0.81083802  1
  S2-  S188  1  0.91474363  0.51154501  0.34394803  1
  S2-  S189  1  0.95809755  0.51077943  0.85796078  1
  S2-  S190  1  0.95809865  0.73892227  0.35819979  1
  S2-  S191  1  0.95451932  0.77532098  0.85745494  1
  S2-  S192  1  -0.00476060  0.11910189  0.44806770  1
  S2-  S193  1  0.00452486  0.13297543  0.96170033  1
  S2-  S194  1  -0.00574996  0.37651040  0.46586142  1
  S2-  S195  1  0.00033450  0.37697413  0.95225540  1
  S2-  S196  1  -0.00684849  0.61795384  0.46154114  1
  S2-  S197  1  0.00169144  0.63745043  0.95858921  1
  S2-  S198  1  -0.00718822  0.87089509  0.45244267  1
  S2-  S199  1  0.00677690  0.88345071  0.95977901  1
  S2-  S200  1  0.24646457  0.11780495  0.44600343  1
  S2-  S201  1  0.25809575  0.13207091  0.96348981  1
  S2-  S202  1  0.24656718  0.37119606  0.45657617  1
  S2-  S203  1  0.25605615  0.38485507  0.95838842  1
  S2-  S204  1  0.24590512  0.62420309  0.45608753  1
  S2-  S205  1  0.25261229  0.63352623  0.95066529  1
  S2-  S206  1  0.25343859  0.87376022  0.44008648  1
  S2-  S207  1  0.25547298  0.87990860  0.94906604  1
  S2-  S208  1  0.50042070  0.12229634  0.46266400  1
  S2-  S209  1  0.50532951  0.13442906  0.94852691  1
  S2-  S210  1  0.49858295  0.36950075  0.45774208  1
  S2-  S211  1  0.51413207  0.38199424  0.95426647  1
  S2-  S212  1  0.49610726  0.61914106  0.46221892  1
  S2-  S213  1  0.51308764  0.63634560  0.94865109  1
  S2-  S214  1  0.49838745  0.87158302  0.44946840  1
  S2-  S215  1  0.50669814  0.88338128  0.94449561  1
  S2-  S216  1  0.74509596  0.12045112  0.45759358  1
  S2-  S217  1  0.76164967  0.13066207  0.97251145  1
  S2-  S218  1  0.74225003  0.36715333  0.46272726  1
  S2-  S219  1  0.76043328  0.37912280  0.94799294  1
  S2-  S220  1  0.74299024  0.62026682  0.45505588  1
  S2-  S221  1  0.76048608  0.63611115  0.95560750  1
  S2-  S222  1  0.74510505  0.87226602  0.44553991  1
  S2-  S223  1  0.75954046  0.88501807  0.95746843  1
  S2-  S224  1  0.13265637  0.00039219  0.05338724  1
  S2-  S225  1  0.12230755  -0.00687484  0.53266454  1
  S2-  S226  1  0.13191481  0.26127395  0.04161037  1
  S2-  S227  1  0.12418934  0.24766961  0.54700454  1
  S2-  S228  1  0.12682790  0.50808814  0.03515170  1
  S2-  S229  1  0.13321863  0.49867619  0.55012403  1
  S2-  S230  1  0.13570750  0.75396195  0.03901590  1
  S2-  S231  1  0.12196984  0.75214414  0.53512742  1
  S2-  S232  1  0.38436390  0.00918585  0.04121185  1
  S2-  S233  1  0.37549345  -0.00518936  0.53424843  1
  S2-  S234  1  0.38583373  0.26157708  0.03911183  1
  S2-  S235  1  0.37536224  0.24270643  0.54468804  1
  S2-  S236  1  0.38710696  0.51232066  0.03421155  1
  S2-  S237  1  0.37345678  0.49529102  0.54511030  1
  S2-  S238  1  0.38123788  0.75496794  0.03365719  1
  S2-  S239  1  0.37560591  0.75036273  0.54526949  1
  S2-  S240  1  0.62809302  0.00769826  0.04680479  1
  S2-  S241  1  0.62191104  -0.00426807  0.54528790  1
  S2-  S242  1  0.63362874  0.25609010  0.05473597  1
  S2-  S243  1  0.61962421  0.24301265  0.55905891  1
  S2-  S244  1  0.63569722  0.51038133  0.04936152  1
  S2-  S245  1  0.61829385  0.49476372  0.55170734  1
  S2-  S246  1  0.63110772  0.76009893  0.04108309  1
  S2-  S247  1  0.61745042  0.74696479  0.55268866  1
  S2-  S248  1  0.89315287  -0.00302400  0.05842027  1
  S2-  S249  1  0.87173177  -0.00215710  0.54223506  1
  S2-  S250  1  0.88368085  0.26211933  0.05184792  1
  S2-  S251  1  0.87058835  0.24379967  0.55132491  1
  S2-  S252  1  0.88660454  0.51036553  0.05175846  1
  S2-  S253  1  0.86725907  0.49679354  0.54745935  1
  S2-  S254  1  0.88813390  0.75978776  0.04738428  1
  S2-  S255  1  0.87695474  0.74830075  0.54830842  1
