# generated using pymatgen
data_La12Ce14Pr13Nd13Sm12(BiS2)64
_symmetry_space_group_name_H-M   'P 1'
_cell_length_a   16.14568034
_cell_length_b   16.12712482
_cell_length_c   27.31220134
_cell_angle_alpha   89.90419581
_cell_angle_beta   89.98109005
_cell_angle_gamma   90.03238578
_symmetry_Int_Tables_number   1
_chemical_formula_structural   La12Ce14Pr13Nd13Sm12(BiS2)64
_chemical_formula_sum   'La12 Ce14 Pr13 Nd13 Sm12 Bi64 S128'
_cell_volume   7111.63243435
_cell_formula_units_Z   1
loop_
 _symmetry_equiv_pos_site_id
 _symmetry_equiv_pos_as_xyz
  1  'x, y, z'
loop_
 _atom_type_symbol
 _atom_type_oxidation_number
  La3+  3.0
  Ce3+  3.0
  Pr3+  3.0
  Nd3+  3.0
  Sm3+  3.0
  Bi2+  2.0
  S2-  -2.0
loop_
 _atom_site_type_symbol
 _atom_site_label
 _atom_site_symmetry_multiplicity
 _atom_site_fract_x
 _atom_site_fract_y
 _atom_site_fract_z
 _atom_site_occupancy
  La3+  La0  1  0.25759086  0.62554167  0.60490304  1
  La3+  La1  1  0.12734107  0.25949764  0.40818559  1
  La3+  La2  1  0.76588738  0.11606113  0.57462222  1
  La3+  La3  1  0.12317804  0.24295197  0.93251952  1
  La3+  La4  1  0.62513420  0.74614268  0.39064571  1
  La3+  La5  1  0.75856279  0.37596716  0.56684838  1
  La3+  La6  1  0.61950310  0.25664660  0.90169433  1
  La3+  La7  1  0.63792432  0.00391429  0.43006364  1
  La3+  La8  1  0.36785621  0.49718251  0.93184511  1
  La3+  La9  1  0.61625896  -0.00997408  0.90498122  1
  La3+  La10  1  0.87021286  0.73442835  0.93158916  1
  La3+  La11  1  0.23591233  0.11150857  0.08731572  1
  Ce3+  Ce12  1  0.87973671  0.00196273  0.43823726  1
  Ce3+  Ce13  1  0.86749202  -0.00688552  0.93826859  1
  Ce3+  Ce14  1  -0.00288663  0.11937373  0.05387902  1
  Ce3+  Ce15  1  -0.00764123  0.86632997  0.05386855  1
  Ce3+  Ce16  1  0.01090403  0.87252401  0.55293777  1
  Ce3+  Ce17  1  0.13476623  0.50156891  0.44104810  1
  Ce3+  Ce18  1  0.25455063  0.87306824  0.55716423  1
  Ce3+  Ce19  1  0.88041842  0.25375013  0.43701423  1
  Ce3+  Ce20  1  0.61720288  0.49172065  0.94600068  1
  Ce3+  Ce21  1  0.74167808  0.36344137  0.06278050  1
  Ce3+  Ce22  1  0.75775669  0.86793298  0.55901821  1
  Ce3+  Ce23  1  0.37081331  0.74523645  0.95092622  1
  Ce3+  Ce24  1  0.11668952  0.49301808  0.94990594  1
  Ce3+  Ce25  1  0.24385665  0.87154684  0.05739396  1
  Pr3+  Pr26  1  0.74362504  0.86874406  0.05697770  1
  Pr3+  Pr27  1  0.49857293  0.12454880  0.07063987  1
  Pr3+  Pr28  1  0.38320391  0.50237619  0.43956363  1
  Pr3+  Pr29  1  0.12297075  -0.00495777  0.93282643  1
  Pr3+  Pr30  1  0.86743971  0.49374810  0.94913481  1
  Pr3+  Pr31  1  0.25471631  0.13109102  0.56417435  1
  Pr3+  Pr32  1  0.11961844  0.74014834  0.93974834  1
  Pr3+  Pr33  1  0.48921240  0.36748650  0.06648372  1
  Pr3+  Pr34  1  0.13285526  0.75165235  0.43033867  1
  Pr3+  Pr35  1  0.00143426  0.62920101  0.08420099  1
  Pr3+  Pr36  1  0.00958666  0.62672900  0.56240864  1
  Pr3+  Pr37  1  0.38519576  0.25178402  0.43439698  1
  Pr3+  Pr38  1  0.73760606  0.61668114  0.07092635  1
  Nd3+  Nd39  1  0.25832195  0.37288953  0.56348723  1
  Nd3+  Nd40  1  0.49361842  0.87434386  0.06727000  1
  Nd3+  Nd41  1  0.51378357  0.12593896  0.56696298  1
  Nd3+  Nd42  1  0.61604442  0.74394918  0.93644474  1
  Nd3+  Nd43  1  0.50774487  0.87649785  0.55930189  1
  Nd3+  Nd44  1  0.50634909  0.37731902  0.55459673  1
  Nd3+  Nd45  1  0.88479023  0.74722805  0.42829535  1
  Nd3+  Nd46  1  0.00802239  0.12839555  0.55585972  1
  Nd3+  Nd47  1  0.01175472  0.37765624  0.55330297  1
  Nd3+  Nd48  1  0.50332051  0.62760086  0.56272365  1
  Nd3+  Nd49  1  0.49242421  0.61852989  0.06319683  1
  Nd3+  Nd50  1  0.38377751  0.75371996  0.44103064  1
  Nd3+  Nd51  1  0.36981365  -0.00232250  0.94175497  1
  Sm3+  Sm52  1  0.24537469  0.61614855  0.06712421  1
  Sm3+  Sm53  1  0.24159682  0.36498330  0.05787570  1
  Sm3+  Sm54  1  0.37535338  0.23902833  0.95014449  1
  Sm3+  Sm55  1  -0.00801852  0.36963108  0.06210044  1
  Sm3+  Sm56  1  0.75593235  0.63367882  0.55975910  1
  Sm3+  Sm57  1  0.63389906  0.50704092  0.44682237  1
  Sm3+  Sm58  1  0.63588487  0.24839513  0.44052425  1
  Sm3+  Sm59  1  0.13543348  0.00684720  0.44003250  1
  Sm3+  Sm60  1  0.73918886  0.11838100  0.04865119  1
  Sm3+  Sm61  1  0.38284025  0.00530956  0.44825764  1
  Sm3+  Sm62  1  0.86512344  0.24139831  0.94093277  1
  Sm3+  Sm63  1  0.87927052  0.50656653  0.44519025  1
  Bi2+  Bi64  1  -0.02798085  0.11014341  0.28248070  1
  Bi2+  Bi65  1  0.01701975  0.13665366  0.78545570  1
  Bi2+  Bi66  1  0.00477638  0.37895458  0.29048277  1
  Bi2+  Bi67  1  -0.05475824  0.42955230  0.76371129  1
  Bi2+  Bi68  1  0.02733647  0.60202708  0.31015052  1
  Bi2+  Bi69  1  -0.01950227  0.67165129  0.79296456  1
  Bi2+  Bi70  1  -0.01205712  0.87019294  0.27589107  1
  Bi2+  Bi71  1  0.10024210  0.95682735  0.79875369  1
  Bi2+  Bi72  1  0.27103353  0.10008722  0.30358614  1
  Bi2+  Bi73  1  0.22793164  0.16186188  0.81698456  1
  Bi2+  Bi74  1  0.26000809  0.47600043  0.27993038  1
  Bi2+  Bi75  1  0.18296678  0.34626568  0.79315070  1
  Bi2+  Bi76  1  0.21399659  0.66297555  0.31353538  1
  Bi2+  Bi77  1  0.23239124  0.60213424  0.81033429  1
  Bi2+  Bi78  1  0.25941797  0.84923680  0.29011244  1
  Bi2+  Bi79  1  0.27601259  0.88196949  0.76638531  1
  Bi2+  Bi80  1  0.50583711  0.12901806  0.29082391  1
  Bi2+  Bi81  1  0.49181967  0.11958455  0.79448901  1
  Bi2+  Bi82  1  0.56282475  0.32731937  0.29315166  1
  Bi2+  Bi83  1  0.48014297  0.38436660  0.79501023  1
  Bi2+  Bi84  1  0.43317803  0.59677974  0.28523328  1
  Bi2+  Bi85  1  0.55244406  0.63540343  0.80660686  1
  Bi2+  Bi86  1  0.46737821  0.87660565  0.29121176  1
  Bi2+  Bi87  1  0.46321626  0.81675428  0.82424648  1
  Bi2+  Bi88  1  0.77827753  0.14328738  0.28107954  1
  Bi2+  Bi89  1  0.76677368  0.14859781  0.78738940  1
  Bi2+  Bi90  1  0.74870751  0.31489881  0.33479092  1
  Bi2+  Bi91  1  0.74750450  0.43099451  0.75548274  1
  Bi2+  Bi92  1  0.76087213  0.63127839  0.28704489  1
  Bi2+  Bi93  1  0.74990839  0.61711765  0.80156653  1
  Bi2+  Bi94  1  0.73778636  0.88992755  0.28577183  1
  Bi2+  Bi95  1  0.75977014  0.81451938  0.77823168  1
  Bi2+  Bi96  1  0.08466344  -0.00079019  0.21189719  1
  Bi2+  Bi97  1  0.18297773  0.00387700  0.68750969  1
  Bi2+  Bi98  1  0.15963070  0.24770446  0.20488670  1
  Bi2+  Bi99  1  0.09358483  0.17371159  0.67701559  1
  Bi2+  Bi100  1  0.09772567  0.49324375  0.21236912  1
  Bi2+  Bi101  1  0.11651907  0.47316119  0.71418231  1
  Bi2+  Bi102  1  0.13761556  0.76099632  0.21103528  1
  Bi2+  Bi103  1  0.11651876  0.77319426  0.70396996  1
  Bi2+  Bi104  1  0.35017417  -0.02117266  0.20375214  1
  Bi2+  Bi105  1  0.36538840  0.03866377  0.71854785  1
  Bi2+  Bi106  1  0.41701813  0.36984316  0.20639123  1
  Bi2+  Bi107  1  0.31661335  0.24531735  0.73182654  1
  Bi2+  Bi108  1  0.39701136  0.55008339  0.17319299  1
  Bi2+  Bi109  1  0.38723591  0.48639473  0.71186830  1
  Bi2+  Bi110  1  0.34089599  0.72512026  0.21269681  1
  Bi2+  Bi111  1  0.43524852  0.76044616  0.71994471  1
  Bi2+  Bi112  1  0.62507994  -0.00477189  0.19253292  1
  Bi2+  Bi113  1  0.63301630  -0.01051718  0.69950389  1
  Bi2+  Bi114  1  0.65965728  0.26102928  0.19872533  1
  Bi2+  Bi115  1  0.58857166  0.26262064  0.69361997  1
  Bi2+  Bi116  1  0.62923616  0.49850329  0.26170410  1
  Bi2+  Bi117  1  0.58958805  0.52681020  0.71240264  1
  Bi2+  Bi118  1  0.64009812  0.75305691  0.17719451  1
  Bi2+  Bi119  1  0.62835481  0.72042117  0.70670467  1
  Bi2+  Bi120  1  0.88691611  -0.01422466  0.20569166  1
  Bi2+  Bi121  1  0.91359123  -0.02286377  0.75395328  1
  Bi2+  Bi122  1  0.90211190  0.25147231  0.21098484  1
  Bi2+  Bi123  1  0.92613854  0.26717153  0.69913206  1
  Bi2+  Bi124  1  0.82587362  0.42370055  0.25091878  1
  Bi2+  Bi125  1  0.85739095  0.57590441  0.70419570  1
  Bi2+  Bi126  1  0.92789871  0.69042596  0.21801860  1
  Bi2+  Bi127  1  0.88629867  0.81766607  0.69119752  1
  S2-  S128  1  0.08191295  0.12462502  0.13985726  1
  S2-  S129  1  -0.08832640  0.13448017  0.64047838  1
  S2-  S130  1  0.02241278  0.33171494  0.15623187  1
  S2-  S131  1  -0.00376627  0.40955539  0.65043514  1
  S2-  S132  1  -0.04178480  0.53820284  0.16781983  1
  S2-  S133  1  -0.01192146  0.66681495  0.66020886  1
  S2-  S134  1  -0.00310345  0.78626359  0.13987526  1
  S2-  S135  1  0.02561304  0.89983749  0.64965999  1
  S2-  S136  1  0.28635953  0.13849374  0.18645853  1
  S2-  S137  1  0.24882218  0.24883051  0.63915701  1
  S2-  S138  1  0.25474291  0.35645489  0.15655066  1
  S2-  S139  1  0.25252789  0.46449033  0.64995502  1
  S2-  S140  1  0.15379884  0.62272865  0.15044697  1
  S2-  S141  1  0.19791011  0.63042817  0.70889408  1
  S2-  S142  1  0.22118142  0.94593406  0.14431683  1
  S2-  S143  1  0.24747563  0.79205669  0.64262282  1
  S2-  S144  1  0.48800768  0.06261295  0.16731130  1
  S2-  S145  1  0.47138939  0.13984032  0.66354787  1
  S2-  S146  1  0.50154019  0.26512067  0.14822329  1
  S2-  S147  1  0.47548910  0.37705096  0.65208417  1
  S2-  S148  1  0.59420347  0.60888815  0.14417745  1
  S2-  S149  1  0.41543429  0.62469067  0.65034400  1
  S2-  S150  1  0.49641512  0.85268008  0.16670068  1
  S2-  S151  1  0.50998365  0.88517065  0.66007706  1
  S2-  S152  1  0.71107225  0.12136242  0.14710164  1
  S2-  S153  1  0.67760790  0.14065373  0.66216652  1
  S2-  S154  1  0.73658804  0.39700462  0.15857133  1
  S2-  S155  1  0.73029518  0.35467040  0.66471357  1
  S2-  S156  1  0.78987091  0.67040419  0.16266420  1
  S2-  S157  1  0.75698945  0.74501240  0.63515851  1
  S2-  S158  1  0.75480721  0.89025921  0.15771207  1
  S2-  S159  1  0.75897603  0.96263220  0.64225151  1
  S2-  S160  1  0.14905062  0.01302454  0.34271554  1
  S2-  S161  1  0.24599488  0.00964371  0.86080548  1
  S2-  S162  1  0.17778549  0.22695609  0.30837810  1
  S2-  S163  1  0.04554756  0.27137375  0.84361953  1
  S2-  S164  1  0.13947311  0.41891994  0.35416140  1
  S2-  S165  1  0.13043969  0.49212674  0.85307654  1
  S2-  S166  1  0.01274108  0.76132598  0.35473393  1
  S2-  S167  1  0.11885840  0.72492413  0.83910268  1
  S2-  S168  1  0.40704163  0.00903636  0.34957737  1
  S2-  S169  1  0.45950891  -0.01151041  0.85618047  1
  S2-  S170  1  0.38878473  0.22454532  0.33460245  1
  S2-  S171  1  0.44546558  0.24844983  0.85979746  1
  S2-  S172  1  0.39203465  0.46004661  0.34196126  1
  S2-  S173  1  0.35693415  0.47656737  0.83147297  1
  S2-  S174  1  0.45850996  0.74002082  0.35126340  1
  S2-  S175  1  0.34738823  0.68804319  0.86058705  1
  S2-  S176  1  0.60395885  -0.09153547  0.34529170  1
  S2-  S177  1  0.63965004  0.03293713  0.80175756  1
  S2-  S178  1  0.61047770  0.14076293  0.36332975  1
  S2-  S179  1  0.62429335  0.23156401  0.79485180  1
  S2-  S180  1  0.63473599  0.56974713  0.35542690  1
  S2-  S181  1  0.60813462  0.41974762  0.85866621  1
  S2-  S182  1  0.63141169  0.74834711  0.27377800  1
  S2-  S183  1  0.63107351  0.83629202  0.85197752  1
  S2-  S184  1  0.79241978  0.01321832  0.35374029  1
  S2-  S185  1  0.84381441  0.01765125  0.84326339  1
  S2-  S186  1  0.97482885  0.24596587  0.35350205  1
  S2-  S187  1  0.79725815  0.26204880  0.85276020  1
  S2-  S188  1  0.87790795  0.57175575  0.35490472  1
  S2-  S189  1  0.89079062  0.58850914  0.86578482  1
  S2-  S190  1  0.78476166  0.76733114  0.34731225  1
  S2-  S191  1  0.90100980  0.79715717  0.83728729  1
  S2-  S192  1  0.00930725  0.12516806  0.44973719  1
  S2-  S193  1  -0.00730178  0.11894509  0.94698063  1
  S2-  S194  1  0.00150351  0.38387748  0.45008507  1
  S2-  S195  1  -0.01105437  0.36642249  0.95578175  1
  S2-  S196  1  0.00982878  0.62309078  0.45598242  1
  S2-  S197  1  -0.00177643  0.61725735  0.96881579  1
  S2-  S198  1  0.01091594  0.88406714  0.44829201  1
  S2-  S199  1  -0.00371155  0.86905816  0.94780029  1
  S2-  S200  1  0.25727038  0.13022918  0.45237124  1
  S2-  S201  1  0.24666974  0.12115807  0.96371718  1
  S2-  S202  1  0.25937569  0.37360344  0.45355055  1
  S2-  S203  1  0.24862307  0.36592578  0.95177749  1
  S2-  S204  1  0.25949265  0.62722045  0.44231648  1
  S2-  S205  1  0.24251167  0.61627851  0.96289122  1
  S2-  S206  1  0.25803693  0.87962739  0.44926993  1
  S2-  S207  1  0.24560779  0.86611387  0.95219423  1
  S2-  S208  1  0.50410784  0.12715910  0.46128020  1
  S2-  S209  1  0.49916757  0.11776578  0.95785056  1
  S2-  S210  1  0.51456648  0.37676010  0.44863499  1
  S2-  S211  1  0.49050820  0.36981718  0.96051860  1
  S2-  S212  1  0.50787204  0.62671214  0.45681892  1
  S2-  S213  1  0.49486898  0.61868513  0.95691291  1
  S2-  S214  1  0.50311123  0.88129714  0.45448937  1
  S2-  S215  1  0.49608744  0.86969386  0.96047241  1
  S2-  S216  1  0.76175292  0.13169996  0.46153833  1
  S2-  S217  1  0.73692464  0.11844513  0.94501266  1
  S2-  S218  1  0.75554819  0.38251673  0.45873358  1
  S2-  S219  1  0.74375049  0.36744541  0.95719714  1
  S2-  S220  1  0.75445275  0.62950510  0.45793818  1
  S2-  S221  1  0.73730708  0.61802457  0.95974659  1
  S2-  S222  1  0.75931186  0.87429355  0.45305748  1
  S2-  S223  1  0.74498524  0.86952252  0.95068041  1
  S2-  S224  1  0.11514116  -0.00987630  0.03869893  1
  S2-  S225  1  0.13345740  0.00306968  0.54478509  1
  S2-  S226  1  0.11680164  0.24838089  0.04126855  1
  S2-  S227  1  0.12925779  0.25308860  0.53475222  1
  S2-  S228  1  0.11880346  0.48940410  0.05438488  1
  S2-  S229  1  0.13636917  0.50542227  0.54780920  1
  S2-  S230  1  0.12588157  0.74593928  0.04541442  1
  S2-  S231  1  0.13533210  0.74637206  0.53865246  1
  S2-  S232  1  0.36954988  -0.00285016  0.05053802  1
  S2-  S233  1  0.37958904  0.00354705  0.55377613  1
  S2-  S234  1  0.36186504  0.23951932  0.05290427  1
  S2-  S235  1  0.38685229  0.25002915  0.54254066  1
  S2-  S236  1  0.36410724  0.49192200  0.04395977  1
  S2-  S237  1  0.37998101  0.50124524  0.54502370  1
  S2-  S238  1  0.36724532  0.74351864  0.05749710  1
  S2-  S239  1  0.38072676  0.75150159  0.54581735  1
  S2-  S240  1  0.61882698  -0.00582034  0.04975055  1
  S2-  S241  1  0.63060839  0.00032071  0.54293722  1
  S2-  S242  1  0.62117249  0.24397677  0.04521784  1
  S2-  S243  1  0.63294033  0.25199145  0.54595454  1
  S2-  S244  1  0.61583800  0.48767013  0.04939998  1
  S2-  S245  1  0.63259303  0.50587307  0.55268241  1
  S2-  S246  1  0.61557825  0.74639473  0.04395844  1
  S2-  S247  1  0.62391079  0.74899392  0.54750583  1
  S2-  S248  1  0.86851282  -0.00386716  0.04554885  1
  S2-  S249  1  0.88869931  -0.00474099  0.54150683  1
  S2-  S250  1  0.86944867  0.24101006  0.04812827  1
  S2-  S251  1  0.88420075  0.25658307  0.54281348  1
  S2-  S252  1  0.86732689  0.49189722  0.05410913  1
  S2-  S253  1  0.87896808  0.50633362  0.54983547  1
  S2-  S254  1  0.86669152  0.74158158  0.04162960  1
  S2-  S255  1  0.88718902  0.74819173  0.53658210  1
