# generated using pymatgen
data_La12Ce14Pr13Nd13Sm12(BiS2)64
_symmetry_space_group_name_H-M   'P 1'
_cell_length_a   16.07765930
_cell_length_b   16.12809245
_cell_length_c   27.54463029
_cell_angle_alpha   90.31937733
_cell_angle_beta   90.16600843
_cell_angle_gamma   90.03264094
_symmetry_Int_Tables_number   1
_chemical_formula_structural   La12Ce14Pr13Nd13Sm12(BiS2)64
_chemical_formula_sum   'La12 Ce14 Pr13 Nd13 Sm12 Bi64 S128'
_cell_volume   7142.23488158
_cell_formula_units_Z   1
loop_
 _symmetry_equiv_pos_site_id
 _symmetry_equiv_pos_as_xyz
  1  'x, y, z'
loop_
 _atom_type_symbol
 _atom_type_oxidation_number
  La3+  3.0
  Ce3+  3.0
  Pr3+  3.0
  Nd3+  3.0
  Sm3+  3.0
  Bi2+  2.0
  S2-  -2.0
loop_
 _atom_site_type_symbol
 _atom_site_label
 _atom_site_symmetry_multiplicity
 _atom_site_fract_x
 _atom_site_fract_y
 _atom_site_fract_z
 _atom_site_occupancy
  La3+  La0  1  0.52234976  0.36910074  0.06861396  1
  La3+  La1  1  0.61541906  0.74621757  0.43479975  1
  La3+  La2  1  0.25183819  0.12689417  0.09020693  1
  La3+  La3  1  0.35996916  0.24704610  0.40978439  1
  La3+  La4  1  0.16451489  0.00144933  0.89375545  1
  La3+  La5  1  0.37952523  0.23279464  0.94276837  1
  La3+  La6  1  0.50102714  0.36395232  0.58023563  1
  La3+  La7  1  0.11599228  -0.01204076  0.43069919  1
  La3+  La8  1  0.24821238  0.85680970  0.09492135  1
  La3+  La9  1  0.61047358  0.23764726  0.43385138  1
  La3+  La10  1  0.36236129  -0.01912623  0.40292349  1
  La3+  La11  1  0.51717578  0.86820557  0.07679188  1
  Ce3+  Ce12  1  0.74267328  0.86537881  0.56019253  1
  Ce3+  Ce13  1  0.63275725  -0.00764401  0.94083005  1
  Ce3+  Ce14  1  0.01572722  0.86810950  0.05093159  1
  Ce3+  Ce15  1  0.26391366  0.36741278  0.05869357  1
  Ce3+  Ce16  1  0.76365188  0.86884826  0.06000880  1
  Ce3+  Ce17  1  -0.00311739  0.86598815  0.56577595  1
  Ce3+  Ce18  1  0.24639196  0.36492462  0.55979900  1
  Ce3+  Ce19  1  0.86854241  0.48962162  0.44282152  1
  Ce3+  Ce20  1  0.76221169  0.11676620  0.05499540  1
  Ce3+  Ce21  1  0.74154581  0.61771957  0.55696205  1
  Ce3+  Ce22  1  0.88515873  0.74410789  0.94055025  1
  Ce3+  Ce23  1  0.26300865  0.61933189  0.05679737  1
  Ce3+  Ce24  1  0.24556479  0.61853460  0.56452349  1
  Ce3+  Ce25  1  0.62967224  0.74755944  0.93132913  1
  Pr3+  Pr26  1  0.74263204  0.11479567  0.55596931  1
  Pr3+  Pr27  1  0.88578009  0.49268458  0.93337177  1
  Pr3+  Pr28  1  0.62864173  0.23134538  0.92861956  1
  Pr3+  Pr29  1  0.86884693  0.73982067  0.44549138  1
  Pr3+  Pr30  1  0.36885340  0.48859477  0.44336687  1
  Pr3+  Pr31  1  0.00938382  0.37184072  0.05704643  1
  Pr3+  Pr32  1  0.39139792  0.49179287  0.93865826  1
  Pr3+  Pr33  1  0.11791285  0.48976035  0.44250484  1
  Pr3+  Pr34  1  0.38617688  0.75141325  0.93934398  1
  Pr3+  Pr35  1  0.51441102  0.62050169  0.05575745  1
  Pr3+  Pr36  1  0.61286848  -0.00775179  0.44203764  1
  Pr3+  Pr37  1  0.61425830  0.48852440  0.44162970  1
  Pr3+  Pr38  1  0.86713626  0.24016710  0.43957618  1
  Nd3+  Nd39  1  0.51985675  0.12117213  0.07382132  1
  Nd3+  Nd40  1  0.36212197  0.74195362  0.43795143  1
  Nd3+  Nd41  1  0.24139656  0.86387377  0.59038376  1
  Nd3+  Nd42  1  0.01409622  0.62153248  0.05790219  1
  Nd3+  Nd43  1  0.48643267  0.11434849  0.55386719  1
  Nd3+  Nd44  1  -0.00566692  0.36630996  0.56065701  1
  Nd3+  Nd45  1  0.13714872  0.49802224  0.93573927  1
  Nd3+  Nd46  1  0.11962116  0.23785157  0.43716085  1
  Nd3+  Nd47  1  0.13374298  0.23942744  0.94569192  1
  Nd3+  Nd48  1  0.88996746  0.23673737  0.94135959  1
  Nd3+  Nd49  1  -0.00353276  0.11506471  0.55959031  1
  Nd3+  Nd50  1  0.64075170  0.48002181  0.91815696  1
  Nd3+  Nd51  1  0.24543437  0.11480757  0.55523650  1
  Sm3+  Sm52  1  0.14233493  0.74230455  0.92443594  1
  Sm3+  Sm53  1  0.74407565  0.36409684  0.55862748  1
  Sm3+  Sm54  1  0.01086977  0.11219969  0.06223328  1
  Sm3+  Sm55  1  0.37516764  -0.00957826  0.96810923  1
  Sm3+  Sm56  1  0.75896791  0.61920755  0.04838342  1
  Sm3+  Sm57  1  -0.00683554  0.61570987  0.55592994  1
  Sm3+  Sm58  1  0.89287328  -0.01013723  0.93288004  1
  Sm3+  Sm59  1  0.49287915  0.62056738  0.55833996  1
  Sm3+  Sm60  1  0.87213148  -0.01151488  0.44392290  1
  Sm3+  Sm61  1  0.12113234  0.74157580  0.44614649  1
  Sm3+  Sm62  1  0.76159084  0.36760316  0.05172440  1
  Sm3+  Sm63  1  0.48828696  0.86751817  0.55657729  1
  Bi2+  Bi64  1  0.01229892  0.14156953  0.31233040  1
  Bi2+  Bi65  1  0.02589417  0.18347243  0.81024212  1
  Bi2+  Bi66  1  -0.00289480  0.42409592  0.31533464  1
  Bi2+  Bi67  1  0.06181686  0.44186399  0.81804244  1
  Bi2+  Bi68  1  -0.04953957  0.61798815  0.30553000  1
  Bi2+  Bi69  1  -0.05156697  0.59735378  0.81109687  1
  Bi2+  Bi70  1  -0.01630689  0.87550908  0.28670371  1
  Bi2+  Bi71  1  -0.03927961  0.89194358  0.79168130  1
  Bi2+  Bi72  1  0.19970708  0.11928161  0.28188108  1
  Bi2+  Bi73  1  0.32039896  0.11280492  0.80028784  1
  Bi2+  Bi74  1  0.16430421  0.40347260  0.25339521  1
  Bi2+  Bi75  1  0.20252961  0.34798037  0.75935281  1
  Bi2+  Bi76  1  0.23924410  0.63346085  0.30031803  1
  Bi2+  Bi77  1  0.19904633  0.63269640  0.73422335  1
  Bi2+  Bi78  1  0.24236411  0.84800106  0.28430254  1
  Bi2+  Bi79  1  0.26154653  0.85667685  0.78925208  1
  Bi2+  Bi80  1  0.58312848  0.10114691  0.30596367  1
  Bi2+  Bi81  1  0.55237790  0.17515098  0.78787128  1
  Bi2+  Bi82  1  0.51554552  0.34951405  0.31017034  1
  Bi2+  Bi83  1  0.48920282  0.39014346  0.80569925  1
  Bi2+  Bi84  1  0.46634855  0.60486913  0.30829298  1
  Bi2+  Bi85  1  0.41873492  0.64555504  0.80742141  1
  Bi2+  Bi86  1  0.52732123  0.85050643  0.29775513  1
  Bi2+  Bi87  1  0.56068045  0.89277214  0.79037061  1
  Bi2+  Bi88  1  0.81915750  0.11002698  0.28002296  1
  Bi2+  Bi89  1  0.81392680  0.13275195  0.79537608  1
  Bi2+  Bi90  1  0.73905913  0.38153189  0.23363738  1
  Bi2+  Bi91  1  0.79734201  0.44641891  0.76010609  1
  Bi2+  Bi92  1  0.77472141  0.64691030  0.25048498  1
  Bi2+  Bi93  1  0.70778562  0.75477084  0.80215503  1
  Bi2+  Bi94  1  0.78974370  0.84491219  0.26348426  1
  Bi2+  Bi95  1  0.74611629  0.94490828  0.82907059  1
  Bi2+  Bi96  1  0.04814912  0.00829229  0.21468202  1
  Bi2+  Bi97  1  0.14365782  0.02749979  0.69448311  1
  Bi2+  Bi98  1  0.05389107  0.25116316  0.21942622  1
  Bi2+  Bi99  1  0.03428719  0.26971231  0.71090326  1
  Bi2+  Bi100  1  0.16913162  0.56321704  0.18736564  1
  Bi2+  Bi101  1  0.07205346  0.48897575  0.70708483  1
  Bi2+  Bi102  1  0.03999086  0.72279408  0.21944348  1
  Bi2+  Bi103  1  0.05465157  0.76345910  0.72140703  1
  Bi2+  Bi104  1  0.40294432  -0.01165123  0.21043132  1
  Bi2+  Bi105  1  0.43155563  0.00163234  0.71050688  1
  Bi2+  Bi106  1  0.36515706  0.25226910  0.20940470  1
  Bi2+  Bi107  1  0.36109012  0.25763829  0.69224716  1
  Bi2+  Bi108  1  0.34070897  0.50022988  0.23900970  1
  Bi2+  Bi109  1  0.33804174  0.49711762  0.73811941  1
  Bi2+  Bi110  1  0.39559625  0.69136312  0.21346970  1
  Bi2+  Bi111  1  0.39138348  0.73921986  0.70826680  1
  Bi2+  Bi112  1  0.69322862  0.00023591  0.21709157  1
  Bi2+  Bi113  1  0.68282211  0.01759916  0.72901120  1
  Bi2+  Bi114  1  0.60103944  0.25563274  0.19241581  1
  Bi2+  Bi115  1  0.61720554  0.25278659  0.69739926  1
  Bi2+  Bi116  1  0.61164195  0.53199335  0.23995015  1
  Bi2+  Bi117  1  0.65103015  0.58117954  0.75389106  1
  Bi2+  Bi118  1  0.62469786  0.72557983  0.18260403  1
  Bi2+  Bi119  1  0.59108145  0.74418580  0.70261879  1
  Bi2+  Bi120  1  0.87395868  0.04510310  0.16493393  1
  Bi2+  Bi121  1  0.89226761  0.01341570  0.71197290  1
  Bi2+  Bi122  1  0.85525687  0.23665878  0.19707245  1
  Bi2+  Bi123  1  0.83001000  0.27091783  0.71502370  1
  Bi2+  Bi124  1  0.90536280  0.48261362  0.21777807  1
  Bi2+  Bi125  1  0.85309945  0.61067912  0.70711826  1
  Bi2+  Bi126  1  0.90524002  0.84659419  0.16972241  1
  Bi2+  Bi127  1  0.86257692  0.81271693  0.70003361  1
  S2-  S128  1  0.09115599  0.12910297  0.14932021  1
  S2-  S129  1  -0.00158452  0.11192533  0.65807335  1
  S2-  S130  1  -0.03316011  0.35781340  0.15261260  1
  S2-  S131  1  -0.06909474  0.37209361  0.65158439  1
  S2-  S132  1  -0.00076070  0.58911268  0.15434903  1
  S2-  S133  1  0.01033451  0.62284413  0.65259335  1
  S2-  S134  1  0.07804181  0.82947031  0.13912353  1
  S2-  S135  1  0.09124691  0.87585012  0.64742980  1
  S2-  S136  1  0.28637279  0.09764666  0.19065500  1
  S2-  S137  1  0.24061723  0.13630485  0.65446514  1
  S2-  S138  1  0.25239742  0.29304744  0.14529057  1
  S2-  S139  1  0.23168722  0.35780677  0.65472765  1
  S2-  S140  1  0.26342596  0.69630888  0.14374466  1
  S2-  S141  1  0.25144207  0.71378258  0.64547574  1
  S2-  S142  1  0.26198213  0.89739366  0.19634311  1
  S2-  S143  1  0.29196950  0.93151450  0.68159137  1
  S2-  S144  1  0.47965130  0.13128246  0.17248592  1
  S2-  S145  1  0.48679912  0.14371758  0.65237972  1
  S2-  S146  1  0.46328595  0.35671344  0.16538339  1
  S2-  S147  1  0.44662700  0.39030030  0.67771379  1
  S2-  S148  1  0.52028784  0.59451966  0.15451008  1
  S2-  S149  1  0.47674459  0.62609752  0.65530543  1
  S2-  S150  1  0.46567272  0.83298882  0.17326313  1
  S2-  S151  1  0.49794244  0.88011968  0.65427638  1
  S2-  S152  1  0.67051298  0.13455671  0.13645431  1
  S2-  S153  1  0.73933588  0.15552411  0.65206085  1
  S2-  S154  1  0.67221493  0.38316205  0.13391410  1
  S2-  S155  1  0.65401605  0.37843469  0.64029656  1
  S2-  S156  1  0.75271852  0.63733392  0.14533825  1
  S2-  S157  1  0.70671197  0.62479936  0.65114651  1
  S2-  S158  1  0.66523403  0.88051274  0.14095105  1
  S2-  S159  1  0.73370564  0.89936667  0.65437819  1
  S2-  S160  1  0.21479697  -0.01346748  0.34522692  1
  S2-  S161  1  0.18529301  0.01402913  0.78638941  1
  S2-  S162  1  0.20713872  0.23740080  0.35088019  1
  S2-  S163  1  0.18944823  0.17724575  0.85982482  1
  S2-  S164  1  0.15767084  0.49488336  0.34588943  1
  S2-  S165  1  0.11407368  0.60515673  0.85790172  1
  S2-  S166  1  0.14209507  0.74835655  0.34958762  1
  S2-  S167  1  0.13093203  0.84582592  0.84505612  1
  S2-  S168  1  0.43992962  0.00379299  0.31111645  1
  S2-  S169  1  0.34722777  0.00474274  0.86932132  1
  S2-  S170  1  0.44616162  0.20354050  0.32420871  1
  S2-  S171  1  0.41472392  0.24673418  0.84427420  1
  S2-  S172  1  0.38101743  0.39952192  0.35750440  1
  S2-  S173  1  0.34405872  0.48096739  0.84203761  1
  S2-  S174  1  0.37712516  0.81937164  0.34950332  1
  S2-  S175  1  0.29498655  0.73493603  0.85181425  1
  S2-  S176  1  0.63780367  -0.05362073  0.34709320  1
  S2-  S177  1  0.59923297  0.09132515  0.86464039  1
  S2-  S178  1  0.65378219  0.24783294  0.33775449  1
  S2-  S179  1  0.62512379  0.33714425  0.84800382  1
  S2-  S180  1  0.60019865  0.49788486  0.34319652  1
  S2-  S181  1  0.55523529  0.53880812  0.83752509  1
  S2-  S182  1  0.59690483  0.72177268  0.33648945  1
  S2-  S183  1  0.50912173  0.77015329  0.86047133  1
  S2-  S184  1  0.97296777  -0.01498834  0.36476945  1
  S2-  S185  1  0.99511947  0.02612930  0.85540494  1
  S2-  S186  1  0.88510284  0.24518541  0.34078232  1
  S2-  S187  1  0.89653847  0.27024831  0.84472992  1
  S2-  S188  1  0.84426326  0.49052283  0.34795644  1
  S2-  S189  1  0.78322012  0.49674360  0.85246822  1
  S2-  S190  1  0.86535509  0.76128719  0.34746693  1
  S2-  S191  1  0.89229793  0.74741190  0.84333462  1
  S2-  S192  1  -0.00720669  0.11776955  0.45637538  1
  S2-  S193  1  0.01366422  0.11515034  0.96033828  1
  S2-  S194  1  -0.00573698  0.36302291  0.45453152  1
  S2-  S195  1  0.01126134  0.36859671  0.95142988  1
  S2-  S196  1  -0.00452679  0.61653047  0.45229677  1
  S2-  S197  1  0.00665205  0.61850472  0.95491491  1
  S2-  S198  1  -0.00570375  0.86106925  0.46063486  1
  S2-  S199  1  0.01165100  0.86477990  0.94869239  1
  S2-  S200  1  0.24758916  0.11323047  0.45062725  1
  S2-  S201  1  0.25506511  0.11454284  0.97276231  1
  S2-  S202  1  0.24127664  0.36506308  0.45602775  1
  S2-  S203  1  0.25812744  0.36817779  0.95209269  1
  S2-  S204  1  0.24321206  0.61557041  0.45762659  1
  S2-  S205  1  0.26487889  0.61605057  0.95389556  1
  S2-  S206  1  0.24228188  0.86523076  0.45443393  1
  S2-  S207  1  0.25544478  0.87048530  0.95626236  1
  S2-  S208  1  0.48106217  0.11196755  0.44748505  1
  S2-  S209  1  0.50285993  0.11194177  0.96766700  1
  S2-  S210  1  0.49184885  0.36241647  0.46145191  1
  S2-  S211  1  0.50972723  0.36282057  0.95601290  1
  S2-  S212  1  0.49061457  0.61855359  0.45382755  1
  S2-  S213  1  0.51259794  0.61848234  0.95167909  1
  S2-  S214  1  0.48649294  0.86957881  0.45315581  1
  S2-  S215  1  0.50891931  0.87583436  0.96609453  1
  S2-  S216  1  0.74541543  0.11150516  0.44888580  1
  S2-  S217  1  0.76648606  0.11354028  0.94928994  1
  S2-  S218  1  0.74071629  0.36409316  0.45419812  1
  S2-  S219  1  0.76461931  0.35974579  0.95045674  1
  S2-  S220  1  0.74006065  0.61621752  0.45032506  1
  S2-  S221  1  0.75624565  0.62186369  0.94578757  1
  S2-  S222  1  0.74551609  0.86879874  0.45412764  1
  S2-  S223  1  0.76154953  0.86926474  0.95290066  1
  S2-  S224  1  0.13724933  -0.00931162  0.06102265  1
  S2-  S225  1  0.12037393  -0.00935195  0.54334630  1
  S2-  S226  1  0.12973433  0.24628609  0.04806740  1
  S2-  S227  1  0.11806155  0.24127425  0.54490983  1
  S2-  S228  1  0.13707896  0.49372569  0.04301601  1
  S2-  S229  1  0.11795639  0.49255209  0.54981123  1
  S2-  S230  1  0.13844825  0.73897107  0.03499775  1
  S2-  S231  1  0.11806834  0.73902819  0.54855867  1
  S2-  S232  1  0.38212385  -0.00842419  0.07042281  1
  S2-  S233  1  0.36381799  -0.01372534  0.55509076  1
  S2-  S234  1  0.38975235  0.24253028  0.05096072  1
  S2-  S235  1  0.36926306  0.24338280  0.54940578  1
  S2-  S236  1  0.38925073  0.49236885  0.04788921  1
  S2-  S237  1  0.37229604  0.49283012  0.55159721  1
  S2-  S238  1  0.38751899  0.74687843  0.04757907  1
  S2-  S239  1  0.36878927  0.74380810  0.54436372  1
  S2-  S240  1  0.63766022  -0.00512440  0.04335900  1
  S2-  S241  1  0.61443164  -0.00907244  0.54802433  1
  S2-  S242  1  0.64032686  0.24236498  0.03449977  1
  S2-  S243  1  0.61759071  0.23727324  0.54110081  1
  S2-  S244  1  0.64050642  0.49528550  0.03247431  1
  S2-  S245  1  0.61566973  0.49557320  0.54586359  1
  S2-  S246  1  0.63867478  0.74435632  0.03856081  1
  S2-  S247  1  0.61448055  0.74450788  0.54354527  1
  S2-  S248  1  0.88820798  -0.00938289  0.03745183  1
  S2-  S249  1  0.87061573  -0.00935382  0.54799942  1
  S2-  S250  1  0.88640740  0.24200237  0.04676757  1
  S2-  S251  1  0.86866893  0.24098540  0.54634512  1
  S2-  S252  1  0.88229337  0.49553344  0.04190672  1
  S2-  S253  1  0.86665240  0.49177600  0.54878751  1
  S2-  S254  1  0.88561930  0.74107480  0.04555423  1
  S2-  S255  1  0.86999542  0.73999096  0.55206268  1
