# generated using pymatgen
data_La12Ce14Pr13Nd13Sm12(BiS2)64
_symmetry_space_group_name_H-M   'P 1'
_cell_length_a   16.22262078
_cell_length_b   16.19576587
_cell_length_c   27.15992563
_cell_angle_alpha   89.83493799
_cell_angle_beta   90.01818560
_cell_angle_gamma   90.01362934
_symmetry_Int_Tables_number   1
_chemical_formula_structural   La12Ce14Pr13Nd13Sm12(BiS2)64
_chemical_formula_sum   'La12 Ce14 Pr13 Nd13 Sm12 Bi64 S128'
_cell_volume   7135.90806117
_cell_formula_units_Z   1
loop_
 _symmetry_equiv_pos_site_id
 _symmetry_equiv_pos_as_xyz
  1  'x, y, z'
loop_
 _atom_type_symbol
 _atom_type_oxidation_number
  La3+  3.0
  Ce3+  3.0
  Pr3+  3.0
  Nd3+  3.0
  Sm3+  3.0
  Bi2+  2.0
  S2-  -2.0
loop_
 _atom_site_type_symbol
 _atom_site_label
 _atom_site_symmetry_multiplicity
 _atom_site_fract_x
 _atom_site_fract_y
 _atom_site_fract_z
 _atom_site_occupancy
  La3+  La0  1  0.74291186  0.85972307  0.58827683  1
  La3+  La1  1  0.11169671  0.24398050  0.42300232  1
  La3+  La2  1  -0.00665602  0.11017442  0.10485904  1
  La3+  La3  1  0.25615792  0.60838399  0.59697543  1
  La3+  La4  1  0.36751109  0.24672204  0.42346555  1
  La3+  La5  1  0.75110518  0.36289420  0.06437184  1
  La3+  La6  1  0.00448271  0.37716913  0.08899204  1
  La3+  La7  1  0.25670301  0.36260551  0.08414799  1
  La3+  La8  1  0.74575457  0.36479694  0.56640311  1
  La3+  La9  1  0.75419634  0.86365571  0.06032586  1
  La3+  La10  1  0.88032623  0.73337524  0.89995428  1
  La3+  La11  1  0.24796795  0.36211933  0.56530656  1
  Ce3+  Ce12  1  0.62547631  0.24421650  0.94094562  1
  Ce3+  Ce13  1  0.24676423  0.12330392  0.55873818  1
  Ce3+  Ce14  1  -0.00746061  0.11769099  0.55668967  1
  Ce3+  Ce15  1  0.37294381  0.74166192  0.93293412  1
  Ce3+  Ce16  1  0.62583654  -0.00720672  0.93589097  1
  Ce3+  Ce17  1  0.74703422  0.62065014  0.56017001  1
  Ce3+  Ce18  1  0.12221289  -0.00479762  0.44349178  1
  Ce3+  Ce19  1  0.37110637  -0.00539864  0.44117083  1
  Ce3+  Ce20  1  -0.00284769  0.36235991  0.56026595  1
  Ce3+  Ce21  1  0.49730312  0.36638666  0.06471339  1
  Ce3+  Ce22  1  0.62351971  0.74136009  0.92880014  1
  Ce3+  Ce23  1  0.49775396  0.62067554  0.05331022  1
  Ce3+  Ce24  1  0.62214354  -0.00902908  0.44136833  1
  Ce3+  Ce25  1  0.36825839  0.49694830  0.44051233  1
  Pr3+  Pr26  1  0.62571088  0.49194775  0.94612313  1
  Pr3+  Pr27  1  0.12728595  0.48759647  0.93836869  1
  Pr3+  Pr28  1  0.12319018  0.74351186  0.44810449  1
  Pr3+  Pr29  1  0.24847576  0.10998327  0.07211066  1
  Pr3+  Pr30  1  -0.00084561  0.86948187  0.56407278  1
  Pr3+  Pr31  1  0.74933532  0.10861834  0.06906039  1
  Pr3+  Pr32  1  0.87242457  -0.00647305  0.93031379  1
  Pr3+  Pr33  1  -0.00016905  0.61720031  0.56621543  1
  Pr3+  Pr34  1  0.62072493  0.74416418  0.43966368  1
  Pr3+  Pr35  1  0.87299627  0.74555627  0.44056472  1
  Pr3+  Pr36  1  0.62731070  0.24334985  0.42898663  1
  Pr3+  Pr37  1  0.49662319  0.11992989  0.55202698  1
  Pr3+  Pr38  1  0.62273887  0.49545050  0.44174216  1
  Nd3+  Nd39  1  0.00108503  0.61872558  0.05654967  1
  Nd3+  Nd40  1  0.86809430  0.24350012  0.43280943  1
  Nd3+  Nd41  1  0.36777930  0.24282204  0.93998431  1
  Nd3+  Nd42  1  0.36987686  -0.00527983  0.94078392  1
  Nd3+  Nd43  1  0.73690827  0.11752462  0.56956830  1
  Nd3+  Nd44  1  0.49699892  0.61584196  0.56470654  1
  Nd3+  Nd45  1  0.13205732  0.74472201  0.93048177  1
  Nd3+  Nd46  1  0.24553634  0.86622753  0.06759752  1
  Nd3+  Nd47  1  0.49518985  0.86813478  0.56299933  1
  Nd3+  Nd48  1  0.12048404  0.49374770  0.44225047  1
  Nd3+  Nd49  1  0.87722238  0.24105508  0.94740842  1
  Nd3+  Nd50  1  0.86721559  -0.00820183  0.44366032  1
  Nd3+  Nd51  1  0.49885306  0.86491534  0.04830558  1
  Sm3+  Sm52  1  0.24786269  0.87004961  0.55879867  1
  Sm3+  Sm53  1  0.24731713  0.61886086  0.05451317  1
  Sm3+  Sm54  1  0.49643388  0.36775749  0.54722725  1
  Sm3+  Sm55  1  0.36999233  0.74266649  0.45050752  1
  Sm3+  Sm56  1  0.12170532  0.24266927  0.95772965  1
  Sm3+  Sm57  1  0.12167570  -0.00495453  0.94655239  1
  Sm3+  Sm58  1  0.37291770  0.48718986  0.94256741  1
  Sm3+  Sm59  1  -0.00341062  0.86707766  0.04770570  1
  Sm3+  Sm60  1  0.87753366  0.49243831  0.94026665  1
  Sm3+  Sm61  1  0.75167369  0.62174898  0.05418114  1
  Sm3+  Sm62  1  0.87163022  0.49432720  0.44995513  1
  Sm3+  Sm63  1  0.49737847  0.11563579  0.05372053  1
  Bi2+  Bi64  1  -0.00970014  0.09248744  0.29681826  1
  Bi2+  Bi65  1  -0.04349096  0.15219911  0.78335014  1
  Bi2+  Bi66  1  -0.00493702  0.39815860  0.30139259  1
  Bi2+  Bi67  1  -0.02477015  0.36875544  0.76542637  1
  Bi2+  Bi68  1  0.03164851  0.66171553  0.26287268  1
  Bi2+  Bi69  1  0.00852682  0.59758064  0.78512962  1
  Bi2+  Bi70  1  -0.02774945  0.84264923  0.29315836  1
  Bi2+  Bi71  1  0.01979969  0.89091225  0.79967583  1
  Bi2+  Bi72  1  0.26398987  0.10055253  0.30645635  1
  Bi2+  Bi73  1  0.28400392  0.16551938  0.81967944  1
  Bi2+  Bi74  1  0.26924649  0.37556964  0.30164229  1
  Bi2+  Bi75  1  0.25570441  0.39445884  0.80931615  1
  Bi2+  Bi76  1  0.29980337  0.63346746  0.26643669  1
  Bi2+  Bi77  1  0.31838164  0.65567231  0.78200676  1
  Bi2+  Bi78  1  0.23770582  0.81719652  0.29728761  1
  Bi2+  Bi79  1  0.26917391  0.89944495  0.79185885  1
  Bi2+  Bi80  1  0.52190372  0.13488115  0.25854157  1
  Bi2+  Bi81  1  0.46229301  0.12120834  0.78110390  1
  Bi2+  Bi82  1  0.57646623  0.37883145  0.27990177  1
  Bi2+  Bi83  1  0.52330037  0.40171482  0.77964724  1
  Bi2+  Bi84  1  0.49276442  0.66183120  0.29007214  1
  Bi2+  Bi85  1  0.49303504  0.68013548  0.82115627  1
  Bi2+  Bi86  1  0.49921131  0.85680047  0.28232904  1
  Bi2+  Bi87  1  0.52057682  0.85934647  0.78677174  1
  Bi2+  Bi88  1  0.71157915  0.13595813  0.27850854  1
  Bi2+  Bi89  1  0.68995158  0.12939024  0.76485653  1
  Bi2+  Bi90  1  0.76229381  0.40979184  0.30961785  1
  Bi2+  Bi91  1  0.75095570  0.34789695  0.79964359  1
  Bi2+  Bi92  1  0.76315369  0.64633421  0.22915859  1
  Bi2+  Bi93  1  0.68058951  0.61752434  0.78994490  1
  Bi2+  Bi94  1  0.74302272  0.87114665  0.30816964  1
  Bi2+  Bi95  1  0.75577089  0.89621683  0.78888723  1
  Bi2+  Bi96  1  0.13329322  -0.08161570  0.21930393  1
  Bi2+  Bi97  1  0.15842227  0.04530471  0.74561581  1
  Bi2+  Bi98  1  0.12172632  0.24035344  0.21891015  1
  Bi2+  Bi99  1  0.12741605  0.23961064  0.75567125  1
  Bi2+  Bi100  1  0.13149855  0.51990587  0.21169820  1
  Bi2+  Bi101  1  0.11327197  0.50936991  0.70642396  1
  Bi2+  Bi102  1  0.17357822  0.74303667  0.17581842  1
  Bi2+  Bi103  1  0.12669591  0.78598273  0.72152269  1
  Bi2+  Bi104  1  0.33488506  -0.02978849  0.23517670  1
  Bi2+  Bi105  1  0.32308248  0.05532995  0.68150879  1
  Bi2+  Bi106  1  0.38775893  0.23928374  0.20896729  1
  Bi2+  Bi107  1  0.36963040  0.23645321  0.70491933  1
  Bi2+  Bi108  1  0.41749969  0.47862743  0.23638702  1
  Bi2+  Bi109  1  0.39006362  0.47884481  0.70931334  1
  Bi2+  Bi110  1  0.36488850  0.78274339  0.19743064  1
  Bi2+  Bi111  1  0.38644503  0.87275078  0.69920869  1
  Bi2+  Bi112  1  0.60161954  -0.02340906  0.21243138  1
  Bi2+  Bi113  1  0.56351165  0.00684407  0.71096309  1
  Bi2+  Bi114  1  0.65273462  0.27046104  0.19381054  1
  Bi2+  Bi115  1  0.58977956  0.26712761  0.70399769  1
  Bi2+  Bi116  1  0.60400264  0.53690924  0.20808357  1
  Bi2+  Bi117  1  0.57476997  0.53867256  0.70020785  1
  Bi2+  Bi118  1  0.60958174  0.75450460  0.19464732  1
  Bi2+  Bi119  1  0.59654456  0.73235836  0.70884539  1
  Bi2+  Bi120  1  0.84748743  -0.02938535  0.21119737  1
  Bi2+  Bi121  1  0.91571841  0.02552582  0.69736254  1
  Bi2+  Bi122  1  0.84420783  0.24959125  0.22341401  1
  Bi2+  Bi123  1  0.87744708  0.26681834  0.68272913  1
  Bi2+  Bi124  1  0.88627098  0.49546442  0.22294656  1
  Bi2+  Bi125  1  0.83641300  0.50834866  0.75526606  1
  Bi2+  Bi126  1  0.91494777  0.76155564  0.19280496  1
  Bi2+  Bi127  1  0.88687746  0.75896570  0.69701539  1
  S2-  S128  1  0.06723317  0.08455128  0.19954949  1
  S2-  S129  1  0.00905232  0.15384232  0.65067272  1
  S2-  S130  1  -0.01418401  0.26156724  0.16495605  1
  S2-  S131  1  0.00325967  0.39130024  0.65712411  1
  S2-  S132  1  -0.00940461  0.53169310  0.14479124  1
  S2-  S133  1  -0.00749097  0.63293462  0.66698944  1
  S2-  S134  1  -0.04448674  0.91143583  0.14041467  1
  S2-  S135  1  0.00516404  0.88006398  0.66491571  1
  S2-  S136  1  0.25432686  0.20890094  0.15572230  1
  S2-  S137  1  0.24266279  0.23031881  0.63507769  1
  S2-  S138  1  0.14458648  0.38125351  0.16078652  1
  S2-  S139  1  0.23789024  0.45675340  0.65263582  1
  S2-  S140  1  0.24995720  0.58095678  0.15072023  1
  S2-  S141  1  0.20998712  0.65284771  0.69510012  1
  S2-  S142  1  0.24794723  0.97807054  0.14446844  1
  S2-  S143  1  0.22392055  0.85512082  0.65586178  1
  S2-  S144  1  0.48042583  0.12207758  0.15223373  1
  S2-  S145  1  0.58718926  0.13088935  0.63748096  1
  S2-  S146  1  0.40285812  0.37770189  0.14752065  1
  S2-  S147  1  0.46514184  0.34942694  0.64294524  1
  S2-  S148  1  0.49944856  0.63699197  0.14999042  1
  S2-  S149  1  0.40884235  0.61441153  0.65048981  1
  S2-  S150  1  0.50332535  0.87574477  0.14740625  1
  S2-  S151  1  0.59389900  0.86772490  0.64498124  1
  S2-  S152  1  0.84263397  0.11880145  0.15716061  1
  S2-  S153  1  0.78928119  0.12104486  0.66607517  1
  S2-  S154  1  0.78805657  0.38348961  0.16179740  1
  S2-  S155  1  0.73055610  0.35408164  0.66658279  1
  S2-  S156  1  0.75300915  0.72989556  0.13194996  1
  S2-  S157  1  0.75608023  0.69917073  0.64691070  1
  S2-  S158  1  0.72638025  0.96797045  0.14126285  1
  S2-  S159  1  0.79465290  0.90667174  0.68451980  1
  S2-  S160  1  0.11884661  0.02449300  0.34648689  1
  S2-  S161  1  0.14249773  -0.01333173  0.84868920  1
  S2-  S162  1  0.17395703  0.23980361  0.32669499  1
  S2-  S163  1  0.15773405  0.26817643  0.86134397  1
  S2-  S164  1  0.13321414  0.46545004  0.34284624  1
  S2-  S165  1  0.12745697  0.49839071  0.83692079  1
  S2-  S166  1  0.09662710  0.74747797  0.34859598  1
  S2-  S167  1  0.05510981  0.73235698  0.84137667  1
  S2-  S168  1  0.38012852  -0.01050493  0.34408237  1
  S2-  S169  1  0.38134410  -0.00115201  0.84129811  1
  S2-  S170  1  0.38421343  0.23154247  0.32281485  1
  S2-  S171  1  0.39178220  0.30153061  0.84662476  1
  S2-  S172  1  0.38173088  0.46247040  0.34501758  1
  S2-  S173  1  0.34401880  0.51599017  0.84557522  1
  S2-  S174  1  0.36223502  0.72140318  0.35311941  1
  S2-  S175  1  0.26452429  0.75665682  0.85697588  1
  S2-  S176  1  0.65013637  0.00762683  0.34655235  1
  S2-  S177  1  0.68358431  0.00763151  0.84341995  1
  S2-  S178  1  0.74846002  0.24768991  0.35713518  1
  S2-  S179  1  0.64983068  0.23149150  0.84329777  1
  S2-  S180  1  0.64119433  0.51338257  0.34269094  1
  S2-  S181  1  0.63776682  0.46030844  0.84677197  1
  S2-  S182  1  0.62003156  0.76915726  0.33949903  1
  S2-  S183  1  0.72133354  0.75694603  0.84933905  1
  S2-  S184  1  0.87998738  0.00525224  0.34270857  1
  S2-  S185  1  0.90120477  0.00263743  0.82970054  1
  S2-  S186  1  0.97421537  0.24203286  0.35201787  1
  S2-  S187  1  0.88188386  0.27201596  0.84783836  1
  S2-  S188  1  0.89388399  0.50567655  0.35267650  1
  S2-  S189  1  0.88014605  0.57427414  0.85281917  1
  S2-  S190  1  0.84102148  0.75576671  0.34148531  1
  S2-  S191  1  0.88794329  0.79052512  0.79771047  1
  S2-  S192  1  -0.00792135  0.11428349  0.45232650  1
  S2-  S193  1  0.00276259  0.11960940  0.94378387  1
  S2-  S194  1  -0.00778216  0.37255533  0.45456663  1
  S2-  S195  1  -0.00094193  0.36794513  0.95582189  1
  S2-  S196  1  -0.00400367  0.61833291  0.45741183  1
  S2-  S197  1  0.00401031  0.61476451  0.95138013  1
  S2-  S198  1  -0.00280239  0.87067309  0.45602821  1
  S2-  S199  1  -0.00004104  0.86715804  0.94332522  1
  S2-  S200  1  0.24607349  0.12055260  0.45028785  1
  S2-  S201  1  0.24543372  0.11713697  0.96120014  1
  S2-  S202  1  0.24356995  0.36856874  0.45154718  1
  S2-  S203  1  0.25084081  0.36624877  0.96548430  1
  S2-  S204  1  0.24581709  0.61924714  0.45368136  1
  S2-  S205  1  0.25177060  0.61371071  0.95135705  1
  S2-  S206  1  0.24846956  0.86840431  0.45351622  1
  S2-  S207  1  0.24723728  0.87381340  0.96050624  1
  S2-  S208  1  0.49900709  0.12102150  0.44324186  1
  S2-  S209  1  0.49736012  0.11921850  0.94707840  1
  S2-  S210  1  0.49984860  0.36795763  0.44209885  1
  S2-  S211  1  0.49892864  0.36760619  0.95728756  1
  S2-  S212  1  0.49477552  0.61981706  0.45608223  1
  S2-  S213  1  0.49619093  0.61290968  0.94862451  1
  S2-  S214  1  0.49348064  0.86656690  0.45524572  1
  S2-  S215  1  0.49686859  0.86944122  0.94182607  1
  S2-  S216  1  0.74536722  0.11629849  0.45943875  1
  S2-  S217  1  0.74984040  0.11937542  0.95613990  1
  S2-  S218  1  0.74810183  0.37317660  0.45792259  1
  S2-  S219  1  0.75342263  0.36867817  0.95614254  1
  S2-  S220  1  0.74867993  0.61969527  0.45298819  1
  S2-  S221  1  0.75130778  0.61572389  0.95070473  1
  S2-  S222  1  0.74592311  0.86652738  0.45739450  1
  S2-  S223  1  0.75103466  0.86886421  0.95106037  1
  S2-  S224  1  0.11425424  -0.00672524  0.05078391  1
  S2-  S225  1  0.12503603  -0.00538816  0.55183794  1
  S2-  S226  1  0.11744971  0.23666014  0.05879285  1
  S2-  S227  1  0.11617053  0.24140604  0.53466410  1
  S2-  S228  1  0.12721996  0.49440202  0.04569138  1
  S2-  S229  1  0.12256064  0.49395101  0.54880508  1
  S2-  S230  1  0.12299858  0.74427437  0.03986103  1
  S2-  S231  1  0.12767970  0.74112785  0.55512675  1
  S2-  S232  1  0.37683700  -0.00921636  0.04607404  1
  S2-  S233  1  0.37202020  -0.00687996  0.54794996  1
  S2-  S234  1  0.37658895  0.23801860  0.04662025  1
  S2-  S235  1  0.37650805  0.24365600  0.53293910  1
  S2-  S236  1  0.37343452  0.49672998  0.04629309  1
  S2-  S237  1  0.37355060  0.49118716  0.54510874  1
  S2-  S238  1  0.36992773  0.74417116  0.04243245  1
  S2-  S239  1  0.36856440  0.74419641  0.55455793  1
  S2-  S240  1  0.61900619  -0.00768174  0.04031856  1
  S2-  S241  1  0.62209915  -0.01024971  0.54588535  1
  S2-  S242  1  0.62262684  0.23820046  0.04907400  1
  S2-  S243  1  0.62039598  0.24724998  0.53667107  1
  S2-  S244  1  0.62682639  0.49490103  0.05351221  1
  S2-  S245  1  0.62068628  0.49285117  0.55025992  1
  S2-  S246  1  0.62273499  0.74126777  0.03521306  1
  S2-  S247  1  0.61828994  0.73997987  0.54591775  1
  S2-  S248  1  0.87856146  -0.00441195  0.03779417  1
  S2-  S249  1  0.86647657  -0.00986007  0.55229260  1
  S2-  S250  1  0.87737633  0.24008977  0.05231372  1
  S2-  S251  1  0.86761542  0.24027068  0.54325861  1
  S2-  S252  1  0.87218340  0.49545966  0.04448602  1
  S2-  S253  1  0.87114610  0.49371701  0.55614103  1
  S2-  S254  1  0.88068468  0.73938685  0.03493366  1
  S2-  S255  1  0.87532155  0.74466469  0.54798412  1
