# generated using pymatgen
data_La12Ce14Pr13Nd13Sm12(BiS2)64
_symmetry_space_group_name_H-M   'P 1'
_cell_length_a   16.12759451
_cell_length_b   16.13860295
_cell_length_c   27.17321984
_cell_angle_alpha   90.19908172
_cell_angle_beta   90.09839965
_cell_angle_gamma   89.93344780
_symmetry_Int_Tables_number   1
_chemical_formula_structural   La12Ce14Pr13Nd13Sm12(BiS2)64
_chemical_formula_sum   'La12 Ce14 Pr13 Nd13 Sm12 Bi64 S128'
_cell_volume   7072.50206560
_cell_formula_units_Z   1
loop_
 _symmetry_equiv_pos_site_id
 _symmetry_equiv_pos_as_xyz
  1  'x, y, z'
loop_
 _atom_type_symbol
 _atom_type_oxidation_number
  La3+  3.0
  Ce3+  3.0
  Pr3+  3.0
  Nd3+  3.0
  Sm3+  3.0
  Bi2+  2.0
  S2-  -2.0
loop_
 _atom_site_type_symbol
 _atom_site_label
 _atom_site_symmetry_multiplicity
 _atom_site_fract_x
 _atom_site_fract_y
 _atom_site_fract_z
 _atom_site_occupancy
  La3+  La0  1  0.24621908  0.63288253  0.07209316  1
  La3+  La1  1  0.36878540  0.75092826  0.93321269  1
  La3+  La2  1  0.11593946  0.24747212  0.90039742  1
  La3+  La3  1  0.49879416  0.62038245  0.09338522  1
  La3+  La4  1  0.74202309  0.88616211  0.08591675  1
  La3+  La5  1  0.00103888  0.13706069  0.07377325  1
  La3+  La6  1  0.61953677  0.74380955  0.88945659  1
  La3+  La7  1  0.52023644  0.37700896  0.57276843  1
  La3+  La8  1  0.02139015  0.87674367  0.57744127  1
  La3+  La9  1  0.62623782  0.25315317  0.42769900  1
  La3+  La10  1  0.24956567  0.13457107  0.05795971  1
  La3+  La11  1  0.64423639  0.00103929  0.42306225  1
  Ce3+  Ce12  1  0.49784353  0.38292895  0.05296561  1
  Ce3+  Ce13  1  0.62515761  0.25473287  0.93182224  1
  Ce3+  Ce14  1  0.00087465  0.63045571  0.06586691  1
  Ce3+  Ce15  1  0.38517340  0.25106147  0.45176223  1
  Ce3+  Ce16  1  0.11754583  0.50330795  0.93929447  1
  Ce3+  Ce17  1  0.74630511  0.37740751  0.06479055  1
  Ce3+  Ce18  1  0.74560038  0.63091984  0.06881890  1
  Ce3+  Ce19  1  0.11828241  0.00580595  0.94315349  1
  Ce3+  Ce20  1  0.76332117  0.37508315  0.55688309  1
  Ce3+  Ce21  1  0.02029572  0.62120990  0.56009122  1
  Ce3+  Ce22  1  0.12107966  0.75219811  0.93457244  1
  Ce3+  Ce23  1  0.50048576  0.87102608  0.06489279  1
  Ce3+  Ce24  1  0.74543527  0.13510139  0.07055420  1
  Ce3+  Ce25  1  0.27182923  0.87232427  0.56593450  1
  Pr3+  Pr26  1  0.38045905  0.25379718  0.92566846  1
  Pr3+  Pr27  1  0.50056985  0.13067564  0.05729661  1
  Pr3+  Pr28  1  0.13664442  0.00346790  0.42995546  1
  Pr3+  Pr29  1  0.62702995  -0.00345544  0.94012544  1
  Pr3+  Pr30  1  0.52477074  0.62593167  0.56165106  1
  Pr3+  Pr31  1  0.26950897  0.12192520  0.57440653  1
  Pr3+  Pr32  1  0.52219252  0.87408486  0.56001379  1
  Pr3+  Pr33  1  -0.00183733  0.88318318  0.06663236  1
  Pr3+  Pr34  1  0.37399048  0.00054213  0.94308805  1
  Pr3+  Pr35  1  0.25290703  0.37419241  0.58450147  1
  Pr3+  Pr36  1  0.64687487  0.74543245  0.42354022  1
  Pr3+  Pr37  1  0.01416319  0.12644301  0.56262593  1
  Pr3+  Pr38  1  0.76768769  0.62590513  0.56167480  1
  Nd3+  Nd39  1  0.14654561  0.50676399  0.42873504  1
  Nd3+  Nd40  1  0.51787271  0.12388400  0.56571879  1
  Nd3+  Nd41  1  0.27435941  0.62513385  0.56966553  1
  Nd3+  Nd42  1  0.76696942  0.87751711  0.56383622  1
  Nd3+  Nd43  1  0.63273384  0.50154553  0.42898870  1
  Nd3+  Nd44  1  0.88870085  0.25180124  0.43872212  1
  Nd3+  Nd45  1  0.86555118  0.75605513  0.94781998  1
  Nd3+  Nd46  1  -0.00067823  0.37877471  0.06535492  1
  Nd3+  Nd47  1  0.39062724  0.75204268  0.43491301  1
  Nd3+  Nd48  1  0.24947226  0.38139455  0.04721949  1
  Nd3+  Nd49  1  0.37224952  0.50613290  0.93226748  1
  Nd3+  Nd50  1  0.38723572  0.50004855  0.44274155  1
  Nd3+  Nd51  1  0.88951394  0.00193093  0.43322942  1
  Sm3+  Sm52  1  0.24971711  0.87612937  0.05599171  1
  Sm3+  Sm53  1  0.87067333  0.50428710  0.94675723  1
  Sm3+  Sm54  1  0.89270657  0.75271909  0.44371399  1
  Sm3+  Sm55  1  0.14179226  0.24842507  0.44156823  1
  Sm3+  Sm56  1  0.13990873  0.74934156  0.44578709  1
  Sm3+  Sm57  1  0.87117747  0.00641349  0.95284862  1
  Sm3+  Sm58  1  0.75908604  0.12598146  0.55818283  1
  Sm3+  Sm59  1  0.38969960  -0.00120087  0.44708742  1
  Sm3+  Sm60  1  0.01805325  0.37546840  0.54964196  1
  Sm3+  Sm61  1  0.89073673  0.49927584  0.44198894  1
  Sm3+  Sm62  1  0.62324977  0.50923117  0.94169027  1
  Sm3+  Sm63  1  0.87114404  0.25323540  0.94211346  1
  Bi2+  Bi64  1  0.01678984  0.11086529  0.29296289  1
  Bi2+  Bi65  1  -0.09546581  0.13428753  0.78686751  1
  Bi2+  Bi66  1  0.01326036  0.37746975  0.28589439  1
  Bi2+  Bi67  1  -0.07856611  0.38641596  0.78323402  1
  Bi2+  Bi68  1  0.02385009  0.57260273  0.30827902  1
  Bi2+  Bi69  1  -0.01330258  0.66167113  0.79125857  1
  Bi2+  Bi70  1  -0.00351194  0.83502757  0.29750960  1
  Bi2+  Bi71  1  0.03300534  0.84439826  0.82737992  1
  Bi2+  Bi72  1  0.26591655  0.10123652  0.28937315  1
  Bi2+  Bi73  1  0.23192860  0.12518968  0.78053138  1
  Bi2+  Bi74  1  0.19906868  0.35215295  0.31394878  1
  Bi2+  Bi75  1  0.24991132  0.39003179  0.79713627  1
  Bi2+  Bi76  1  0.21678515  0.56463459  0.27804689  1
  Bi2+  Bi77  1  0.17887530  0.62394580  0.77609069  1
  Bi2+  Bi78  1  0.18864207  0.88556965  0.29977367  1
  Bi2+  Bi79  1  0.22662104  0.86461593  0.79484876  1
  Bi2+  Bi80  1  0.51165861  0.14634296  0.29274766  1
  Bi2+  Bi81  1  0.54528080  0.11433996  0.78441313  1
  Bi2+  Bi82  1  0.52516896  0.39556914  0.27877587  1
  Bi2+  Bi83  1  0.55384417  0.37683483  0.78124526  1
  Bi2+  Bi84  1  0.52495640  0.63384507  0.30148577  1
  Bi2+  Bi85  1  0.50728196  0.60769780  0.78893892  1
  Bi2+  Bi86  1  0.45700439  0.88303754  0.30218792  1
  Bi2+  Bi87  1  0.49014228  0.88289826  0.79084061  1
  Bi2+  Bi88  1  0.78231359  0.11172052  0.28377633  1
  Bi2+  Bi89  1  0.72139348  0.14532266  0.82934254  1
  Bi2+  Bi90  1  0.72639598  0.37611461  0.28622964  1
  Bi2+  Bi91  1  0.73235741  0.33890491  0.81152279  1
  Bi2+  Bi92  1  0.77524745  0.56945679  0.27254364  1
  Bi2+  Bi93  1  0.78713522  0.61841364  0.78951564  1
  Bi2+  Bi94  1  0.76355469  0.85285075  0.28478380  1
  Bi2+  Bi95  1  0.81032172  0.88899873  0.78368673  1
  Bi2+  Bi96  1  0.14364528  0.01469380  0.21214203  1
  Bi2+  Bi97  1  0.08180590  0.00403429  0.76275416  1
  Bi2+  Bi98  1  0.16288013  0.26870781  0.20024314  1
  Bi2+  Bi99  1  0.06897833  0.24335000  0.69839917  1
  Bi2+  Bi100  1  0.09929465  0.48189125  0.19749591  1
  Bi2+  Bi101  1  0.03219574  0.52849109  0.70413397  1
  Bi2+  Bi102  1  0.12892522  0.75136561  0.21900741  1
  Bi2+  Bi103  1  0.05491582  0.82390379  0.71122641  1
  Bi2+  Bi104  1  0.33053583  -0.06614836  0.21697537  1
  Bi2+  Bi105  1  0.38644566  0.02412719  0.73834400  1
  Bi2+  Bi106  1  0.35870493  0.27265655  0.26344799  1
  Bi2+  Bi107  1  0.36615908  0.25414911  0.70068669  1
  Bi2+  Bi108  1  0.37119683  0.46772981  0.21333875  1
  Bi2+  Bi109  1  0.36450790  0.51823155  0.70604204  1
  Bi2+  Bi110  1  0.36228092  0.73545138  0.22052680  1
  Bi2+  Bi111  1  0.29005387  0.78575676  0.69968548  1
  Bi2+  Bi112  1  0.62618280  0.04115930  0.21264290  1
  Bi2+  Bi113  1  0.68399075  0.00886156  0.72373148  1
  Bi2+  Bi114  1  0.60603915  0.26536138  0.20329966  1
  Bi2+  Bi115  1  0.65024525  0.23971717  0.71285929  1
  Bi2+  Bi116  1  0.66766926  0.47101791  0.19150613  1
  Bi2+  Bi117  1  0.65648209  0.50216813  0.71149875  1
  Bi2+  Bi118  1  0.61618804  0.77758810  0.20664426  1
  Bi2+  Bi119  1  0.55573282  0.75909961  0.68044212  1
  Bi2+  Bi120  1  0.90058713  -0.06230601  0.20962785  1
  Bi2+  Bi121  1  0.85274089  0.06761829  0.68120567  1
  Bi2+  Bi122  1  0.87683751  0.32384301  0.20947296  1
  Bi2+  Bi123  1  0.85024610  0.27154262  0.69598168  1
  Bi2+  Bi124  1  0.89972391  0.50383316  0.16458804  1
  Bi2+  Bi125  1  0.84533084  0.48147896  0.68914713  1
  Bi2+  Bi126  1  0.92109768  0.66812340  0.22382305  1
  Bi2+  Bi127  1  0.85561652  0.75720215  0.70839043  1
  S2-  S128  1  -0.00269207  0.05164986  0.16476854  1
  S2-  S129  1  0.02274354  0.08673918  0.66096667  1
  S2-  S130  1  0.00875064  0.27022198  0.14555920  1
  S2-  S131  1  0.07505723  0.38764933  0.64189986  1
  S2-  S132  1  0.11450734  0.62877925  0.14309117  1
  S2-  S133  1  0.00376169  0.67743424  0.65142608  1
  S2-  S134  1  0.01026219  0.83401024  0.16264807  1
  S2-  S135  1  -0.11600971  0.89015704  0.64256072  1
  S2-  S136  1  0.24083659  0.13821715  0.15887285  1
  S2-  S137  1  0.21212100  0.19053051  0.66348012  1
  S2-  S138  1  0.26235262  0.37412327  0.14753597  1
  S2-  S139  1  0.25937464  0.39014277  0.68922393  1
  S2-  S140  1  0.34967349  0.60623679  0.15471234  1
  S2-  S141  1  0.23295237  0.62328183  0.66874412  1
  S2-  S142  1  0.25157547  0.81775416  0.14890300  1
  S2-  S143  1  0.16895912  0.89007972  0.64475737  1
  S2-  S144  1  0.50818752  0.14775945  0.15843838  1
  S2-  S145  1  0.41024350  0.11226376  0.64727411  1
  S2-  S146  1  0.49692058  0.45197355  0.14372603  1
  S2-  S147  1  0.44968938  0.37941800  0.66680605  1
  S2-  S148  1  0.47578275  0.76611441  0.15110605  1
  S2-  S149  1  0.44307238  0.62552570  0.65275219  1
  S2-  S150  1  0.58968666  0.91885139  0.15177785  1
  S2-  S151  1  0.40567490  0.85485948  0.64279731  1
  S2-  S152  1  0.76257164  0.03888206  0.15682252  1
  S2-  S153  1  0.64570661  0.12250912  0.63644305  1
  S2-  S154  1  0.74817319  0.26341829  0.14058832  1
  S2-  S155  1  0.66280568  0.38078800  0.63728085  1
  S2-  S156  1  0.65117732  0.63092529  0.15446340  1
  S2-  S157  1  0.65807390  0.63278192  0.63988153  1
  S2-  S158  1  0.77817883  0.81060053  0.17891093  1
  S2-  S159  1  0.64274737  0.88058532  0.63842310  1
  S2-  S160  1  0.00575724  -0.01276734  0.35634531  1
  S2-  S161  1  0.11443335  0.08568637  0.85635811  1
  S2-  S162  1  0.14177850  0.14594638  0.36062920  1
  S2-  S163  1  0.12811565  0.28611533  0.79530545  1
  S2-  S164  1  0.27885481  0.48390330  0.36237167  1
  S2-  S165  1  0.13628889  0.49857262  0.84056717  1
  S2-  S166  1  0.14419523  0.65668659  0.36165804  1
  S2-  S167  1  0.23406140  0.72659343  0.85685143  1
  S2-  S168  1  0.35777512  0.00509164  0.35023581  1
  S2-  S169  1  0.36369532  -0.02621093  0.84283764  1
  S2-  S170  1  0.46445469  0.25984001  0.36427270  1
  S2-  S171  1  0.31157677  0.24112206  0.83174296  1
  S2-  S172  1  0.49487860  0.50023511  0.35954542  1
  S2-  S173  1  0.38231212  0.50192698  0.83064926  1
  S2-  S174  1  0.38634049  0.72305788  0.33456101  1
  S2-  S175  1  0.45506482  0.74126256  0.84437201  1
  S2-  S176  1  0.56201307  -0.00024714  0.33082373  1
  S2-  S177  1  0.61550771  -0.09035407  0.85217497  1
  S2-  S178  1  0.66950388  0.18346392  0.33754926  1
  S2-  S179  1  0.51704195  0.25894517  0.85288350  1
  S2-  S180  1  0.66627954  0.61076151  0.35180952  1
  S2-  S181  1  0.63720448  0.57524732  0.84950351  1
  S2-  S182  1  0.60970698  0.79608387  0.32507138  1
  S2-  S183  1  0.61118153  0.74215938  0.76946232  1
  S2-  S184  1  0.77935450  -0.01060174  0.35123424  1
  S2-  S185  1  0.85832235  0.00311556  0.85288459  1
  S2-  S186  1  0.89875006  0.20146499  0.34266191  1
  S2-  S187  1  0.95317287  0.25494613  0.85554522  1
  S2-  S188  1  0.87906978  0.48264352  0.34435119  1
  S2-  S189  1  0.88440973  0.51660286  0.84833113  1
  S2-  S190  1  0.85993705  0.75737891  0.34561627  1
  S2-  S191  1  0.78840393  0.75666910  0.85679207  1
  S2-  S192  1  0.01249101  0.12975393  0.45707168  1
  S2-  S193  1  -0.00499899  0.13107144  0.96071625  1
  S2-  S194  1  0.01937207  0.37582257  0.44451801  1
  S2-  S195  1  -0.00515499  0.37913480  0.95508767  1
  S2-  S196  1  0.01267614  0.62392985  0.45466153  1
  S2-  S197  1  -0.00640216  0.62983668  0.95509199  1
  S2-  S198  1  0.01720114  0.87171555  0.46085788  1
  S2-  S199  1  -0.00627298  0.88089389  0.95865121  1
  S2-  S200  1  0.26582874  0.12343476  0.46235781  1
  S2-  S201  1  0.25079221  0.13099073  0.94969443  1
  S2-  S202  1  0.25990251  0.37171104  0.46498547  1
  S2-  S203  1  0.24485324  0.37502162  0.94059644  1
  S2-  S204  1  0.26742091  0.62943701  0.46144355  1
  S2-  S205  1  0.24323032  0.62169859  0.95904751  1
  S2-  S206  1  0.26245708  0.87436186  0.45387716  1
  S2-  S207  1  0.24261684  0.88130872  0.95118261  1
  S2-  S208  1  0.51010144  0.12158540  0.45705342  1
  S2-  S209  1  0.50033130  0.12389659  0.94990856  1
  S2-  S210  1  0.50965894  0.37728778  0.46418602  1
  S2-  S211  1  0.49998445  0.38581412  0.94813519  1
  S2-  S212  1  0.51346631  0.62992313  0.45464621  1
  S2-  S213  1  0.49948762  0.62590012  0.94773856  1
  S2-  S214  1  0.51529983  0.87484284  0.44833680  1
  S2-  S215  1  0.49777463  0.87521244  0.95759739  1
  S2-  S216  1  0.76410081  0.13102082  0.45381327  1
  S2-  S217  1  0.74810261  0.13014181  0.96092991  1
  S2-  S218  1  0.76237242  0.37663274  0.44719891  1
  S2-  S219  1  0.74808204  0.38092563  0.95392491  1
  S2-  S220  1  0.77365094  0.62359281  0.45461165  1
  S2-  S221  1  0.74782041  0.62741475  0.96037764  1
  S2-  S222  1  0.76749495  0.87164114  0.45399803  1
  S2-  S223  1  0.75288614  0.88277673  0.96734896  1
  S2-  S224  1  0.12696799  0.00359773  0.05058527  1
  S2-  S225  1  0.14051187  0.00412283  0.54217153  1
  S2-  S226  1  0.12648485  0.25840280  0.04204745  1
  S2-  S227  1  0.13947759  0.24970949  0.54519022  1
  S2-  S228  1  0.12145774  0.50109202  0.04480126  1
  S2-  S229  1  0.14379400  0.50095329  0.54245088  1
  S2-  S230  1  0.12133679  0.75898079  0.04130029  1
  S2-  S231  1  0.14372305  0.74653434  0.54931039  1
  S2-  S232  1  0.37364702  0.00163580  0.05177353  1
  S2-  S233  1  0.39217165  -0.00229827  0.54799949  1
  S2-  S234  1  0.37597293  0.25693940  0.03842247  1
  S2-  S235  1  0.38552006  0.25526427  0.55632426  1
  S2-  S236  1  0.37387660  0.50632351  0.03949606  1
  S2-  S237  1  0.38610988  0.49586169  0.55134877  1
  S2-  S238  1  0.36997937  0.75205141  0.04177604  1
  S2-  S239  1  0.39359401  0.74736244  0.54106153  1
  S2-  S240  1  0.62276628  0.00870337  0.04634973  1
  S2-  S241  1  0.64289517  0.00099397  0.53378941  1
  S2-  S242  1  0.61965271  0.25843901  0.03954330  1
  S2-  S243  1  0.63974239  0.24992185  0.53679823  1
  S2-  S244  1  0.62476645  0.50507803  0.04490567  1
  S2-  S245  1  0.64499840  0.50230515  0.53500406  1
  S2-  S246  1  0.62506378  0.75319980  0.05664165  1
  S2-  S247  1  0.64681392  0.75007873  0.53302557  1
  S2-  S248  1  0.87422239  0.00882136  0.05509585  1
  S2-  S249  1  0.88707072  0.00637900  0.54012367  1
  S2-  S250  1  0.87322270  0.25789593  0.04440898  1
  S2-  S251  1  0.88941515  0.25302182  0.54678943  1
  S2-  S252  1  0.87263868  0.50453493  0.04973049  1
  S2-  S253  1  0.89291600  0.49728879  0.54726061  1
  S2-  S254  1  0.87370105  0.75381363  0.05576482  1
  S2-  S255  1  0.89410548  0.74825606  0.54660763  1
