# generated using pymatgen
data_La12Ce14Pr13Nd13Sm12(BiS2)64
_symmetry_space_group_name_H-M   'P 1'
_cell_length_a   16.14215504
_cell_length_b   16.08336973
_cell_length_c   27.18784382
_cell_angle_alpha   89.82649974
_cell_angle_beta   89.92630121
_cell_angle_gamma   90.04378677
_symmetry_Int_Tables_number   1
_chemical_formula_structural   La12Ce14Pr13Nd13Sm12(BiS2)64
_chemical_formula_sum   'La12 Ce14 Pr13 Nd13 Sm12 Bi64 S128'
_cell_volume   7058.47446293
_cell_formula_units_Z   1
loop_
 _symmetry_equiv_pos_site_id
 _symmetry_equiv_pos_as_xyz
  1  'x, y, z'
loop_
 _atom_type_symbol
 _atom_type_oxidation_number
  La3+  3.0
  Ce3+  3.0
  Pr3+  3.0
  Nd3+  3.0
  Sm3+  3.0
  Bi2+  2.0
  S2-  -2.0
loop_
 _atom_site_type_symbol
 _atom_site_label
 _atom_site_symmetry_multiplicity
 _atom_site_fract_x
 _atom_site_fract_y
 _atom_site_fract_z
 _atom_site_occupancy
  La3+  La0  1  0.74527755  0.62615528  0.56775283  1
  La3+  La1  1  0.00033431  0.87912613  0.58302169  1
  La3+  La2  1  0.61695038  0.76252616  0.44409080  1
  La3+  La3  1  0.38181327  0.76501034  0.92702191  1
  La3+  La4  1  0.51256966  0.13853078  0.08574669  1
  La3+  La5  1  0.38688461  -0.01009285  0.39034219  1
  La3+  La6  1  0.37246311  0.25645928  0.41773477  1
  La3+  La7  1  0.24563018  0.39441430  0.08225696  1
  La3+  La8  1  0.88197071  0.00831350  0.93420387  1
  La3+  La9  1  0.00317080  0.13711280  0.06249134  1
  La3+  La10  1  0.74746664  0.88045479  0.59948866  1
  La3+  La11  1  0.49344803  0.88636270  0.58469281  1
  Ce3+  Ce12  1  0.74966119  0.38075833  0.55845722  1
  Ce3+  Ce13  1  0.13135007  0.00790729  0.94784439  1
  Ce3+  Ce14  1  0.62112209  0.25057083  0.44162055  1
  Ce3+  Ce15  1  0.37114821  0.49908604  0.44551264  1
  Ce3+  Ce16  1  0.49624058  0.37200376  0.56295578  1
  Ce3+  Ce17  1  0.75047228  0.63962415  0.05262439  1
  Ce3+  Ce18  1  0.50440625  0.63880302  0.05174174  1
  Ce3+  Ce19  1  0.49559215  0.62894712  0.55744161  1
  Ce3+  Ce20  1  0.74991588  0.88451373  0.05361520  1
  Ce3+  Ce21  1  0.74955623  0.13413335  0.05278728  1
  Ce3+  Ce22  1  0.62734228  0.50761660  0.94580563  1
  Ce3+  Ce23  1  0.87710259  0.26305272  0.94266295  1
  Ce3+  Ce24  1  0.00220721  0.87878528  0.06205107  1
  Ce3+  Ce25  1  0.24694063  0.13174404  0.54717663  1
  Pr3+  Pr26  1  0.86516132  0.50918116  0.42648902  1
  Pr3+  Pr27  1  0.87748974  0.50804152  0.93656090  1
  Pr3+  Pr28  1  0.24405359  0.87892567  0.55791712  1
  Pr3+  Pr29  1  0.87005900  0.75728129  0.43695068  1
  Pr3+  Pr30  1  -0.00257543  0.39518702  0.07510123  1
  Pr3+  Pr31  1  0.62482981  0.25673544  0.93017800  1
  Pr3+  Pr32  1  0.12719970  0.75224689  0.91947788  1
  Pr3+  Pr33  1  -0.00482491  0.37971722  0.56309324  1
  Pr3+  Pr34  1  0.12181970  0.75539604  0.43600736  1
  Pr3+  Pr35  1  0.75138781  0.38524793  0.06956580  1
  Pr3+  Pr36  1  0.12908140  0.50502748  0.93446269  1
  Pr3+  Pr37  1  0.51349215  0.87610945  0.07293380  1
  Pr3+  Pr38  1  0.11925922  0.25856194  0.42488172  1
  Nd3+  Nd39  1  0.62057309  0.50383838  0.43847694  1
  Nd3+  Nd40  1  0.00306799  0.64062457  0.06003405  1
  Nd3+  Nd41  1  0.49478944  0.13315037  0.56671628  1
  Nd3+  Nd42  1  0.25388204  0.13606648  0.06514523  1
  Nd3+  Nd43  1  0.37153382  0.75780974  0.44811978  1
  Nd3+  Nd44  1  0.11962966  0.50829165  0.43214853  1
  Nd3+  Nd45  1  0.24424735  0.36647504  0.56312184  1
  Nd3+  Nd46  1  -0.00663340  0.62791285  0.56187556  1
  Nd3+  Nd47  1  0.12760230  0.26326124  0.93757852  1
  Nd3+  Nd48  1  0.87549882  0.75947279  0.92661138  1
  Nd3+  Nd49  1  0.25728393  0.88259482  0.05956983  1
  Nd3+  Nd50  1  0.50065178  0.38532805  0.06626283  1
  Nd3+  Nd51  1  0.24365450  0.62063450  0.56537716  1
  Sm3+  Sm52  1  0.61881469  0.00497118  0.45039312  1
  Sm3+  Sm53  1  -0.00605984  0.12683034  0.55563058  1
  Sm3+  Sm54  1  0.37866336  0.25991776  0.95253178  1
  Sm3+  Sm55  1  0.12395329  0.00331077  0.43450594  1
  Sm3+  Sm56  1  0.25139799  0.63816155  0.05547731  1
  Sm3+  Sm57  1  0.87625636  0.25909150  0.42760379  1
  Sm3+  Sm58  1  0.38195577  0.01265875  0.95088066  1
  Sm3+  Sm59  1  0.75161838  0.12477103  0.55181424  1
  Sm3+  Sm60  1  0.62235944  0.01105192  0.93485464  1
  Sm3+  Sm61  1  0.37587848  0.50744683  0.94762042  1
  Sm3+  Sm62  1  0.87269301  -0.00281571  0.43949830  1
  Sm3+  Sm63  1  0.62725978  0.76769815  0.91587337  1
  Bi2+  Bi64  1  -0.04908790  0.07282297  0.29980148  1
  Bi2+  Bi65  1  0.00835104  0.17618199  0.77325534  1
  Bi2+  Bi66  1  -0.01357698  0.34329421  0.28191328  1
  Bi2+  Bi67  1  0.01645660  0.38466280  0.78901408  1
  Bi2+  Bi68  1  0.01759823  0.70157549  0.28956626  1
  Bi2+  Bi69  1  0.00712428  0.63854945  0.77905114  1
  Bi2+  Bi70  1  0.05306461  0.88832087  0.32350372  1
  Bi2+  Bi71  1  -0.00573454  0.90331540  0.78721724  1
  Bi2+  Bi72  1  0.16444804  0.11439498  0.29376686  1
  Bi2+  Bi73  1  0.18937736  0.13286670  0.81130911  1
  Bi2+  Bi74  1  0.24709446  0.39865566  0.29325155  1
  Bi2+  Bi75  1  0.25070333  0.31556943  0.78565838  1
  Bi2+  Bi76  1  0.31679897  0.60169977  0.27485448  1
  Bi2+  Bi77  1  0.26244190  0.59290218  0.79158435  1
  Bi2+  Bi78  1  0.22624131  0.76746546  0.31073910  1
  Bi2+  Bi79  1  0.22634636  0.87902157  0.78700279  1
  Bi2+  Bi80  1  0.52389764  0.10982709  0.28681680  1
  Bi2+  Bi81  1  0.46501630  0.12466275  0.80136329  1
  Bi2+  Bi82  1  0.52366060  0.40228611  0.29519213  1
  Bi2+  Bi83  1  0.53257444  0.32287094  0.80239866  1
  Bi2+  Bi84  1  0.50845719  0.64868084  0.28422456  1
  Bi2+  Bi85  1  0.51721167  0.58024933  0.78704025  1
  Bi2+  Bi86  1  0.52312853  0.85587627  0.29223425  1
  Bi2+  Bi87  1  0.48054647  0.87427823  0.79065645  1
  Bi2+  Bi88  1  0.76924078  0.14755940  0.29156098  1
  Bi2+  Bi89  1  0.74273151  0.14670052  0.78530966  1
  Bi2+  Bi90  1  0.73701719  0.35756917  0.29012194  1
  Bi2+  Bi91  1  0.73259398  0.33419250  0.81627091  1
  Bi2+  Bi92  1  0.75062024  0.62654343  0.29116984  1
  Bi2+  Bi93  1  0.76590774  0.51783643  0.77387178  1
  Bi2+  Bi94  1  0.78258275  0.86608905  0.27773260  1
  Bi2+  Bi95  1  0.73841306  0.88044283  0.78837395  1
  Bi2+  Bi96  1  0.07310640  -0.01859473  0.22326056  1
  Bi2+  Bi97  1  0.13995332  0.04202838  0.71033053  1
  Bi2+  Bi98  1  0.12545555  0.25172124  0.22056308  1
  Bi2+  Bi99  1  0.12301345  0.30757443  0.68890482  1
  Bi2+  Bi100  1  0.11535288  0.51811737  0.21061070  1
  Bi2+  Bi101  1  0.12273825  0.52422411  0.70757908  1
  Bi2+  Bi102  1  0.15808457  0.73119044  0.20424045  1
  Bi2+  Bi103  1  0.12726741  0.77361310  0.71322446  1
  Bi2+  Bi104  1  0.33357913  -0.00003004  0.19753872  1
  Bi2+  Bi105  1  0.33062593  0.02335514  0.73595767  1
  Bi2+  Bi106  1  0.38194924  0.24967207  0.21304138  1
  Bi2+  Bi107  1  0.37175176  0.21088097  0.70619081  1
  Bi2+  Bi108  1  0.45906894  0.50514233  0.20628896  1
  Bi2+  Bi109  1  0.39911822  0.43557755  0.74708563  1
  Bi2+  Bi110  1  0.39302488  0.74474997  0.20015876  1
  Bi2+  Bi111  1  0.38082214  0.67960799  0.71889745  1
  Bi2+  Bi112  1  0.70346772  0.00826306  0.21606461  1
  Bi2+  Bi113  1  0.61212986  0.06092616  0.71564440  1
  Bi2+  Bi114  1  0.67428911  0.28453247  0.19055852  1
  Bi2+  Bi115  1  0.65369949  0.27492288  0.71230407  1
  Bi2+  Bi116  1  0.65781494  0.48157200  0.19810828  1
  Bi2+  Bi117  1  0.60688724  0.46770491  0.70107116  1
  Bi2+  Bi118  1  0.66509209  0.74665972  0.19841735  1
  Bi2+  Bi119  1  0.60406691  0.73168632  0.70513734  1
  Bi2+  Bi120  1  0.88870435  -0.03839378  0.18609635  1
  Bi2+  Bi121  1  0.87829337  0.04474042  0.70718715  1
  Bi2+  Bi122  1  0.87807875  0.21851259  0.20732977  1
  Bi2+  Bi123  1  0.93862639  0.24004512  0.66819421  1
  Bi2+  Bi124  1  0.85383771  0.50981802  0.20559911  1
  Bi2+  Bi125  1  0.88388943  0.41821979  0.70148706  1
  Bi2+  Bi126  1  0.89834770  0.76761244  0.20543360  1
  Bi2+  Bi127  1  0.88415978  0.74236762  0.71988878  1
  S2-  S128  1  0.01860046  0.15843770  0.16179555  1
  S2-  S129  1  0.01444553  0.03623830  0.64084187  1
  S2-  S130  1  0.11436971  0.37319550  0.15144138  1
  S2-  S131  1  -0.00617567  0.50514471  0.63805629  1
  S2-  S132  1  -0.00689021  0.54197884  0.14673327  1
  S2-  S133  1  0.00282068  0.72800747  0.64625491  1
  S2-  S134  1  0.02394573  0.76106910  0.13394651  1
  S2-  S135  1  -0.11835973  0.88594301  0.66419202  1
  S2-  S136  1  0.25833061  0.15563185  0.16481375  1
  S2-  S137  1  0.24303140  0.22033150  0.63280024  1
  S2-  S138  1  0.33299476  0.38402039  0.17286199  1
  S2-  S139  1  0.22905898  0.44123144  0.65371332  1
  S2-  S140  1  0.22517560  0.57409458  0.14716638  1
  S2-  S141  1  0.23987875  0.66086568  0.66218881  1
  S2-  S142  1  0.23806846  0.86134823  0.15909208  1
  S2-  S143  1  0.18012556  0.89264712  0.65141197  1
  S2-  S144  1  0.46722017  0.10079088  0.18448314  1
  S2-  S145  1  0.49976080  0.03187496  0.65107245  1
  S2-  S146  1  0.51549378  0.28829391  0.14890146  1
  S2-  S147  1  0.48015588  0.26432137  0.63946449  1
  S2-  S148  1  0.52718706  0.70573981  0.14004788  1
  S2-  S149  1  0.51477366  0.60096496  0.65318021  1
  S2-  S150  1  0.44634209  0.89100121  0.16772637  1
  S2-  S151  1  0.45116118  0.81673790  0.67956886  1
  S2-  S152  1  0.67326609  0.12834873  0.14067208  1
  S2-  S153  1  0.75211480  0.06741361  0.64561220  1
  S2-  S154  1  0.86839138  0.37423497  0.14753799  1
  S2-  S155  1  0.75043976  0.48332933  0.63892095  1
  S2-  S156  1  0.78966645  0.65520817  0.14793117  1
  S2-  S157  1  0.74924457  0.71191301  0.65652671  1
  S2-  S158  1  0.66105610  0.88138335  0.13882718  1
  S2-  S159  1  0.65745399  0.88419382  0.69157335  1
  S2-  S160  1  0.21760918  -0.00855509  0.34848628  1
  S2-  S161  1  0.11048181  -0.01670501  0.85140937  1
  S2-  S162  1  0.23270549  0.25942305  0.34484371  1
  S2-  S163  1  0.14022460  0.37772283  0.86061081  1
  S2-  S164  1  0.10446319  0.42508036  0.34210741  1
  S2-  S165  1  0.12790399  0.60674004  0.85144555  1
  S2-  S166  1  0.13033831  0.63868653  0.35843183  1
  S2-  S167  1  -0.00729155  0.77767544  0.85046122  1
  S2-  S168  1  0.40722784  -0.02360692  0.28192182  1
  S2-  S169  1  0.39228155  -0.02399141  0.85409012  1
  S2-  S170  1  0.40010633  0.14560770  0.34044621  1
  S2-  S171  1  0.38203191  0.25352219  0.85345450  1
  S2-  S172  1  0.38616054  0.41826054  0.35781495  1
  S2-  S173  1  0.37101491  0.50243917  0.84828515  1
  S2-  S174  1  0.39280175  0.81553190  0.35492405  1
  S2-  S175  1  0.26297959  0.76083552  0.84909858  1
  S2-  S176  1  0.57039868  -0.01487801  0.35553911  1
  S2-  S177  1  0.61654056  -0.08748620  0.85026697  1
  S2-  S178  1  0.57558724  0.26370776  0.34598746  1
  S2-  S179  1  0.61438037  0.12841413  0.85775353  1
  S2-  S180  1  0.68469336  0.50199557  0.34505912  1
  S2-  S181  1  0.63900309  0.52279878  0.84818279  1
  S2-  S182  1  0.62965594  0.73815718  0.34342813  1
  S2-  S183  1  0.49510587  0.74511436  0.84752717  1
  S2-  S184  1  0.87335362  -0.11522565  0.36127105  1
  S2-  S185  1  0.86288262  -0.02189354  0.83502404  1
  S2-  S186  1  0.99290886  0.22235632  0.35340171  1
  S2-  S187  1  0.94017312  0.26618432  0.85160764  1
  S2-  S188  1  0.86768389  0.38353945  0.35318438  1
  S2-  S189  1  0.89742187  0.54226007  0.83742537  1
  S2-  S190  1  0.87396771  0.64075621  0.35463522  1
  S2-  S191  1  0.75681369  0.75419172  0.84812940  1
  S2-  S192  1  -0.00619860  0.12026158  0.45290859  1
  S2-  S193  1  0.00690128  0.13538792  0.95373787  1
  S2-  S194  1  -0.00499276  0.38175432  0.45464154  1
  S2-  S195  1  0.00108260  0.38494665  0.96165368  1
  S2-  S196  1  -0.00546839  0.63129227  0.45657955  1
  S2-  S197  1  -0.00133818  0.63475509  0.95376733  1
  S2-  S198  1  0.00102046  0.88051741  0.46235266  1
  S2-  S199  1  0.00483909  0.88572885  0.95680281  1
  S2-  S200  1  0.24463834  0.12883338  0.44570884  1
  S2-  S201  1  0.25523236  0.13602699  0.95798877  1
  S2-  S202  1  0.24254916  0.38287211  0.45563297  1
  S2-  S203  1  0.25782398  0.38320522  0.96504783  1
  S2-  S204  1  0.25244870  0.62830177  0.45741947  1
  S2-  S205  1  0.25786051  0.63216333  0.95278952  1
  S2-  S206  1  0.24819793  0.88062608  0.45274240  1
  S2-  S207  1  0.25686585  0.88922472  0.95382237  1
  S2-  S208  1  0.49731169  0.12692419  0.45763638  1
  S2-  S209  1  0.50019695  0.13653323  0.96492999  1
  S2-  S210  1  0.50136397  0.37731147  0.45775750  1
  S2-  S211  1  0.50101523  0.38361504  0.95754979  1
  S2-  S212  1  0.49451910  0.62830162  0.44956908  1
  S2-  S213  1  0.50131184  0.63025900  0.94883869  1
  S2-  S214  1  0.49133285  0.88585667  0.46645692  1
  S2-  S215  1  0.50281461  0.88801967  0.96039606  1
  S2-  S216  1  0.75085828  0.12635146  0.44608345  1
  S2-  S217  1  0.75536667  0.13507856  0.94812919  1
  S2-  S218  1  0.74405792  0.37614349  0.45325605  1
  S2-  S219  1  0.75064782  0.38286888  0.95707003  1
  S2-  S220  1  0.73911820  0.63220629  0.45799064  1
  S2-  S221  1  0.75098080  0.63240805  0.94845960  1
  S2-  S222  1  0.74077957  0.88386729  0.45484113  1
  S2-  S223  1  0.75087590  0.88914589  0.94976234  1
  S2-  S224  1  0.12906212  0.00720575  0.05649242  1
  S2-  S225  1  0.12281883  0.00686869  0.53856574  1
  S2-  S226  1  0.12988995  0.26022544  0.04564361  1
  S2-  S227  1  0.11313981  0.25142376  0.53605164  1
  S2-  S228  1  0.12642932  0.51536693  0.04139762  1
  S2-  S229  1  0.12269510  0.50186476  0.54024924  1
  S2-  S230  1  0.13575497  0.76068500  0.03332499  1
  S2-  S231  1  0.12422527  0.74923793  0.54355801  1
  S2-  S232  1  0.38191457  0.01143099  0.05619066  1
  S2-  S233  1  0.36519059  0.00691714  0.55886637  1
  S2-  S234  1  0.37541169  0.26091011  0.05578080  1
  S2-  S235  1  0.37233610  0.25465590  0.53208987  1
  S2-  S236  1  0.37867291  0.51338910  0.05260149  1
  S2-  S237  1  0.37183143  0.49831414  0.55228445  1
  S2-  S238  1  0.37752524  0.75976828  0.04215012  1
  S2-  S239  1  0.36941825  0.75182276  0.55474235  1
  S2-  S240  1  0.62623662  0.00985068  0.03972807  1
  S2-  S241  1  0.62619344  0.00272805  0.55202464  1
  S2-  S242  1  0.62959875  0.26387052  0.03908972  1
  S2-  S243  1  0.62983441  0.25034673  0.54866490  1
  S2-  S244  1  0.62640892  0.51020323  0.05257378  1
  S2-  S245  1  0.61638437  0.49970939  0.54384180  1
  S2-  S246  1  0.62999669  0.75916103  0.02954880  1
  S2-  S247  1  0.61721205  0.75980144  0.55433690  1
  S2-  S248  1  0.87700545  0.00926492  0.04435364  1
  S2-  S249  1  0.87061771  -0.00053122  0.54335486  1
  S2-  S250  1  0.87492134  0.25821815  0.04703980  1
  S2-  S251  1  0.87097690  0.25175932  0.53640838  1
  S2-  S252  1  0.87108894  0.51317347  0.04278513  1
  S2-  S253  1  0.86998602  0.50319161  0.53469674  1
  S2-  S254  1  0.87472148  0.76310477  0.03677201  1
  S2-  S255  1  0.86814252  0.75756113  0.54615178  1
