# generated using pymatgen
data_La12Ce14Pr13Nd13Sm12(BiS2)64
_symmetry_space_group_name_H-M   'P 1'
_cell_length_a   16.06897181
_cell_length_b   16.09248872
_cell_length_c   27.25126225
_cell_angle_alpha   90.11328736
_cell_angle_beta   90.06030804
_cell_angle_gamma   89.90287410
_symmetry_Int_Tables_number   1
_chemical_formula_structural   La12Ce14Pr13Nd13Sm12(BiS2)64
_chemical_formula_sum   'La12 Ce14 Pr13 Nd13 Sm12 Bi64 S128'
_cell_volume   7046.86924837
_cell_formula_units_Z   1
loop_
 _symmetry_equiv_pos_site_id
 _symmetry_equiv_pos_as_xyz
  1  'x, y, z'
loop_
 _atom_type_symbol
 _atom_type_oxidation_number
  La3+  3.0
  Ce3+  3.0
  Pr3+  3.0
  Nd3+  3.0
  Sm3+  3.0
  Bi2+  2.0
  S2-  -2.0
loop_
 _atom_site_type_symbol
 _atom_site_label
 _atom_site_symmetry_multiplicity
 _atom_site_fract_x
 _atom_site_fract_y
 _atom_site_fract_z
 _atom_site_occupancy
  La3+  La0  1  0.49300531  0.88159726  0.08687360  1
  La3+  La1  1  0.88108959  0.75222310  0.43144663  1
  La3+  La2  1  0.00841001  0.86848184  0.58493149  1
  La3+  La3  1  0.87399312  0.25498407  0.42546383  1
  La3+  La4  1  0.13495307  0.01768576  0.89021304  1
  La3+  La5  1  0.63104643  0.49659246  0.44867636  1
  La3+  La6  1  0.49799187  0.37677424  0.58616594  1
  La3+  La7  1  0.38279973  -0.00253725  0.42457049  1
  La3+  La8  1  0.26463880  0.62172410  0.08880374  1
  La3+  La9  1  0.89253832  0.24914779  0.92517360  1
  La3+  La10  1  0.26249765  0.11789794  0.56991145  1
  La3+  La11  1  0.50297368  0.14476787  0.09124242  1
  Ce3+  Ce12  1  0.63055723  0.50058706  0.93134655  1
  Ce3+  Ce13  1  0.13388800  0.50047469  0.44115842  1
  Ce3+  Ce14  1  0.50643850  0.12321284  0.55801188  1
  Ce3+  Ce15  1  0.37381689  0.50786158  0.92783484  1
  Ce3+  Ce16  1  0.75203135  0.62822024  0.05580874  1
  Ce3+  Ce17  1  0.50164722  0.62753239  0.04826060  1
  Ce3+  Ce18  1  0.12802242  0.25243409  0.95041754  1
  Ce3+  Ce19  1  0.88112242  -0.00416692  0.45098133  1
  Ce3+  Ce20  1  0.38739471  0.24352181  0.43065859  1
  Ce3+  Ce21  1  0.37506591  0.75803291  0.93530029  1
  Ce3+  Ce22  1  0.88345980  0.49762790  0.44649364  1
  Ce3+  Ce23  1  0.00996482  0.36994529  0.55871232  1
  Ce3+  Ce24  1  0.25472478  0.36374463  0.55668982  1
  Ce3+  Ce25  1  0.12915889  0.75011276  0.42958113  1
  Pr3+  Pr26  1  0.00946806  0.87506214  0.05676133  1
  Pr3+  Pr27  1  0.76647506  0.37666356  0.58306951  1
  Pr3+  Pr28  1  0.00338908  0.62854549  0.06818163  1
  Pr3+  Pr29  1  0.12988201  0.24491927  0.42622893  1
  Pr3+  Pr30  1  0.75974697  0.62232928  0.56941840  1
  Pr3+  Pr31  1  0.75445611  0.87940733  0.06770618  1
  Pr3+  Pr32  1  0.62634394  0.00471071  0.94893550  1
  Pr3+  Pr33  1  0.75615702  0.86815216  0.57165637  1
  Pr3+  Pr34  1  0.00546421  0.12815398  0.06921950  1
  Pr3+  Pr35  1  0.75819307  0.13199238  0.06400762  1
  Pr3+  Pr36  1  0.75878033  0.12835090  0.56718345  1
  Pr3+  Pr37  1  0.37466205  0.25485239  0.91967092  1
  Pr3+  Pr38  1  0.38014796  0.74330113  0.40782255  1
  Nd3+  Nd39  1  0.87698631  0.75411758  0.93385098  1
  Nd3+  Nd40  1  0.50417805  0.37508269  0.04311153  1
  Nd3+  Nd41  1  0.26108426  0.37648369  0.05844329  1
  Nd3+  Nd42  1  0.38387783  0.49450137  0.43903805  1
  Nd3+  Nd43  1  0.26166846  0.87387757  0.55573277  1
  Nd3+  Nd44  1  0.63064701  0.25146132  0.44590032  1
  Nd3+  Nd45  1  0.50724828  0.87123933  0.55331308  1
  Nd3+  Nd46  1  0.88272843  0.00039592  0.93990031  1
  Nd3+  Nd47  1  0.12885436  -0.00459549  0.44521448  1
  Nd3+  Nd48  1  0.37826004  -0.00155709  0.93280548  1
  Nd3+  Nd49  1  0.88114133  0.50322326  0.94157556  1
  Nd3+  Nd50  1  0.63097883  0.23986154  0.92076357  1
  Nd3+  Nd51  1  0.49721124  0.62556515  0.56885501  1
  Sm3+  Sm52  1  0.63098854  0.74564448  0.43508943  1
  Sm3+  Sm53  1  0.63660565  -0.00506442  0.44377623  1
  Sm3+  Sm54  1  0.01268553  0.62622295  0.56250392  1
  Sm3+  Sm55  1  0.25840627  0.62685866  0.55491279  1
  Sm3+  Sm56  1  0.25937787  0.12481971  0.05552538  1
  Sm3+  Sm57  1  0.00786673  0.12513457  0.55851829  1
  Sm3+  Sm58  1  0.12254997  0.75675536  0.92217135  1
  Sm3+  Sm59  1  0.62791781  0.75583753  0.94803872  1
  Sm3+  Sm60  1  0.25472838  0.87787355  0.05278447  1
  Sm3+  Sm61  1  0.12876895  0.50777508  0.94731940  1
  Sm3+  Sm62  1  0.00503438  0.37899385  0.06123863  1
  Sm3+  Sm63  1  0.75329514  0.37350220  0.04746697  1
  Bi2+  Bi64  1  0.00104244  0.08618743  0.28788721  1
  Bi2+  Bi65  1  -0.02309790  0.15438228  0.79335906  1
  Bi2+  Bi66  1  0.01149928  0.34124419  0.28210724  1
  Bi2+  Bi67  1  -0.01389722  0.39352681  0.79822905  1
  Bi2+  Bi68  1  0.00480668  0.62019722  0.27559507  1
  Bi2+  Bi69  1  0.03689529  0.60596237  0.78582974  1
  Bi2+  Bi70  1  -0.02215848  0.87348178  0.29468400  1
  Bi2+  Bi71  1  0.00765162  0.84681110  0.78596701  1
  Bi2+  Bi72  1  0.21824223  0.14169139  0.29752709  1
  Bi2+  Bi73  1  0.26553700  0.18839311  0.79607626  1
  Bi2+  Bi74  1  0.21000520  0.33751373  0.31197725  1
  Bi2+  Bi75  1  0.23791977  0.43504647  0.77532961  1
  Bi2+  Bi76  1  0.20250043  0.60381354  0.28354453  1
  Bi2+  Bi77  1  0.29282746  0.63808868  0.81470077  1
  Bi2+  Bi78  1  0.23409043  0.88140358  0.28999571  1
  Bi2+  Bi79  1  0.28348205  0.82282260  0.77503260  1
  Bi2+  Bi80  1  0.48335598  0.18708519  0.28168843  1
  Bi2+  Bi81  1  0.52988801  0.03072889  0.78274439  1
  Bi2+  Bi82  1  0.40737070  0.38199632  0.30768212  1
  Bi2+  Bi83  1  0.49559290  0.37006994  0.78665473  1
  Bi2+  Bi84  1  0.44951717  0.63487517  0.28193501  1
  Bi2+  Bi85  1  0.48247461  0.64073639  0.78450447  1
  Bi2+  Bi86  1  0.51833480  0.86904541  0.28452024  1
  Bi2+  Bi87  1  0.53955293  0.83460547  0.80698271  1
  Bi2+  Bi88  1  0.79992270  0.15614044  0.27277569  1
  Bi2+  Bi89  1  0.75532260  0.03641312  0.78722491  1
  Bi2+  Bi90  1  0.71735102  0.37231882  0.30761240  1
  Bi2+  Bi91  1  0.74414708  0.38010195  0.79401870  1
  Bi2+  Bi92  1  0.74538207  0.62219744  0.29687183  1
  Bi2+  Bi93  1  0.76845031  0.66799179  0.77806434  1
  Bi2+  Bi94  1  0.73751781  0.89186542  0.29505161  1
  Bi2+  Bi95  1  0.81844935  0.85675416  0.81162153  1
  Bi2+  Bi96  1  0.15920579  0.01833184  0.20661205  1
  Bi2+  Bi97  1  0.14264069  0.07072456  0.68927792  1
  Bi2+  Bi98  1  0.06600999  0.18835203  0.19800691  1
  Bi2+  Bi99  1  0.11129347  0.32042032  0.71907383  1
  Bi2+  Bi100  1  0.13912595  0.44800517  0.22052123  1
  Bi2+  Bi101  1  0.10084162  0.50966772  0.68376476  1
  Bi2+  Bi102  1  0.10455594  0.82501209  0.21022502  1
  Bi2+  Bi103  1  0.17442349  0.68689159  0.71931299  1
  Bi2+  Bi104  1  0.36706232  0.01583787  0.20763765  1
  Bi2+  Bi105  1  0.38434065  0.00750387  0.71049058  1
  Bi2+  Bi106  1  0.32289212  0.25761949  0.22551193  1
  Bi2+  Bi107  1  0.35161435  0.25805689  0.70024491  1
  Bi2+  Bi108  1  0.40095913  0.48366967  0.20597012  1
  Bi2+  Bi109  1  0.36987758  0.52966897  0.70558568  1
  Bi2+  Bi110  1  0.36249464  0.74616671  0.20345396  1
  Bi2+  Bi111  1  0.43501160  0.77334729  0.70354522  1
  Bi2+  Bi112  1  0.62864263  0.08169659  0.23548722  1
  Bi2+  Bi113  1  0.64997172  -0.08801175  0.71832841  1
  Bi2+  Bi114  1  0.61867214  0.30139362  0.19886369  1
  Bi2+  Bi115  1  0.62542152  0.18636605  0.71920389  1
  Bi2+  Bi116  1  0.58964256  0.49078501  0.24258168  1
  Bi2+  Bi117  1  0.63454584  0.55938172  0.71964781  1
  Bi2+  Bi118  1  0.62750516  0.68576269  0.21564006  1
  Bi2+  Bi119  1  0.68820952  0.73446037  0.67580869  1
  Bi2+  Bi120  1  0.85507431  -0.00421745  0.21157118  1
  Bi2+  Bi121  1  0.91449936  -0.01732460  0.71798321  1
  Bi2+  Bi122  1  0.88120275  0.28480858  0.19113782  1
  Bi2+  Bi123  1  0.85603957  0.23238580  0.69857973  1
  Bi2+  Bi124  1  0.86417113  0.48056294  0.26271800  1
  Bi2+  Bi125  1  0.90366614  0.51259952  0.71186671  1
  Bi2+  Bi126  1  0.86301084  0.74838194  0.18912296  1
  Bi2+  Bi127  1  0.89042414  0.70757329  0.69031252  1
  S2-  S128  1  -0.11952103  0.12639311  0.14048267  1
  S2-  S129  1  -0.01637954  0.12762846  0.65746992  1
  S2-  S130  1  0.00560704  0.40569359  0.15775118  1
  S2-  S131  1  -0.07951210  0.34619753  0.64247826  1
  S2-  S132  1  -0.01358639  0.64650706  0.16870309  1
  S2-  S133  1  0.04273024  0.72024915  0.64414769  1
  S2-  S134  1  -0.03266711  0.88167783  0.15465687  1
  S2-  S135  1  0.06885743  0.92677299  0.68077099  1
  S2-  S136  1  0.34058602  0.14592217  0.14192074  1
  S2-  S137  1  0.20061584  0.23041503  0.64433756  1
  S2-  S138  1  0.26385068  0.46635701  0.14453117  1
  S2-  S139  1  0.33800361  0.39506835  0.64072808  1
  S2-  S140  1  0.21494957  0.68897105  0.17941955  1
  S2-  S141  1  0.35327186  0.65642565  0.63655819  1
  S2-  S142  1  0.33370173  0.88289988  0.14193327  1
  S2-  S143  1  0.26615795  0.97009226  0.64192239  1
  S2-  S144  1  0.50897576  0.01059405  0.16095708  1
  S2-  S145  1  0.41126042  0.12775482  0.64019084  1
  S2-  S146  1  0.49138907  0.31172003  0.13578609  1
  S2-  S147  1  0.51045909  0.30785113  0.68563531  1
  S2-  S148  1  0.42916384  0.61703103  0.13717782  1
  S2-  S149  1  0.51685354  0.52031005  0.65105652  1
  S2-  S150  1  0.53460586  0.80666580  0.18216771  1
  S2-  S151  1  0.49791836  0.90965479  0.65186301  1
  S2-  S152  1  0.65572405  0.15645089  0.14697154  1
  S2-  S153  1  0.72998613  0.09825104  0.66602745  1
  S2-  S154  1  0.75496015  0.37107903  0.14574227  1
  S2-  S155  1  0.71804121  0.31316901  0.67924274  1
  S2-  S156  1  0.76563908  0.62813188  0.15343159  1
  S2-  S157  1  0.76524191  0.51516112  0.65135550  1
  S2-  S158  1  0.74619340  0.88482890  0.16923945  1
  S2-  S159  1  0.86517864  0.87656106  0.65146956  1
  S2-  S160  1  0.10632241  -0.03771739  0.34767717  1
  S2-  S161  1  0.13110985  0.07287217  0.78596556  1
  S2-  S162  1  0.00035285  0.22407239  0.35412245  1
  S2-  S163  1  0.05148586  0.24576902  0.86319182  1
  S2-  S164  1  0.08896964  0.52515014  0.34782509  1
  S2-  S165  1  0.11498768  0.48346913  0.84946094  1
  S2-  S166  1  0.00183699  0.74406711  0.35520331  1
  S2-  S167  1  0.14499888  0.86119605  0.84138509  1
  S2-  S168  1  0.38686024  -0.10849323  0.34061372  1
  S2-  S169  1  0.29795140  0.05706172  0.85016507  1
  S2-  S170  1  0.36424881  0.12480898  0.35377852  1
  S2-  S171  1  0.42495961  0.22634364  0.82135302  1
  S2-  S172  1  0.34500551  0.55219675  0.34612307  1
  S2-  S173  1  0.36240243  0.40978466  0.84750161  1
  S2-  S174  1  0.23048795  0.74127191  0.34755974  1
  S2-  S175  1  0.38828687  0.86281493  0.85787965  1
  S2-  S176  1  0.61403359  -0.01808021  0.34506830  1
  S2-  S177  1  0.64574318  0.08237795  0.85845878  1
  S2-  S178  1  0.51804960  0.28172134  0.36490164  1
  S2-  S179  1  0.62702233  0.27909693  0.82066155  1
  S2-  S180  1  0.62829553  0.51581793  0.34807637  1
  S2-  S181  1  0.61845476  0.48258700  0.83319850  1
  S2-  S182  1  0.53068212  0.74108692  0.35126410  1
  S2-  S183  1  0.68463558  0.75855859  0.85540266  1
  S2-  S184  1  0.85112171  -0.04821166  0.35691176  1
  S2-  S185  1  0.96574418  0.02080562  0.85331747  1
  S2-  S186  1  0.73328820  0.23157011  0.36149740  1
  S2-  S187  1  0.83548071  0.24526280  0.82857243  1
  S2-  S188  1  0.86217072  0.41257357  0.36226543  1
  S2-  S189  1  0.86431903  0.48520317  0.84306367  1
  S2-  S190  1  0.75110852  0.75493581  0.35901872  1
  S2-  S191  1  0.98750444  0.71993027  0.85713040  1
  S2-  S192  1  0.00384012  0.11979043  0.45471278  1
  S2-  S193  1  0.01292754  0.11941891  0.96232459  1
  S2-  S194  1  0.01131793  0.37534305  0.45347282  1
  S2-  S195  1  0.00677794  0.38299478  0.95709919  1
  S2-  S196  1  0.00715740  0.62265859  0.45853495  1
  S2-  S197  1  0.00456150  0.62810665  0.96089554  1
  S2-  S198  1  0.00514866  0.87285708  0.46377352  1
  S2-  S199  1  0.00505576  0.87423676  0.95177487  1
  S2-  S200  1  0.25076449  0.12050450  0.45598546  1
  S2-  S201  1  0.24862531  0.12843424  0.95341563  1
  S2-  S202  1  0.25781294  0.37089996  0.44873180  1
  S2-  S203  1  0.24935821  0.38008733  0.95271423  1
  S2-  S204  1  0.25775599  0.62464103  0.45265562  1
  S2-  S205  1  0.24670033  0.63433026  0.94591944  1
  S2-  S206  1  0.25713528  0.87346319  0.45073632  1
  S2-  S207  1  0.24176982  0.88168464  0.95143830  1
  S2-  S208  1  0.51417805  0.11800444  0.45327907  1
  S2-  S209  1  0.49693257  0.12827412  0.94244688  1
  S2-  S210  1  0.50485117  0.37479521  0.46728137  1
  S2-  S211  1  0.50647863  0.37563373  0.93874316  1
  S2-  S212  1  0.50408841  0.62310823  0.45644973  1
  S2-  S213  1  0.50475940  0.63134487  0.94115020  1
  S2-  S214  1  0.51203329  0.87209432  0.44966492  1
  S2-  S215  1  0.50667310  0.87596949  0.96099171  1
  S2-  S216  1  0.75491765  0.12016947  0.46053493  1
  S2-  S217  1  0.76324578  0.12825306  0.95539666  1
  S2-  S218  1  0.75632761  0.37500606  0.47011333  1
  S2-  S219  1  0.75583647  0.37335724  0.94255750  1
  S2-  S220  1  0.75837975  0.62178672  0.45984008  1
  S2-  S221  1  0.75366007  0.62745477  0.94957287  1
  S2-  S222  1  0.75284705  0.87169267  0.46527402  1
  S2-  S223  1  0.75440726  0.87874545  0.95925363  1
  S2-  S224  1  0.13404162  0.00307750  0.06196111  1
  S2-  S225  1  0.12715841  -0.00271223  0.54966510  1
  S2-  S226  1  0.13281462  0.25435653  0.05694725  1
  S2-  S227  1  0.12791968  0.24487721  0.53423395  1
  S2-  S228  1  0.13020622  0.50425608  0.05104529  1
  S2-  S229  1  0.13602759  0.50004015  0.54779115  1
  S2-  S230  1  0.13566999  0.74901318  0.05143666  1
  S2-  S231  1  0.13812473  0.75054796  0.54052345  1
  S2-  S232  1  0.38006279  0.00430164  0.04015565  1
  S2-  S233  1  0.38644851  -0.00453087  0.53429993  1
  S2-  S234  1  0.37772299  0.25169907  0.03164237  1
  S2-  S235  1  0.38186533  0.24642597  0.54018197  1
  S2-  S236  1  0.37965541  0.50134502  0.03347256  1
  S2-  S237  1  0.37661770  0.50094107  0.54200401  1
  S2-  S238  1  0.37562901  0.75051009  0.04142313  1
  S2-  S239  1  0.38220721  0.75243241  0.53448424  1
  S2-  S240  1  0.62799768  0.00457323  0.05356418  1
  S2-  S241  1  0.63432705  -0.00315962  0.55091987  1
  S2-  S242  1  0.62940900  0.25170750  0.03124762  1
  S2-  S243  1  0.62962214  0.25191938  0.55599550  1
  S2-  S244  1  0.62957046  0.50043891  0.04027880  1
  S2-  S245  1  0.62988566  0.50004254  0.55393462  1
  S2-  S246  1  0.62534173  0.75467251  0.05324246  1
  S2-  S247  1  0.62976358  0.74375132  0.54464395  1
  S2-  S248  1  0.88187134  -0.00103831  0.04470667  1
  S2-  S249  1  0.88302357  0.00046535  0.55493583  1
  S2-  S250  1  0.88495573  0.25824366  0.03812270  1
  S2-  S251  1  0.88459068  0.24556112  0.53949787  1
  S2-  S252  1  0.87824896  0.50047107  0.04836897  1
  S2-  S253  1  0.89212268  0.50209894  0.55045155  1
  S2-  S254  1  0.87809574  0.75264151  0.04352419  1
  S2-  S255  1  0.88398826  0.74519504  0.54549724  1
