# generated using pymatgen
data_La12Ce14Pr13Nd13Sm12(BiS2)64
_symmetry_space_group_name_H-M   'P 1'
_cell_length_a   16.12169904
_cell_length_b   16.09109795
_cell_length_c   27.31266849
_cell_angle_alpha   90.16100564
_cell_angle_beta   90.02567278
_cell_angle_gamma   90.08703811
_symmetry_Int_Tables_number   1
_chemical_formula_structural   La12Ce14Pr13Nd13Sm12(BiS2)64
_chemical_formula_sum   'La12 Ce14 Pr13 Nd13 Sm12 Bi64 S128'
_cell_volume   7085.30191587
_cell_formula_units_Z   1
loop_
 _symmetry_equiv_pos_site_id
 _symmetry_equiv_pos_as_xyz
  1  'x, y, z'
loop_
 _atom_type_symbol
 _atom_type_oxidation_number
  La3+  3.0
  Ce3+  3.0
  Pr3+  3.0
  Nd3+  3.0
  Sm3+  3.0
  Bi2+  2.0
  S2-  -2.0
loop_
 _atom_site_type_symbol
 _atom_site_label
 _atom_site_symmetry_multiplicity
 _atom_site_fract_x
 _atom_site_fract_y
 _atom_site_fract_z
 _atom_site_occupancy
  La3+  La0  1  0.24279922  0.63937099  0.55945862  1
  La3+  La1  1  0.37222052  0.25822040  0.92927259  1
  La3+  La2  1  0.62355430  0.50480188  0.40925717  1
  La3+  La3  1  -0.00374781  0.87080083  0.11320408  1
  La3+  La4  1  0.12109144  0.25557249  0.93072816  1
  La3+  La5  1  -0.01642752  0.89870012  0.58099042  1
  La3+  La6  1  0.85736709  0.02306081  0.41759512  1
  La3+  La7  1  0.48001387  0.38826534  0.59783035  1
  La3+  La8  1  0.36226745  0.51382122  0.41070972  1
  La3+  La9  1  0.73709933  0.39104461  0.57900994  1
  La3+  La10  1  0.62628471  0.76372860  0.90510407  1
  La3+  La11  1  0.73745587  0.14029698  0.06988296  1
  Ce3+  Ce12  1  0.62368130  0.00700784  0.94068051  1
  Ce3+  Ce13  1  0.74148275  0.89398379  0.56442926  1
  Ce3+  Ce14  1  0.86028358  0.26838927  0.44366414  1
  Ce3+  Ce15  1  0.87304823  0.01175713  0.94730050  1
  Ce3+  Ce16  1  0.61006930  0.27343739  0.44776594  1
  Ce3+  Ce17  1  -0.00340861  0.63809846  0.05456646  1
  Ce3+  Ce18  1  0.75013364  0.88339102  0.05994234  1
  Ce3+  Ce19  1  0.11472272  0.51653274  0.43692963  1
  Ce3+  Ce20  1  0.48968600  0.88826870  0.56711612  1
  Ce3+  Ce21  1  0.24455391  0.38899666  0.55417190  1
  Ce3+  Ce22  1  0.24618387  0.63837915  0.05928184  1
  Ce3+  Ce23  1  0.86352334  0.51514152  0.44728943  1
  Ce3+  Ce24  1  -0.00859823  0.64920951  0.56677014  1
  Ce3+  Ce25  1  0.24326488  0.88493536  0.06315640  1
  Pr3+  Pr26  1  -0.01481762  0.14666657  0.57473689  1
  Pr3+  Pr27  1  0.24549375  0.13677823  0.06398437  1
  Pr3+  Pr28  1  0.61783030  0.51213166  0.92439919  1
  Pr3+  Pr29  1  0.24039185  0.89244779  0.55732074  1
  Pr3+  Pr30  1  0.12122282  0.50690517  0.94791288  1
  Pr3+  Pr31  1  0.74653005  0.63827104  0.05202628  1
  Pr3+  Pr32  1  0.25156100  0.38594634  0.06372917  1
  Pr3+  Pr33  1  0.62230552  0.26441572  0.91698443  1
  Pr3+  Pr34  1  0.87451297  0.76238752  0.93246731  1
  Pr3+  Pr35  1  0.48887095  0.63962509  0.56416643  1
  Pr3+  Pr36  1  -0.00662627  0.38327073  0.06886213  1
  Pr3+  Pr37  1  0.36890247  0.76237134  0.93190497  1
  Pr3+  Pr38  1  0.49816152  0.87942020  0.06425187  1
  Nd3+  Nd39  1  0.73582618  0.14140524  0.55772285  1
  Nd3+  Nd40  1  0.36575519  0.26429296  0.42895930  1
  Nd3+  Nd41  1  0.37084647  0.51056598  0.93354679  1
  Nd3+  Nd42  1  0.12399355  0.76098418  0.93004590  1
  Nd3+  Nd43  1  0.49954541  0.39225536  0.06368244  1
  Nd3+  Nd44  1  0.87275730  0.50810140  0.93469847  1
  Nd3+  Nd45  1  0.86934827  0.25563340  0.93569262  1
  Nd3+  Nd46  1  -0.00911051  0.39403859  0.56426891  1
  Nd3+  Nd47  1  -0.01012380  0.13605251  0.07501220  1
  Nd3+  Nd48  1  0.36434056  0.01114066  0.43452605  1
  Nd3+  Nd49  1  0.11121410  0.76647146  0.43907943  1
  Nd3+  Nd50  1  0.37229657  0.00787241  0.94565280  1
  Nd3+  Nd51  1  0.11152153  0.26193580  0.44072514  1
  Sm3+  Sm52  1  0.73913420  0.63896979  0.56028639  1
  Sm3+  Sm53  1  0.11773832  0.00925370  0.95165298  1
  Sm3+  Sm54  1  0.48779920  0.14100555  0.55554589  1
  Sm3+  Sm55  1  0.49747589  0.13982311  0.05723586  1
  Sm3+  Sm56  1  0.86159587  0.76564178  0.44319384  1
  Sm3+  Sm57  1  0.61382214  0.76202144  0.44904198  1
  Sm3+  Sm58  1  0.36738347  0.76315480  0.43204517  1
  Sm3+  Sm59  1  0.24134519  0.14125988  0.55519463  1
  Sm3+  Sm60  1  0.10767874  0.01516150  0.44453689  1
  Sm3+  Sm61  1  0.49880071  0.63838984  0.05554204  1
  Sm3+  Sm62  1  0.74177219  0.38822876  0.05039712  1
  Sm3+  Sm63  1  0.61560870  0.01197930  0.43863950  1
  Bi2+  Bi64  1  0.01377494  0.12555783  0.31679715  1
  Bi2+  Bi65  1  0.00933288  0.11416932  0.79799394  1
  Bi2+  Bi66  1  -0.03773819  0.38732442  0.29240515  1
  Bi2+  Bi67  1  0.02926784  0.38745574  0.80223569  1
  Bi2+  Bi68  1  0.00749423  0.57199192  0.31868524  1
  Bi2+  Bi69  1  0.02452416  0.66430245  0.81804000  1
  Bi2+  Bi70  1  0.01504008  0.85396051  0.31914937  1
  Bi2+  Bi71  1  -0.04956786  0.83820753  0.80278021  1
  Bi2+  Bi72  1  0.25822446  0.07760104  0.28782758  1
  Bi2+  Bi73  1  0.29860649  0.11307627  0.78639301  1
  Bi2+  Bi74  1  0.27873789  0.27488274  0.28144430  1
  Bi2+  Bi75  1  0.25422442  0.36521260  0.78464863  1
  Bi2+  Bi76  1  0.25037688  0.62698778  0.29019412  1
  Bi2+  Bi77  1  0.21081289  0.62099278  0.79622856  1
  Bi2+  Bi78  1  0.29052292  0.86813130  0.26810019  1
  Bi2+  Bi79  1  0.14236480  0.88887527  0.80353200  1
  Bi2+  Bi80  1  0.49401533  0.12567998  0.28506366  1
  Bi2+  Bi81  1  0.54394071  0.12223323  0.79032285  1
  Bi2+  Bi82  1  0.52366298  0.37091871  0.28808462  1
  Bi2+  Bi83  1  0.49998298  0.38349639  0.78425309  1
  Bi2+  Bi84  1  0.50744287  0.69269740  0.27724727  1
  Bi2+  Bi85  1  0.49528194  0.64138502  0.78094778  1
  Bi2+  Bi86  1  0.48618686  0.91647407  0.28602117  1
  Bi2+  Bi87  1  0.48082736  0.91426832  0.79769460  1
  Bi2+  Bi88  1  0.68378377  0.10935750  0.27588272  1
  Bi2+  Bi89  1  0.74658427  0.11268194  0.78896044  1
  Bi2+  Bi90  1  0.77397298  0.38581588  0.24669098  1
  Bi2+  Bi91  1  0.76207748  0.37184230  0.78158731  1
  Bi2+  Bi92  1  0.70954331  0.58606792  0.28573780  1
  Bi2+  Bi93  1  0.74366362  0.66942664  0.76932972  1
  Bi2+  Bi94  1  0.72820422  0.84405781  0.29732115  1
  Bi2+  Bi95  1  0.71402019  0.92189421  0.76079600  1
  Bi2+  Bi96  1  0.12909651  -0.01323514  0.21475057  1
  Bi2+  Bi97  1  0.17124459  0.02202145  0.71755092  1
  Bi2+  Bi98  1  0.12348716  0.25705614  0.21604463  1
  Bi2+  Bi99  1  0.10770984  0.28303112  0.71631172  1
  Bi2+  Bi100  1  0.10158812  0.46647979  0.22080408  1
  Bi2+  Bi101  1  0.13980671  0.47871836  0.71037785  1
  Bi2+  Bi102  1  0.09231864  0.66292904  0.22635033  1
  Bi2+  Bi103  1  0.15787539  0.75447869  0.71905354  1
  Bi2+  Bi104  1  0.39854139  -0.06408673  0.17864050  1
  Bi2+  Bi105  1  0.44277602  0.02260166  0.69893537  1
  Bi2+  Bi106  1  0.36938066  0.13113221  0.19375805  1
  Bi2+  Bi107  1  0.34523382  0.24434171  0.70829223  1
  Bi2+  Bi108  1  0.37499039  0.45963934  0.19068048  1
  Bi2+  Bi109  1  0.33751233  0.52698786  0.70684848  1
  Bi2+  Bi110  1  0.36505291  0.72720772  0.20068565  1
  Bi2+  Bi111  1  0.37176412  0.83764996  0.71406699  1
  Bi2+  Bi112  1  0.60444861  -0.01879971  0.19955649  1
  Bi2+  Bi113  1  0.61896106  -0.03223822  0.66681177  1
  Bi2+  Bi114  1  0.60620759  0.25413406  0.21005439  1
  Bi2+  Bi115  1  0.62844803  0.19262367  0.70107964  1
  Bi2+  Bi116  1  0.64509579  0.51293334  0.18869758  1
  Bi2+  Bi117  1  0.64425345  0.51724177  0.69382961  1
  Bi2+  Bi118  1  0.63355768  0.78157476  0.20251770  1
  Bi2+  Bi119  1  0.59378317  0.78089966  0.71540919  1
  Bi2+  Bi120  1  0.86733734  -0.00821397  0.21549777  1
  Bi2+  Bi121  1  0.90950377  -0.02536160  0.72315462  1
  Bi2+  Bi122  1  0.89393535  0.23348843  0.22618733  1
  Bi2+  Bi123  1  0.90038934  0.19985674  0.72122586  1
  Bi2+  Bi124  1  0.91532407  0.48258333  0.18544228  1
  Bi2+  Bi125  1  0.93829369  0.52966345  0.74867974  1
  Bi2+  Bi126  1  0.88004637  0.64708319  0.24527238  1
  Bi2+  Bi127  1  0.90091491  0.72427993  0.69328015  1
  S2-  S128  1  0.00219763  0.03354315  0.15740367  1
  S2-  S129  1  0.01023983  0.03069543  0.65143784  1
  S2-  S130  1  0.00048769  0.26750985  0.14486184  1
  S2-  S131  1  -0.01437762  0.28596552  0.64375386  1
  S2-  S132  1  -0.00396200  0.69875244  0.14524513  1
  S2-  S133  1  -0.02445757  0.57452844  0.65477190  1
  S2-  S134  1  -0.00261929  0.87224935  0.22533800  1
  S2-  S135  1  0.03513864  0.77333573  0.64719498  1
  S2-  S136  1  0.20056462  0.13151700  0.16111471  1
  S2-  S137  1  0.22873064  0.14365042  0.65378473  1
  S2-  S138  1  0.22957138  0.37420256  0.16341321  1
  S2-  S139  1  0.32015205  0.38283512  0.64266417  1
  S2-  S140  1  0.28001721  0.59746556  0.15275468  1
  S2-  S141  1  0.26677856  0.65785043  0.65877054  1
  S2-  S142  1  0.16775873  0.86530843  0.14949298  1
  S2-  S143  1  0.24075696  0.90082246  0.65808955  1
  S2-  S144  1  0.59729879  0.13507505  0.13799819  1
  S2-  S145  1  0.47228648  0.21092521  0.64427925  1
  S2-  S146  1  0.44619804  0.33088207  0.15505346  1
  S2-  S147  1  0.57432527  0.37018933  0.68807962  1
  S2-  S148  1  0.50364887  0.52777397  0.13558935  1
  S2-  S149  1  0.47948670  0.54718537  0.65395120  1
  S2-  S150  1  0.50403073  0.74983198  0.13522798  1
  S2-  S151  1  0.47146948  0.76937714  0.63924693  1
  S2-  S152  1  0.82328190  0.13391108  0.15990927  1
  S2-  S153  1  0.77684423  0.16128037  0.65437883  1
  S2-  S154  1  0.70317029  0.35766549  0.14473816  1
  S2-  S155  1  0.77676318  0.41996596  0.67760127  1
  S2-  S156  1  0.72230260  0.65204743  0.15186452  1
  S2-  S157  1  0.74183643  0.65587490  0.65907262  1
  S2-  S158  1  0.82470788  0.88178582  0.14965993  1
  S2-  S159  1  0.83725561  0.88283310  0.64601003  1
  S2-  S160  1  0.12484385  -0.00351259  0.34654619  1
  S2-  S161  1  0.12193367  0.04542598  0.85467921  1
  S2-  S162  1  0.13127538  0.25769040  0.34143378  1
  S2-  S163  1  0.24641814  0.24503673  0.85521521  1
  S2-  S164  1  0.20466547  0.50899322  0.35312068  1
  S2-  S165  1  0.16501124  0.47510188  0.85250243  1
  S2-  S166  1  0.14684674  0.75088251  0.34136568  1
  S2-  S167  1  0.24413878  0.76492310  0.85590276  1
  S2-  S168  1  0.36839193  -0.11241249  0.36070947  1
  S2-  S169  1  0.35102195  -0.00951254  0.84741544  1
  S2-  S170  1  0.36740482  0.13156630  0.35992748  1
  S2-  S171  1  0.48364988  0.25407996  0.84867852  1
  S2-  S172  1  0.37148194  0.36661098  0.34418307  1
  S2-  S173  1  0.42222060  0.50816691  0.83701605  1
  S2-  S174  1  0.37780501  0.66045648  0.35143660  1
  S2-  S175  1  0.47216427  0.75641499  0.84859387  1
  S2-  S176  1  0.70634978  -0.00364997  0.35474324  1
  S2-  S177  1  0.62961220  -0.07872518  0.85477915  1
  S2-  S178  1  0.63366872  0.33639981  0.35812211  1
  S2-  S179  1  0.76413373  0.25467657  0.85192700  1
  S2-  S180  1  0.53585871  0.52752093  0.32039755  1
  S2-  S181  1  0.62618313  0.40019887  0.84254598  1
  S2-  S182  1  0.62266025  0.75752627  0.34997344  1
  S2-  S183  1  0.62983015  0.61920918  0.84080457  1
  S2-  S184  1  0.91386251  -0.00430228  0.32061132  1
  S2-  S185  1  0.87181958  0.04122360  0.85061446  1
  S2-  S186  1  0.87415308  0.18533317  0.35890703  1
  S2-  S187  1  0.99118445  0.25732244  0.86153063  1
  S2-  S188  1  0.78434323  0.50779575  0.36089212  1
  S2-  S189  1  0.84283810  0.48113138  0.83689519  1
  S2-  S190  1  0.86441966  0.77244959  0.34428848  1
  S2-  S191  1  0.78717363  0.76453447  0.84392823  1
  S2-  S192  1  -0.01260327  0.13958258  0.46169153  1
  S2-  S193  1  -0.00370298  0.13411536  0.96564317  1
  S2-  S194  1  -0.01057416  0.38956675  0.45542129  1
  S2-  S195  1  -0.00603660  0.38551790  0.96059381  1
  S2-  S196  1  -0.01317649  0.64231393  0.45664412  1
  S2-  S197  1  -0.00246254  0.63411185  0.94924879  1
  S2-  S198  1  -0.01719477  0.89260842  0.45186392  1
  S2-  S199  1  -0.00051141  0.88586691  0.94109120  1
  S2-  S200  1  0.23461120  0.13590085  0.45218111  1
  S2-  S201  1  0.24692878  0.12944756  0.95835206  1
  S2-  S202  1  0.23708095  0.38604615  0.45115155  1
  S2-  S203  1  0.24924159  0.38468936  0.95710145  1
  S2-  S204  1  0.23795781  0.64422410  0.45230784  1
  S2-  S205  1  0.24551365  0.63242358  0.95354985  1
  S2-  S206  1  0.23382574  0.89184782  0.45244330  1
  S2-  S207  1  0.24309249  0.88883344  0.95764827  1
  S2-  S208  1  0.49527414  0.13755613  0.45216753  1
  S2-  S209  1  0.49853645  0.13128546  0.95310156  1
  S2-  S210  1  0.48850217  0.39508994  0.44714476  1
  S2-  S211  1  0.49435956  0.38828425  0.95337051  1
  S2-  S212  1  0.49677223  0.63581437  0.45384252  1
  S2-  S213  1  0.49379773  0.63561242  0.95140834  1
  S2-  S214  1  0.49481500  0.88915882  0.45811650  1
  S2-  S215  1  0.49601607  0.88426855  0.95663103  1
  S2-  S216  1  0.73189410  0.14377476  0.45304951  1
  S2-  S217  1  0.74304367  0.13368738  0.95719119  1
  S2-  S218  1  0.73862698  0.39247691  0.46735851  1
  S2-  S219  1  0.74752472  0.38774455  0.94910871  1
  S2-  S220  1  0.73772173  0.64041019  0.45578886  1
  S2-  S221  1  0.75026013  0.63336186  0.94626910  1
  S2-  S222  1  0.73889530  0.88810096  0.45784839  1
  S2-  S223  1  0.75059522  0.88530823  0.95455293  1
  S2-  S224  1  0.11924573  0.00988075  0.05300882  1
  S2-  S225  1  0.11595493  0.01852405  0.54755464  1
  S2-  S226  1  0.12397017  0.26271965  0.04394763  1
  S2-  S227  1  0.11744778  0.26499501  0.54722252  1
  S2-  S228  1  0.12039364  0.50914947  0.05527256  1
  S2-  S229  1  0.11498204  0.51452633  0.54639092  1
  S2-  S230  1  0.12066324  0.76029119  0.03866700  1
  S2-  S231  1  0.11695309  0.76947367  0.54317817  1
  S2-  S232  1  0.37449799  0.01189854  0.05103348  1
  S2-  S233  1  0.36600381  0.01749124  0.54486733  1
  S2-  S234  1  0.37339050  0.25862474  0.04205938  1
  S2-  S235  1  0.36503828  0.26217422  0.53650013  1
  S2-  S236  1  0.37032522  0.51381045  0.04009720  1
  S2-  S237  1  0.36609372  0.51352317  0.54284655  1
  S2-  S238  1  0.36704773  0.76087804  0.04064121  1
  S2-  S239  1  0.36341510  0.76763149  0.53695637  1
  S2-  S240  1  0.61945599  0.00544767  0.04486742  1
  S2-  S241  1  0.61194834  0.01701622  0.54283865  1
  S2-  S242  1  0.61615791  0.26613523  0.03507615  1
  S2-  S243  1  0.60955148  0.26916851  0.55290151  1
  S2-  S244  1  0.62318774  0.51359882  0.03417219  1
  S2-  S245  1  0.61575408  0.51478444  0.55943769  1
  S2-  S246  1  0.62467221  0.76100001  0.03580037  1
  S2-  S247  1  0.62050498  0.76569833  0.55159076  1
  S2-  S248  1  0.86813871  0.01232147  0.05014842  1
  S2-  S249  1  0.86110156  0.02188968  0.54435962  1
  S2-  S250  1  0.86388047  0.26448358  0.04461680  1
  S2-  S251  1  0.86052788  0.26893747  0.54732386  1
  S2-  S252  1  0.87042680  0.50960091  0.04313558  1
  S2-  S253  1  0.86416987  0.51618625  0.55233399  1
  S2-  S254  1  0.87533913  0.76234083  0.04050633  1
  S2-  S255  1  0.86250785  0.76415619  0.54630040  1
