# generated using pymatgen
data_La12Ce14Pr13Nd13Sm12(BiS2)64
_symmetry_space_group_name_H-M   'P 1'
_cell_length_a   16.06418573
_cell_length_b   16.08107816
_cell_length_c   27.24909475
_cell_angle_alpha   90.48496288
_cell_angle_beta   90.16642336
_cell_angle_gamma   90.15735163
_symmetry_Int_Tables_number   1
_chemical_formula_structural   La12Ce14Pr13Nd13Sm12(BiS2)64
_chemical_formula_sum   'La12 Ce14 Pr13 Nd13 Sm12 Bi64 S128'
_cell_volume   7038.93414417
_cell_formula_units_Z   1
loop_
 _symmetry_equiv_pos_site_id
 _symmetry_equiv_pos_as_xyz
  1  'x, y, z'
loop_
 _atom_type_symbol
 _atom_type_oxidation_number
  La3+  3.0
  Ce3+  3.0
  Pr3+  3.0
  Nd3+  3.0
  Sm3+  3.0
  Bi2+  2.0
  S2-  -2.0
loop_
 _atom_site_type_symbol
 _atom_site_label
 _atom_site_symmetry_multiplicity
 _atom_site_fract_x
 _atom_site_fract_y
 _atom_site_fract_z
 _atom_site_occupancy
  La3+  La0  1  0.61844603  0.50405103  0.43189632  1
  La3+  La1  1  0.87103929  0.24935688  0.90243290  1
  La3+  La2  1  0.01491256  0.63266605  0.09667828  1
  La3+  La3  1  0.49977611  0.12515981  0.58508505  1
  La3+  La4  1  0.25187354  0.38734471  0.57272773  1
  La3+  La5  1  0.49665604  0.87774241  0.06763912  1
  La3+  La6  1  -0.00804656  0.39608707  0.58589445  1
  La3+  La7  1  0.38019806  0.25846066  0.39326986  1
  La3+  La8  1  0.13043076  0.24578841  0.93421589  1
  La3+  La9  1  0.24772021  0.63568683  0.57157058  1
  La3+  La10  1  0.49220394  0.63002313  0.08382598  1
  La3+  La11  1  0.24553296  0.14292212  0.58471231  1
  Ce3+  Ce12  1  0.24429563  0.87676093  0.05059950  1
  Ce3+  Ce13  1  0.50260973  0.63906076  0.55825254  1
  Ce3+  Ce14  1  0.87941124  0.25429181  0.43749117  1
  Ce3+  Ce15  1  -0.00185535  0.88165838  0.55750070  1
  Ce3+  Ce16  1  0.75392820  0.13516265  0.57200883  1
  Ce3+  Ce17  1  0.62424655  0.49953921  0.94929701  1
  Ce3+  Ce18  1  0.50005289  0.38231762  0.56440396  1
  Ce3+  Ce19  1  0.62846896  0.00208380  0.94703935  1
  Ce3+  Ce20  1  0.37405247  0.75039490  0.93928158  1
  Ce3+  Ce21  1  0.24251227  0.62293699  0.04376517  1
  Ce3+  Ce22  1  0.37615479  0.75838422  0.43492463  1
  Ce3+  Ce23  1  0.75192240  0.38504332  0.55281099  1
  Ce3+  Ce24  1  0.37635644  0.00105351  0.94141221  1
  Ce3+  Ce25  1  0.87277346  0.74938425  0.94106125  1
  Pr3+  Pr26  1  0.12720814  0.01008266  0.44441298  1
  Pr3+  Pr27  1  0.12317601  0.25980919  0.44153967  1
  Pr3+  Pr28  1  0.24239152  0.37695143  0.07498449  1
  Pr3+  Pr29  1  0.24474665  0.88098535  0.56625387  1
  Pr3+  Pr30  1  0.74754010  0.63803063  0.54758811  1
  Pr3+  Pr31  1  0.87450554  0.50802543  0.42790635  1
  Pr3+  Pr32  1  0.12589209  0.51155047  0.43295524  1
  Pr3+  Pr33  1  0.62462790  0.25108877  0.44542530  1
  Pr3+  Pr34  1  0.00002078  0.12747788  0.06495750  1
  Pr3+  Pr35  1  0.25131809  0.11516947  0.09259149  1
  Pr3+  Pr36  1  0.87384727  0.49815058  0.94919853  1
  Pr3+  Pr37  1  0.75277985  0.86996422  0.07483848  1
  Pr3+  Pr38  1  0.74417225  0.38286652  0.07842510  1
  Nd3+  Nd39  1  0.61859277  0.76642780  0.41600223  1
  Nd3+  Nd40  1  0.87052684  0.76807712  0.40475600  1
  Nd3+  Nd41  1  0.37403598  0.24654355  0.94338230  1
  Nd3+  Nd42  1  0.49153632  0.37984793  0.06480711  1
  Nd3+  Nd43  1  0.11763398  0.49009825  0.92551092  1
  Nd3+  Nd44  1  0.75235253  0.62765991  0.07153781  1
  Nd3+  Nd45  1  0.12006644  0.74982618  0.92948613  1
  Nd3+  Nd46  1  0.00059867  0.37336701  0.06109989  1
  Nd3+  Nd47  1  0.74779575  0.12873130  0.07329233  1
  Nd3+  Nd48  1  0.37342950  0.49798510  0.93510652  1
  Nd3+  Nd49  1  0.74943875  0.88167025  0.55590033  1
  Nd3+  Nd50  1  0.50174026  0.12869317  0.06889313  1
  Nd3+  Nd51  1  0.37117174  0.50332246  0.44667156  1
  Sm3+  Sm52  1  0.62649428  0.25186465  0.94542742  1
  Sm3+  Sm53  1  0.50017717  0.87759622  0.56236823  1
  Sm3+  Sm54  1  0.62468926  0.74886821  0.94725088  1
  Sm3+  Sm55  1  0.87050057  0.00458030  0.94854754  1
  Sm3+  Sm56  1  0.12491290  0.75744095  0.43504500  1
  Sm3+  Sm57  1  -0.00202578  0.13749805  0.56985670  1
  Sm3+  Sm58  1  0.37198584  0.01666777  0.45106695  1
  Sm3+  Sm59  1  0.12146425  0.00559482  0.93656418  1
  Sm3+  Sm60  1  -0.00304752  0.63414394  0.54828725  1
  Sm3+  Sm61  1  0.62188318  0.00837081  0.44182392  1
  Sm3+  Sm62  1  -0.00133299  0.87489505  0.05471822  1
  Sm3+  Sm63  1  0.87447594  0.00760726  0.44126203  1
  Bi2+  Bi64  1  -0.06611747  0.13862150  0.28233312  1
  Bi2+  Bi65  1  -0.00771223  0.09286010  0.78405071  1
  Bi2+  Bi66  1  -0.04098425  0.34128757  0.28744275  1
  Bi2+  Bi67  1  -0.01631347  0.41219292  0.79004724  1
  Bi2+  Bi68  1  0.02629367  0.57210208  0.29519023  1
  Bi2+  Bi69  1  -0.04944778  0.64368326  0.72225386  1
  Bi2+  Bi70  1  0.04255667  0.88330143  0.30323975  1
  Bi2+  Bi71  1  -0.04556403  0.83925366  0.79628676  1
  Bi2+  Bi72  1  0.23697519  0.09099784  0.29797772  1
  Bi2+  Bi73  1  0.25311355  0.14483971  0.79440981  1
  Bi2+  Bi74  1  0.23718162  0.37267282  0.28931319  1
  Bi2+  Bi75  1  0.23171396  0.41139897  0.80217094  1
  Bi2+  Bi76  1  0.27254933  0.63071679  0.28933930  1
  Bi2+  Bi77  1  0.25201989  0.69951691  0.77872191  1
  Bi2+  Bi78  1  0.25452839  0.88336557  0.30418448  1
  Bi2+  Bi79  1  0.31436317  0.88903990  0.76960450  1
  Bi2+  Bi80  1  0.52647352  0.04193939  0.30014428  1
  Bi2+  Bi81  1  0.50222123  0.08881905  0.78641852  1
  Bi2+  Bi82  1  0.50504694  0.38979201  0.29555327  1
  Bi2+  Bi83  1  0.49890272  0.28194008  0.81194668  1
  Bi2+  Bi84  1  0.55083036  0.63438833  0.27494098  1
  Bi2+  Bi85  1  0.50785099  0.70707329  0.77455099  1
  Bi2+  Bi86  1  0.45537151  0.85940813  0.29237368  1
  Bi2+  Bi87  1  0.50649544  0.90239030  0.74289147  1
  Bi2+  Bi88  1  0.76418411  0.13007058  0.34478749  1
  Bi2+  Bi89  1  0.72994960  0.09827774  0.79443460  1
  Bi2+  Bi90  1  0.76110105  0.30322332  0.29351488  1
  Bi2+  Bi91  1  0.70495859  0.38618924  0.80654607  1
  Bi2+  Bi92  1  0.80964414  0.65492019  0.27290799  1
  Bi2+  Bi93  1  0.72073354  0.64031365  0.79236659  1
  Bi2+  Bi94  1  0.77362594  0.93374673  0.27679688  1
  Bi2+  Bi95  1  0.76032045  0.83389605  0.79533841  1
  Bi2+  Bi96  1  0.12169953  -0.02370622  0.21388736  1
  Bi2+  Bi97  1  0.12630123  -0.05280405  0.79570459  1
  Bi2+  Bi98  1  0.12073111  0.25357625  0.21276266  1
  Bi2+  Bi99  1  0.11980462  0.23871020  0.72092718  1
  Bi2+  Bi100  1  0.17936400  0.50761184  0.21095340  1
  Bi2+  Bi101  1  0.12604221  0.52242132  0.71371311  1
  Bi2+  Bi102  1  0.14837952  0.77804253  0.22510152  1
  Bi2+  Bi103  1  0.11620960  0.74353571  0.69857547  1
  Bi2+  Bi104  1  0.37288140  -0.02218859  0.21424988  1
  Bi2+  Bi105  1  0.23542458  0.02492094  0.70283538  1
  Bi2+  Bi106  1  0.41902691  0.27497128  0.18647589  1
  Bi2+  Bi107  1  0.37699103  0.26328486  0.71624408  1
  Bi2+  Bi108  1  0.39647066  0.54323370  0.21503527  1
  Bi2+  Bi109  1  0.49129338  0.47607996  0.78151500  1
  Bi2+  Bi110  1  0.34177238  0.74402937  0.20596150  1
  Bi2+  Bi111  1  0.37608295  0.65760487  0.69306444  1
  Bi2+  Bi112  1  0.64117105  -0.02837859  0.19191219  1
  Bi2+  Bi113  1  0.66629748  -0.01770355  0.69245251  1
  Bi2+  Bi114  1  0.64333926  0.16774088  0.24778662  1
  Bi2+  Bi115  1  0.62697938  0.27253252  0.71929931  1
  Bi2+  Bi116  1  0.65881890  0.44187321  0.21557257  1
  Bi2+  Bi117  1  0.58926554  0.46455798  0.68393078  1
  Bi2+  Bi118  1  0.62389332  0.78800811  0.21640592  1
  Bi2+  Bi119  1  0.63443962  0.67807739  0.68448920  1
  Bi2+  Bi120  1  0.84885612  0.04875055  0.18639057  1
  Bi2+  Bi121  1  0.86160500  -0.00924503  0.72280662  1
  Bi2+  Bi122  1  0.93539783  0.23432607  0.17695800  1
  Bi2+  Bi123  1  0.83058675  0.25631138  0.71022227  1
  Bi2+  Bi124  1  0.90244023  0.44410577  0.19341799  1
  Bi2+  Bi125  1  0.78955073  0.49340409  0.72182793  1
  Bi2+  Bi126  1  0.88254538  0.85940472  0.19125859  1
  Bi2+  Bi127  1  0.89510081  0.81194431  0.67613959  1
  S2-  S128  1  0.09949412  0.11034623  0.15070946  1
  S2-  S129  1  -0.12255288  0.14650383  0.64575507  1
  S2-  S130  1  0.10055625  0.40047584  0.14417506  1
  S2-  S131  1  0.03375402  0.36654220  0.68824850  1
  S2-  S132  1  -0.03508373  0.59429996  0.19444619  1
  S2-  S133  1  0.00264875  0.56166673  0.63817343  1
  S2-  S134  1  0.02100468  0.79871860  0.14256584  1
  S2-  S135  1  0.05664044  0.87909740  0.65015842  1
  S2-  S136  1  0.25374350  0.25633776  0.15557981  1
  S2-  S137  1  0.10382331  0.11574392  0.65014750  1
  S2-  S138  1  0.37409273  0.42123813  0.14205163  1
  S2-  S139  1  0.23630890  0.28731951  0.65795302  1
  S2-  S140  1  0.18264751  0.62227926  0.13529272  1
  S2-  S141  1  0.24495756  0.51847786  0.65003399  1
  S2-  S142  1  0.25010654  0.94525383  0.14138439  1
  S2-  S143  1  0.26449656  0.76720459  0.64348993  1
  S2-  S144  1  0.40360146  0.10869545  0.15264617  1
  S2-  S145  1  0.37353888  0.12692949  0.66216984  1
  S2-  S146  1  0.57309213  0.34938744  0.15416169  1
  S2-  S147  1  0.43950199  0.39461231  0.65632461  1
  S2-  S148  1  0.55845402  0.57185328  0.17370338  1
  S2-  S149  1  0.49389901  0.74916996  0.63454219  1
  S2-  S150  1  0.48690255  0.77494725  0.14943516  1
  S2-  S151  1  0.50949958  0.96862070  0.64808091  1
  S2-  S152  1  0.62464248  0.12905795  0.14639537  1
  S2-  S153  1  0.64185869  0.14174069  0.65049423  1
  S2-  S154  1  0.78263375  0.30982860  0.16970918  1
  S2-  S155  1  0.83333762  0.38357310  0.64060872  1
  S2-  S156  1  0.76300114  0.51943840  0.15165161  1
  S2-  S157  1  0.77413970  0.60731839  0.64599602  1
  S2-  S158  1  0.75544832  0.74745719  0.14939690  1
  S2-  S159  1  0.71710763  0.82580855  0.64903486  1
  S2-  S160  1  0.10363748  0.03631652  0.34492853  1
  S2-  S161  1  0.11327149  0.11465429  0.85952049  1
  S2-  S162  1  0.21702297  0.24045564  0.35420915  1
  S2-  S163  1  0.09551233  0.35225440  0.85552218  1
  S2-  S164  1  0.10838014  0.43617797  0.33949844  1
  S2-  S165  1  0.11539777  0.53490966  0.82341022  1
  S2-  S166  1  0.14365254  0.64522019  0.35844875  1
  S2-  S167  1  0.11307592  0.77231474  0.83098965  1
  S2-  S168  1  0.38114596  0.08535320  0.35998023  1
  S2-  S169  1  0.37165037  0.04608008  0.84713027  1
  S2-  S170  1  0.38464130  0.26446155  0.27926805  1
  S2-  S171  1  0.28615072  0.27330203  0.85829380  1
  S2-  S172  1  0.36967470  0.43510697  0.35397004  1
  S2-  S173  1  0.35354159  0.51447008  0.83526903  1
  S2-  S174  1  0.47873182  0.72633680  0.35489223  1
  S2-  S175  1  0.37931158  0.76801477  0.84261911  1
  S2-  S176  1  0.60788082  -0.07909207  0.35568233  1
  S2-  S177  1  0.62167644  0.00917831  0.84912269  1
  S2-  S178  1  0.54942393  0.27287990  0.35536061  1
  S2-  S179  1  0.71104143  0.23820640  0.85946612  1
  S2-  S180  1  0.62266924  0.51550989  0.33052310  1
  S2-  S181  1  0.62005741  0.52370238  0.85192770  1
  S2-  S182  1  0.73422670  0.73961146  0.33878204  1
  S2-  S183  1  0.62680901  0.76946093  0.84894978  1
  S2-  S184  1  0.88499066  -0.07797169  0.35287628  1
  S2-  S185  1  0.86699128  0.07578272  0.85917255  1
  S2-  S186  1  0.99534669  0.23638143  0.36425269  1
  S2-  S187  1  0.92588865  0.25615001  0.80048557  1
  S2-  S188  1  0.86291477  0.52661762  0.32603286  1
  S2-  S189  1  0.85900722  0.42576938  0.85705350  1
  S2-  S190  1  0.94804760  0.72158145  0.31552164  1
  S2-  S191  1  0.86231411  0.70616320  0.84501639  1
  S2-  S192  1  -0.00240006  0.12626211  0.46432315  1
  S2-  S193  1  -0.00846544  0.12749622  0.95914164  1
  S2-  S194  1  -0.00408659  0.38761557  0.45419125  1
  S2-  S195  1  -0.00951015  0.36490460  0.95673453  1
  S2-  S196  1  -0.00830670  0.64139277  0.44490710  1
  S2-  S197  1  -0.00075202  0.62329193  0.93846867  1
  S2-  S198  1  0.00132788  0.87941785  0.45108243  1
  S2-  S199  1  -0.00363102  0.88073918  0.94818496  1
  S2-  S200  1  0.24750310  0.13419943  0.46734635  1
  S2-  S201  1  0.25231021  0.11935192  0.95855952  1
  S2-  S202  1  0.24788356  0.38332411  0.46090119  1
  S2-  S203  1  0.25053616  0.37975131  0.96181620  1
  S2-  S204  1  0.25401915  0.63569499  0.45849986  1
  S2-  S205  1  0.24527632  0.62416214  0.93839485  1
  S2-  S206  1  0.24969617  0.88178635  0.45384126  1
  S2-  S207  1  0.24488284  0.87850979  0.94322324  1
  S2-  S208  1  0.50119582  0.12956750  0.46433275  1
  S2-  S209  1  0.50283973  0.12698544  0.95807855  1
  S2-  S210  1  0.49520841  0.37810417  0.45817091  1
  S2-  S211  1  0.49816876  0.37406621  0.95461385  1
  S2-  S212  1  0.49791952  0.62901286  0.45361342  1
  S2-  S213  1  0.49822660  0.62771924  0.95447200  1
  S2-  S214  1  0.49293787  0.88858649  0.45645814  1
  S2-  S215  1  0.50157900  0.87452473  0.95671331  1
  S2-  S216  1  0.75163863  0.12801295  0.46379100  1
  S2-  S217  1  0.74960297  0.12827775  0.96617512  1
  S2-  S218  1  0.74944091  0.38080544  0.44426582  1
  S2-  S219  1  0.74683064  0.37512678  0.96653477  1
  S2-  S220  1  0.74663304  0.63459857  0.44121041  1
  S2-  S221  1  0.74809421  0.62630788  0.96056006  1
  S2-  S222  1  0.74993659  0.88502407  0.44987863  1
  S2-  S223  1  0.75000368  0.87437623  0.96041687  1
  S2-  S224  1  0.12006110  -0.00104322  0.04045488  1
  S2-  S225  1  0.12322997  0.00606918  0.54907143  1
  S2-  S226  1  0.12603107  0.24713737  0.04523788  1
  S2-  S227  1  0.11196901  0.26840985  0.55224279  1
  S2-  S228  1  0.11576892  0.50523099  0.03398793  1
  S2-  S229  1  0.12167676  0.51131269  0.54041500  1
  S2-  S230  1  0.12023791  0.75149651  0.03494148  1
  S2-  S231  1  0.12123347  0.75603659  0.53874593  1
  S2-  S232  1  0.37423085  0.00104751  0.04500441  1
  S2-  S233  1  0.36983650  0.00264694  0.55340353  1
  S2-  S234  1  0.37377396  0.24832348  0.04813204  1
  S2-  S235  1  0.38080940  0.25862135  0.55911306  1
  S2-  S236  1  0.37372175  0.51022044  0.04059441  1
  S2-  S237  1  0.38023820  0.51369119  0.55079617  1
  S2-  S238  1  0.36766165  0.75105451  0.04476562  1
  S2-  S239  1  0.37255246  0.76003916  0.53768854  1
  S2-  S240  1  0.62797648  -0.00419152  0.05092628  1
  S2-  S241  1  0.62693181  0.00483133  0.54492950  1
  S2-  S242  1  0.62441554  0.25468397  0.04747913  1
  S2-  S243  1  0.62787371  0.26168308  0.55128747  1
  S2-  S244  1  0.61830127  0.50715157  0.05320389  1
  S2-  S245  1  0.62490621  0.50893145  0.54130859  1
  S2-  S246  1  0.62184529  0.74913157  0.05046315  1
  S2-  S247  1  0.62359668  0.76189723  0.52923432  1
  S2-  S248  1  0.87326815  -0.00167259  0.05251531  1
  S2-  S249  1  0.87573944  0.00530750  0.54739780  1
  S2-  S250  1  0.87127534  0.25171398  0.05705620  1
  S2-  S251  1  0.87725187  0.26205984  0.54149320  1
  S2-  S252  1  0.88704829  0.50940629  0.05476226  1
  S2-  S253  1  0.87265987  0.51214402  0.53475898  1
  S2-  S254  1  0.88201343  0.74598068  0.04619368  1
  S2-  S255  1  0.87531757  0.75818086  0.54130611  1
