# generated using pymatgen
data_La12Ce14Pr13Nd13Sm12(BiS2)64
_symmetry_space_group_name_H-M   'P 1'
_cell_length_a   16.15398173
_cell_length_b   16.10448877
_cell_length_c   27.41884123
_cell_angle_alpha   90.19533967
_cell_angle_beta   90.01389206
_cell_angle_gamma   89.88129939
_symmetry_Int_Tables_number   1
_chemical_formula_structural   La12Ce14Pr13Nd13Sm12(BiS2)64
_chemical_formula_sum   'La12 Ce14 Pr13 Nd13 Sm12 Bi64 S128'
_cell_volume   7132.99893138
_cell_formula_units_Z   1
loop_
 _symmetry_equiv_pos_site_id
 _symmetry_equiv_pos_as_xyz
  1  'x, y, z'
loop_
 _atom_type_symbol
 _atom_type_oxidation_number
  La3+  3.0
  Ce3+  3.0
  Pr3+  3.0
  Nd3+  3.0
  Sm3+  3.0
  Bi2+  2.0
  S2-  -2.0
loop_
 _atom_site_type_symbol
 _atom_site_label
 _atom_site_symmetry_multiplicity
 _atom_site_fract_x
 _atom_site_fract_y
 _atom_site_fract_z
 _atom_site_occupancy
  La3+  La0  1  0.25968692  0.87481487  0.08026579  1
  La3+  La1  1  0.49957231  0.89619857  0.56969127  1
  La3+  La2  1  0.63220791  0.76009227  0.44155003  1
  La3+  La3  1  0.75946419  0.36691900  0.11310231  1
  La3+  La4  1  0.12762445  0.25529517  0.92456059  1
  La3+  La5  1  0.87748480  0.51053762  0.43024714  1
  La3+  La6  1  0.60338401  0.50199684  0.38854223  1
  La3+  La7  1  0.61875838  0.74175721  0.88527305  1
  La3+  La8  1  0.38024775  0.00550544  0.41917300  1
  La3+  La9  1  0.12849145  0.50477449  0.42429522  1
  La3+  La10  1  0.12584236  0.50817167  0.92770508  1
  La3+  La11  1  0.76218756  0.89362845  0.58824335  1
  Ce3+  Ce12  1  0.25542509  0.13598607  0.55651719  1
  Ce3+  Ce13  1  0.50507791  0.63762090  0.56098643  1
  Ce3+  Ce14  1  0.37813362  0.75645892  0.93901129  1
  Ce3+  Ce15  1  0.50357521  0.13340305  0.54885145  1
  Ce3+  Ce16  1  0.88012488  0.26063733  0.44800067  1
  Ce3+  Ce17  1  0.63264650  0.00567293  0.42597153  1
  Ce3+  Ce18  1  0.37769377  0.25282090  0.94068923  1
  Ce3+  Ce19  1  0.00469621  0.13073326  0.05911802  1
  Ce3+  Ce20  1  0.00768797  0.63830029  0.55311069  1
  Ce3+  Ce21  1  0.50270577  0.87756735  0.06046620  1
  Ce3+  Ce22  1  0.50054967  0.37861819  0.06456485  1
  Ce3+  Ce23  1  0.00283409  0.38071845  0.05995268  1
  Ce3+  Ce24  1  0.50377656  0.12925699  0.05787301  1
  Ce3+  Ce25  1  0.37529131  0.50854904  0.45129931  1
  Pr3+  Pr26  1  0.62633328  0.25346617  0.93408946  1
  Pr3+  Pr27  1  0.75607962  0.63671434  0.56397372  1
  Pr3+  Pr28  1  0.37850872  0.26450558  0.44124860  1
  Pr3+  Pr29  1  0.87843758  0.01222646  0.43383814  1
  Pr3+  Pr30  1  0.38021958  0.75640525  0.43748787  1
  Pr3+  Pr31  1  0.50637158  0.62802236  0.05353346  1
  Pr3+  Pr32  1  0.24340516  0.39298319  0.58188744  1
  Pr3+  Pr33  1  0.37806379  0.50281217  0.93981389  1
  Pr3+  Pr34  1  0.50374597  0.38804190  0.56799411  1
  Pr3+  Pr35  1  0.87165422  0.50701267  0.94538819  1
  Pr3+  Pr36  1  0.12628238  0.75717293  0.93555549  1
  Pr3+  Pr37  1  0.75256860  0.13001086  0.05716799  1
  Pr3+  Pr38  1  0.75571508  0.87614939  0.07176377  1
  Nd3+  Nd39  1  0.62810093  -0.00375421  0.94115560  1
  Nd3+  Nd40  1  0.00387439  0.87880012  0.06258045  1
  Nd3+  Nd41  1  0.86947742  0.76067440  0.93555583  1
  Nd3+  Nd42  1  0.37654248  -0.00051870  0.94139694  1
  Nd3+  Nd43  1  0.87732367  0.00209423  0.94053333  1
  Nd3+  Nd44  1  0.75425454  0.13505020  0.56018628  1
  Nd3+  Nd45  1  0.00838492  0.13383004  0.55836936  1
  Nd3+  Nd46  1  0.75325122  0.38928060  0.56072270  1
  Nd3+  Nd47  1  0.62841103  0.49934875  0.93489436  1
  Nd3+  Nd48  1  0.01025951  0.88564592  0.55759637  1
  Nd3+  Nd49  1  0.87748965  0.25401767  0.94242937  1
  Nd3+  Nd50  1  0.75201391  0.63012689  0.06491791  1
  Nd3+  Nd51  1  0.87804196  0.76383944  0.44194701  1
  Sm3+  Sm52  1  0.12974442  0.25972209  0.44416870  1
  Sm3+  Sm53  1  0.12876729  0.00204028  0.93689331  1
  Sm3+  Sm54  1  0.62935357  0.26530187  0.44345887  1
  Sm3+  Sm55  1  0.25163394  0.12755444  0.05451928  1
  Sm3+  Sm56  1  0.00484187  0.38994003  0.56044873  1
  Sm3+  Sm57  1  0.13302362  0.00608133  0.42292087  1
  Sm3+  Sm58  1  0.12909287  0.76407940  0.42984569  1
  Sm3+  Sm59  1  0.25484412  0.37876401  0.06150368  1
  Sm3+  Sm60  1  0.00231035  0.62927297  0.05714217  1
  Sm3+  Sm61  1  0.25043233  0.63611217  0.56143825  1
  Sm3+  Sm62  1  0.25588485  0.88768373  0.55509271  1
  Sm3+  Sm63  1  0.25182739  0.62982807  0.05663508  1
  Bi2+  Bi64  1  -0.01319498  0.08850672  0.31903835  1
  Bi2+  Bi65  1  0.03084361  0.06332843  0.77986325  1
  Bi2+  Bi66  1  0.00973669  0.37501352  0.28945690  1
  Bi2+  Bi67  1  0.02120376  0.28795821  0.78662487  1
  Bi2+  Bi68  1  0.02827740  0.62819660  0.27697406  1
  Bi2+  Bi69  1  -0.00176998  0.62219646  0.78718931  1
  Bi2+  Bi70  1  -0.00788360  0.90863332  0.27619736  1
  Bi2+  Bi71  1  0.00586478  0.86696305  0.78977961  1
  Bi2+  Bi72  1  0.16613039  0.17157550  0.30027084  1
  Bi2+  Bi73  1  0.24856948  0.07198344  0.78909165  1
  Bi2+  Bi74  1  0.24927221  0.45654171  0.31330361  1
  Bi2+  Bi75  1  0.24647240  0.39079879  0.78810610  1
  Bi2+  Bi76  1  0.20092816  0.65482384  0.32767051  1
  Bi2+  Bi77  1  0.19850341  0.67155667  0.76344638  1
  Bi2+  Bi78  1  0.25101723  0.89518449  0.29312382  1
  Bi2+  Bi79  1  0.25529908  0.86861223  0.79082786  1
  Bi2+  Bi80  1  0.47390982  0.13055398  0.27780797  1
  Bi2+  Bi81  1  0.57286777  0.14953512  0.81732998  1
  Bi2+  Bi82  1  0.41737979  0.35199108  0.28162702  1
  Bi2+  Bi83  1  0.49836125  0.35122086  0.78777917  1
  Bi2+  Bi84  1  0.38967541  0.63559962  0.30322114  1
  Bi2+  Bi85  1  0.39018098  0.61774078  0.77453814  1
  Bi2+  Bi86  1  0.52628493  0.87674666  0.28995130  1
  Bi2+  Bi87  1  0.49617149  0.88409479  0.79087537  1
  Bi2+  Bi88  1  0.69115426  0.13729937  0.29192449  1
  Bi2+  Bi89  1  0.75770502  0.11298633  0.78888326  1
  Bi2+  Bi90  1  0.75336684  0.35060242  0.31246028  1
  Bi2+  Bi91  1  0.73194275  0.37555048  0.78165747  1
  Bi2+  Bi92  1  0.72268918  0.64454648  0.29389365  1
  Bi2+  Bi93  1  0.76648047  0.59056446  0.79167164  1
  Bi2+  Bi94  1  0.78835549  0.88602693  0.29839369  1
  Bi2+  Bi95  1  0.75880099  0.86138643  0.78434241  1
  Bi2+  Bi96  1  0.08908229  0.05368090  0.22064742  1
  Bi2+  Bi97  1  0.13269613  -0.05748316  0.70796745  1
  Bi2+  Bi98  1  0.11313028  0.28439235  0.20786940  1
  Bi2+  Bi99  1  0.14413083  0.22606834  0.69358485  1
  Bi2+  Bi100  1  0.14175328  0.47847152  0.21478197  1
  Bi2+  Bi101  1  0.10599290  0.50626743  0.70513970  1
  Bi2+  Bi102  1  0.16801754  0.75453458  0.22627025  1
  Bi2+  Bi103  1  0.15101140  0.77195634  0.65115911  1
  Bi2+  Bi104  1  0.35072387  0.00427818  0.19876912  1
  Bi2+  Bi105  1  0.36484488  0.02726399  0.69896607  1
  Bi2+  Bi106  1  0.30579433  0.25702637  0.20804755  1
  Bi2+  Bi107  1  0.40204360  0.19143409  0.76184199  1
  Bi2+  Bi108  1  0.33966750  0.49409066  0.21300916  1
  Bi2+  Bi109  1  0.36036124  0.45288592  0.70762427  1
  Bi2+  Bi110  1  0.38386818  0.73729591  0.20927058  1
  Bi2+  Bi111  1  0.34063562  0.75995264  0.70297363  1
  Bi2+  Bi112  1  0.63484906  -0.02123846  0.21024996  1
  Bi2+  Bi113  1  0.61227441  0.01245737  0.71059187  1
  Bi2+  Bi114  1  0.59925502  0.21018459  0.20189058  1
  Bi2+  Bi115  1  0.64430238  0.22888535  0.71873542  1
  Bi2+  Bi116  1  0.59048163  0.52135618  0.18917640  1
  Bi2+  Bi117  1  0.62291183  0.48372667  0.68925379  1
  Bi2+  Bi118  1  0.64872503  0.78309873  0.21626800  1
  Bi2+  Bi119  1  0.63775075  0.72092056  0.68516225  1
  Bi2+  Bi120  1  0.82530246  -0.02544365  0.19131448  1
  Bi2+  Bi121  1  0.88585567  0.03032217  0.70465985  1
  Bi2+  Bi122  1  0.86090740  0.14944199  0.23410924  1
  Bi2+  Bi123  1  0.86106334  0.25133718  0.72883127  1
  Bi2+  Bi124  1  0.88319425  0.49843536  0.20901875  1
  Bi2+  Bi125  1  0.90030677  0.45610221  0.74398260  1
  Bi2+  Bi126  1  0.90706215  0.74188128  0.20871943  1
  Bi2+  Bi127  1  0.96811556  0.74932942  0.69925742  1
  S2-  S128  1  -0.02675728  0.11358128  0.15424277  1
  S2-  S129  1  -0.00633156  0.14596101  0.65640522  1
  S2-  S130  1  -0.06777293  0.37635044  0.14798130  1
  S2-  S131  1  0.08403288  0.37481899  0.64712289  1
  S2-  S132  1  -0.01547803  0.61991197  0.15500388  1
  S2-  S133  1  -0.01185514  0.60072529  0.64750278  1
  S2-  S134  1  -0.01940547  0.86182120  0.16116262  1
  S2-  S135  1  -0.07126180  0.90873117  0.64393089  1
  S2-  S136  1  0.25525901  0.12011169  0.15212765  1
  S2-  S137  1  0.21986303  0.08879341  0.64817720  1
  S2-  S138  1  0.36708680  0.37676379  0.13714107  1
  S2-  S139  1  0.27854278  0.30052015  0.66733334  1
  S2-  S140  1  0.25175650  0.67993268  0.15057464  1
  S2-  S141  1  0.24113136  0.53884656  0.64401218  1
  S2-  S142  1  0.20942005  0.90883525  0.17606862  1
  S2-  S143  1  0.35807935  0.89549175  0.63612230  1
  S2-  S144  1  0.47946539  0.10287844  0.15352839  1
  S2-  S145  1  0.49832819  0.07427100  0.63962173  1
  S2-  S146  1  0.58780524  0.36254345  0.14878777  1
  S2-  S147  1  0.49011982  0.36750813  0.66807540  1
  S2-  S148  1  0.49248353  0.64898639  0.15395465  1
  S2-  S149  1  0.50736029  0.60340197  0.65701262  1
  S2-  S150  1  0.40986283  0.87306648  0.14366444  1
  S2-  S151  1  0.57675638  0.87600322  0.66082782  1
  S2-  S152  1  0.74411136  0.19815941  0.14879081  1
  S2-  S153  1  0.74505692  0.04301948  0.64432697  1
  S2-  S154  1  0.77052741  0.37586934  0.22116564  1
  S2-  S155  1  0.71714331  0.34991248  0.65501824  1
  S2-  S156  1  0.74809233  0.53639343  0.14992040  1
  S2-  S157  1  0.74441082  0.58171486  0.66163537  1
  S2-  S158  1  0.76615960  0.75139017  0.14589936  1
  S2-  S159  1  0.76940630  0.81010275  0.68245777  1
  S2-  S160  1  0.25148632  0.02983972  0.34802664  1
  S2-  S161  1  0.13242103  -0.11746931  0.86232131  1
  S2-  S162  1  0.14244805  0.33254061  0.35617367  1
  S2-  S163  1  0.12624666  0.11481874  0.85847801  1
  S2-  S164  1  -0.00040018  0.51059950  0.35158692  1
  S2-  S165  1  0.11993259  0.38553029  0.85482168  1
  S2-  S166  1  0.10894137  0.87546707  0.35297612  1
  S2-  S167  1  0.12249839  0.63860438  0.85770760  1
  S2-  S168  1  0.51010824  0.02328261  0.34929408  1
  S2-  S169  1  0.38325525  -0.01602266  0.84189680  1
  S2-  S170  1  0.37699879  0.22415107  0.34279757  1
  S2-  S171  1  0.32901395  0.27196729  0.84777946  1
  S2-  S172  1  0.42967568  0.49387882  0.35841752  1
  S2-  S173  1  0.32926733  0.51145399  0.84343073  1
  S2-  S174  1  0.38276731  0.84791164  0.35065286  1
  S2-  S175  1  0.44557373  0.75089465  0.84902841  1
  S2-  S176  1  0.64431611  -0.13084284  0.35844502  1
  S2-  S177  1  0.63457887  -0.08516499  0.85231979  1
  S2-  S178  1  0.60182925  0.32829142  0.35450634  1
  S2-  S179  1  0.61191131  0.37112192  0.85698956  1
  S2-  S180  1  0.61149745  0.51068360  0.27986028  1
  S2-  S181  1  0.63421131  0.58012441  0.84515617  1
  S2-  S182  1  0.60161805  0.66947765  0.35443246  1
  S2-  S183  1  0.61302941  0.76163031  0.77723862  1
  S2-  S184  1  0.76658773  0.03349760  0.35627481  1
  S2-  S185  1  0.87388793  -0.07469297  0.85182754  1
  S2-  S186  1  0.89920348  0.29377027  0.35370029  1
  S2-  S187  1  0.89322278  0.23762414  0.84366736  1
  S2-  S188  1  0.77225282  0.51210106  0.34973234  1
  S2-  S189  1  0.89865080  0.50949617  0.84600682  1
  S2-  S190  1  0.85076146  0.74628978  0.34322694  1
  S2-  S191  1  0.78976866  0.73490368  0.84709252  1
  S2-  S192  1  0.00931571  0.13427284  0.45167014  1
  S2-  S193  1  0.00158978  0.12686974  0.95463162  1
  S2-  S194  1  0.00522908  0.38307682  0.45837618  1
  S2-  S195  1  -0.00020672  0.37976017  0.95486672  1
  S2-  S196  1  0.00727124  0.64167265  0.44777823  1
  S2-  S197  1  -0.00350551  0.63424547  0.95425994  1
  S2-  S198  1  0.00439945  0.88790644  0.45280426  1
  S2-  S199  1  0.00061098  0.88006357  0.95858573  1
  S2-  S200  1  0.25098051  0.13754856  0.45148301  1
  S2-  S201  1  0.25406478  0.12699931  0.95229643  1
  S2-  S202  1  0.25158779  0.38461793  0.46246751  1
  S2-  S203  1  0.25241950  0.37906377  0.95827535  1
  S2-  S204  1  0.25085829  0.63458712  0.45568080  1
  S2-  S205  1  0.25445369  0.63140539  0.95392797  1
  S2-  S206  1  0.25160874  0.88300231  0.45240996  1
  S2-  S207  1  0.25362639  0.87939101  0.96325888  1
  S2-  S208  1  0.50735108  0.14169922  0.44695958  1
  S2-  S209  1  0.50177890  0.12419102  0.95102241  1
  S2-  S210  1  0.50425466  0.38701576  0.46155967  1
  S2-  S211  1  0.49765101  0.37663908  0.95718937  1
  S2-  S212  1  0.50209585  0.62993023  0.45763519  1
  S2-  S213  1  0.50271430  0.62883058  0.94834213  1
  S2-  S214  1  0.50124509  0.88378523  0.45899316  1
  S2-  S215  1  0.50267163  0.87715119  0.95550286  1
  S2-  S216  1  0.75319402  0.14186086  0.45623316  1
  S2-  S217  1  0.75156467  0.12641608  0.94916930  1
  S2-  S218  1  0.75362358  0.38403183  0.45644089  1
  S2-  S219  1  0.75514865  0.37576195  0.94721259  1
  S2-  S220  1  0.75971225  0.63839699  0.45833721  1
  S2-  S221  1  0.74785554  0.63302561  0.95723751  1
  S2-  S222  1  0.76073379  0.88794296  0.46189695  1
  S2-  S223  1  0.75429781  0.88229194  0.96436146  1
  S2-  S224  1  0.12897097  0.00294690  0.04885675  1
  S2-  S225  1  0.13116304  0.00852366  0.53770759  1
  S2-  S226  1  0.13079622  0.25529508  0.04509229  1
  S2-  S227  1  0.12881861  0.26147459  0.54663235  1
  S2-  S228  1  0.13028764  0.50522205  0.04561395  1
  S2-  S229  1  0.12556589  0.51181614  0.53821132  1
  S2-  S230  1  0.12673632  0.75343671  0.04813172  1
  S2-  S231  1  0.13250501  0.76190386  0.53388521  1
  S2-  S232  1  0.37667210  0.00611016  0.04606642  1
  S2-  S233  1  0.37402041  0.01443711  0.53225680  1
  S2-  S234  1  0.37472456  0.24926770  0.04448287  1
  S2-  S235  1  0.37829218  0.26257833  0.54886195  1
  S2-  S236  1  0.37351373  0.50819186  0.04512486  1
  S2-  S237  1  0.37725692  0.51241396  0.55404064  1
  S2-  S238  1  0.37703285  0.74993435  0.04354473  1
  S2-  S239  1  0.37491256  0.75618351  0.54407718  1
  S2-  S240  1  0.62919998  0.00186767  0.04948868  1
  S2-  S241  1  0.63149974  0.01242472  0.53919239  1
  S2-  S242  1  0.62588485  0.25148721  0.04013577  1
  S2-  S243  1  0.62834984  0.25964331  0.54912671  1
  S2-  S244  1  0.62722886  0.50091388  0.04261968  1
  S2-  S245  1  0.62951683  0.51067289  0.55359756  1
  S2-  S246  1  0.62556798  0.75713883  0.05357925  1
  S2-  S247  1  0.63202646  0.76480475  0.55280116  1
  S2-  S248  1  0.87892458  0.00415271  0.04752916  1
  S2-  S249  1  0.88309999  0.01536178  0.54033346  1
  S2-  S250  1  0.87728284  0.25479669  0.04700094  1
  S2-  S251  1  0.88195601  0.26235803  0.55465529  1
  S2-  S252  1  0.87990041  0.50609106  0.04895757  1
  S2-  S253  1  0.88057069  0.50869036  0.54409646  1
  S2-  S254  1  0.88280037  0.75367194  0.04349903  1
  S2-  S255  1  0.88131728  0.76295116  0.54884922  1
