# generated using pymatgen
data_La12Ce14Pr13Nd13Sm12(BiS2)64
_symmetry_space_group_name_H-M   'P 1'
_cell_length_a   16.12004051
_cell_length_b   16.12202693
_cell_length_c   27.23013678
_cell_angle_alpha   90.04870966
_cell_angle_beta   90.45110087
_cell_angle_gamma   89.96591694
_symmetry_Int_Tables_number   1
_chemical_formula_structural   La12Ce14Pr13Nd13Sm12(BiS2)64
_chemical_formula_sum   'La12 Ce14 Pr13 Nd13 Sm12 Bi64 S128'
_cell_volume   7076.55524683
_cell_formula_units_Z   1
loop_
 _symmetry_equiv_pos_site_id
 _symmetry_equiv_pos_as_xyz
  1  'x, y, z'
loop_
 _atom_type_symbol
 _atom_type_oxidation_number
  La3+  3.0
  Ce3+  3.0
  Pr3+  3.0
  Nd3+  3.0
  Sm3+  3.0
  Bi2+  2.0
  S2-  -2.0
loop_
 _atom_site_type_symbol
 _atom_site_label
 _atom_site_symmetry_multiplicity
 _atom_site_fract_x
 _atom_site_fract_y
 _atom_site_fract_z
 _atom_site_occupancy
  La3+  La0  1  0.51248996  0.38490440  0.57591696  1
  La3+  La1  1  0.85839538  -0.00700553  0.91949437  1
  La3+  La2  1  0.50567312  0.62099498  0.09990286  1
  La3+  La3  1  0.85596441  0.25143104  0.90092310  1
  La3+  La4  1  0.62568790  0.02561024  0.41617678  1
  La3+  La5  1  0.01306748  0.39960935  0.58921806  1
  La3+  La6  1  0.37102087  -0.00930492  0.93231014  1
  La3+  La7  1  0.26641537  0.64899752  0.55614977  1
  La3+  La8  1  0.76023693  0.12702517  0.08616219  1
  La3+  La9  1  0.49574520  0.87957154  0.08125152  1
  La3+  La10  1  0.51488404  0.85931880  0.61542207  1
  La3+  La11  1  0.88766705  0.02006819  0.41609275  1
  Ce3+  Ce12  1  0.12755357  0.76941598  0.43645045  1
  Ce3+  Ce13  1  0.37132469  0.50197970  0.93902057  1
  Ce3+  Ce14  1  0.12815427  0.26938792  0.45017221  1
  Ce3+  Ce15  1  0.49604701  0.12400917  0.06805066  1
  Ce3+  Ce16  1  0.51144482  0.13632588  0.56194355  1
  Ce3+  Ce17  1  0.74914157  0.37150629  0.06304590  1
  Ce3+  Ce18  1  0.76058105  0.14290548  0.55045853  1
  Ce3+  Ce19  1  0.76391676  0.39057593  0.56145214  1
  Ce3+  Ce20  1  0.63385834  0.77025787  0.43707479  1
  Ce3+  Ce21  1  0.37188534  0.25047150  0.94450697  1
  Ce3+  Ce22  1  0.00960897  0.89466848  0.56324451  1
  Ce3+  Ce23  1  0.24547937  0.11852595  0.05449616  1
  Ce3+  Ce24  1  0.75793134  0.64231917  0.55665543  1
  Ce3+  Ce25  1  0.38318742  0.51307046  0.43999338  1
  Pr3+  Pr26  1  0.88492035  0.51394297  0.43643751  1
  Pr3+  Pr27  1  0.38433723  0.76799085  0.42628720  1
  Pr3+  Pr28  1  0.24287666  0.87384427  0.08114273  1
  Pr3+  Pr29  1  0.13061847  0.51751393  0.44274631  1
  Pr3+  Pr30  1  0.62900387  0.27047077  0.43163112  1
  Pr3+  Pr31  1  0.25985598  0.39449988  0.56817621  1
  Pr3+  Pr32  1  0.37974453  0.02153960  0.43137156  1
  Pr3+  Pr33  1  0.75257717  0.62612482  0.06941976  1
  Pr3+  Pr34  1  0.75451897  0.90003800  0.55148590  1
  Pr3+  Pr35  1  0.89158476  0.26702339  0.43173405  1
  Pr3+  Pr36  1  0.61538426  0.00397816  0.93967219  1
  Pr3+  Pr37  1  0.00669814  0.13549600  0.57503581  1
  Pr3+  Pr38  1  0.11538316  -0.00631407  0.93412336  1
  Nd3+  Nd39  1  0.61591953  0.74786652  0.94908619  1
  Nd3+  Nd40  1  0.86595146  0.49937463  0.93629731  1
  Nd3+  Nd41  1  -0.00786453  0.12679745  0.04615435  1
  Nd3+  Nd42  1  -0.00295608  0.37306992  0.05114305  1
  Nd3+  Nd43  1  0.11729014  0.24779130  0.93129395  1
  Nd3+  Nd44  1  0.12109745  0.50217290  0.93286944  1
  Nd3+  Nd45  1  0.63287035  0.51064355  0.43967082  1
  Nd3+  Nd46  1  0.25026285  0.62025631  0.09278881  1
  Nd3+  Nd47  1  -0.00987702  0.87643476  0.06205919  1
  Nd3+  Nd48  1  0.49592052  0.37479198  0.06573396  1
  Nd3+  Nd49  1  0.86568253  0.74763294  0.93367025  1
  Nd3+  Nd50  1  0.01076189  0.64751189  0.56408349  1
  Nd3+  Nd51  1  0.13128557  0.02002969  0.43984818  1
  Sm3+  Sm52  1  0.62204784  0.24989196  0.94712087  1
  Sm3+  Sm53  1  0.12076112  0.75068206  0.94747268  1
  Sm3+  Sm54  1  -0.00326219  0.62385729  0.05032867  1
  Sm3+  Sm55  1  0.88082224  0.76802158  0.44722128  1
  Sm3+  Sm56  1  0.25960007  0.14086387  0.55902545  1
  Sm3+  Sm57  1  0.74539247  0.87728215  0.05801124  1
  Sm3+  Sm58  1  0.36890575  0.74984487  0.95342765  1
  Sm3+  Sm59  1  0.26822323  0.89413139  0.55046295  1
  Sm3+  Sm60  1  0.24561428  0.38037356  0.05233928  1
  Sm3+  Sm61  1  0.61726670  0.50084901  0.94873539  1
  Sm3+  Sm62  1  0.51205506  0.64135713  0.54969100  1
  Sm3+  Sm63  1  0.38055861  0.26994577  0.44474297  1
  Bi2+  Bi64  1  0.00475024  0.13694279  0.29356925  1
  Bi2+  Bi65  1  0.01704409  0.13684641  0.78026777  1
  Bi2+  Bi66  1  0.01293465  0.39370977  0.30012300  1
  Bi2+  Bi67  1  -0.00816571  0.38460756  0.78658112  1
  Bi2+  Bi68  1  -0.06370379  0.59672247  0.30841549  1
  Bi2+  Bi69  1  -0.01121038  0.63590308  0.79465518  1
  Bi2+  Bi70  1  0.04419126  0.85161513  0.29426738  1
  Bi2+  Bi71  1  0.01935406  0.89613272  0.79704909  1
  Bi2+  Bi72  1  0.23400996  0.08522360  0.32017207  1
  Bi2+  Bi73  1  0.28420338  0.13888922  0.76978160  1
  Bi2+  Bi74  1  0.26449680  0.27825970  0.31558544  1
  Bi2+  Bi75  1  0.29877011  0.43224864  0.77899323  1
  Bi2+  Bi76  1  0.21827888  0.55923899  0.26991184  1
  Bi2+  Bi77  1  0.17270162  0.69984424  0.76758162  1
  Bi2+  Bi78  1  0.23573606  0.89721532  0.29400256  1
  Bi2+  Bi79  1  0.27829547  0.87105598  0.77372802  1
  Bi2+  Bi80  1  0.50022349  0.15472812  0.27947575  1
  Bi2+  Bi81  1  0.47818962  0.16399427  0.78776400  1
  Bi2+  Bi82  1  0.50867963  0.39981017  0.28934672  1
  Bi2+  Bi83  1  0.49034689  0.43299584  0.81593367  1
  Bi2+  Bi84  1  0.45001775  0.59735071  0.26395387  1
  Bi2+  Bi85  1  0.45750273  0.62539846  0.78487695  1
  Bi2+  Bi86  1  0.50663650  0.87306982  0.30452569  1
  Bi2+  Bi87  1  0.51551021  0.88371075  0.81920830  1
  Bi2+  Bi88  1  0.74683575  0.09788684  0.28363316  1
  Bi2+  Bi89  1  0.73393126  0.10351452  0.79200399  1
  Bi2+  Bi90  1  0.78689640  0.35608927  0.26919775  1
  Bi2+  Bi91  1  0.74227336  0.45835403  0.77512620  1
  Bi2+  Bi92  1  0.74520853  0.55050526  0.29767727  1
  Bi2+  Bi93  1  0.80739347  0.62222999  0.82840864  1
  Bi2+  Bi94  1  0.78026199  0.81525822  0.29444466  1
  Bi2+  Bi95  1  0.75170983  0.79325404  0.78794676  1
  Bi2+  Bi96  1  0.11720527  -0.00375862  0.21678228  1
  Bi2+  Bi97  1  0.12864371  -0.05655674  0.70668426  1
  Bi2+  Bi98  1  0.15724055  0.19441050  0.22699495  1
  Bi2+  Bi99  1  0.16102068  0.25348395  0.71339303  1
  Bi2+  Bi100  1  0.08461876  0.45753789  0.20268762  1
  Bi2+  Bi101  1  0.15593777  0.51961542  0.71526276  1
  Bi2+  Bi102  1  0.07208238  0.66896399  0.23299061  1
  Bi2+  Bi103  1  0.08298940  0.77005317  0.66905759  1
  Bi2+  Bi104  1  0.36512491  0.01100384  0.20911520  1
  Bi2+  Bi105  1  0.37185949  0.00346852  0.70642269  1
  Bi2+  Bi106  1  0.35361160  0.21081557  0.19412044  1
  Bi2+  Bi107  1  0.38248293  0.27215832  0.70188265  1
  Bi2+  Bi108  1  0.29564606  0.39439559  0.22547629  1
  Bi2+  Bi109  1  0.37798246  0.46271639  0.67656643  1
  Bi2+  Bi110  1  0.31878064  0.75902127  0.22368055  1
  Bi2+  Bi111  1  0.35852515  0.72780487  0.70794738  1
  Bi2+  Bi112  1  0.61051397  -0.06721649  0.21308094  1
  Bi2+  Bi113  1  0.63514266  0.00418865  0.71240520  1
  Bi2+  Bi114  1  0.53890623  0.28356378  0.19197045  1
  Bi2+  Bi115  1  0.62870120  0.27934221  0.76112826  1
  Bi2+  Bi116  1  0.66018206  0.44347325  0.19328492  1
  Bi2+  Bi117  1  0.56860154  0.44917326  0.70232481  1
  Bi2+  Bi118  1  0.61595599  0.68402752  0.23996554  1
  Bi2+  Bi119  1  0.62224552  0.63377955  0.72672435  1
  Bi2+  Bi120  1  0.87747025  -0.03387525  0.19615326  1
  Bi2+  Bi121  1  0.83626176  -0.03900831  0.68789171  1
  Bi2+  Bi122  1  0.90323854  0.23963632  0.20401791  1
  Bi2+  Bi123  1  0.84555440  0.25422787  0.69315950  1
  Bi2+  Bi124  1  0.86332805  0.50129753  0.20403393  1
  Bi2+  Bi125  1  0.87604074  0.56831899  0.70690930  1
  Bi2+  Bi126  1  0.85526992  0.70263770  0.21168504  1
  Bi2+  Bi127  1  0.90104244  0.77824073  0.71064934  1
  S2-  S128  1  -0.07510329  0.10730641  0.13858915  1
  S2-  S129  1  0.02029386  0.19324749  0.67468096  1
  S2-  S130  1  0.01506237  0.33067591  0.14791801  1
  S2-  S131  1  -0.06412705  0.38503913  0.68382600  1
  S2-  S132  1  -0.02154325  0.63277127  0.14747160  1
  S2-  S133  1  0.02241835  0.55842949  0.64937246  1
  S2-  S134  1  0.01187923  0.88960893  0.16178624  1
  S2-  S135  1  -0.00548983  0.99476570  0.64243885  1
  S2-  S136  1  0.23167492  0.02722379  0.13897146  1
  S2-  S137  1  0.25889211  0.11517135  0.65682143  1
  S2-  S138  1  0.23044258  0.46275327  0.13913648  1
  S2-  S139  1  0.15831180  0.38259706  0.65115388  1
  S2-  S140  1  0.20193624  0.74979624  0.15614000  1
  S2-  S141  1  0.26904681  0.60691266  0.65390709  1
  S2-  S142  1  0.36915174  0.87305598  0.15493315  1
  S2-  S143  1  0.33777570  0.86943617  0.64018694  1
  S2-  S144  1  0.50756005  0.02682142  0.15022343  1
  S2-  S145  1  0.51075332  0.03180527  0.64264644  1
  S2-  S146  1  0.49877559  0.45562735  0.15329206  1
  S2-  S147  1  0.51303504  0.24721166  0.64135067  1
  S2-  S148  1  0.37739283  0.62901976  0.16679513  1
  S2-  S149  1  0.50101177  0.68926976  0.64368155  1
  S2-  S150  1  0.55635740  0.79592576  0.16936867  1
  S2-  S151  1  0.53172393  0.87301574  0.72425328  1
  S2-  S152  1  0.72345787  0.05732319  0.17985819  1
  S2-  S153  1  0.77346668  0.10745198  0.64868232  1
  S2-  S154  1  0.77048298  0.27583478  0.14429685  1
  S2-  S155  1  0.72795323  0.34769197  0.65358868  1
  S2-  S156  1  0.65969436  0.61114431  0.15421671  1
  S2-  S157  1  0.74164554  0.63588216  0.65442096  1
  S2-  S158  1  0.79740748  0.83990801  0.15047743  1
  S2-  S159  1  0.69112032  0.88309441  0.64566694  1
  S2-  S160  1  0.03491295  0.00117741  0.35707263  1
  S2-  S161  1  0.11707848  0.02261114  0.83452274  1
  S2-  S162  1  0.04555816  0.26118153  0.36439982  1
  S2-  S163  1  0.09942865  0.26816699  0.83223954  1
  S2-  S164  1  0.14823016  0.47594253  0.34513471  1
  S2-  S165  1  0.08335038  0.50652803  0.83508879  1
  S2-  S166  1  0.16057465  0.75400848  0.34132705  1
  S2-  S167  1  0.11792688  0.79506837  0.85232334  1
  S2-  S168  1  0.45897266  0.02625636  0.34058389  1
  S2-  S169  1  0.48867714  0.03560271  0.86093804  1
  S2-  S170  1  0.43075174  0.27270516  0.34973972  1
  S2-  S171  1  0.40149243  0.28444171  0.85079289  1
  S2-  S172  1  0.40026180  0.50879064  0.34263176  1
  S2-  S173  1  0.33300661  0.55954760  0.84646101  1
  S2-  S174  1  0.40058508  0.74439694  0.32520254  1
  S2-  S175  1  0.36336473  0.84470480  0.86696302  1
  S2-  S176  1  0.65326224  -0.03856623  0.31944373  1
  S2-  S177  1  0.69467292  -0.01878588  0.84844805  1
  S2-  S178  1  0.63395704  0.16818349  0.34506149  1
  S2-  S179  1  0.68800838  0.24751532  0.85424344  1
  S2-  S180  1  0.62163121  0.40356268  0.36049239  1
  S2-  S181  1  0.63433413  0.50111352  0.85036986  1
  S2-  S182  1  0.63281986  0.74795936  0.34025566  1
  S2-  S183  1  0.60904193  0.75270056  0.84871607  1
  S2-  S184  1  0.85093277  -0.03952721  0.30452228  1
  S2-  S185  1  0.89051583  0.06096705  0.82700401  1
  S2-  S186  1  0.86293698  0.15736100  0.34905744  1
  S2-  S187  1  0.89349242  0.24530249  0.79563809  1
  S2-  S188  1  0.87340630  0.39483168  0.36008372  1
  S2-  S189  1  0.86319530  0.41144887  0.85014451  1
  S2-  S190  1  0.91823440  0.76403181  0.35164726  1
  S2-  S191  1  0.87278770  0.84823063  0.85222185  1
  S2-  S192  1  0.00975944  0.14005200  0.46414181  1
  S2-  S193  1  -0.00955457  0.12664361  0.94041448  1
  S2-  S194  1  0.00922608  0.39601408  0.46737099  1
  S2-  S195  1  -0.00355492  0.37471713  0.94586332  1
  S2-  S196  1  0.00542041  0.64386278  0.45654717  1
  S2-  S197  1  -0.00515640  0.62574842  0.94605852  1
  S2-  S198  1  0.00574977  0.88977736  0.45736553  1
  S2-  S199  1  -0.00749749  0.87134727  0.95524367  1
  S2-  S200  1  0.25543894  0.14654185  0.45357976  1
  S2-  S201  1  0.24494584  0.12269678  0.94525709  1
  S2-  S202  1  0.25707568  0.39283154  0.45931596  1
  S2-  S203  1  0.24298903  0.37538315  0.94662725  1
  S2-  S204  1  0.25917894  0.64242773  0.44693532  1
  S2-  S205  1  0.24276004  0.62926104  0.95283506  1
  S2-  S206  1  0.25708037  0.89232744  0.44509440  1
  S2-  S207  1  0.24038920  0.87308882  0.96613309  1
  S2-  S208  1  0.50095064  0.14624591  0.45362172  1
  S2-  S209  1  0.49514028  0.13183186  0.96307647  1
  S2-  S210  1  0.50356572  0.39111183  0.46419176  1
  S2-  S211  1  0.49798542  0.37489130  0.95889466  1
  S2-  S212  1  0.50971101  0.63905212  0.44425836  1
  S2-  S213  1  0.49265918  0.62510722  0.95184847  1
  S2-  S214  1  0.50747791  0.89273793  0.43781808  1
  S2-  S215  1  0.49715079  0.87199557  0.96769440  1
  S2-  S216  1  0.75933222  0.14421587  0.44786895  1
  S2-  S217  1  0.74531480  0.12762638  0.95034514  1
  S2-  S218  1  0.75979879  0.39010882  0.45859852  1
  S2-  S219  1  0.74175632  0.37735616  0.95618709  1
  S2-  S220  1  0.75846732  0.63954468  0.44917386  1
  S2-  S221  1  0.74321707  0.62292000  0.96113910  1
  S2-  S222  1  0.76016848  0.89464631  0.44244714  1
  S2-  S223  1  0.74043151  0.86958356  0.95570805  1
  S2-  S224  1  0.11301985  -0.00060276  0.04099358  1
  S2-  S225  1  0.14060905  0.01413971  0.54624954  1
  S2-  S226  1  0.12509108  0.24980503  0.03968038  1
  S2-  S227  1  0.13303607  0.26278538  0.55409590  1
  S2-  S228  1  0.11952677  0.50275330  0.03958331  1
  S2-  S229  1  0.13835559  0.52428779  0.54786759  1
  S2-  S230  1  0.11532708  0.74746422  0.04936966  1
  S2-  S231  1  0.13885856  0.77220517  0.54286779  1
  S2-  S232  1  0.37218034  0.00186765  0.04254249  1
  S2-  S233  1  0.37884209  0.02097880  0.53784253  1
  S2-  S234  1  0.36661970  0.25255043  0.05117738  1
  S2-  S235  1  0.37857989  0.26604710  0.54842926  1
  S2-  S236  1  0.37156913  0.50143330  0.04616423  1
  S2-  S237  1  0.38854422  0.51747565  0.54617805  1
  S2-  S238  1  0.37172876  0.74038556  0.05542320  1
  S2-  S239  1  0.39327983  0.77042468  0.53455300  1
  S2-  S240  1  0.62934920  0.00454849  0.04875586  1
  S2-  S241  1  0.63663922  0.02352696  0.53116797  1
  S2-  S242  1  0.62177002  0.24804655  0.05169582  1
  S2-  S243  1  0.63688627  0.26669166  0.54059632  1
  S2-  S244  1  0.62343875  0.49916368  0.05059339  1
  S2-  S245  1  0.63330926  0.51526129  0.54735795  1
  S2-  S246  1  0.62464160  0.74823858  0.05391090  1
  S2-  S247  1  0.63098152  0.76795367  0.54289079  1
  S2-  S248  1  0.86829731  -0.00211486  0.03670853  1
  S2-  S249  1  0.88320753  0.01751861  0.53466955  1
  S2-  S250  1  0.87275113  0.25225145  0.03552788  1
  S2-  S251  1  0.88966130  0.26859587  0.55214629  1
  S2-  S252  1  0.87303153  0.49854510  0.04490192  1
  S2-  S253  1  0.88514796  0.52081685  0.54742296  1
  S2-  S254  1  0.87261085  0.74839094  0.04094665  1
  S2-  S255  1  0.88116140  0.76977902  0.55232460  1
