# generated using pymatgen
data_La12Ce14Pr13Nd13Sm12(BiS2)64
_symmetry_space_group_name_H-M   'P 1'
_cell_length_a   16.17023170
_cell_length_b   16.14350498
_cell_length_c   27.12808878
_cell_angle_alpha   89.89618366
_cell_angle_beta   89.95961278
_cell_angle_gamma   89.90404129
_symmetry_Int_Tables_number   1
_chemical_formula_structural   La12Ce14Pr13Nd13Sm12(BiS2)64
_chemical_formula_sum   'La12 Ce14 Pr13 Nd13 Sm12 Bi64 S128'
_cell_volume   7081.60736459
_cell_formula_units_Z   1
loop_
 _symmetry_equiv_pos_site_id
 _symmetry_equiv_pos_as_xyz
  1  'x, y, z'
loop_
 _atom_type_symbol
 _atom_type_oxidation_number
  La3+  3.0
  Ce3+  3.0
  Pr3+  3.0
  Nd3+  3.0
  Sm3+  3.0
  Bi2+  2.0
  S2-  -2.0
loop_
 _atom_site_type_symbol
 _atom_site_label
 _atom_site_symmetry_multiplicity
 _atom_site_fract_x
 _atom_site_fract_y
 _atom_site_fract_z
 _atom_site_occupancy
  La3+  La0  1  -0.00057255  0.36837938  0.56293083  1
  La3+  La1  1  0.73946506  0.87677783  0.57890790  1
  La3+  La2  1  0.00550823  0.88387670  0.58343383  1
  La3+  La3  1  0.36878606  -0.00967076  0.93570612  1
  La3+  La4  1  0.36599433  0.73878657  0.39479535  1
  La3+  La5  1  0.25594795  0.86337856  0.57129090  1
  La3+  La6  1  0.74045578  0.86428501  0.07967488  1
  La3+  La7  1  0.75773623  0.12740320  0.10743164  1
  La3+  La8  1  0.35900786  0.23740016  0.90619868  1
  La3+  La9  1  0.74117696  0.61198456  0.59505195  1
  La3+  La10  1  0.49456580  0.35759413  0.58593823  1
  La3+  La11  1  0.49305681  0.86012808  0.07388695  1
  Ce3+  Ce12  1  0.12542660  0.24675115  0.43485372  1
  Ce3+  Ce13  1  0.36947631  0.74784626  0.93378206  1
  Ce3+  Ce14  1  0.49515364  0.11933551  0.06051420  1
  Ce3+  Ce15  1  0.50257198  0.11656305  0.55312023  1
  Ce3+  Ce16  1  0.86925603  0.75395301  0.92757762  1
  Ce3+  Ce17  1  0.61860048  0.24255625  0.94456264  1
  Ce3+  Ce18  1  0.74316121  0.36830581  0.05741022  1
  Ce3+  Ce19  1  0.87600509  -0.01684171  0.42897459  1
  Ce3+  Ce20  1  0.50462224  0.86564983  0.54513758  1
  Ce3+  Ce21  1  0.11774200  0.49178665  0.94473694  1
  Ce3+  Ce22  1  0.75127703  0.36612136  0.55665847  1
  Ce3+  Ce23  1  -0.00781363  0.62093852  0.05701145  1
  Ce3+  Ce24  1  0.86775868  0.49789183  0.94432939  1
  Ce3+  Ce25  1  0.50428662  0.61818345  0.55740077  1
  Pr3+  Pr26  1  0.62830002  -0.01551027  0.42023406  1
  Pr3+  Pr27  1  0.12047643  0.74320669  0.93518156  1
  Pr3+  Pr28  1  0.62814936  0.73558080  0.43234735  1
  Pr3+  Pr29  1  0.61651846  0.49179409  0.92666873  1
  Pr3+  Pr30  1  -0.00907272  0.36610968  0.06728529  1
  Pr3+  Pr31  1  0.38093221  0.24813128  0.42579575  1
  Pr3+  Pr32  1  -0.00747104  0.85850511  0.07160860  1
  Pr3+  Pr33  1  0.24704077  0.86104291  0.07305195  1
  Pr3+  Pr34  1  0.12711673  -0.00942824  0.43584478  1
  Pr3+  Pr35  1  0.87322335  0.74741375  0.45746700  1
  Pr3+  Pr36  1  0.24396305  0.11687598  0.06199664  1
  Pr3+  Pr37  1  0.11610423  -0.01289230  0.93466996  1
  Pr3+  Pr38  1  0.37745607  -0.00247448  0.43123297  1
  Nd3+  Nd39  1  -0.00085714  0.62452548  0.56376936  1
  Nd3+  Nd40  1  0.87678721  0.49801741  0.44380969  1
  Nd3+  Nd41  1  0.00527172  0.11362551  0.07230899  1
  Nd3+  Nd42  1  0.24587585  0.36687962  0.05630306  1
  Nd3+  Nd43  1  0.24639213  0.61773338  0.06122197  1
  Nd3+  Nd44  1  0.62202792  0.75874310  0.92666536  1
  Nd3+  Nd45  1  0.12921578  0.49841638  0.44654667  1
  Nd3+  Nd46  1  0.36269579  0.49365354  0.92925211  1
  Nd3+  Nd47  1  0.87006016  0.24315387  0.93839996  1
  Nd3+  Nd48  1  0.62404024  0.49467445  0.43873012  1
  Nd3+  Nd49  1  0.88565277  0.25572251  0.41259280  1
  Nd3+  Nd50  1  0.25247206  0.36608669  0.55985611  1
  Nd3+  Nd51  1  0.86863439  -0.00613427  0.95133574  1
  Sm3+  Sm52  1  0.25408622  0.61895687  0.56358698  1
  Sm3+  Sm53  1  0.37592033  0.49479391  0.44584542  1
  Sm3+  Sm54  1  0.25282063  0.11971219  0.55084331  1
  Sm3+  Sm55  1  -0.00038238  0.11888004  0.54646632  1
  Sm3+  Sm56  1  0.62942478  0.24464623  0.44232278  1
  Sm3+  Sm57  1  0.11110883  0.24038920  0.93439724  1
  Sm3+  Sm58  1  0.75461705  0.11590194  0.54802420  1
  Sm3+  Sm59  1  0.74060877  0.62157327  0.05134027  1
  Sm3+  Sm60  1  0.49247802  0.36878939  0.04885613  1
  Sm3+  Sm61  1  0.49493086  0.61767575  0.04493358  1
  Sm3+  Sm62  1  0.12814736  0.74795272  0.44635309  1
  Sm3+  Sm63  1  0.62170890  -0.00408330  0.95397233  1
  Bi2+  Bi64  1  0.05739616  0.11186124  0.28295338  1
  Bi2+  Bi65  1  -0.05226201  0.18256992  0.77303251  1
  Bi2+  Bi66  1  0.02604385  0.39390455  0.29239396  1
  Bi2+  Bi67  1  0.02512833  0.41228968  0.81004274  1
  Bi2+  Bi68  1  -0.03260248  0.63005582  0.30090280  1
  Bi2+  Bi69  1  0.07869557  0.56528795  0.74364739  1
  Bi2+  Bi70  1  -0.01033862  0.83029390  0.28710300  1
  Bi2+  Bi71  1  -0.00054577  0.92571940  0.79647018  1
  Bi2+  Bi72  1  0.24487489  0.11270795  0.29346670  1
  Bi2+  Bi73  1  0.23127695  0.08272260  0.79843854  1
  Bi2+  Bi74  1  0.26578813  0.31391157  0.30956777  1
  Bi2+  Bi75  1  0.27598397  0.41200519  0.78583825  1
  Bi2+  Bi76  1  0.25229887  0.52075654  0.27833182  1
  Bi2+  Bi77  1  0.22289943  0.66706100  0.80453978  1
  Bi2+  Bi78  1  0.22166305  0.88604683  0.29115160  1
  Bi2+  Bi79  1  0.24576927  0.86516529  0.78890850  1
  Bi2+  Bi80  1  0.45441259  0.15641120  0.25957100  1
  Bi2+  Bi81  1  0.57979189  0.12156668  0.80077328  1
  Bi2+  Bi82  1  0.43144400  0.40892943  0.32947817  1
  Bi2+  Bi83  1  0.52100871  0.39037902  0.78883259  1
  Bi2+  Bi84  1  0.53422868  0.54893314  0.26900500  1
  Bi2+  Bi85  1  0.41671354  0.66308621  0.78033900  1
  Bi2+  Bi86  1  0.50131076  0.87800146  0.28719872  1
  Bi2+  Bi87  1  0.50126917  0.93130314  0.79170005  1
  Bi2+  Bi88  1  0.70852300  0.14162090  0.30445410  1
  Bi2+  Bi89  1  0.77713668  0.09277259  0.80294976  1
  Bi2+  Bi90  1  0.75582012  0.43856565  0.29238539  1
  Bi2+  Bi91  1  0.77714571  0.29337838  0.79260367  1
  Bi2+  Bi92  1  0.76998588  0.63596521  0.30167936  1
  Bi2+  Bi93  1  0.78373689  0.60716698  0.80608174  1
  Bi2+  Bi94  1  0.76905601  0.87288379  0.29312965  1
  Bi2+  Bi95  1  0.73512893  0.85792178  0.79852327  1
  Bi2+  Bi96  1  0.15321429  -0.02099936  0.19650992  1
  Bi2+  Bi97  1  0.13375439  0.04412365  0.70363082  1
  Bi2+  Bi98  1  0.15699001  0.26936593  0.21200784  1
  Bi2+  Bi99  1  0.13659707  0.27476155  0.75583807  1
  Bi2+  Bi100  1  0.05068278  0.56828894  0.19688491  1
  Bi2+  Bi101  1  0.18030629  0.42367558  0.68209234  1
  Bi2+  Bi102  1  0.14067870  0.70967160  0.25762610  1
  Bi2+  Bi103  1  0.13507269  0.76143523  0.71143493  1
  Bi2+  Bi104  1  0.34362415  0.02544992  0.20517393  1
  Bi2+  Bi105  1  0.39229966  0.02406496  0.71038212  1
  Bi2+  Bi106  1  0.36720923  0.29696106  0.19783402  1
  Bi2+  Bi107  1  0.36858188  0.22104500  0.70705161  1
  Bi2+  Bi108  1  0.37887964  0.49559785  0.19632522  1
  Bi2+  Bi109  1  0.30771520  0.57123076  0.70259348  1
  Bi2+  Bi110  1  0.36275339  0.73764833  0.20258110  1
  Bi2+  Bi111  1  0.39485228  0.82670969  0.71351480  1
  Bi2+  Bi112  1  0.61737167  0.00270847  0.21277595  1
  Bi2+  Bi113  1  0.60174622  0.01868005  0.70077776  1
  Bi2+  Bi114  1  0.58678213  0.35539187  0.26243814  1
  Bi2+  Bi115  1  0.65111869  0.22083077  0.71130778  1
  Bi2+  Bi116  1  0.67348895  0.51738894  0.18737636  1
  Bi2+  Bi117  1  0.64857669  0.50817640  0.71687839  1
  Bi2+  Bi118  1  0.61710025  0.71373289  0.20351354  1
  Bi2+  Bi119  1  0.60961437  0.76243134  0.71001867  1
  Bi2+  Bi120  1  0.88698822  0.01138594  0.22827367  1
  Bi2+  Bi121  1  0.87037218  0.03166490  0.70793546  1
  Bi2+  Bi122  1  0.88010282  0.26768670  0.21475903  1
  Bi2+  Bi123  1  0.82527485  0.23797764  0.66682691  1
  Bi2+  Bi124  1  0.86635345  0.51483036  0.20538818  1
  Bi2+  Bi125  1  0.87653947  0.40636620  0.72025358  1
  Bi2+  Bi126  1  0.86542616  0.73689377  0.21388357  1
  Bi2+  Bi127  1  0.89494155  0.73954675  0.72244211  1
  S2-  S128  1  -0.08673392  0.13402182  0.15784669  1
  S2-  S129  1  0.00562760  0.07382575  0.64208602  1
  S2-  S130  1  0.01183094  0.33601727  0.16693301  1
  S2-  S131  1  -0.01968195  0.32112581  0.65920005  1
  S2-  S132  1  -0.00686946  0.71197015  0.13976570  1
  S2-  S133  1  0.00517244  0.64028880  0.66323532  1
  S2-  S134  1  0.00200152  0.93244457  0.16535694  1
  S2-  S135  1  -0.05144322  0.87808659  0.68202924  1
  S2-  S136  1  0.14145004  0.13775769  0.14387121  1
  S2-  S137  1  0.24220894  0.13998844  0.64928898  1
  S2-  S138  1  0.24049051  0.40097277  0.15475824  1
  S2-  S139  1  0.34316685  0.35376573  0.64499875  1
  S2-  S140  1  0.23812285  0.72013344  0.14212117  1
  S2-  S141  1  0.25464413  0.71262506  0.64675286  1
  S2-  S142  1  0.37092144  0.87550523  0.15004051  1
  S2-  S143  1  0.14972166  0.89805369  0.64927344  1
  S2-  S144  1  0.49116431  0.09162001  0.15864463  1
  S2-  S145  1  0.48897160  0.19720201  0.63990233  1
  S2-  S146  1  0.49311667  0.38841365  0.14682460  1
  S2-  S147  1  0.54759109  0.39749525  0.68372004  1
  S2-  S148  1  0.48609700  0.67676047  0.13819634  1
  S2-  S149  1  0.58236038  0.62753162  0.64692482  1
  S2-  S150  1  0.60091239  0.85907341  0.15430381  1
  S2-  S151  1  0.57277104  0.87596064  0.63530808  1
  S2-  S152  1  0.68463981  0.14829203  0.20413731  1
  S2-  S153  1  0.74308571  0.02961879  0.63508350  1
  S2-  S154  1  0.77349979  0.30443308  0.14610080  1
  S2-  S155  1  0.75198679  0.44487507  0.64413072  1
  S2-  S156  1  0.74806591  0.71160363  0.13651398  1
  S2-  S157  1  0.79069874  0.61703330  0.69817279  1
  S2-  S158  1  0.76965234  0.97083986  0.16444384  1
  S2-  S159  1  0.75278840  0.81013782  0.67857877  1
  S2-  S160  1  0.07374793  -0.03166204  0.33983743  1
  S2-  S161  1  0.06583303  0.05140114  0.84082433  1
  S2-  S162  1  0.03446081  0.24922076  0.34998159  1
  S2-  S163  1  0.20408988  0.23842259  0.85022177  1
  S2-  S164  1  0.12193109  0.48718040  0.34635184  1
  S2-  S165  1  0.17595016  0.49057605  0.85247523  1
  S2-  S166  1  0.20126378  0.74611933  0.35615067  1
  S2-  S167  1  0.10575811  0.85703719  0.85816541  1
  S2-  S168  1  0.36351902  -0.09708266  0.34523907  1
  S2-  S169  1  0.37105187  0.08865508  0.85076859  1
  S2-  S170  1  0.38853979  0.12639632  0.35259361  1
  S2-  S171  1  0.39687891  0.28884447  0.80782323  1
  S2-  S172  1  0.34884505  0.56887264  0.35686226  1
  S2-  S173  1  0.41978145  0.51033851  0.83471524  1
  S2-  S174  1  0.44466278  0.73003616  0.29901936  1
  S2-  S175  1  0.37521996  0.86252632  0.86035177  1
  S2-  S176  1  0.57459039  0.02549430  0.32373238  1
  S2-  S177  1  0.62758537  -0.08895271  0.86672946  1
  S2-  S178  1  0.59774921  0.25761978  0.34568931  1
  S2-  S179  1  0.61244016  0.27753170  0.84844977  1
  S2-  S180  1  0.62917551  0.60241742  0.35767512  1
  S2-  S181  1  0.64211182  0.49796111  0.82624777  1
  S2-  S182  1  0.64100819  0.84016634  0.34965067  1
  S2-  S183  1  0.65356136  0.72284744  0.82510647  1
  S2-  S184  1  0.83146855  0.02621223  0.33348398  1
  S2-  S185  1  0.86759072  -0.09687224  0.86362186  1
  S2-  S186  1  0.82548451  0.24525400  0.31728855  1
  S2-  S187  1  0.98340844  0.25605849  0.86246914  1
  S2-  S188  1  0.89436339  0.42291650  0.35430163  1
  S2-  S189  1  0.87557663  0.47879960  0.84703271  1
  S2-  S190  1  0.88255318  0.83298994  0.36815500  1
  S2-  S191  1  0.90442196  0.70554429  0.82981343  1
  S2-  S192  1  -0.00180969  0.11628031  0.44362921  1
  S2-  S193  1  -0.00563087  0.11556601  0.96218024  1
  S2-  S194  1  0.00507062  0.37385855  0.45633491  1
  S2-  S195  1  -0.00760413  0.37290793  0.96032773  1
  S2-  S196  1  0.00333862  0.62253888  0.45581953  1
  S2-  S197  1  -0.00516880  0.61968482  0.94855986  1
  S2-  S198  1  0.00662998  0.86763862  0.46630662  1
  S2-  S199  1  -0.00638177  0.86690758  0.96385174  1
  S2-  S200  1  0.24805560  0.12139755  0.44611872  1
  S2-  S201  1  0.23737391  0.11732617  0.95543588  1
  S2-  S202  1  0.25125845  0.37147829  0.45282419  1
  S2-  S203  1  0.24459892  0.36535142  0.95085405  1
  S2-  S204  1  0.25110292  0.62294010  0.46080872  1
  S2-  S205  1  0.24549806  0.61946028  0.95366884  1
  S2-  S206  1  0.25245951  0.86858762  0.45901571  1
  S2-  S207  1  0.24321871  0.86596407  0.96148929  1
  S2-  S208  1  0.50846594  0.11973040  0.44899255  1
  S2-  S209  1  0.49554721  0.11983379  0.95349132  1
  S2-  S210  1  0.50306649  0.36957694  0.45679097  1
  S2-  S211  1  0.48688296  0.36637488  0.94358749  1
  S2-  S212  1  0.49408380  0.61915366  0.45234380  1
  S2-  S213  1  0.49589682  0.62254679  0.94015926  1
  S2-  S214  1  0.49567520  0.86129323  0.44233751  1
  S2-  S215  1  0.49777665  0.87090463  0.96409038  1
  S2-  S216  1  0.75258085  0.12136476  0.44310135  1
  S2-  S217  1  0.74449175  0.11900740  0.94659056  1
  S2-  S218  1  0.75131949  0.37071244  0.44912630  1
  S2-  S219  1  0.74492997  0.36898709  0.94985812  1
  S2-  S220  1  0.75409846  0.61640915  0.46106297  1
  S2-  S221  1  0.74055187  0.62270347  0.94566473  1
  S2-  S222  1  0.74698733  0.86891854  0.46299914  1
  S2-  S223  1  0.74396620  0.87147769  0.96757899  1
  S2-  S224  1  0.12271869  -0.01491038  0.04744565  1
  S2-  S225  1  0.13035977  -0.00053647  0.54197280  1
  S2-  S226  1  0.11878192  0.24791228  0.04204746  1
  S2-  S227  1  0.12617455  0.24227898  0.54418017  1
  S2-  S228  1  0.11908224  0.49331796  0.05159689  1
  S2-  S229  1  0.12661390  0.49833891  0.55277876  1
  S2-  S230  1  0.12117831  0.73989140  0.04075977  1
  S2-  S231  1  0.12381870  0.74433124  0.55023375  1
  S2-  S232  1  0.36905554  -0.00506202  0.04598261  1
  S2-  S233  1  0.37628993  -0.00608580  0.54449708  1
  S2-  S234  1  0.36957750  0.24397831  0.04851481  1
  S2-  S235  1  0.37425666  0.24198462  0.53393148  1
  S2-  S236  1  0.37006583  0.49409384  0.03850301  1
  S2-  S237  1  0.37615790  0.49487952  0.55104418  1
  S2-  S238  1  0.36920745  0.73847151  0.03765414  1
  S2-  S239  1  0.38211449  0.74100209  0.55091689  1
  S2-  S240  1  0.62603970  0.00322780  0.05623049  1
  S2-  S241  1  0.62380938  -0.00228666  0.53051943  1
  S2-  S242  1  0.61811768  0.24524068  0.05176296  1
  S2-  S243  1  0.63003417  0.24089954  0.54726349  1
  S2-  S244  1  0.61701468  0.49345503  0.03636562  1
  S2-  S245  1  0.62154967  0.48630333  0.54553000  1
  S2-  S246  1  0.61680272  0.73845577  0.03537452  1
  S2-  S247  1  0.62922802  0.73928340  0.54146677  1
  S2-  S248  1  0.87319140  -0.00561648  0.05498868  1
  S2-  S249  1  0.87849471  -0.00598329  0.53954295  1
  S2-  S250  1  0.87152268  0.23968523  0.04370688  1
  S2-  S251  1  0.87690052  0.24186045  0.53316850  1
  S2-  S252  1  0.86585894  0.49647717  0.05235427  1
  S2-  S253  1  0.87711012  0.49824344  0.55080414  1
  S2-  S254  1  0.86750686  0.73971587  0.03664885  1
  S2-  S255  1  0.87145946  0.74595169  0.56357986  1
