# generated using pymatgen
data_La12Ce14Pr13Nd13Sm12(BiS2)64
_symmetry_space_group_name_H-M   'P 1'
_cell_length_a   16.11010991
_cell_length_b   16.14378164
_cell_length_c   27.23074603
_cell_angle_alpha   90.02242496
_cell_angle_beta   90.06182726
_cell_angle_gamma   89.97592953
_symmetry_Int_Tables_number   1
_chemical_formula_structural   La12Ce14Pr13Nd13Sm12(BiS2)64
_chemical_formula_sum   'La12 Ce14 Pr13 Nd13 Sm12 Bi64 S128'
_cell_volume   7082.11530935
_cell_formula_units_Z   1
loop_
 _symmetry_equiv_pos_site_id
 _symmetry_equiv_pos_as_xyz
  1  'x, y, z'
loop_
 _atom_type_symbol
 _atom_type_oxidation_number
  La3+  3.0
  Ce3+  3.0
  Pr3+  3.0
  Nd3+  3.0
  Sm3+  3.0
  Bi2+  2.0
  S2-  -2.0
loop_
 _atom_site_type_symbol
 _atom_site_label
 _atom_site_symmetry_multiplicity
 _atom_site_fract_x
 _atom_site_fract_y
 _atom_site_fract_z
 _atom_site_occupancy
  La3+  La0  1  0.50150070  0.87604050  0.06894635  1
  La3+  La1  1  0.88504282  0.74648218  0.42714091  1
  La3+  La2  1  0.88252304  0.23677831  0.41800982  1
  La3+  La3  1  0.00026757  0.61968428  0.56324248  1
  La3+  La4  1  0.00415441  0.12402263  0.56864844  1
  La3+  La5  1  0.76691423  0.36553507  0.56993696  1
  La3+  La6  1  0.12785659  0.00834636  0.89935637  1
  La3+  La7  1  0.25835101  0.12881397  0.58939059  1
  La3+  La8  1  0.86950947  0.49970963  0.41527172  1
  La3+  La9  1  0.50399854  0.37702609  0.07460884  1
  La3+  La10  1  0.13638512  0.74209161  0.90363735  1
  La3+  La11  1  0.13530589  0.23546276  0.42225931  1
  Ce3+  Ce12  1  -0.00058030  0.12116477  0.06575174  1
  Ce3+  Ce13  1  0.88049245  -0.00278964  0.44515128  1
  Ce3+  Ce14  1  0.75288262  0.12053689  0.56200091  1
  Ce3+  Ce15  1  0.37449741  0.74440542  0.44590056  1
  Ce3+  Ce16  1  0.00863676  0.87470655  0.04313305  1
  Ce3+  Ce17  1  0.62657299  0.50208838  0.95093962  1
  Ce3+  Ce18  1  0.01348083  0.37523483  0.07443422  1
  Ce3+  Ce19  1  0.37735247  0.75227304  0.93388918  1
  Ce3+  Ce20  1  0.13119256  0.49648063  0.43801622  1
  Ce3+  Ce21  1  0.25359834  0.36570653  0.55967454  1
  Ce3+  Ce22  1  0.49799469  0.62968701  0.06814287  1
  Ce3+  Ce23  1  0.76388768  0.38270895  0.06629839  1
  Ce3+  Ce24  1  0.51275367  0.12499295  0.08142955  1
  Ce3+  Ce25  1  0.75990194  0.87335363  0.05248679  1
  Pr3+  Pr26  1  0.13606778  -0.00406035  0.45308208  1
  Pr3+  Pr27  1  0.63314289  0.24717871  0.43231463  1
  Pr3+  Pr28  1  0.12673048  0.50168592  0.93717831  1
  Pr3+  Pr29  1  0.37869388  0.49997402  0.93794792  1
  Pr3+  Pr30  1  0.26103953  0.86853114  0.57919145  1
  Pr3+  Pr31  1  0.87595059  0.00216756  0.92679874  1
  Pr3+  Pr32  1  0.00657909  0.64146230  0.09136182  1
  Pr3+  Pr33  1  0.00338538  0.36810746  0.54382878  1
  Pr3+  Pr34  1  0.50764322  0.12346473  0.56921027  1
  Pr3+  Pr35  1  0.50452543  0.61826606  0.55916282  1
  Pr3+  Pr36  1  0.75721900  0.12313436  0.06572039  1
  Pr3+  Pr37  1  0.62782252  0.25252922  0.94878899  1
  Pr3+  Pr38  1  0.24680004  0.61602824  0.57873645  1
  Nd3+  Nd39  1  0.24966610  0.87655181  0.04638430  1
  Nd3+  Nd40  1  0.38404459  0.24245500  0.43335420  1
  Nd3+  Nd41  1  0.25000661  0.63184825  0.06183910  1
  Nd3+  Nd42  1  0.62585723  0.74918052  0.94022512  1
  Nd3+  Nd43  1  0.50655172  0.36821574  0.55867582  1
  Nd3+  Nd44  1  0.37945018  0.24917846  0.94332772  1
  Nd3+  Nd45  1  0.62750714  -0.00639943  0.43949969  1
  Nd3+  Nd46  1  0.75597257  0.86824965  0.56000704  1
  Nd3+  Nd47  1  0.88295678  0.50350025  0.94480033  1
  Nd3+  Nd48  1  0.13358792  0.74240577  0.43717636  1
  Nd3+  Nd49  1  0.88113299  0.24999883  0.94898845  1
  Nd3+  Nd50  1  0.50671320  0.86779053  0.57014304  1
  Nd3+  Nd51  1  0.38428149  0.00679068  0.93193694  1
  Sm3+  Sm52  1  0.62693143  0.00194406  0.94184026  1
  Sm3+  Sm53  1  0.38087688  -0.00409976  0.45374886  1
  Sm3+  Sm54  1  0.75657148  0.62751803  0.05780617  1
  Sm3+  Sm55  1  0.12691459  0.24843697  0.94032786  1
  Sm3+  Sm56  1  0.00533990  0.86821994  0.56375539  1
  Sm3+  Sm57  1  0.24830851  0.38101531  0.05735931  1
  Sm3+  Sm58  1  0.63167145  0.74490448  0.44838248  1
  Sm3+  Sm59  1  0.37892094  0.49518016  0.44953834  1
  Sm3+  Sm60  1  0.25493505  0.12574462  0.05948323  1
  Sm3+  Sm61  1  0.63251031  0.49660556  0.44465119  1
  Sm3+  Sm62  1  0.75815726  0.61087013  0.56894055  1
  Sm3+  Sm63  1  0.88057266  0.75184199  0.93357969  1
  Bi2+  Bi64  1  0.01312346  0.10755971  0.28758022  1
  Bi2+  Bi65  1  -0.00901741  0.15055992  0.78667624  1
  Bi2+  Bi66  1  0.03782915  0.36823397  0.27022618  1
  Bi2+  Bi67  1  -0.02990428  0.38310798  0.79504748  1
  Bi2+  Bi68  1  -0.00249682  0.61492581  0.29564830  1
  Bi2+  Bi69  1  -0.00718130  0.62233714  0.80767136  1
  Bi2+  Bi70  1  -0.00495482  0.86342114  0.27875776  1
  Bi2+  Bi71  1  -0.12828632  0.88578737  0.79539363  1
  Bi2+  Bi72  1  0.26344367  0.10692561  0.30470432  1
  Bi2+  Bi73  1  0.24836665  0.09899014  0.77651649  1
  Bi2+  Bi74  1  0.29984632  0.38598889  0.28552243  1
  Bi2+  Bi75  1  0.33556987  0.35694999  0.81202473  1
  Bi2+  Bi76  1  0.24164437  0.65267367  0.28243619  1
  Bi2+  Bi77  1  0.28001049  0.60720461  0.78084228  1
  Bi2+  Bi78  1  0.26861318  0.88923528  0.30321147  1
  Bi2+  Bi79  1  0.28682701  0.86448261  0.77345660  1
  Bi2+  Bi80  1  0.48200666  0.11665368  0.28821476  1
  Bi2+  Bi81  1  0.50684542  0.15148565  0.79202310  1
  Bi2+  Bi82  1  0.50085564  0.37672081  0.29219270  1
  Bi2+  Bi83  1  0.52634376  0.39725990  0.81039919  1
  Bi2+  Bi84  1  0.44565165  0.62837521  0.28993385  1
  Bi2+  Bi85  1  0.53692507  0.64708372  0.80900179  1
  Bi2+  Bi86  1  0.45488782  0.82560363  0.28122758  1
  Bi2+  Bi87  1  0.55705127  0.90159683  0.79208190  1
  Bi2+  Bi88  1  0.76036483  0.12340058  0.28914031  1
  Bi2+  Bi89  1  0.77195527  0.18612170  0.77923082  1
  Bi2+  Bi90  1  0.69937313  0.37756422  0.27930193  1
  Bi2+  Bi91  1  0.72045358  0.38065649  0.74341733  1
  Bi2+  Bi92  1  0.71126585  0.63227436  0.29096610  1
  Bi2+  Bi93  1  0.69464491  0.65692555  0.74011681  1
  Bi2+  Bi94  1  0.75068477  0.87296577  0.29426910  1
  Bi2+  Bi95  1  0.72786657  1.00794999  0.82236552  1
  Bi2+  Bi96  1  0.13728504  -0.01973184  0.23060724  1
  Bi2+  Bi97  1  0.07846044  -0.03924672  0.70748945  1
  Bi2+  Bi98  1  0.16961288  0.25584602  0.21158267  1
  Bi2+  Bi99  1  0.14837683  0.31186680  0.78534902  1
  Bi2+  Bi100  1  0.20499463  0.50287906  0.21087061  1
  Bi2+  Bi101  1  0.11112599  0.46402640  0.71850134  1
  Bi2+  Bi102  1  0.12946897  0.78254513  0.20420671  1
  Bi2+  Bi103  1  0.13063665  0.71802211  0.70747229  1
  Bi2+  Bi104  1  0.35611768  -0.05199773  0.20631182  1
  Bi2+  Bi105  1  0.45462330  0.01136405  0.71395670  1
  Bi2+  Bi106  1  0.37217268  0.23445579  0.22085062  1
  Bi2+  Bi107  1  0.36502232  0.28631587  0.70270102  1
  Bi2+  Bi108  1  0.39234360  0.49999485  0.16159990  1
  Bi2+  Bi109  1  0.30211449  0.47416799  0.69679745  1
  Bi2+  Bi110  1  0.36664199  0.68990552  0.18755554  1
  Bi2+  Bi111  1  0.46168224  0.75895969  0.72107623  1
  Bi2+  Bi112  1  0.61195160  0.00737977  0.23402601  1
  Bi2+  Bi113  1  0.63229744  0.03051625  0.66522718  1
  Bi2+  Bi114  1  0.63946859  0.23948153  0.20950194  1
  Bi2+  Bi115  1  0.62339667  0.22223930  0.70105991  1
  Bi2+  Bi116  1  0.56425486  0.51621128  0.22040910  1
  Bi2+  Bi117  1  0.56615866  0.49732527  0.71482412  1
  Bi2+  Bi118  1  0.61751897  0.80998366  0.21712715  1
  Bi2+  Bi119  1  0.64173887  0.82709135  0.69179409  1
  Bi2+  Bi120  1  0.86581477  -0.01444013  0.22797412  1
  Bi2+  Bi121  1  0.81568916  0.01472536  0.71308110  1
  Bi2+  Bi122  1  0.90334019  0.22004389  0.20523205  1
  Bi2+  Bi123  1  0.92483388  0.24513687  0.69421397  1
  Bi2+  Bi124  1  0.82927235  0.49181717  0.20316275  1
  Bi2+  Bi125  1  0.86066071  0.49528907  0.70709336  1
  Bi2+  Bi126  1  0.85860919  0.74471196  0.19188587  1
  Bi2+  Bi127  1  0.87264936  0.73963000  0.71591528  1
  S2-  S128  1  0.04104920  0.19448378  0.15248783  1
  S2-  S129  1  -0.03158419  0.07556581  0.66408161  1
  S2-  S130  1  -0.07646142  0.38039007  0.16068311  1
  S2-  S131  1  -0.06120205  0.38074652  0.63812091  1
  S2-  S132  1  -0.04360519  0.59924888  0.19130845  1
  S2-  S133  1  0.10157036  0.59152360  0.64636333  1
  S2-  S134  1  -0.00380328  0.80639165  0.13467505  1
  S2-  S135  1  0.01011168  0.81586425  0.65827239  1
  S2-  S136  1  0.26654148  0.13668283  0.15883755  1
  S2-  S137  1  0.19285655  0.07937893  0.68630568  1
  S2-  S138  1  0.15318078  0.38422366  0.13981737  1
  S2-  S139  1  0.22743639  0.28185507  0.64364602  1
  S2-  S140  1  0.15485672  0.63541552  0.14626313  1
  S2-  S141  1  0.29067737  0.65596876  0.67639807  1
  S2-  S142  1  0.26678112  0.83703587  0.14461892  1
  S2-  S143  1  0.20693857  0.86295511  0.67636801  1
  S2-  S144  1  0.65234670  0.10984727  0.14793158  1
  S2-  S145  1  0.40173455  0.13831271  0.65106770  1
  S2-  S146  1  0.49718093  0.25648678  0.14808461  1
  S2-  S147  1  0.51938220  0.34402645  0.65742028  1
  S2-  S148  1  0.51131208  0.74549111  0.14192309  1
  S2-  S149  1  0.52178041  0.62830809  0.65862845  1
  S2-  S150  1  0.47706638  0.99231016  0.14524195  1
  S2-  S151  1  0.40567093  0.87267604  0.65148923  1
  S2-  S152  1  0.87531417  0.08553166  0.14114194  1
  S2-  S153  1  0.77570986  0.22775581  0.63849177  1
  S2-  S154  1  0.70701243  0.38269676  0.15896679  1
  S2-  S155  1  0.73346995  0.48411918  0.64364761  1
  S2-  S156  1  0.75244054  0.63060605  0.15715985  1
  S2-  S157  1  0.87942370  0.62778426  0.64047889  1
  S2-  S158  1  0.75099331  0.85968692  0.14993568  1
  S2-  S159  1  0.80645774  0.86516269  0.65535717  1
  S2-  S160  1  0.13257352  0.07476362  0.36242270  1
  S2-  S161  1  0.14929709  -0.04143963  0.79861522  1
  S2-  S162  1  0.01353081  0.25325551  0.34274329  1
  S2-  S163  1  0.13587529  0.16690459  0.85206077  1
  S2-  S164  1  0.13481190  0.55350410  0.34533585  1
  S2-  S165  1  0.14667468  0.57232087  0.84544886  1
  S2-  S166  1  0.02539181  0.75817298  0.35610383  1
  S2-  S167  1  0.07404493  0.76062162  0.80607449  1
  S2-  S168  1  0.39062627  0.00943806  0.35503073  1
  S2-  S169  1  0.32673747  -0.02299782  0.83693075  1
  S2-  S170  1  0.27045081  0.25100869  0.35506109  1
  S2-  S171  1  0.36500826  0.19073222  0.84862728  1
  S2-  S172  1  0.38891377  0.49406994  0.35091873  1
  S2-  S173  1  0.39616405  0.55066109  0.84200713  1
  S2-  S174  1  0.26548290  0.74964394  0.36836979  1
  S2-  S175  1  0.29168972  0.74687462  0.84636199  1
  S2-  S176  1  0.65462724  0.00199889  0.34109536  1
  S2-  S177  1  0.52301680  0.02894460  0.86529510  1
  S2-  S178  1  0.50717508  0.23982255  0.35823412  1
  S2-  S179  1  0.59940360  0.25805294  0.84919681  1
  S2-  S180  1  0.70293238  0.49990520  0.35445434  1
  S2-  S181  1  0.63295542  0.51535599  0.85431756  1
  S2-  S182  1  0.65753498  0.74970986  0.35066357  1
  S2-  S183  1  0.63562303  0.77105555  0.84141074  1
  S2-  S184  1  0.88547937  0.07509038  0.35832664  1
  S2-  S185  1  0.97133202  0.01791805  0.84301781  1
  S2-  S186  1  0.74758702  0.25687072  0.35178005  1
  S2-  S187  1  0.88760767  0.24883128  0.84955048  1
  S2-  S188  1  0.92892093  0.45515251  0.31608539  1
  S2-  S189  1  0.87900620  0.49552880  0.84505902  1
  S2-  S190  1  0.85783086  0.64116603  0.34667105  1
  S2-  S191  1  0.86113844  0.72473438  0.83699277  1
  S2-  S192  1  0.00707123  0.11723134  0.46045539  1
  S2-  S193  1  0.00602934  0.12445948  0.95597765  1
  S2-  S194  1  0.00463906  0.37410436  0.44004953  1
  S2-  S195  1  0.00600848  0.37437568  0.95670299  1
  S2-  S196  1  0.00629780  0.61823801  0.45376616  1
  S2-  S197  1  0.00344483  0.63058508  0.94107856  1
  S2-  S198  1  0.00846285  0.87424738  0.45842968  1
  S2-  S199  1  0.00812831  0.87314536  0.93687449  1
  S2-  S200  1  0.26343210  0.11954084  0.46475323  1
  S2-  S201  1  0.25108694  0.12465692  0.95468469  1
  S2-  S202  1  0.25737227  0.37268917  0.45346992  1
  S2-  S203  1  0.25086913  0.37410644  0.95124898  1
  S2-  S204  1  0.25593647  0.61644668  0.46635111  1
  S2-  S205  1  0.25520117  0.62535222  0.95362205  1
  S2-  S206  1  0.25864786  0.87277337  0.46860085  1
  S2-  S207  1  0.24754728  0.88234272  0.94186689  1
  S2-  S208  1  0.50684913  0.11624202  0.46097132  1
  S2-  S209  1  0.50369642  0.13077563  0.96853862  1
  S2-  S210  1  0.50648314  0.37694995  0.45376365  1
  S2-  S211  1  0.50103753  0.37663547  0.96319923  1
  S2-  S212  1  0.50574540  0.62034166  0.45134416  1
  S2-  S213  1  0.50101982  0.62701027  0.95851344  1
  S2-  S214  1  0.50427558  0.86714981  0.45908684  1
  S2-  S215  1  0.50326757  0.87535587  0.95498694  1
  S2-  S216  1  0.75022878  0.11552596  0.45582352  1
  S2-  S217  1  0.75280425  0.12665317  0.95367371  1
  S2-  S218  1  0.75494432  0.37331967  0.45530751  1
  S2-  S219  1  0.75712471  0.37832231  0.95678904  1
  S2-  S220  1  0.75189338  0.62442907  0.46164275  1
  S2-  S221  1  0.75587678  0.62765920  0.95192274  1
  S2-  S222  1  0.75490946  0.86982887  0.45253911  1
  S2-  S223  1  0.75201968  0.87427228  0.94618301  1
  S2-  S224  1  0.12916202  0.00209939  0.05669558  1
  S2-  S225  1  0.13116060  -0.00625001  0.55992175  1
  S2-  S226  1  0.13263762  0.24878953  0.04264824  1
  S2-  S227  1  0.12871483  0.24241057  0.53865923  1
  S2-  S228  1  0.12492685  0.50943105  0.04255186  1
  S2-  S229  1  0.13056809  0.48930360  0.54418769  1
  S2-  S230  1  0.12761443  0.75004419  0.03398462  1
  S2-  S231  1  0.13156563  0.74817694  0.54770421  1
  S2-  S232  1  0.37306558  0.00130568  0.04069805  1
  S2-  S233  1  0.38261890  -0.00325756  0.55580804  1
  S2-  S234  1  0.36985416  0.25797867  0.04959266  1
  S2-  S235  1  0.38291099  0.24765289  0.54250037  1
  S2-  S236  1  0.37274556  0.50296241  0.04459792  1
  S2-  S237  1  0.37939337  0.49318339  0.55498255  1
  S2-  S238  1  0.37573585  0.75186709  0.03910787  1
  S2-  S239  1  0.37927209  0.74096178  0.55200104  1
  S2-  S240  1  0.63358344  -0.00439549  0.04402853  1
  S2-  S241  1  0.62844424  -0.00927132  0.54557947  1
  S2-  S242  1  0.63820977  0.25818122  0.05230602  1
  S2-  S243  1  0.63050941  0.24618444  0.54235420  1
  S2-  S244  1  0.62840914  0.50667937  0.05648185  1
  S2-  S245  1  0.62887455  0.49435024  0.54609265  1
  S2-  S246  1  0.63318403  0.74939604  0.04475357  1
  S2-  S247  1  0.63268200  0.74157102  0.55321073  1
  S2-  S248  1  0.88072574  -0.00493163  0.03305414  1
  S2-  S249  1  0.88007946  -0.00691131  0.55099325  1
  S2-  S250  1  0.88157410  0.25481273  0.05270788  1
  S2-  S251  1  0.88208346  0.23925313  0.53170001  1
  S2-  S252  1  0.88813891  0.51094856  0.05201452  1
  S2-  S253  1  0.87768224  0.49596152  0.53357887  1
  S2-  S254  1  0.88078114  0.74608229  0.03855896  1
  S2-  S255  1  0.88019975  0.74996110  0.53940146  1
