# generated using pymatgen
data_La12Ce14Pr13Nd13Sm12(BiS2)64
_symmetry_space_group_name_H-M   'P 1'
_cell_length_a   16.16974677
_cell_length_b   16.18909080
_cell_length_c   27.21619892
_cell_angle_alpha   89.78968125
_cell_angle_beta   90.16879476
_cell_angle_gamma   90.01114207
_symmetry_Int_Tables_number   1
_chemical_formula_structural   La12Ce14Pr13Nd13Sm12(BiS2)64
_chemical_formula_sum   'La12 Ce14 Pr13 Nd13 Sm12 Bi64 S128'
_cell_volume   7124.40057828
_cell_formula_units_Z   1
loop_
 _symmetry_equiv_pos_site_id
 _symmetry_equiv_pos_as_xyz
  1  'x, y, z'
loop_
 _atom_type_symbol
 _atom_type_oxidation_number
  La3+  3.0
  Ce3+  3.0
  Pr3+  3.0
  Nd3+  3.0
  Sm3+  3.0
  Bi2+  2.0
  S2-  -2.0
loop_
 _atom_site_type_symbol
 _atom_site_label
 _atom_site_symmetry_multiplicity
 _atom_site_fract_x
 _atom_site_fract_y
 _atom_site_fract_z
 _atom_site_occupancy
  La3+  La0  1  0.01119275  0.39421462  0.58386714  1
  La3+  La1  1  0.61976053  0.01001853  0.43297725  1
  La3+  La2  1  0.25084525  0.62104826  0.07081447  1
  La3+  La3  1  0.87489080  0.77074441  0.42441331  1
  La3+  La4  1  0.01158751  0.12495559  0.58230573  1
  La3+  La5  1  0.12996542  0.75430445  0.39419994  1
  La3+  La6  1  0.49309278  0.89095053  0.57626331  1
  La3+  La7  1  0.12726148  0.24384175  0.92820857  1
  La3+  La8  1  0.12007576  0.25712199  0.43057592  1
  La3+  La9  1  0.86551335  0.25856224  0.89045940  1
  La3+  La10  1  0.51320686  0.11947150  0.08979741  1
  La3+  La11  1  0.74411296  0.36750643  0.06694176  1
  Ce3+  Ce12  1  0.25318981  0.88381463  0.55536635  1
  Ce3+  Ce13  1  -0.00142371  0.36775084  0.05436494  1
  Ce3+  Ce14  1  0.24985132  0.87648295  0.05993971  1
  Ce3+  Ce15  1  0.24783567  0.36765636  0.06055833  1
  Ce3+  Ce16  1  0.24728980  0.13696013  0.55663896  1
  Ce3+  Ce17  1  0.37651224  0.51213042  0.43749259  1
  Ce3+  Ce18  1  0.37974084  0.26000785  0.43929474  1
  Ce3+  Ce19  1  0.75247775  0.63654835  0.55818208  1
  Ce3+  Ce20  1  0.25293781  0.12284248  0.05602824  1
  Ce3+  Ce21  1  0.50013980  0.38496939  0.55831311  1
  Ce3+  Ce22  1  0.50372437  0.62139010  0.06091305  1
  Ce3+  Ce23  1  0.87553221  0.01005039  0.44661113  1
  Ce3+  Ce24  1  0.50433590  0.87481387  0.06951486  1
  Ce3+  Ce25  1  0.61997005  -0.00396599  0.92960432  1
  Pr3+  Pr26  1  0.62594916  0.76170246  0.43524255  1
  Pr3+  Pr27  1  0.12402871  0.00810285  0.43066114  1
  Pr3+  Pr28  1  0.12182458  -0.00399567  0.93162098  1
  Pr3+  Pr29  1  0.74219079  0.88126635  0.57166473  1
  Pr3+  Pr30  1  0.12206073  0.50672403  0.42542017  1
  Pr3+  Pr31  1  0.75238142  0.13211327  0.56596634  1
  Pr3+  Pr32  1  0.37472783  0.24678122  0.93380866  1
  Pr3+  Pr33  1  0.12448725  0.74874750  0.94566634  1
  Pr3+  Pr34  1  0.00274501  0.88033884  0.56199864  1
  Pr3+  Pr35  1  0.87515998  0.49527755  0.93974065  1
  Pr3+  Pr36  1  0.49939942  0.63616608  0.55774218  1
  Pr3+  Pr37  1  0.62270113  0.24550956  0.93154190  1
  Pr3+  Pr38  1  0.24995006  0.38483756  0.55256083  1
  Nd3+  Nd39  1  -0.00206753  0.62417161  0.06709268  1
  Nd3+  Nd40  1  0.87735240  0.51014443  0.44458821  1
  Nd3+  Nd41  1  0.12610722  0.49661772  0.94087909  1
  Nd3+  Nd42  1  0.62479253  0.74687836  0.94537510  1
  Nd3+  Nd43  1  0.87734605  0.25968124  0.45701863  1
  Nd3+  Nd44  1  0.86417525  -0.01124023  0.91038269  1
  Nd3+  Nd45  1  0.24957059  0.63462990  0.55059990  1
  Nd3+  Nd46  1  0.75274816  0.38509568  0.57142704  1
  Nd3+  Nd47  1  -0.00003579  0.88321705  0.06927555  1
  Nd3+  Nd48  1  0.87731895  0.74706562  0.94211165  1
  Nd3+  Nd49  1  0.75132117  0.87555463  0.05608362  1
  Nd3+  Nd50  1  0.37577265  0.01319337  0.43762516  1
  Nd3+  Nd51  1  0.37588988  0.74695152  0.94948927  1
  Sm3+  Sm52  1  0.75040520  0.12057808  0.04407238  1
  Sm3+  Sm53  1  0.38257567  -0.00378985  0.94420675  1
  Sm3+  Sm54  1  0.37653344  0.76259694  0.43318666  1
  Sm3+  Sm55  1  -0.00292432  0.11909197  0.04680892  1
  Sm3+  Sm56  1  0.50079618  0.13556249  0.56497053  1
  Sm3+  Sm57  1  0.75254360  0.62416984  0.05704668  1
  Sm3+  Sm58  1  0.62721482  0.49667626  0.94308790  1
  Sm3+  Sm59  1  0.37438642  0.49870996  0.94677963  1
  Sm3+  Sm60  1  0.62816432  0.26062470  0.45018637  1
  Sm3+  Sm61  1  0.49927345  0.36979602  0.05207392  1
  Sm3+  Sm62  1  0.62738933  0.51062968  0.44829039  1
  Sm3+  Sm63  1  0.00388444  0.63801282  0.55252640  1
  Bi2+  Bi64  1  -0.01207954  0.12499633  0.30748259  1
  Bi2+  Bi65  1  0.03277954  0.13566091  0.78245169  1
  Bi2+  Bi66  1  -0.02046427  0.33865534  0.29181180  1
  Bi2+  Bi67  1  -0.00600513  0.40425583  0.78683265  1
  Bi2+  Bi68  1  -0.02336690  0.60572565  0.27912886  1
  Bi2+  Bi69  1  -0.02940353  0.65116388  0.80115677  1
  Bi2+  Bi70  1  -0.02470676  0.88666448  0.28691212  1
  Bi2+  Bi71  1  0.02649195  0.86316924  0.79743426  1
  Bi2+  Bi72  1  0.28176295  0.08883079  0.29643106  1
  Bi2+  Bi73  1  0.28393502  0.12096030  0.78339082  1
  Bi2+  Bi74  1  0.21328585  0.35510696  0.27139847  1
  Bi2+  Bi75  1  0.24468271  0.39119177  0.79564895  1
  Bi2+  Bi76  1  0.27003589  0.59007073  0.29089558  1
  Bi2+  Bi77  1  0.21786376  0.68454570  0.75160481  1
  Bi2+  Bi78  1  0.22780255  0.90899605  0.26107029  1
  Bi2+  Bi79  1  0.27818500  0.86894321  0.78493893  1
  Bi2+  Bi80  1  0.52770865  0.13960833  0.30652511  1
  Bi2+  Bi81  1  0.46753175  0.14554779  0.82873421  1
  Bi2+  Bi82  1  0.52278450  0.40995410  0.24561776  1
  Bi2+  Bi83  1  0.45913396  0.33341252  0.79982051  1
  Bi2+  Bi84  1  0.52639765  0.62799086  0.30198949  1
  Bi2+  Bi85  1  0.41448328  0.61545744  0.78734194  1
  Bi2+  Bi86  1  0.52333707  0.82461115  0.32290301  1
  Bi2+  Bi87  1  0.48178649  0.86036852  0.78998863  1
  Bi2+  Bi88  1  0.77686376  0.15111370  0.28557053  1
  Bi2+  Bi89  1  0.65264050  0.12157850  0.78909971  1
  Bi2+  Bi90  1  0.69643923  0.37434145  0.29482612  1
  Bi2+  Bi91  1  0.72266375  0.40398588  0.77863148  1
  Bi2+  Bi92  1  0.72354086  0.63736626  0.28493036  1
  Bi2+  Bi93  1  0.74996863  0.62529975  0.80244926  1
  Bi2+  Bi94  1  0.70721981  0.86712613  0.27811552  1
  Bi2+  Bi95  1  0.74353875  0.82472992  0.79448102  1
  Bi2+  Bi96  1  0.12139850  0.04956736  0.20745489  1
  Bi2+  Bi97  1  0.13695079  -0.07896527  0.70769915  1
  Bi2+  Bi98  1  0.08909362  0.24163160  0.20837317  1
  Bi2+  Bi99  1  0.11958802  0.26787454  0.69895287  1
  Bi2+  Bi100  1  0.12564325  0.48303279  0.19963760  1
  Bi2+  Bi101  1  0.13368288  0.53622967  0.70021820  1
  Bi2+  Bi102  1  0.11395922  0.74144976  0.19548650  1
  Bi2+  Bi103  1  0.08847062  0.74644261  0.66721613  1
  Bi2+  Bi104  1  0.41365804  -0.03497011  0.24670737  1
  Bi2+  Bi105  1  0.38816376  -0.01188643  0.72008806  1
  Bi2+  Bi106  1  0.33062125  0.22546560  0.21501515  1
  Bi2+  Bi107  1  0.34588647  0.25049142  0.70473412  1
  Bi2+  Bi108  1  0.36761457  0.50179666  0.20725497  1
  Bi2+  Bi109  1  0.37499152  0.44710842  0.71551133  1
  Bi2+  Bi110  1  0.37719720  0.76696355  0.25476759  1
  Bi2+  Bi111  1  0.38368638  0.72353072  0.69155289  1
  Bi2+  Bi112  1  0.65026480  0.00879316  0.20551151  1
  Bi2+  Bi113  1  0.64139692  -0.01731278  0.70286427  1
  Bi2+  Bi114  1  0.63791434  0.26582559  0.20014955  1
  Bi2+  Bi115  1  0.54137432  0.22814027  0.71505294  1
  Bi2+  Bi116  1  0.62291050  0.56835290  0.19132670  1
  Bi2+  Bi117  1  0.57959734  0.52936538  0.74261918  1
  Bi2+  Bi118  1  0.58561086  0.75879556  0.21078996  1
  Bi2+  Bi119  1  0.63406223  0.71624871  0.71829514  1
  Bi2+  Bi120  1  0.89892136  0.03504518  0.21895920  1
  Bi2+  Bi121  1  0.88080725  0.01558050  0.71485305  1
  Bi2+  Bi122  1  0.88502091  0.23222224  0.20282212  1
  Bi2+  Bi123  1  0.83427214  0.25666979  0.70528368  1
  Bi2+  Bi124  1  0.84855879  0.45961586  0.24449973  1
  Bi2+  Bi125  1  0.86695738  0.57284231  0.71689021  1
  Bi2+  Bi126  1  0.81860841  0.76265351  0.20230044  1
  Bi2+  Bi127  1  0.91289691  0.77061443  0.71539337  1
  S2-  S128  1  -0.00097764  0.02576226  0.13148820  1
  S2-  S129  1  -0.03408169  0.15964416  0.67986448  1
  S2-  S130  1  0.03004047  0.38106806  0.15051206  1
  S2-  S131  1  -0.03166858  0.35855031  0.68490655  1
  S2-  S132  1  0.01864395  0.60068266  0.16626136  1
  S2-  S133  1  0.00989930  0.55165231  0.63939805  1
  S2-  S134  1  -0.01878457  0.80875663  0.16114026  1
  S2-  S135  1  0.00761164  0.97436103  0.64817336  1
  S2-  S136  1  0.26040483  0.10034161  0.15322871  1
  S2-  S137  1  0.16844784  0.13877853  0.64226719  1
  S2-  S138  1  0.29064803  0.37209830  0.15538999  1
  S2-  S139  1  0.16761647  0.39087105  0.64127327  1
  S2-  S140  1  0.23781795  0.62009193  0.17144350  1
  S2-  S141  1  0.27462502  0.60585702  0.64835604  1
  S2-  S142  1  0.21419297  0.85861871  0.15504831  1
  S2-  S143  1  0.34701463  0.87268543  0.63980993  1
  S2-  S144  1  0.47859640  0.18975982  0.18318388  1
  S2-  S145  1  0.50639835  0.03687035  0.64668250  1
  S2-  S146  1  0.56675499  0.38319199  0.14160685  1
  S2-  S147  1  0.49645372  0.37116994  0.65477213  1
  S2-  S148  1  0.46524332  0.61815112  0.15578973  1
  S2-  S149  1  0.51806389  0.62184780  0.65751522  1
  S2-  S150  1  0.50559999  0.97143722  0.15171244  1
  S2-  S151  1  0.61059964  0.85035141  0.64795673  1
  S2-  S152  1  0.67976879  0.12935169  0.13577021  1
  S2-  S153  1  0.74775225  0.11391340  0.66669681  1
  S2-  S154  1  0.78889562  0.36535786  0.16454775  1
  S2-  S155  1  0.73650999  0.39733225  0.67063608  1
  S2-  S156  1  0.78348890  0.62354247  0.15342013  1
  S2-  S157  1  0.75971356  0.65784338  0.65455091  1
  S2-  S158  1  0.75760997  0.91000810  0.15321939  1
  S2-  S159  1  0.80067925  0.90152722  0.66942988  1
  S2-  S160  1  0.11693782  -0.09270171  0.34515122  1
  S2-  S161  1  0.15530292  0.05642761  0.83884199  1
  S2-  S162  1  0.13202100  0.13273553  0.35418822  1
  S2-  S163  1  0.02933099  0.26625147  0.84508236  1
  S2-  S164  1  0.11071700  0.37733462  0.35416347  1
  S2-  S165  1  0.10988284  0.47781963  0.84173164  1
  S2-  S166  1  0.12281054  0.60150556  0.33757812  1
  S2-  S167  1  0.10852723  0.72865060  0.84646308  1
  S2-  S168  1  0.48149981  -0.00030095  0.35965907  1
  S2-  S169  1  0.48378184  -0.02352698  0.86395574  1
  S2-  S170  1  0.38235155  0.20999233  0.34519145  1
  S2-  S171  1  0.25644554  0.26032804  0.85626636  1
  S2-  S172  1  0.38884882  0.50648341  0.33983412  1
  S2-  S173  1  0.33795550  0.50887932  0.85149575  1
  S2-  S174  1  0.29262185  0.75196327  0.34599678  1
  S2-  S175  1  0.37337029  0.75854116  0.85069351  1
  S2-  S176  1  0.67398746  0.05784606  0.33866238  1
  S2-  S177  1  0.71688471  -0.00231393  0.84599556  1
  S2-  S178  1  0.59916614  0.26269179  0.35302440  1
  S2-  S179  1  0.69978366  0.27458155  0.84258448  1
  S2-  S180  1  0.64128523  0.51749947  0.35079775  1
  S2-  S181  1  0.63099561  0.50657737  0.84541874  1
  S2-  S182  1  0.74088353  0.75831994  0.35681878  1
  S2-  S183  1  0.60682782  0.77188682  0.84749298  1
  S2-  S184  1  0.87982519  -0.06115341  0.35864356  1
  S2-  S185  1  0.93914461  0.01322536  0.81841553  1
  S2-  S186  1  0.87478024  0.24440532  0.35800092  1
  S2-  S187  1  0.86787247  0.19502331  0.79137586  1
  S2-  S188  1  0.89745408  0.51924614  0.34474629  1
  S2-  S189  1  0.86417318  0.42318339  0.84701840  1
  S2-  S190  1  0.97316890  0.74435938  0.33864180  1
  S2-  S191  1  0.87738092  0.83327893  0.85651263  1
  S2-  S192  1  -0.00235643  0.13136642  0.46349695  1
  S2-  S193  1  -0.00658118  0.11817225  0.94274768  1
  S2-  S194  1  -0.00273837  0.38566669  0.46121828  1
  S2-  S195  1  -0.00029952  0.37211884  0.95120729  1
  S2-  S196  1  -0.00024905  0.63703994  0.44997487  1
  S2-  S197  1  0.00030367  0.62108652  0.95778128  1
  S2-  S198  1  0.00331176  0.88342511  0.45599885  1
  S2-  S199  1  -0.00012102  0.87337942  0.95755107  1
  S2-  S200  1  0.25421199  0.13647283  0.45281083  1
  S2-  S201  1  0.25624984  0.11578727  0.95129240  1
  S2-  S202  1  0.25523369  0.38390284  0.44652385  1
  S2-  S203  1  0.25179471  0.37542351  0.95676279  1
  S2-  S204  1  0.25167756  0.63562360  0.44598237  1
  S2-  S205  1  0.25018773  0.62207040  0.96033729  1
  S2-  S206  1  0.25576303  0.88549993  0.44861844  1
  S2-  S207  1  0.25366167  0.87467771  0.95154710  1
  S2-  S208  1  0.50263540  0.13953238  0.46100090  1
  S2-  S209  1  0.49915802  0.12427233  0.95772846  1
  S2-  S210  1  0.50488249  0.38662523  0.45173321  1
  S2-  S211  1  0.49974875  0.37628320  0.94721343  1
  S2-  S212  1  0.50191404  0.63515793  0.44969474  1
  S2-  S213  1  0.50071385  0.61987369  0.95288559  1
  S2-  S214  1  0.49666920  0.88225850  0.46270074  1
  S2-  S215  1  0.50045630  0.86708368  0.96415831  1
  S2-  S216  1  0.74931797  0.13733646  0.45881872  1
  S2-  S217  1  0.75495029  0.12751231  0.94167197  1
  S2-  S218  1  0.75005164  0.38561979  0.46133981  1
  S2-  S219  1  0.74845382  0.37300392  0.95640722  1
  S2-  S220  1  0.75166416  0.63244698  0.45366570  1
  S2-  S221  1  0.75043862  0.62264263  0.95195206  1
  S2-  S222  1  0.74567434  0.88900566  0.46084028  1
  S2-  S223  1  0.74735313  0.86926284  0.95220062  1
  S2-  S224  1  0.12866138  -0.00079780  0.03864990  1
  S2-  S225  1  0.13119871  0.00513490  0.54026924  1
  S2-  S226  1  0.12327046  0.24172486  0.04219141  1
  S2-  S227  1  0.12347491  0.26130786  0.54007500  1
  S2-  S228  1  0.12443178  0.49762780  0.04830992  1
  S2-  S229  1  0.12731168  0.51311614  0.53412083  1
  S2-  S230  1  0.12367037  0.74842316  0.05195374  1
  S2-  S231  1  0.12906312  0.75895132  0.54367482  1
  S2-  S232  1  0.37883659  -0.00180319  0.04867996  1
  S2-  S233  1  0.37310451  0.01762951  0.54342572  1
  S2-  S234  1  0.38002660  0.24641052  0.04679698  1
  S2-  S235  1  0.37652195  0.25886320  0.54836278  1
  S2-  S236  1  0.37704832  0.49471870  0.05119247  1
  S2-  S237  1  0.37609909  0.50905752  0.54485523  1
  S2-  S238  1  0.37594304  0.74982095  0.05651362  1
  S2-  S239  1  0.37486747  0.75672797  0.53822102  1
  S2-  S240  1  0.62606496  -0.00358910  0.03895527  1
  S2-  S241  1  0.62437048  0.01357941  0.54505263  1
  S2-  S242  1  0.62150782  0.24619444  0.03889492  1
  S2-  S243  1  0.62604677  0.25944502  0.55609148  1
  S2-  S244  1  0.62797133  0.50051938  0.04624563  1
  S2-  S245  1  0.62693763  0.50888506  0.55345913  1
  S2-  S246  1  0.62850611  0.74721387  0.05352653  1
  S2-  S247  1  0.62452658  0.75557953  0.54169197  1
  S2-  S248  1  0.87060502  -0.00103867  0.03423669  1
  S2-  S249  1  0.87278809  0.00611727  0.55207045  1
  S2-  S250  1  0.87424003  0.24090251  0.05117704  1
  S2-  S251  1  0.87971720  0.26066130  0.56268102  1
  S2-  S252  1  0.87397843  0.49800192  0.04861729  1
  S2-  S253  1  0.87458029  0.50902677  0.55013470  1
  S2-  S254  1  0.87596821  0.74913591  0.04775950  1
  S2-  S255  1  0.87655273  0.75927624  0.54739297  1
