# generated using pymatgen
data_La12Ce14Pr13Nd13Sm12(BiS2)64
_symmetry_space_group_name_H-M   'P 1'
_cell_length_a   16.14118344
_cell_length_b   16.06421340
_cell_length_c   27.34719621
_cell_angle_alpha   89.83068357
_cell_angle_beta   89.94638583
_cell_angle_gamma   90.08214366
_symmetry_Int_Tables_number   1
_chemical_formula_structural   La12Ce14Pr13Nd13Sm12(BiS2)64
_chemical_formula_sum   'La12 Ce14 Pr13 Nd13 Sm12 Bi64 S128'
_cell_volume   7090.96121506
_cell_formula_units_Z   1
loop_
 _symmetry_equiv_pos_site_id
 _symmetry_equiv_pos_as_xyz
  1  'x, y, z'
loop_
 _atom_type_symbol
 _atom_type_oxidation_number
  La3+  3.0
  Ce3+  3.0
  Pr3+  3.0
  Nd3+  3.0
  Sm3+  3.0
  Bi2+  2.0
  S2-  -2.0
loop_
 _atom_site_type_symbol
 _atom_site_label
 _atom_site_symmetry_multiplicity
 _atom_site_fract_x
 _atom_site_fract_y
 _atom_site_fract_z
 _atom_site_occupancy
  La3+  La0  1  0.48365949  0.63248827  0.07830949  1
  La3+  La1  1  0.01041915  0.87419759  0.57058823  1
  La3+  La2  1  0.60840819  0.26913143  0.91202975  1
  La3+  La3  1  -0.01817817  0.62779838  0.62149586  1
  La3+  La4  1  0.86329635  0.51634045  0.93908175  1
  La3+  La5  1  0.12307815  -0.01344860  0.42148403  1
  La3+  La6  1  0.85612699  0.01735498  0.91501289  1
  La3+  La7  1  0.11455742  0.51181611  0.93475117  1
  La3+  La8  1  0.36571246  0.51857662  0.93478055  1
  La3+  La9  1  0.74624707  0.63591202  0.11141314  1
  La3+  La10  1  0.12605371  0.49239390  0.42344824  1
  La3+  La11  1  0.76146280  0.86635435  0.56964881  1
  Ce3+  Ce12  1  0.87846850  0.24258410  0.44707321  1
  Ce3+  Ce13  1  0.86233676  0.26075748  0.94120518  1
  Ce3+  Ce14  1  0.75743406  0.36931256  0.55825039  1
  Ce3+  Ce15  1  0.24188593  0.89033411  0.05303943  1
  Ce3+  Ce16  1  0.37952208  0.49327208  0.43709503  1
  Ce3+  Ce17  1  0.24890582  0.86314669  0.55888408  1
  Ce3+  Ce18  1  0.88065819  0.49366132  0.44077603  1
  Ce3+  Ce19  1  0.61586535  0.76496873  0.95808624  1
  Ce3+  Ce20  1  0.23027289  0.38869105  0.06691578  1
  Ce3+  Ce21  1  0.11218161  0.26687995  0.93587936  1
  Ce3+  Ce22  1  0.50147300  0.36753003  0.55851487  1
  Ce3+  Ce23  1  0.37059872  0.01532241  0.93427564  1
  Ce3+  Ce24  1  0.25022903  0.11509460  0.55372706  1
  Ce3+  Ce25  1  0.62870430  0.49309244  0.44113105  1
  Pr3+  Pr26  1  0.75490326  0.61580355  0.55465295  1
  Pr3+  Pr27  1  0.73996141  0.89305953  0.07074581  1
  Pr3+  Pr28  1  -0.01390299  0.89192776  0.05743838  1
  Pr3+  Pr29  1  0.86793410  -0.00670490  0.43574371  1
  Pr3+  Pr30  1  0.62806741  -0.00634935  0.44401572  1
  Pr3+  Pr31  1  0.61402812  0.51602971  0.94380937  1
  Pr3+  Pr32  1  0.50338206  0.11114425  0.57187259  1
  Pr3+  Pr33  1  0.73550199  0.13873134  0.06056223  1
  Pr3+  Pr34  1  0.62918105  0.24227276  0.43858621  1
  Pr3+  Pr35  1  0.74836433  0.12994732  0.57826895  1
  Pr3+  Pr36  1  0.12771659  0.23961751  0.42502279  1
  Pr3+  Pr37  1  0.48679369  0.88189101  0.08133392  1
  Pr3+  Pr38  1  0.48745479  0.13965932  0.05721145  1
  Nd3+  Nd39  1  0.60830341  0.00885076  0.93684193  1
  Nd3+  Nd40  1  0.47730178  0.38956115  0.06982723  1
  Nd3+  Nd41  1  0.88237255  0.74336870  0.44140747  1
  Nd3+  Nd42  1  0.23627516  0.14005711  0.04639177  1
  Nd3+  Nd43  1  0.10936646  0.75449549  0.92628997  1
  Nd3+  Nd44  1  0.23505098  0.64064658  0.06311011  1
  Nd3+  Nd45  1  0.01588431  0.37313498  0.56603857  1
  Nd3+  Nd46  1  0.37901464  -0.00839945  0.44082982  1
  Nd3+  Nd47  1  0.50105646  0.86443613  0.56268981  1
  Nd3+  Nd48  1  0.37719705  0.74254393  0.43761327  1
  Nd3+  Nd49  1  0.11340876  0.00452346  0.92215279  1
  Nd3+  Nd50  1  0.50106349  0.61602544  0.55751789  1
  Nd3+  Nd51  1  -0.01168739  0.64880584  0.06998815  1
  Sm3+  Sm52  1  0.37971349  0.23957609  0.44485842  1
  Sm3+  Sm53  1  0.37088587  0.76248106  0.94077235  1
  Sm3+  Sm54  1  0.24165148  0.61551793  0.55572278  1
  Sm3+  Sm55  1  0.73708051  0.39047206  0.05929034  1
  Sm3+  Sm56  1  0.86473690  0.76862705  0.94048650  1
  Sm3+  Sm57  1  -0.01281898  0.39231389  0.06343688  1
  Sm3+  Sm58  1  0.63001348  0.74345564  0.43788448  1
  Sm3+  Sm59  1  0.36332900  0.27443880  0.93291578  1
  Sm3+  Sm60  1  0.12571773  0.73972313  0.43448633  1
  Sm3+  Sm61  1  -0.01346533  0.13335276  0.05534752  1
  Sm3+  Sm62  1  0.00557043  0.11512303  0.55492652  1
  Sm3+  Sm63  1  0.25352859  0.36601193  0.55098094  1
  Bi2+  Bi64  1  -0.01464638  0.15139641  0.28840208  1
  Bi2+  Bi65  1  0.11117039  0.12796734  0.79498137  1
  Bi2+  Bi66  1  0.01902253  0.35850156  0.26925777  1
  Bi2+  Bi67  1  0.00915626  0.38362801  0.77655630  1
  Bi2+  Bi68  1  -0.00951076  0.62213293  0.28707193  1
  Bi2+  Bi69  1  -0.01091319  0.57020238  0.81303427  1
  Bi2+  Bi70  1  0.02398799  0.86392786  0.28333980  1
  Bi2+  Bi71  1  -0.00929144  0.86534788  0.80398281  1
  Bi2+  Bi72  1  0.25348419  0.14433090  0.28420555  1
  Bi2+  Bi73  1  0.29948951  0.07529039  0.81118560  1
  Bi2+  Bi74  1  0.24918213  0.34399660  0.28253724  1
  Bi2+  Bi75  1  0.22924449  0.31541889  0.78916004  1
  Bi2+  Bi76  1  0.23450939  0.71018620  0.29537043  1
  Bi2+  Bi77  1  0.27505575  0.60548380  0.78447174  1
  Bi2+  Bi78  1  0.21272923  0.86518979  0.22140394  1
  Bi2+  Bi79  1  0.27476981  0.87747509  0.78302211  1
  Bi2+  Bi80  1  0.45315578  0.10771701  0.31612933  1
  Bi2+  Bi81  1  0.50073404  0.13337449  0.78405708  1
  Bi2+  Bi82  1  0.57239023  0.31654837  0.26511666  1
  Bi2+  Bi83  1  0.46336635  0.39708902  0.79513780  1
  Bi2+  Bi84  1  0.46795705  0.59557459  0.29747423  1
  Bi2+  Bi85  1  0.51396277  0.59492518  0.80399332  1
  Bi2+  Bi86  1  0.47930239  0.94279390  0.26304460  1
  Bi2+  Bi87  1  0.47127718  0.86535238  0.79405620  1
  Bi2+  Bi88  1  0.73659432  0.12037990  0.28952062  1
  Bi2+  Bi89  1  0.76455178  0.10801232  0.77795855  1
  Bi2+  Bi90  1  0.77648751  0.32871881  0.27832327  1
  Bi2+  Bi91  1  0.73468426  0.37058947  0.79158164  1
  Bi2+  Bi92  1  0.76633390  0.52047906  0.29744841  1
  Bi2+  Bi93  1  0.70608042  0.64245750  0.79335687  1
  Bi2+  Bi94  1  0.78594829  0.85990506  0.31583478  1
  Bi2+  Bi95  1  0.70400982  0.86363342  0.79962096  1
  Bi2+  Bi96  1  0.08198915  0.01550835  0.21286651  1
  Bi2+  Bi97  1  0.12598479  0.00149809  0.70446423  1
  Bi2+  Bi98  1  0.10786898  0.22016574  0.20170031  1
  Bi2+  Bi99  1  0.08440490  0.25244689  0.69754930  1
  Bi2+  Bi100  1  0.15724838  0.49251063  0.21715932  1
  Bi2+  Bi101  1  0.20813130  0.46576199  0.71496431  1
  Bi2+  Bi102  1  0.13212088  0.68216038  0.19239906  1
  Bi2+  Bi103  1  0.21243287  0.73618886  0.70482092  1
  Bi2+  Bi104  1  0.34226295  0.04102064  0.20022678  1
  Bi2+  Bi105  1  0.36929546  0.00177273  0.70665674  1
  Bi2+  Bi106  1  0.39995805  0.28158779  0.21815184  1
  Bi2+  Bi107  1  0.34747566  0.20241832  0.72243974  1
  Bi2+  Bi108  1  0.35944052  0.51587993  0.21337952  1
  Bi2+  Bi109  1  0.39523955  0.51538575  0.70551586  1
  Bi2+  Bi110  1  0.38518164  0.76751857  0.21254784  1
  Bi2+  Bi111  1  0.39109786  0.79548841  0.68176730  1
  Bi2+  Bi112  1  0.61521939  0.08567459  0.19840814  1
  Bi2+  Bi113  1  0.63235621  0.00002924  0.69979843  1
  Bi2+  Bi114  1  0.69732366  0.25887179  0.17655148  1
  Bi2+  Bi115  1  0.60585432  0.30986303  0.69312780  1
  Bi2+  Bi116  1  0.61198241  0.48651771  0.21905327  1
  Bi2+  Bi117  1  0.64766231  0.49886745  0.71608961  1
  Bi2+  Bi118  1  0.63741783  0.78292006  0.22731679  1
  Bi2+  Bi119  1  0.56442161  0.73663294  0.72315134  1
  Bi2+  Bi120  1  0.86889536  0.04221343  0.21521171  1
  Bi2+  Bi121  1  0.87521308  -0.06306092  0.69811158  1
  Bi2+  Bi122  1  0.90328983  0.23490486  0.18011714  1
  Bi2+  Bi123  1  0.93108550  0.20626543  0.75905073  1
  Bi2+  Bi124  1  0.89849973  0.43620193  0.19102059  1
  Bi2+  Bi125  1  0.83506491  0.44146977  0.69967986  1
  Bi2+  Bi126  1  0.90540464  0.75211767  0.21317150  1
  Bi2+  Bi127  1  0.84778718  0.71122674  0.72878617  1
  S2-  S128  1  -0.01640159  0.01780717  0.13157570  1
  S2-  S129  1  0.00277412  0.02410518  0.64108177  1
  S2-  S130  1  0.10796123  0.40090812  0.13768656  1
  S2-  S131  1  -0.02365536  0.45652495  0.65212295  1
  S2-  S132  1  -0.09496284  0.60499772  0.15670767  1
  S2-  S133  1  0.00192633  0.64447813  0.72871951  1
  S2-  S134  1  0.01414341  0.78544756  0.13965542  1
  S2-  S135  1  -0.05774604  0.79852202  0.65419965  1
  S2-  S136  1  0.22011345  0.12655977  0.14514217  1
  S2-  S137  1  0.24460301  0.10553405  0.65193650  1
  S2-  S138  1  0.34064587  0.37272048  0.14259794  1
  S2-  S139  1  0.16670552  0.35720353  0.63496882  1
  S2-  S140  1  0.33100637  0.63851787  0.14856733  1
  S2-  S141  1  0.15948231  0.60918830  0.64211186  1
  S2-  S142  1  0.33456150  0.89303542  0.13813005  1
  S2-  S143  1  0.15452996  0.86947214  0.64162123  1
  S2-  S144  1  0.46013978  0.14947928  0.15708781  1
  S2-  S145  1  0.60575231  0.15015926  0.65141425  1
  S2-  S146  1  0.50217357  0.50002266  0.14834544  1
  S2-  S147  1  0.45896307  0.36510557  0.65341102  1
  S2-  S148  1  0.51917868  0.73507974  0.16060099  1
  S2-  S149  1  0.52682608  0.60224441  0.65501855  1
  S2-  S150  1  0.56642513  0.93080605  0.17076859  1
  S2-  S151  1  0.50493891  0.97230532  0.64170359  1
  S2-  S152  1  0.75249533  0.02805743  0.14003578  1
  S2-  S153  1  0.79234575  0.06940617  0.67039526  1
  S2-  S154  1  0.74381938  0.46319202  0.14889063  1
  S2-  S155  1  0.76327257  0.30027171  0.64808718  1
  S2-  S156  1  0.70221821  0.63685004  0.21880589  1
  S2-  S157  1  0.80701489  0.61667863  0.65055789  1
  S2-  S158  1  0.76290049  0.79900372  0.15876412  1
  S2-  S159  1  0.71984626  0.86100564  0.66729385  1
  S2-  S160  1  0.12451967  0.11614152  0.34987446  1
  S2-  S161  1  -0.00531357  0.01274129  0.84599384  1
  S2-  S162  1  0.12268370  0.36389065  0.35210058  1
  S2-  S163  1  0.11162863  0.37968626  0.85959384  1
  S2-  S164  1  0.12660070  0.62456589  0.35156918  1
  S2-  S165  1  0.14228110  0.61905532  0.85407824  1
  S2-  S166  1  0.13883390  0.85148740  0.35562826  1
  S2-  S167  1  0.13539825  0.86738199  0.84916677  1
  S2-  S168  1  0.36142767  -0.02902371  0.34282961  1
  S2-  S169  1  0.48452651  0.00605096  0.85909113  1
  S2-  S170  1  0.36569828  0.25505785  0.34776013  1
  S2-  S171  1  0.46192469  0.24835580  0.85093511  1
  S2-  S172  1  0.35394186  0.50313368  0.34033858  1
  S2-  S173  1  0.33883280  0.40496374  0.85820725  1
  S2-  S174  1  0.39735257  0.73571777  0.33861214  1
  S2-  S175  1  0.38158014  0.65233186  0.86170256  1
  S2-  S176  1  0.72646487  -0.00553897  0.36158073  1
  S2-  S177  1  0.70534598  0.01173565  0.85251589  1
  S2-  S178  1  0.60166558  0.19525509  0.34370591  1
  S2-  S179  1  0.65404521  0.21395563  0.81341370  1
  S2-  S180  1  0.60835058  0.51140008  0.34462162  1
  S2-  S181  1  0.60915393  0.42443332  0.85582881  1
  S2-  S182  1  0.64897745  0.77435318  0.34091797  1
  S2-  S183  1  0.58335977  0.80238741  0.86354690  1
  S2-  S184  1  0.93064971  -0.04516468  0.34321679  1
  S2-  S185  1  0.83824571  -0.13344183  0.85444774  1
  S2-  S186  1  0.85271705  0.21778184  0.35141059  1
  S2-  S187  1  0.86035374  0.17954601  0.85557588  1
  S2-  S188  1  0.91574848  0.49119104  0.34362157  1
  S2-  S189  1  0.87059594  0.44355161  0.84605260  1
  S2-  S190  1  0.88265729  0.72086229  0.34022252  1
  S2-  S191  1  0.96461617  0.72040085  0.85971972  1
  S2-  S192  1  -0.00139806  0.11484234  0.45178928  1
  S2-  S193  1  -0.00629970  0.13958793  0.95196489  1
  S2-  S194  1  0.00134427  0.36528697  0.45578926  1
  S2-  S195  1  -0.01461309  0.38654438  0.96026093  1
  S2-  S196  1  0.00139479  0.61826074  0.44838677  1
  S2-  S197  1  -0.01301273  0.63718364  0.96398724  1
  S2-  S198  1  0.00000932  0.86835092  0.45784416  1
  S2-  S199  1  -0.00908323  0.88736661  0.95243343  1
  S2-  S200  1  0.25731204  0.11623777  0.44840159  1
  S2-  S201  1  0.24000044  0.14235733  0.94043652  1
  S2-  S202  1  0.25868134  0.36424071  0.44879957  1
  S2-  S203  1  0.23619606  0.38697513  0.96219064  1
  S2-  S204  1  0.25558696  0.61880729  0.45129998  1
  S2-  S205  1  0.24184389  0.64339742  0.95897513  1
  S2-  S206  1  0.25627411  0.86555502  0.45388799  1
  S2-  S207  1  0.24861352  0.88764088  0.94837519  1
  S2-  S208  1  0.50275404  0.11695975  0.46117094  1
  S2-  S209  1  0.48898159  0.14499789  0.95326865  1
  S2-  S210  1  0.50198016  0.36658880  0.45031097  1
  S2-  S211  1  0.48898766  0.38932117  0.96146867  1
  S2-  S212  1  0.50523356  0.62051787  0.45131523  1
  S2-  S213  1  0.49197986  0.63985016  0.96613687  1
  S2-  S214  1  0.50511440  0.86519236  0.45429410  1
  S2-  S215  1  0.48557453  0.88599221  0.96788487  1
  S2-  S216  1  0.75037875  0.12184909  0.46513863  1
  S2-  S217  1  0.72630104  0.14690788  0.95421112  1
  S2-  S218  1  0.75289002  0.36888579  0.45014856  1
  S2-  S219  1  0.73790527  0.38516452  0.95576754  1
  S2-  S220  1  0.75211923  0.61969566  0.44819104  1
  S2-  S221  1  0.73988973  0.64251503  0.93976519  1
  S2-  S222  1  0.75056259  0.86170784  0.46126729  1
  S2-  S223  1  0.73617973  0.88981988  0.96253967  1
  S2-  S224  1  0.11683613  0.01313903  0.03240006  1
  S2-  S225  1  0.13045909  -0.00509884  0.53328476  1
  S2-  S226  1  0.10620054  0.25978624  0.04208818  1
  S2-  S227  1  0.12841368  0.23823950  0.53496947  1
  S2-  S228  1  0.10790958  0.52192980  0.04378349  1
  S2-  S229  1  0.13554799  0.48710938  0.53194221  1
  S2-  S230  1  0.11908904  0.76795102  0.03700557  1
  S2-  S231  1  0.12609803  0.74081919  0.53952139  1
  S2-  S232  1  0.36307306  0.01765120  0.04015809  1
  S2-  S233  1  0.37449624  -0.01153361  0.54625702  1
  S2-  S234  1  0.36032196  0.26246310  0.03923066  1
  S2-  S235  1  0.37775798  0.23904286  0.54997528  1
  S2-  S236  1  0.35510044  0.51276093  0.04335226  1
  S2-  S237  1  0.37348379  0.49425724  0.54557303  1
  S2-  S238  1  0.36381366  0.76180929  0.04379438  1
  S2-  S239  1  0.37567832  0.73856096  0.54484653  1
  S2-  S240  1  0.60721258  0.01162277  0.04561599  1
  S2-  S241  1  0.63252458  -0.00949404  0.54859446  1
  S2-  S242  1  0.61007138  0.27005233  0.05332176  1
  S2-  S243  1  0.62544489  0.24758493  0.54397928  1
  S2-  S244  1  0.62070823  0.51665229  0.04837572  1
  S2-  S245  1  0.62739874  0.49133391  0.54835205  1
  S2-  S246  1  0.62172075  0.75738272  0.05995682  1
  S2-  S247  1  0.62700898  0.74169567  0.54785955  1
  S2-  S248  1  0.86148854  0.01881971  0.03060194  1
  S2-  S249  1  0.87437205  -0.00117296  0.54432167  1
  S2-  S250  1  0.86599910  0.26390448  0.04766064  1
  S2-  S251  1  0.88787245  0.24325622  0.55280601  1
  S2-  S252  1  0.86256742  0.51427088  0.04600955  1
  S2-  S253  1  0.88100309  0.49273848  0.54504180  1
  S2-  S254  1  0.85821284  0.76159964  0.04554385  1
  S2-  S255  1  0.88236740  0.73753628  0.54632611  1
