# generated using pymatgen
data_La12Ce14Pr13Nd13Sm12(BiS2)64
_symmetry_space_group_name_H-M   'P 1'
_cell_length_a   16.19684649
_cell_length_b   16.17224428
_cell_length_c   27.26194108
_cell_angle_alpha   90.02674542
_cell_angle_beta   89.97535120
_cell_angle_gamma   90.10573143
_symmetry_Int_Tables_number   1
_chemical_formula_structural   La12Ce14Pr13Nd13Sm12(BiS2)64
_chemical_formula_sum   'La12 Ce14 Pr13 Nd13 Sm12 Bi64 S128'
_cell_volume   7140.96174970
_cell_formula_units_Z   1
loop_
 _symmetry_equiv_pos_site_id
 _symmetry_equiv_pos_as_xyz
  1  'x, y, z'
loop_
 _atom_type_symbol
 _atom_type_oxidation_number
  La3+  3.0
  Ce3+  3.0
  Pr3+  3.0
  Nd3+  3.0
  Sm3+  3.0
  Bi2+  2.0
  S2-  -2.0
loop_
 _atom_site_type_symbol
 _atom_site_label
 _atom_site_symmetry_multiplicity
 _atom_site_fract_x
 _atom_site_fract_y
 _atom_site_fract_z
 _atom_site_occupancy
  La3+  La0  1  0.61151656  0.50693486  0.38731779  1
  La3+  La1  1  0.14365284  0.01260591  0.91274973  1
  La3+  La2  1  0.50189736  0.37532763  0.55852690  1
  La3+  La3  1  0.24765118  0.11848704  0.56808117  1
  La3+  La4  1  -0.00774521  0.87161606  0.60904682  1
  La3+  La5  1  0.51262558  0.63878830  0.08535347  1
  La3+  La6  1  0.75314490  0.10937861  0.06655475  1
  La3+  La7  1  0.88124682  0.00713481  0.91967135  1
  La3+  La8  1  0.88653846  0.73173250  0.91759402  1
  La3+  La9  1  0.74882519  0.12642745  0.57049426  1
  La3+  La10  1  0.76453400  0.35806950  0.09047721  1
  La3+  La11  1  0.63041025  -0.01377793  0.92283747  1
  Ce3+  Ce12  1  0.74994077  0.62724997  0.55843839  1
  Ce3+  Ce13  1  0.50435735  0.87065672  0.05418489  1
  Ce3+  Ce14  1  0.62772253  0.00180617  0.43123445  1
  Ce3+  Ce15  1  0.75178222  0.37177983  0.55740932  1
  Ce3+  Ce16  1  0.62902308  0.24739101  0.43043195  1
  Ce3+  Ce17  1  0.12342431  0.50423934  0.43085045  1
  Ce3+  Ce18  1  0.37313464  -0.00174748  0.44321346  1
  Ce3+  Ce19  1  0.37913195  0.74131331  0.93846300  1
  Ce3+  Ce20  1  0.37526392  0.25079963  0.44096388  1
  Ce3+  Ce21  1  0.87988359  0.49100385  0.94671648  1
  Ce3+  Ce22  1  0.25581403  0.37305838  0.06414794  1
  Ce3+  Ce23  1  0.00709621  0.36967344  0.06390106  1
  Ce3+  Ce24  1  0.13055483  0.74377860  0.93735353  1
  Ce3+  Ce25  1  0.38522202  0.24950917  0.94908072  1
  Pr3+  Pr26  1  0.49791989  0.37753182  0.08413595  1
  Pr3+  Pr27  1  0.12834503  0.49346265  0.93798195  1
  Pr3+  Pr28  1  0.00668432  0.87385298  0.04044074  1
  Pr3+  Pr29  1  0.25659069  0.12145826  0.06801249  1
  Pr3+  Pr30  1  0.00485370  0.62072306  0.06839666  1
  Pr3+  Pr31  1  0.00110794  0.37436238  0.54893991  1
  Pr3+  Pr32  1  0.75829439  0.87023814  0.04920351  1
  Pr3+  Pr33  1  0.37099370  0.74999741  0.43353287  1
  Pr3+  Pr34  1  0.62867364  0.73515352  0.92907743  1
  Pr3+  Pr35  1  0.62886853  0.75025432  0.43127305  1
  Pr3+  Pr36  1  0.24627882  0.37590311  0.55941535  1
  Pr3+  Pr37  1  0.50104711  0.12343269  0.55041937  1
  Pr3+  Pr38  1  0.25174775  0.62707685  0.56139007  1
  Nd3+  Nd39  1  0.76160833  0.62361652  0.06706726  1
  Nd3+  Nd40  1  0.36707721  0.49762555  0.43277041  1
  Nd3+  Nd41  1  0.00812893  0.10882098  0.06598544  1
  Nd3+  Nd42  1  0.37879342  -0.00176245  0.94407761  1
  Nd3+  Nd43  1  0.87117389  0.50070594  0.43853083  1
  Nd3+  Nd44  1  0.25242448  0.87331334  0.05175182  1
  Nd3+  Nd45  1  0.00058868  0.62648024  0.56353855  1
  Nd3+  Nd46  1  0.25545788  0.62287272  0.05755199  1
  Nd3+  Nd47  1  0.24858196  0.87208223  0.56359336  1
  Nd3+  Nd48  1  0.74160702  0.87491463  0.57029020  1
  Nd3+  Nd49  1  0.13055103  0.00610043  0.41910692  1
  Nd3+  Nd50  1  0.87585032  -0.00470919  0.44389283  1
  Nd3+  Nd51  1  0.63120253  0.24778041  0.95236948  1
  Sm3+  Sm52  1  0.12489829  0.24572941  0.44370886  1
  Sm3+  Sm53  1  0.87943927  0.24640978  0.94505903  1
  Sm3+  Sm54  1  0.87578594  0.24420434  0.43846572  1
  Sm3+  Sm55  1  0.12278135  0.75345800  0.44744687  1
  Sm3+  Sm56  1  0.63063719  0.49814080  0.95417821  1
  Sm3+  Sm57  1  0.00175309  0.11403052  0.55558618  1
  Sm3+  Sm58  1  0.13240904  0.24578883  0.95124865  1
  Sm3+  Sm59  1  0.50303454  0.62250934  0.55022479  1
  Sm3+  Sm60  1  0.87706676  0.75415522  0.44761955  1
  Sm3+  Sm61  1  0.50864769  0.11916654  0.05857019  1
  Sm3+  Sm62  1  0.50262317  0.87177129  0.55574130  1
  Sm3+  Sm63  1  0.38368415  0.49578098  0.95037213  1
  Bi2+  Bi64  1  0.01865152  0.10206688  0.29448333  1
  Bi2+  Bi65  1  0.00134337  0.20462427  0.78911999  1
  Bi2+  Bi66  1  0.01857068  0.41329064  0.28229962  1
  Bi2+  Bi67  1  -0.07148489  0.37862428  0.82323578  1
  Bi2+  Bi68  1  0.00611601  0.59532597  0.31744398  1
  Bi2+  Bi69  1  0.02068487  0.55225568  0.79789341  1
  Bi2+  Bi70  1  0.01759320  0.83511526  0.25450876  1
  Bi2+  Bi71  1  -0.00110327  0.84800166  0.80925071  1
  Bi2+  Bi72  1  0.29503132  0.12669476  0.30008534  1
  Bi2+  Bi73  1  0.26397590  0.15191186  0.79758266  1
  Bi2+  Bi74  1  0.24313181  0.36040004  0.29132790  1
  Bi2+  Bi75  1  0.23813330  0.40252765  0.76227595  1
  Bi2+  Bi76  1  0.19484681  0.62454140  0.28735638  1
  Bi2+  Bi77  1  0.26824542  0.68230563  0.80470161  1
  Bi2+  Bi78  1  0.28268941  0.84796575  0.29923631  1
  Bi2+  Bi79  1  0.26220701  0.87691019  0.78659823  1
  Bi2+  Bi80  1  0.48065398  0.12981358  0.26644435  1
  Bi2+  Bi81  1  0.49702990  0.18562963  0.78979760  1
  Bi2+  Bi82  1  0.49064228  0.37627475  0.28016042  1
  Bi2+  Bi83  1  0.50099523  0.38911574  0.79863167  1
  Bi2+  Bi84  1  0.48514832  0.62614284  0.27577206  1
  Bi2+  Bi85  1  0.49536182  0.58424289  0.79386001  1
  Bi2+  Bi86  1  0.52293810  0.95199641  0.31334651  1
  Bi2+  Bi87  1  0.48771206  0.84645693  0.76900950  1
  Bi2+  Bi88  1  0.76735126  0.12399298  0.29136435  1
  Bi2+  Bi89  1  0.74492313  0.16962849  0.78962681  1
  Bi2+  Bi90  1  0.76477487  0.37887987  0.29369891  1
  Bi2+  Bi91  1  0.73038860  0.37590995  0.80747566  1
  Bi2+  Bi92  1  0.82361969  0.64832950  0.28755786  1
  Bi2+  Bi93  1  0.74047727  0.57653396  0.79191729  1
  Bi2+  Bi94  1  0.74448335  0.91323567  0.31553836  1
  Bi2+  Bi95  1  0.73062908  0.89551978  0.78902939  1
  Bi2+  Bi96  1  0.14154539  -0.03179506  0.20825791  1
  Bi2+  Bi97  1  0.13290516  0.01820615  0.71172984  1
  Bi2+  Bi98  1  0.11680941  0.28499348  0.21708999  1
  Bi2+  Bi99  1  0.11627346  0.28190289  0.71001466  1
  Bi2+  Bi100  1  0.09744083  0.47683630  0.17340213  1
  Bi2+  Bi101  1  0.08299380  0.47632863  0.69917774  1
  Bi2+  Bi102  1  0.06852594  0.67197593  0.19905149  1
  Bi2+  Bi103  1  0.18534611  0.74278228  0.70974585  1
  Bi2+  Bi104  1  0.38476114  -0.02781285  0.22806000  1
  Bi2+  Bi105  1  0.38331294  -0.00949322  0.71800489  1
  Bi2+  Bi106  1  0.30422932  0.22904904  0.20117999  1
  Bi2+  Bi107  1  0.38489187  0.28875200  0.71904514  1
  Bi2+  Bi108  1  0.28447230  0.50089974  0.21220659  1
  Bi2+  Bi109  1  0.36164555  0.61672995  0.70861645  1
  Bi2+  Bi110  1  0.36001519  0.77891839  0.20140115  1
  Bi2+  Bi111  1  0.36920882  0.81234525  0.67350213  1
  Bi2+  Bi112  1  0.63871151  -0.01824634  0.21179934  1
  Bi2+  Bi113  1  0.59081675  0.00157862  0.70443589  1
  Bi2+  Bi114  1  0.63633799  0.22619566  0.20994385  1
  Bi2+  Bi115  1  0.60529228  0.24904126  0.69898339  1
  Bi2+  Bi116  1  0.64685007  0.53209791  0.18542241  1
  Bi2+  Bi117  1  0.63663352  0.46298242  0.71920021  1
  Bi2+  Bi118  1  0.61319221  0.80303007  0.26015016  1
  Bi2+  Bi119  1  0.60781786  0.73215354  0.70347504  1
  Bi2+  Bi120  1  0.89845500  -0.00838864  0.19687540  1
  Bi2+  Bi121  1  0.87410580  0.00584036  0.71368457  1
  Bi2+  Bi122  1  0.89649406  0.25097672  0.21623670  1
  Bi2+  Bi123  1  0.86055913  0.27229197  0.71717608  1
  Bi2+  Bi124  1  0.90693829  0.53193791  0.20865301  1
  Bi2+  Bi125  1  0.86565926  0.47442733  0.72290308  1
  Bi2+  Bi126  1  0.82971097  0.81386843  0.22623573  1
  Bi2+  Bi127  1  0.86754609  0.73186023  0.71292755  1
  S2-  S128  1  -0.02752007  0.13704365  0.16460789  1
  S2-  S129  1  0.00198792  0.05683145  0.64871036  1
  S2-  S130  1  -0.08090965  0.36842623  0.14731866  1
  S2-  S131  1  -0.00811199  0.35034409  0.64836727  1
  S2-  S132  1  -0.11520373  0.64993119  0.13936822  1
  S2-  S133  1  -0.01276738  0.69977086  0.65299996  1
  S2-  S134  1  0.01589486  0.94580441  0.13186143  1
  S2-  S135  1  -0.00834919  0.87855793  0.71680124  1
  S2-  S136  1  0.19673548  0.09817355  0.16194106  1
  S2-  S137  1  0.25935525  0.09754796  0.66862203  1
  S2-  S138  1  0.34324125  0.37347434  0.14710368  1
  S2-  S139  1  0.27639438  0.36762063  0.65768298  1
  S2-  S140  1  0.28515433  0.64167676  0.15481210  1
  S2-  S141  1  0.20017988  0.59458792  0.65534428  1
  S2-  S142  1  0.23679830  0.86849486  0.15085906  1
  S2-  S143  1  0.15850237  0.89249125  0.64812867  1
  S2-  S144  1  0.55111376  0.09588287  0.15248507  1
  S2-  S145  1  0.51822769  0.12811849  0.65002043  1
  S2-  S146  1  0.52848327  0.33622577  0.18292849  1
  S2-  S147  1  0.51296604  0.38199158  0.65922518  1
  S2-  S148  1  0.48828293  0.55780621  0.17486282  1
  S2-  S149  1  0.50799960  0.63398899  0.64954751  1
  S2-  S150  1  0.49250886  0.79795229  0.14177818  1
  S2-  S151  1  0.60190744  0.87020105  0.63726759  1
  S2-  S152  1  0.77048040  0.20160555  0.15057946  1
  S2-  S153  1  0.73484537  0.05026025  0.66273493  1
  S2-  S154  1  0.72599472  0.37569830  0.19235096  1
  S2-  S155  1  0.74700702  0.27120004  0.63751104  1
  S2-  S156  1  0.66375855  0.67373419  0.14463100  1
  S2-  S157  1  0.74312517  0.66387366  0.65516196  1
  S2-  S158  1  0.75701773  0.97033145  0.13401797  1
  S2-  S159  1  0.83076222  0.86919380  0.65646854  1
  S2-  S160  1  0.07600758  -0.04037780  0.32344483  1
  S2-  S161  1  0.11138811  -0.02981340  0.81433529  1
  S2-  S162  1  0.12437266  0.16920573  0.35586791  1
  S2-  S163  1  0.13568808  0.17685256  0.86072215  1
  S2-  S164  1  0.23786543  0.49838476  0.35830436  1
  S2-  S165  1  0.13830788  0.44344159  0.84171719  1
  S2-  S166  1  0.16885729  0.75410619  0.35183239  1
  S2-  S167  1  0.05407335  0.70178423  0.85369482  1
  S2-  S168  1  0.27930892  -0.00416601  0.36095233  1
  S2-  S169  1  0.30975008  0.01292375  0.85390869  1
  S2-  S170  1  0.37774466  0.28477041  0.34437937  1
  S2-  S171  1  0.36032491  0.24429436  0.85177719  1
  S2-  S172  1  0.44755956  0.50799309  0.34418056  1
  S2-  S173  1  0.39088880  0.48394505  0.85184409  1
  S2-  S174  1  0.39430023  0.73823126  0.33356317  1
  S2-  S175  1  0.42649616  0.72667102  0.84480009  1
  S2-  S176  1  0.65130949  0.11870596  0.35915907  1
  S2-  S177  1  0.66440605  0.04359292  0.82799290  1
  S2-  S178  1  0.62056022  0.33837841  0.34622192  1
  S2-  S179  1  0.61663609  0.25844624  0.85306627  1
  S2-  S180  1  0.60598673  0.50026670  0.27969525  1
  S2-  S181  1  0.62637076  0.59031632  0.86725543  1
  S2-  S182  1  0.61190319  0.67743165  0.34061028  1
  S2-  S183  1  0.61845781  0.84610070  0.85060722  1
  S2-  S184  1  0.87876231  0.03149308  0.34471819  1
  S2-  S185  1  0.87989810  -0.03016747  0.81876775  1
  S2-  S186  1  0.86000600  0.25672401  0.33956741  1
  S2-  S187  1  0.87467153  0.16075081  0.85942901  1
  S2-  S188  1  0.78301021  0.50602525  0.35275688  1
  S2-  S189  1  0.87679109  0.57443930  0.86116540  1
  S2-  S190  1  0.84234361  0.77889961  0.35184968  1
  S2-  S191  1  0.83684897  0.76806664  0.81808485  1
  S2-  S192  1  -0.00004869  0.12186022  0.45240373  1
  S2-  S193  1  0.00867099  0.12475421  0.95715951  1
  S2-  S194  1  0.00013909  0.37209597  0.44208334  1
  S2-  S195  1  0.00689158  0.36530037  0.95710179  1
  S2-  S196  1  -0.00236995  0.62784864  0.45566412  1
  S2-  S197  1  0.00705982  0.61451417  0.96245453  1
  S2-  S198  1  0.00289168  0.87426838  0.44231622  1
  S2-  S199  1  0.01084812  0.87706361  0.93518105  1
  S2-  S200  1  0.25163531  0.12732571  0.45963172  1
  S2-  S201  1  0.26118965  0.12817442  0.96173627  1
  S2-  S202  1  0.24402165  0.36922770  0.45370767  1
  S2-  S203  1  0.25680133  0.37136071  0.95730710  1
  S2-  S204  1  0.24698811  0.62847559  0.45535215  1
  S2-  S205  1  0.25500911  0.61620753  0.95025516  1
  S2-  S206  1  0.24823207  0.87233637  0.45842021  1
  S2-  S207  1  0.25498209  0.86952588  0.94552175  1
  S2-  S208  1  0.49571273  0.12402453  0.44492644  1
  S2-  S209  1  0.50690161  0.11906886  0.95166981  1
  S2-  S210  1  0.49839856  0.37897552  0.45091635  1
  S2-  S211  1  0.50729530  0.37537211  0.96591896  1
  S2-  S212  1  0.49812703  0.62445089  0.44791495  1
  S2-  S213  1  0.50285634  0.61803082  0.96628133  1
  S2-  S214  1  0.49989359  0.87353362  0.45062757  1
  S2-  S215  1  0.49759277  0.86991081  0.94921305  1
  S2-  S216  1  0.75685704  0.12336427  0.46041340  1
  S2-  S217  1  0.74969186  0.12136659  0.95646877  1
  S2-  S218  1  0.75774760  0.36827253  0.45403979  1
  S2-  S219  1  0.75406784  0.37054383  0.96090002  1
  S2-  S220  1  0.75320824  0.62892152  0.45305489  1
  S2-  S221  1  0.75721549  0.61719145  0.96178285  1
  S2-  S222  1  0.74944730  0.87483102  0.45886989  1
  S2-  S223  1  0.76383483  0.86709370  0.94271261  1
  S2-  S224  1  0.13642506  -0.00007450  0.03181749  1
  S2-  S225  1  0.12661776  -0.00139032  0.53929564  1
  S2-  S226  1  0.13084563  0.24481451  0.05632634  1
  S2-  S227  1  0.12294027  0.24496676  0.54895970  1
  S2-  S228  1  0.13206373  0.49656005  0.04599250  1
  S2-  S229  1  0.12388377  0.50225027  0.54012510  1
  S2-  S230  1  0.12958464  0.74614742  0.04506900  1
  S2-  S231  1  0.12337013  0.74975212  0.55022439  1
  S2-  S232  1  0.38108890  -0.00264692  0.05156723  1
  S2-  S233  1  0.37757085  -0.00544150  0.55092578  1
  S2-  S234  1  0.38584522  0.24240516  0.05372435  1
  S2-  S235  1  0.37242054  0.24870483  0.54951695  1
  S2-  S236  1  0.38158245  0.50351632  0.05347215  1
  S2-  S237  1  0.37384447  0.50092871  0.54494592  1
  S2-  S238  1  0.37568913  0.74872048  0.04301625  1
  S2-  S239  1  0.37918482  0.74815566  0.54200231  1
  S2-  S240  1  0.62481823  -0.00780885  0.03418015  1
  S2-  S241  1  0.62316758  -0.00062345  0.53879779  1
  S2-  S242  1  0.62562509  0.24823241  0.05694814  1
  S2-  S243  1  0.62340834  0.24959028  0.53808078  1
  S2-  S244  1  0.63451775  0.49162343  0.05902772  1
  S2-  S245  1  0.62834889  0.50075841  0.55382600  1
  S2-  S246  1  0.63233256  0.75213491  0.03517223  1
  S2-  S247  1  0.62286409  0.74652273  0.53860984  1
  S2-  S248  1  0.88261036  -0.00340636  0.03007576  1
  S2-  S249  1  0.87581302  -0.00492128  0.54908067  1
  S2-  S250  1  0.88578765  0.23805403  0.04687173  1
  S2-  S251  1  0.88322039  0.24370922  0.54334239  1
  S2-  S252  1  0.88053627  0.49103400  0.05032845  1
  S2-  S253  1  0.87607823  0.50019237  0.54714132  1
  S2-  S254  1  0.88399472  0.75002411  0.03244879  1
  S2-  S255  1  0.87625035  0.75346336  0.54942713  1
