# generated using pymatgen
data_La12Ce14Pr13Nd13Sm12(BiS2)64
_symmetry_space_group_name_H-M   'P 1'
_cell_length_a   16.18681610
_cell_length_b   16.20934566
_cell_length_c   27.18603000
_cell_angle_alpha   89.89228419
_cell_angle_beta   90.00956010
_cell_angle_gamma   90.03776973
_symmetry_Int_Tables_number   1
_chemical_formula_structural   La12Ce14Pr13Nd13Sm12(BiS2)64
_chemical_formula_sum   'La12 Ce14 Pr13 Nd13 Sm12 Bi64 S128'
_cell_volume   7132.99369850
_cell_formula_units_Z   1
loop_
 _symmetry_equiv_pos_site_id
 _symmetry_equiv_pos_as_xyz
  1  'x, y, z'
loop_
 _atom_type_symbol
 _atom_type_oxidation_number
  La3+  3.0
  Ce3+  3.0
  Pr3+  3.0
  Nd3+  3.0
  Sm3+  3.0
  Bi2+  2.0
  S2-  -2.0
loop_
 _atom_site_type_symbol
 _atom_site_label
 _atom_site_symmetry_multiplicity
 _atom_site_fract_x
 _atom_site_fract_y
 _atom_site_fract_z
 _atom_site_occupancy
  La3+  La0  1  0.23477512  0.63268588  0.07087816  1
  La3+  La1  1  0.12763193  0.25627291  0.93165802  1
  La3+  La2  1  0.00741001  0.61389964  0.59873277  1
  La3+  La3  1  0.63362497  0.75468564  0.42014231  1
  La3+  La4  1  0.62080496  0.00762363  0.93875453  1
  La3+  La5  1  0.62526780  0.26470663  0.89986700  1
  La3+  La6  1  0.11639665  -0.01561765  0.40510512  1
  La3+  La7  1  0.23596615  0.88098962  0.08116783  1
  La3+  La8  1  0.86374879  0.76675301  0.90698216  1
  La3+  La9  1  0.13755802  0.76949420  0.91766760  1
  La3+  La10  1  0.49460917  0.62440038  0.55318764  1
  La3+  La11  1  0.00642481  0.38580163  0.06831143  1
  Ce3+  Ce12  1  0.61980871  0.50073517  0.44340013  1
  Ce3+  Ce13  1  0.74977358  0.37339377  0.56125386  1
  Ce3+  Ce14  1  0.49713698  0.87806839  0.06933787  1
  Ce3+  Ce15  1  0.12702918  0.00683072  0.94455603  1
  Ce3+  Ce16  1  0.74556519  0.12721084  0.55797794  1
  Ce3+  Ce17  1  0.87307532  0.00933102  0.94037872  1
  Ce3+  Ce18  1  -0.00293699  0.12824695  0.55514260  1
  Ce3+  Ce19  1  0.62080978  -0.00148517  0.44436617  1
  Ce3+  Ce20  1  0.74812588  0.62136726  0.56370154  1
  Ce3+  Ce21  1  0.36878928  0.75320983  0.43926882  1
  Ce3+  Ce22  1  0.62512548  0.75867103  0.94692346  1
  Ce3+  Ce23  1  0.11842369  0.50112865  0.43929051  1
  Ce3+  Ce24  1  0.24277195  0.12099239  0.55054891  1
  Ce3+  Ce25  1  -0.00103177  0.63874423  0.04284736  1
  Pr3+  Pr26  1  0.62057932  0.25021777  0.43483392  1
  Pr3+  Pr27  1  0.74791857  0.13630250  0.05726715  1
  Pr3+  Pr28  1  0.86777898  0.25070989  0.43085890  1
  Pr3+  Pr29  1  0.12451003  0.51154744  0.92699838  1
  Pr3+  Pr30  1  0.37688525  0.50958797  0.94803839  1
  Pr3+  Pr31  1  0.75012187  0.38578720  0.06465062  1
  Pr3+  Pr32  1  -0.01190217  0.87761984  0.57407004  1
  Pr3+  Pr33  1  0.24958281  0.38128288  0.05464693  1
  Pr3+  Pr34  1  0.50142229  0.13387361  0.06051554  1
  Pr3+  Pr35  1  0.87518544  0.50572495  0.93853685  1
  Pr3+  Pr36  1  0.87141515  -0.00374179  0.43962860  1
  Pr3+  Pr37  1  0.62353545  0.50861952  0.93636694  1
  Pr3+  Pr38  1  0.73953878  0.87295764  0.57481506  1
  Nd3+  Nd39  1  0.49946020  0.38316440  0.06259941  1
  Nd3+  Nd40  1  -0.00131301  0.13340758  0.05988144  1
  Nd3+  Nd41  1  0.11256880  0.25202395  0.42655792  1
  Nd3+  Nd42  1  0.75167112  0.63364303  0.05848251  1
  Nd3+  Nd43  1  0.49315699  0.37434126  0.55565703  1
  Nd3+  Nd44  1  0.37059779  -0.00207325  0.44398594  1
  Nd3+  Nd45  1  0.00589900  0.36822080  0.57038276  1
  Nd3+  Nd46  1  0.87251427  0.50204214  0.44397639  1
  Nd3+  Nd47  1  0.37473711  0.75969334  0.94966180  1
  Nd3+  Nd48  1  0.25042116  0.13482669  0.06210182  1
  Nd3+  Nd49  1  0.74851495  0.88274777  0.06487534  1
  Nd3+  Nd50  1  0.87532522  0.25982194  0.94079167  1
  Nd3+  Nd51  1  0.24241416  0.87450576  0.56262522  1
  Sm3+  Sm52  1  0.50000320  0.63010586  0.06899817  1
  Sm3+  Sm53  1  -0.00255212  0.88228375  0.05305616  1
  Sm3+  Sm54  1  0.37674002  0.00709275  0.95521649  1
  Sm3+  Sm55  1  0.37826793  0.25698502  0.93675876  1
  Sm3+  Sm56  1  0.11979079  0.74929904  0.44896638  1
  Sm3+  Sm57  1  0.36723335  0.24662194  0.44256597  1
  Sm3+  Sm58  1  0.24517183  0.37387682  0.54983609  1
  Sm3+  Sm59  1  0.49483099  0.12709585  0.55967866  1
  Sm3+  Sm60  1  0.24584904  0.62491789  0.55727482  1
  Sm3+  Sm61  1  0.36834284  0.50036207  0.43439408  1
  Sm3+  Sm62  1  0.87353340  0.74948066  0.45472015  1
  Sm3+  Sm63  1  0.49785805  0.87325664  0.56224479  1
  Bi2+  Bi64  1  0.01550943  0.19391931  0.27037439  1
  Bi2+  Bi65  1  -0.04334124  0.09697573  0.79939656  1
  Bi2+  Bi66  1  -0.05066956  0.40797628  0.27756140  1
  Bi2+  Bi67  1  -0.02922121  0.37386629  0.80567300  1
  Bi2+  Bi68  1  -0.00742242  0.64131898  0.26492278  1
  Bi2+  Bi69  1  -0.00636732  0.60192896  0.79799724  1
  Bi2+  Bi70  1  -0.00551393  0.83255684  0.29018976  1
  Bi2+  Bi71  1  0.00928960  0.87616010  0.79784252  1
  Bi2+  Bi72  1  0.28474881  0.13578489  0.29913542  1
  Bi2+  Bi73  1  0.23566748  0.19294552  0.81644315  1
  Bi2+  Bi74  1  0.21463234  0.39740226  0.27567814  1
  Bi2+  Bi75  1  0.29038557  0.37713070  0.77181253  1
  Bi2+  Bi76  1  0.27504122  0.59983964  0.29220707  1
  Bi2+  Bi77  1  0.32482283  0.58632824  0.75780974  1
  Bi2+  Bi78  1  0.26435425  0.86576976  0.29870762  1
  Bi2+  Bi79  1  0.29812521  0.89635618  0.80964765  1
  Bi2+  Bi80  1  0.53377581  0.16016048  0.32290770  1
  Bi2+  Bi81  1  0.40460227  0.10769582  0.78735038  1
  Bi2+  Bi82  1  0.47742679  0.32559467  0.26992540  1
  Bi2+  Bi83  1  0.48910612  0.38514823  0.79174019  1
  Bi2+  Bi84  1  0.48747793  0.61417521  0.26712214  1
  Bi2+  Bi85  1  0.51690399  0.60441338  0.81287853  1
  Bi2+  Bi86  1  0.50567681  0.88855168  0.26772598  1
  Bi2+  Bi87  1  0.48179194  0.79800344  0.80881184  1
  Bi2+  Bi88  1  0.81758548  0.13669064  0.30640100  1
  Bi2+  Bi89  1  0.76166530  0.08242252  0.77316998  1
  Bi2+  Bi90  1  0.75398275  0.34341450  0.26796253  1
  Bi2+  Bi91  1  0.73324029  0.35094171  0.77142404  1
  Bi2+  Bi92  1  0.73485162  0.60674634  0.30929291  1
  Bi2+  Bi93  1  0.69460645  0.59614575  0.76318226  1
  Bi2+  Bi94  1  0.77965125  0.86552205  0.29586775  1
  Bi2+  Bi95  1  0.73790355  0.88426230  0.78891112  1
  Bi2+  Bi96  1  0.12761846  -0.00753676  0.20592374  1
  Bi2+  Bi97  1  0.13461170  0.05156019  0.75209974  1
  Bi2+  Bi98  1  0.16065683  0.25745973  0.19988730  1
  Bi2+  Bi99  1  0.12997699  0.22790153  0.70239731  1
  Bi2+  Bi100  1  0.10395081  0.50937707  0.20856509  1
  Bi2+  Bi101  1  0.13031925  0.47090846  0.70740492  1
  Bi2+  Bi102  1  0.13314579  0.73655859  0.20324070  1
  Bi2+  Bi103  1  0.14373506  0.73772617  0.71627602  1
  Bi2+  Bi104  1  0.42288163  0.05719568  0.24215217  1
  Bi2+  Bi105  1  0.36488091  -0.05635774  0.70511441  1
  Bi2+  Bi106  1  0.35438069  0.25515532  0.18247061  1
  Bi2+  Bi107  1  0.33481999  0.22123784  0.70678923  1
  Bi2+  Bi108  1  0.35711523  0.44418787  0.19984727  1
  Bi2+  Bi109  1  0.37581287  0.45930983  0.67598216  1
  Bi2+  Bi110  1  0.39375265  0.77900272  0.19907985  1
  Bi2+  Bi111  1  0.39435661  0.74470298  0.70708787  1
  Bi2+  Bi112  1  0.65708851  0.02840898  0.28059510  1
  Bi2+  Bi113  1  0.54952033  -0.03755132  0.72277492  1
  Bi2+  Bi114  1  0.62251539  0.20068343  0.21369204  1
  Bi2+  Bi115  1  0.60355906  0.21627091  0.69774115  1
  Bi2+  Bi116  1  0.60850028  0.46817494  0.24171266  1
  Bi2+  Bi117  1  0.56281958  0.49305747  0.70380382  1
  Bi2+  Bi118  1  0.64274918  0.78632003  0.20796425  1
  Bi2+  Bi119  1  0.61780059  0.76523193  0.72689582  1
  Bi2+  Bi120  1  0.91210801  -0.00439971  0.25267717  1
  Bi2+  Bi121  1  0.97019455  0.00787402  0.69533267  1
  Bi2+  Bi122  1  0.84905781  0.22604898  0.18563323  1
  Bi2+  Bi123  1  0.87905652  0.20159989  0.71275350  1
  Bi2+  Bi124  1  0.84910243  0.51423448  0.19763866  1
  Bi2+  Bi125  1  0.83232214  0.48665269  0.70872591  1
  Bi2+  Bi126  1  0.84287515  0.72211487  0.20421829  1
  Bi2+  Bi127  1  0.87474008  0.77021472  0.70450277  1
  S2-  S128  1  -0.01746747  0.13535323  0.15899858  1
  S2-  S129  1  -0.00844381  0.22988475  0.63644597  1
  S2-  S130  1  -0.06286688  0.37824096  0.16152961  1
  S2-  S131  1  -0.01366263  0.46168156  0.65565730  1
  S2-  S132  1  0.07543735  0.62437921  0.13042401  1
  S2-  S133  1  -0.00464571  0.65009716  0.69946189  1
  S2-  S134  1  0.07273218  0.86882164  0.14143126  1
  S2-  S135  1  0.03069512  0.83912228  0.67056839  1
  S2-  S136  1  0.21450437  0.10149390  0.15824515  1
  S2-  S137  1  0.23641256  0.11811282  0.64890286  1
  S2-  S138  1  0.14780820  0.39619605  0.13579157  1
  S2-  S139  1  0.16735329  0.36509497  0.63806980  1
  S2-  S140  1  0.27921968  0.66897114  0.16848712  1
  S2-  S141  1  0.17622127  0.61127179  0.64711683  1
  S2-  S142  1  0.27281430  0.89960760  0.18175221  1
  S2-  S143  1  0.24424399  0.84068839  0.66068916  1
  S2-  S144  1  0.48366153  0.13846302  0.16045204  1
  S2-  S145  1  0.51305564  0.10339293  0.65713827  1
  S2-  S146  1  0.50924837  0.45022536  0.15399890  1
  S2-  S147  1  0.50839234  0.33539898  0.65239571  1
  S2-  S148  1  0.51363393  0.67144182  0.16423607  1
  S2-  S149  1  0.47915509  0.62446255  0.65341030  1
  S2-  S150  1  0.53696408  0.90177263  0.16362648  1
  S2-  S151  1  0.60145056  0.86812287  0.64225077  1
  S2-  S152  1  0.73286831  0.11073656  0.15708512  1
  S2-  S153  1  0.74025116  0.13473245  0.65697189  1
  S2-  S154  1  0.72255486  0.35331440  0.16228460  1
  S2-  S155  1  0.74813856  0.37056400  0.66062997  1
  S2-  S156  1  0.73054771  0.60410614  0.15614421  1
  S2-  S157  1  0.77477415  0.63957478  0.66048741  1
  S2-  S158  1  0.76916272  0.86706549  0.16379671  1
  S2-  S159  1  0.83470860  0.90633122  0.65690248  1
  S2-  S160  1  0.16890271  0.00889830  0.30551338  1
  S2-  S161  1  0.14036500  -0.07278006  0.85854155  1
  S2-  S162  1  0.15321284  0.21073435  0.33169966  1
  S2-  S163  1  0.05868599  0.25638125  0.83918067  1
  S2-  S164  1  0.14903234  0.51575619  0.34272784  1
  S2-  S165  1  0.10898577  0.47540617  0.82826752  1
  S2-  S166  1  0.12697996  0.82010136  0.35888764  1
  S2-  S167  1  0.10203379  0.72491657  0.81898204  1
  S2-  S168  1  0.37424406  -0.03513470  0.34637224  1
  S2-  S169  1  0.42275169  -0.00688046  0.86080791  1
  S2-  S170  1  0.37197335  0.26548011  0.34570271  1
  S2-  S171  1  0.46684781  0.25310814  0.85267686  1
  S2-  S172  1  0.39316413  0.51499776  0.33757030  1
  S2-  S173  1  0.38035995  0.50979673  0.84763668  1
  S2-  S174  1  0.34302712  0.74009375  0.34149552  1
  S2-  S175  1  0.29546995  0.75832324  0.86156014  1
  S2-  S176  1  0.64441391  -0.09140967  0.36321717  1
  S2-  S177  1  0.65542501  0.00512738  0.84002687  1
  S2-  S178  1  0.73543674  0.26463912  0.35747378  1
  S2-  S179  1  0.65263279  0.20839226  0.80058539  1
  S2-  S180  1  0.64343959  0.48714980  0.34739447  1
  S2-  S181  1  0.63554510  0.41732615  0.85023018  1
  S2-  S182  1  0.58659233  0.69561099  0.32539077  1
  S2-  S183  1  0.70155442  0.77128610  0.85996558  1
  S2-  S184  1  0.96284773  -0.02372106  0.35424513  1
  S2-  S185  1  0.87914366  -0.07571509  0.85390780  1
  S2-  S186  1  0.97528867  0.28693598  0.35289699  1
  S2-  S187  1  0.83413979  0.29061455  0.84618409  1
  S2-  S188  1  0.86818980  0.50975877  0.34346177  1
  S2-  S189  1  0.86872330  0.50667152  0.83798597  1
  S2-  S190  1  0.79968309  0.74438138  0.36496558  1
  S2-  S191  1  0.89272514  0.72876690  0.80704102  1
  S2-  S192  1  0.00053631  0.12066594  0.44820416  1
  S2-  S193  1  -0.00092357  0.13169305  0.95215146  1
  S2-  S194  1  -0.00347283  0.37851664  0.45960938  1
  S2-  S195  1  0.00219723  0.38321163  0.95334916  1
  S2-  S196  1  -0.00362013  0.62959743  0.44484674  1
  S2-  S197  1  -0.00293340  0.63993981  0.93730242  1
  S2-  S198  1  -0.00372508  0.87110124  0.46430543  1
  S2-  S199  1  -0.00245734  0.88268143  0.95130247  1
  S2-  S200  1  0.24291422  0.11981238  0.44404968  1
  S2-  S201  1  0.25562419  0.13117014  0.95443311  1
  S2-  S202  1  0.24594809  0.37382723  0.44463339  1
  S2-  S203  1  0.25271939  0.38235978  0.94630580  1
  S2-  S204  1  0.24589612  0.62614667  0.45183988  1
  S2-  S205  1  0.24864909  0.63074676  0.95710621  1
  S2-  S206  1  0.24257659  0.87781502  0.45680310  1
  S2-  S207  1  0.25519649  0.88856540  0.96809807  1
  S2-  S208  1  0.49325348  0.12477222  0.45504074  1
  S2-  S209  1  0.50075300  0.13539280  0.95476943  1
  S2-  S210  1  0.49100443  0.37378873  0.44832786  1
  S2-  S211  1  0.50025667  0.38140864  0.95552260  1
  S2-  S212  1  0.49344437  0.62547997  0.44602344  1
  S2-  S213  1  0.50036870  0.63520258  0.96049571  1
  S2-  S214  1  0.49636191  0.87216839  0.45731305  1
  S2-  S215  1  0.49972383  0.88082627  0.96236479  1
  S2-  S216  1  0.74466295  0.12000174  0.45182220  1
  S2-  S217  1  0.74627440  0.13858785  0.94800345  1
  S2-  S218  1  0.74615297  0.37944193  0.45610707  1
  S2-  S219  1  0.74811004  0.38190580  0.95671312  1
  S2-  S220  1  0.74629906  0.62348735  0.45875165  1
  S2-  S221  1  0.75160882  0.63182802  0.95131161  1
  S2-  S222  1  0.75183588  0.87407974  0.46820544  1
  S2-  S223  1  0.74958795  0.88565072  0.95974229  1
  S2-  S224  1  0.12201651  0.01029235  0.04819644  1
  S2-  S225  1  0.11810855  -0.00215184  0.55549134  1
  S2-  S226  1  0.12508534  0.25372872  0.04103658  1
  S2-  S227  1  0.12582926  0.24749360  0.53416944  1
  S2-  S228  1  0.12400696  0.50761822  0.03253219  1
  S2-  S229  1  0.12398291  0.50179668  0.54298095  1
  S2-  S230  1  0.12244770  0.76182532  0.03388233  1
  S2-  S231  1  0.11903658  0.74683905  0.55204265  1
  S2-  S232  1  0.37264300  0.00688172  0.06055927  1
  S2-  S233  1  0.37504551  -0.00247962  0.55133344  1
  S2-  S234  1  0.37516203  0.25850020  0.04282950  1
  S2-  S235  1  0.36806530  0.24885155  0.54786010  1
  S2-  S236  1  0.37140767  0.51147097  0.05407692  1
  S2-  S237  1  0.36592647  0.49890137  0.54012536  1
  S2-  S238  1  0.37117812  0.75417281  0.05630308  1
  S2-  S239  1  0.36867599  0.75203463  0.54824445  1
  S2-  S240  1  0.62374436  0.00663204  0.04936846  1
  S2-  S241  1  0.61659205  0.00350518  0.54907522  1
  S2-  S242  1  0.62269944  0.26099486  0.05456380  1
  S2-  S243  1  0.61816949  0.25059078  0.54308706  1
  S2-  S244  1  0.62300723  0.51022725  0.04510900  1
  S2-  S245  1  0.62027902  0.49660271  0.55116772  1
  S2-  S246  1  0.62452541  0.75516733  0.05363606  1
  S2-  S247  1  0.62175603  0.74534384  0.54358106  1
  S2-  S248  1  0.87451723  0.00723497  0.04937398  1
  S2-  S249  1  0.87021358  0.00519811  0.54680341  1
  S2-  S250  1  0.87564646  0.26019651  0.04728383  1
  S2-  S251  1  0.86834550  0.24992217  0.53874021  1
  S2-  S252  1  0.87706514  0.50999701  0.04637171  1
  S2-  S253  1  0.87604825  0.50030375  0.55069680  1
  S2-  S254  1  0.87477606  0.76012841  0.04948484  1
  S2-  S255  1  0.87782409  0.74072167  0.55814145  1
