# generated using pymatgen
data_La12Ce14Pr13Nd13Sm12(BiS2)64
_symmetry_space_group_name_H-M   'P 1'
_cell_length_a   16.11480075
_cell_length_b   16.09714019
_cell_length_c   27.37459036
_cell_angle_alpha   89.77976608
_cell_angle_beta   90.28631456
_cell_angle_gamma   90.03319622
_symmetry_Int_Tables_number   1
_chemical_formula_structural   La12Ce14Pr13Nd13Sm12(BiS2)64
_chemical_formula_sum   'La12 Ce14 Pr13 Nd13 Sm12 Bi64 S128'
_cell_volume   7100.88691734
_cell_formula_units_Z   1
loop_
 _symmetry_equiv_pos_site_id
 _symmetry_equiv_pos_as_xyz
  1  'x, y, z'
loop_
 _atom_type_symbol
 _atom_type_oxidation_number
  La3+  3.0
  Ce3+  3.0
  Pr3+  3.0
  Nd3+  3.0
  Sm3+  3.0
  Bi2+  2.0
  S2-  -2.0
loop_
 _atom_site_type_symbol
 _atom_site_label
 _atom_site_symmetry_multiplicity
 _atom_site_fract_x
 _atom_site_fract_y
 _atom_site_fract_z
 _atom_site_occupancy
  La3+  La0  1  0.25020153  0.85597915  0.55251495  1
  La3+  La1  1  0.49682491  0.35726746  0.57368029  1
  La3+  La2  1  0.87426012  -0.01663213  0.43442636  1
  La3+  La3  1  0.50363090  0.87149906  0.10097911  1
  La3+  La4  1  0.11491477  0.22886620  0.41624706  1
  La3+  La5  1  0.75114129  0.10373537  0.56434400  1
  La3+  La6  1  0.02168050  0.62467609  0.61346097  1
  La3+  La7  1  0.75525339  0.60154060  0.57620529  1
  La3+  La8  1  0.24517100  0.63953796  0.08677859  1
  La3+  La9  1  0.86851107  0.48821658  0.42639034  1
  La3+  La10  1  0.12954783  0.72498287  0.41885547  1
  La3+  La11  1  0.12331951  0.50820293  0.94563907  1
  Ce3+  Ce12  1  0.74860225  0.12733735  0.05684072  1
  Ce3+  Ce13  1  0.12170975  0.00471138  0.94871882  1
  Ce3+  Ce14  1  0.12219575  -0.01393718  0.43908647  1
  Ce3+  Ce15  1  0.87435211  0.23494340  0.44293125  1
  Ce3+  Ce16  1  0.50057790  0.60479840  0.57714095  1
  Ce3+  Ce17  1  0.88229970  0.25334093  0.93656436  1
  Ce3+  Ce18  1  0.62267425  0.25540005  0.94419234  1
  Ce3+  Ce19  1  0.37014473  0.75076383  0.93784352  1
  Ce3+  Ce20  1  0.37773435  0.47871038  0.43945911  1
  Ce3+  Ce21  1  0.49760580  0.85924409  0.56406686  1
  Ce3+  Ce22  1  0.74985310  0.87842244  0.06501204  1
  Ce3+  Ce23  1  0.75341145  0.36407502  0.55710398  1
  Ce3+  Ce24  1  0.38275565  0.73212871  0.43128152  1
  Ce3+  Ce25  1  -0.00331468  0.87823818  0.06312471  1
  Pr3+  Pr26  1  0.50405241  0.10656445  0.57650600  1
  Pr3+  Pr27  1  0.86925904  0.76195639  0.91335322  1
  Pr3+  Pr28  1  0.62230016  0.00381919  0.94231139  1
  Pr3+  Pr29  1  0.61785933  -0.01771861  0.43736469  1
  Pr3+  Pr30  1  0.25637587  0.37652604  0.06831281  1
  Pr3+  Pr31  1  0.62638988  0.75402696  0.94028413  1
  Pr3+  Pr32  1  0.74948213  0.62999315  0.06611704  1
  Pr3+  Pr33  1  0.39676644  0.25237676  0.88078270  1
  Pr3+  Pr34  1  0.37144739  0.00401293  0.93689778  1
  Pr3+  Pr35  1  0.49748145  0.37785562  0.06651241  1
  Pr3+  Pr36  1  0.24533136  0.35880819  0.55744863  1
  Pr3+  Pr37  1  0.37055681  0.50604879  0.94182425  1
  Pr3+  Pr38  1  0.00747336  0.37487935  0.07528194  1
  Nd3+  Nd39  1  0.62339425  0.23178325  0.44593696  1
  Nd3+  Nd40  1  0.38104371  0.23972722  0.43001465  1
  Nd3+  Nd41  1  -0.00964733  0.62650335  0.07802179  1
  Nd3+  Nd42  1  0.00168807  0.36018313  0.55912036  1
  Nd3+  Nd43  1  0.25021255  0.11163282  0.55388156  1
  Nd3+  Nd44  1  0.00036727  0.85378194  0.55543960  1
  Nd3+  Nd45  1  0.37436114  -0.00844491  0.43172490  1
  Nd3+  Nd46  1  0.49908395  0.63016444  0.06217051  1
  Nd3+  Nd47  1  0.87519377  0.72895845  0.44288022  1
  Nd3+  Nd48  1  0.00286220  0.11204759  0.56853159  1
  Nd3+  Nd49  1  0.25296685  0.12712968  0.05807843  1
  Nd3+  Nd50  1  0.87524062  0.50636385  0.94166938  1
  Nd3+  Nd51  1  0.62309114  0.50267529  0.94098984  1
  Sm3+  Sm52  1  0.12383493  0.47826800  0.43189293  1
  Sm3+  Sm53  1  0.62204179  0.73028534  0.44932166  1
  Sm3+  Sm54  1  0.12908464  0.25729178  0.93440949  1
  Sm3+  Sm55  1  0.12176985  0.75444983  0.94642759  1
  Sm3+  Sm56  1  0.00051086  0.13183039  0.06505362  1
  Sm3+  Sm57  1  0.24915271  0.60685132  0.55104493  1
  Sm3+  Sm58  1  0.62288855  0.48429493  0.44265085  1
  Sm3+  Sm59  1  0.25118292  0.87755643  0.06003503  1
  Sm3+  Sm60  1  0.75157996  0.37762126  0.05277583  1
  Sm3+  Sm61  1  0.87563048  0.00414760  0.94377676  1
  Sm3+  Sm62  1  0.75149586  0.85295159  0.55377700  1
  Sm3+  Sm63  1  0.49768115  0.12738451  0.05387990  1
  Bi2+  Bi64  1  -0.11187527  0.11392242  0.28928731  1
  Bi2+  Bi65  1  -0.07666027  0.12506738  0.81201471  1
  Bi2+  Bi66  1  0.00328652  0.35318597  0.28490829  1
  Bi2+  Bi67  1  0.04106370  0.35310189  0.78101309  1
  Bi2+  Bi68  1  -0.00319770  0.63605205  0.30674693  1
  Bi2+  Bi69  1  0.01899555  0.59380297  0.82001935  1
  Bi2+  Bi70  1  -0.00106145  0.89955201  0.26971995  1
  Bi2+  Bi71  1  0.02069369  0.92303446  0.79059827  1
  Bi2+  Bi72  1  0.21121150  0.14239234  0.29288984  1
  Bi2+  Bi73  1  0.24530341  0.05394048  0.79354841  1
  Bi2+  Bi74  1  0.26986488  0.38359280  0.28301765  1
  Bi2+  Bi75  1  0.25754750  0.37564901  0.79116078  1
  Bi2+  Bi76  1  0.26656073  0.58590857  0.27717723  1
  Bi2+  Bi77  1  0.25914014  0.67295342  0.78589973  1
  Bi2+  Bi78  1  0.19483736  0.97730920  0.22928681  1
  Bi2+  Bi79  1  0.31080859  0.86991088  0.81999770  1
  Bi2+  Bi80  1  0.50416470  0.07435672  0.31546026  1
  Bi2+  Bi81  1  0.52275319  0.06124046  0.77641577  1
  Bi2+  Bi82  1  0.54900927  0.46034688  0.31351257  1
  Bi2+  Bi83  1  0.52463123  0.40559300  0.79299948  1
  Bi2+  Bi84  1  0.45261076  0.62801011  0.31012861  1
  Bi2+  Bi85  1  0.47772457  0.65223793  0.78219336  1
  Bi2+  Bi86  1  0.54019409  0.86553062  0.28573228  1
  Bi2+  Bi87  1  0.49693987  0.85273789  0.78711483  1
  Bi2+  Bi88  1  0.71786823  0.20554006  0.31349337  1
  Bi2+  Bi89  1  0.72934108  0.15105417  0.80537904  1
  Bi2+  Bi90  1  0.70103768  0.37369888  0.25301115  1
  Bi2+  Bi91  1  0.75086718  0.33845216  0.76474198  1
  Bi2+  Bi92  1  0.69942116  0.63014600  0.30239337  1
  Bi2+  Bi93  1  0.76184184  0.61780996  0.80795759  1
  Bi2+  Bi94  1  0.73291204  0.89637286  0.26173695  1
  Bi2+  Bi95  1  0.81585521  0.96622853  0.76753193  1
  Bi2+  Bi96  1  0.02334151  0.04617464  0.18917509  1
  Bi2+  Bi97  1  0.05710414  0.00276046  0.68872708  1
  Bi2+  Bi98  1  0.11424019  0.24576630  0.21294842  1
  Bi2+  Bi99  1  0.09127806  0.18517016  0.73084249  1
  Bi2+  Bi100  1  0.11971197  0.50861809  0.20400786  1
  Bi2+  Bi101  1  0.13620325  0.46915824  0.70401026  1
  Bi2+  Bi102  1  0.13645961  0.77848570  0.21806260  1
  Bi2+  Bi103  1  0.17469922  0.83917224  0.73504350  1
  Bi2+  Bi104  1  0.35344262  0.07503359  0.19901069  1
  Bi2+  Bi105  1  0.33901909  -0.03044720  0.70459839  1
  Bi2+  Bi106  1  0.38463024  0.24052079  0.26069610  1
  Bi2+  Bi107  1  0.33162710  0.21491224  0.69295659  1
  Bi2+  Bi108  1  0.47710152  0.48423007  0.20557943  1
  Bi2+  Bi109  1  0.35456017  0.57766690  0.70104364  1
  Bi2+  Bi110  1  0.37636026  0.77067146  0.22368456  1
  Bi2+  Bi111  1  0.43941460  0.75060826  0.68140743  1
  Bi2+  Bi112  1  0.62670968  0.11378923  0.22621323  1
  Bi2+  Bi113  1  0.62274021  -0.04854769  0.70118114  1
  Bi2+  Bi114  1  0.53125131  0.29426966  0.19286151  1
  Bi2+  Bi115  1  0.61839524  0.21842660  0.71718495  1
  Bi2+  Bi116  1  0.66133069  0.53483903  0.17617991  1
  Bi2+  Bi117  1  0.62201668  0.48090785  0.70653432  1
  Bi2+  Bi118  1  0.63300961  0.72236963  0.20273026  1
  Bi2+  Bi119  1  0.63133242  0.75242023  0.71944373  1
  Bi2+  Bi120  1  0.82646103  0.01642717  0.19201843  1
  Bi2+  Bi121  1  0.87383385  0.05317144  0.67216682  1
  Bi2+  Bi122  1  0.85751814  0.26978118  0.21444658  1
  Bi2+  Bi123  1  0.89479882  0.23715248  0.71011602  1
  Bi2+  Bi124  1  0.85236396  0.53154644  0.21126525  1
  Bi2+  Bi125  1  0.88246908  0.49727531  0.71289404  1
  Bi2+  Bi126  1  0.83989785  0.73548335  0.23795282  1
  Bi2+  Bi127  1  0.88153875  0.77917236  0.71145236  1
  S2-  S128  1  -0.01930389  0.23834116  0.14179982  1
  S2-  S129  1  0.02870760  0.23569042  0.63946416  1
  S2-  S130  1  -0.02677735  0.48913599  0.15259083  1
  S2-  S131  1  -0.00228177  0.45407495  0.64392261  1
  S2-  S132  1  0.09998274  0.65793631  0.15504994  1
  S2-  S133  1  0.02959653  0.59882636  0.72316879  1
  S2-  S134  1  0.01236067  0.86529511  0.16077071  1
  S2-  S135  1  0.00629473  0.79309896  0.64984533  1
  S2-  S136  1  0.24161477  0.17496751  0.15336033  1
  S2-  S137  1  0.24263063  0.07744072  0.65208518  1
  S2-  S138  1  0.14846780  0.37762577  0.14758436  1
  S2-  S139  1  0.25218828  0.35042797  0.65918284  1
  S2-  S140  1  0.28313554  0.56473739  0.17973573  1
  S2-  S141  1  0.19521200  0.60119157  0.64438314  1
  S2-  S142  1  0.26311307  0.79493077  0.14676955  1
  S2-  S143  1  0.27445834  0.83032861  0.65162025  1
  S2-  S144  1  0.51043664  0.11565538  0.15141611  1
  S2-  S145  1  0.47831244  0.23249549  0.64832003  1
  S2-  S146  1  0.38839848  0.37141638  0.14548288  1
  S2-  S147  1  0.47918598  0.47467650  0.65065600  1
  S2-  S148  1  0.48026468  0.71350759  0.14988795  1
  S2-  S149  1  0.62757556  0.62317455  0.65035415  1
  S2-  S150  1  0.44050692  0.91246680  0.19453415  1
  S2-  S151  1  0.48047504  0.96835563  0.64072884  1
  S2-  S152  1  0.75061890  0.15616861  0.15302633  1
  S2-  S153  1  0.65296156  0.10048729  0.64769177  1
  S2-  S154  1  0.76919347  0.38545585  0.15020398  1
  S2-  S155  1  0.75962203  0.44678192  0.64280808  1
  S2-  S156  1  0.85775318  0.66568638  0.14518255  1
  S2-  S157  1  0.85822693  0.63537839  0.65927931  1
  S2-  S158  1  0.66228572  0.87362380  0.14947479  1
  S2-  S159  1  0.74850470  0.84476973  0.65246380  1
  S2-  S160  1  0.10499489  0.07307238  0.35613800  1
  S2-  S161  1  0.10885744  0.02986686  0.85183834  1
  S2-  S162  1  0.13634602  0.36644790  0.35078363  1
  S2-  S163  1  0.22651228  0.25160883  0.85194180  1
  S2-  S164  1  0.13254121  0.58488597  0.34995078  1
  S2-  S165  1  0.13399195  0.46534734  0.84648423  1
  S2-  S166  1  0.08833416  0.79144592  0.32573403  1
  S2-  S167  1  0.12781505  0.71503599  0.85075466  1
  S2-  S168  1  0.42253272  -0.07612225  0.34217081  1
  S2-  S169  1  0.39132851  0.08396494  0.84692039  1
  S2-  S170  1  0.35873756  0.12113269  0.35765633  1
  S2-  S171  1  0.39633830  0.27492001  0.77233242  1
  S2-  S172  1  0.38203787  0.37522031  0.35927002  1
  S2-  S173  1  0.38518807  0.42381082  0.85264435  1
  S2-  S174  1  0.31552139  0.72426674  0.34088405  1
  S2-  S175  1  0.36402857  0.63541196  0.86433572  1
  S2-  S176  1  0.65802157  -0.02416206  0.33936166  1
  S2-  S177  1  0.64193582  0.01137181  0.84248090  1
  S2-  S178  1  0.55745574  0.22786062  0.35468042  1
  S2-  S179  1  0.56785025  0.27418583  0.85331559  1
  S2-  S180  1  0.71796808  0.49703026  0.35961945  1
  S2-  S181  1  0.62298945  0.52609746  0.84296647  1
  S2-  S182  1  0.58066708  0.73553697  0.35378326  1
  S2-  S183  1  0.71737965  0.74964672  0.85539091  1
  S2-  S184  1  0.89358909  -0.04545171  0.33682128  1
  S2-  S185  1  0.87938934  -0.08222478  0.85904779  1
  S2-  S186  1  0.95528911  0.23215894  0.35675522  1
  S2-  S187  1  0.99708515  0.26160063  0.86319948  1
  S2-  S188  1  0.93322564  0.48615277  0.32909701  1
  S2-  S189  1  0.87508484  0.49563960  0.84188147  1
  S2-  S190  1  0.84644318  0.70821418  0.34493098  1
  S2-  S191  1  0.90509583  0.71700962  0.81333767  1
  S2-  S192  1  -0.00578475  0.10687503  0.46229174  1
  S2-  S193  1  -0.00137625  0.12677568  0.96122653  1
  S2-  S194  1  -0.00384292  0.36151651  0.45276605  1
  S2-  S195  1  -0.00074471  0.38113360  0.96277362  1
  S2-  S196  1  -0.00130276  0.60788434  0.44264134  1
  S2-  S197  1  -0.00707707  0.63622232  0.95334449  1
  S2-  S198  1  0.00093773  0.85550388  0.44837708  1
  S2-  S199  1  -0.00088689  0.87797376  0.95674898  1
  S2-  S200  1  0.24509794  0.11083549  0.45190002  1
  S2-  S201  1  0.24652428  0.12557566  0.95414467  1
  S2-  S202  1  0.24835381  0.35595993  0.45288064  1
  S2-  S203  1  0.24502869  0.38287588  0.96162702  1
  S2-  S204  1  0.25676919  0.60386561  0.44849154  1
  S2-  S205  1  0.24508297  0.63509353  0.96682101  1
  S2-  S206  1  0.24981806  0.86014972  0.44402344  1
  S2-  S207  1  0.24566488  0.87864303  0.95621240  1
  S2-  S208  1  0.49983350  0.10887924  0.46363354  1
  S2-  S209  1  0.49763738  0.13122860  0.95070430  1
  S2-  S210  1  0.50468002  0.35964505  0.46309073  1
  S2-  S211  1  0.49963563  0.37961629  0.95942893  1
  S2-  S212  1  0.50047577  0.60493803  0.45794499  1
  S2-  S213  1  0.50325838  0.62937720  0.95717926  1
  S2-  S214  1  0.49814904  0.85744193  0.45733657  1
  S2-  S215  1  0.49810987  0.87757382  0.94102697  1
  S2-  S216  1  0.74837892  0.10645008  0.45366120  1
  S2-  S217  1  0.75173702  0.12880586  0.95075714  1
  S2-  S218  1  0.74670372  0.35636660  0.45204475  1
  S2-  S219  1  0.75101697  0.37807341  0.94730945  1
  S2-  S220  1  0.74492031  0.61184221  0.46286902  1
  S2-  S221  1  0.75020225  0.62720056  0.95836707  1
  S2-  S222  1  0.74671692  0.85506555  0.44878821  1
  S2-  S223  1  0.75049022  0.88251209  0.95864202  1
  S2-  S224  1  0.12535775  0.00214719  0.05543870  1
  S2-  S225  1  0.12305377  -0.01628446  0.54584995  1
  S2-  S226  1  0.12654059  0.24768059  0.04132246  1
  S2-  S227  1  0.12455692  0.23265317  0.53410388  1
  S2-  S228  1  0.12371021  0.51203517  0.05214251  1
  S2-  S229  1  0.12547323  0.48566163  0.53799239  1
  S2-  S230  1  0.12089449  0.75864134  0.04862707  1
  S2-  S231  1  0.12458475  0.72943708  0.53903370  1
  S2-  S232  1  0.37925809  -0.00354526  0.04901909  1
  S2-  S233  1  0.37134697  -0.01447032  0.53904234  1
  S2-  S234  1  0.37732804  0.24694057  0.04869697  1
  S2-  S235  1  0.37258824  0.23373798  0.54083226  1
  S2-  S236  1  0.37312144  0.51169884  0.05009844  1
  S2-  S237  1  0.37125722  0.48398042  0.54487027  1
  S2-  S238  1  0.38001646  0.76049284  0.04420844  1
  S2-  S239  1  0.37649742  0.72854831  0.54136875  1
  S2-  S240  1  0.62051441  0.00065131  0.04856944  1
  S2-  S241  1  0.62857928  -0.02355009  0.54317826  1
  S2-  S242  1  0.62398623  0.25355304  0.04988477  1
  S2-  S243  1  0.62930102  0.23725505  0.55084879  1
  S2-  S244  1  0.62491536  0.50172623  0.04717985  1
  S2-  S245  1  0.62229732  0.48249585  0.54526010  1
  S2-  S246  1  0.62383021  0.75524921  0.04654273  1
  S2-  S247  1  0.62272237  0.73634616  0.55095001  1
  S2-  S248  1  0.87578846  0.00591454  0.04948769  1
  S2-  S249  1  0.87613296  -0.02218029  0.54328665  1
  S2-  S250  1  0.87097052  0.25290203  0.04127782  1
  S2-  S251  1  0.87295998  0.23342048  0.54821584  1
  S2-  S252  1  0.87043739  0.50212611  0.04614298  1
  S2-  S253  1  0.87523148  0.48077391  0.53682748  1
  S2-  S254  1  0.87290353  0.75859689  0.04174311  1
  S2-  S255  1  0.87623961  0.73197514  0.54663452  1
