# generated using pymatgen
data_La12Ce14Pr13Nd13Sm12(BiS2)64
_symmetry_space_group_name_H-M   'P 1'
_cell_length_a   16.12211424
_cell_length_b   16.14354047
_cell_length_c   27.30853343
_cell_angle_alpha   89.91416799
_cell_angle_beta   89.84447333
_cell_angle_gamma   89.99170496
_symmetry_Int_Tables_number   1
_chemical_formula_structural   La12Ce14Pr13Nd13Sm12(BiS2)64
_chemical_formula_sum   'La12 Ce14 Pr13 Nd13 Sm12 Bi64 S128'
_cell_volume   7107.50325119
_cell_formula_units_Z   1
loop_
 _symmetry_equiv_pos_site_id
 _symmetry_equiv_pos_as_xyz
  1  'x, y, z'
loop_
 _atom_type_symbol
 _atom_type_oxidation_number
  La3+  3.0
  Ce3+  3.0
  Pr3+  3.0
  Nd3+  3.0
  Sm3+  3.0
  Bi2+  2.0
  S2-  -2.0
loop_
 _atom_site_type_symbol
 _atom_site_label
 _atom_site_symmetry_multiplicity
 _atom_site_fract_x
 _atom_site_fract_y
 _atom_site_fract_z
 _atom_site_occupancy
  La3+  La0  1  0.61848910  0.00349295  0.93199098  1
  La3+  La1  1  0.74146886  0.62957091  0.09335495  1
  La3+  La2  1  0.85830006  0.46408290  0.40285016  1
  La3+  La3  1  0.49207734  0.87825425  0.06604708  1
  La3+  La4  1  0.47638071  0.09817940  0.58727387  1
  La3+  La5  1  0.35952216  0.75995714  0.92969888  1
  La3+  La6  1  0.74722607  0.88911421  0.11276610  1
  La3+  La7  1  0.37559598  0.22486270  0.42566344  1
  La3+  La8  1  0.36632526  0.51616845  0.92047075  1
  La3+  La9  1  0.47259774  0.35610418  0.57606393  1
  La3+  La10  1  -0.01400133  0.09918655  0.57036501  1
  La3+  La11  1  0.10978969  0.23237967  0.42568905  1
  Ce3+  Ce12  1  -0.01423440  0.60154207  0.54677308  1
  Ce3+  Ce13  1  0.23336200  0.60496671  0.55131934  1
  Ce3+  Ce14  1  0.10888547  0.72923698  0.42731440  1
  Ce3+  Ce15  1  0.11374483  0.48172655  0.42526900  1
  Ce3+  Ce16  1  0.48937043  0.38470742  0.05383614  1
  Ce3+  Ce17  1  0.86193015  0.22838396  0.44387205  1
  Ce3+  Ce18  1  0.85781500  0.72596965  0.43941465  1
  Ce3+  Ce19  1  0.11785258  0.25983710  0.94882004  1
  Ce3+  Ce20  1  -0.01068175  0.38216491  0.06221598  1
  Ce3+  Ce21  1  0.86821082  0.75974783  0.94160723  1
  Ce3+  Ce22  1  0.36307338  -0.01853976  0.43563890  1
  Ce3+  Ce23  1  0.36223678  0.72894355  0.43482277  1
  Ce3+  Ce24  1  0.73312581  0.10411646  0.56042110  1
  Ce3+  Ce25  1  0.23715132  0.10458753  0.55266781  1
  Pr3+  Pr26  1  0.36979207  0.25843143  0.93072948  1
  Pr3+  Pr27  1  -0.01460962  0.35456983  0.55835759  1
  Pr3+  Pr28  1  0.73201893  0.60251205  0.55799122  1
  Pr3+  Pr29  1  0.87393788  0.01453230  0.92787141  1
  Pr3+  Pr30  1  0.24320105  0.38552442  0.06268291  1
  Pr3+  Pr31  1  0.11711949  0.50726375  0.93262481  1
  Pr3+  Pr32  1  0.73925835  0.38143262  0.06945403  1
  Pr3+  Pr33  1  0.86784940  0.26197504  0.93402688  1
  Pr3+  Pr34  1  -0.01150287  0.12755526  0.06469015  1
  Pr3+  Pr35  1  0.61696113  0.51008071  0.93938757  1
  Pr3+  Pr36  1  0.86017126  -0.02185757  0.44207078  1
  Pr3+  Pr37  1  0.48812944  0.13045730  0.06080994  1
  Pr3+  Pr38  1  0.36652888  0.00410090  0.93759425  1
  Nd3+  Nd39  1  0.60957653  -0.01774607  0.44147447  1
  Nd3+  Nd40  1  0.10825722  0.75692620  0.93596026  1
  Nd3+  Nd41  1  0.60814945  0.47778414  0.43489357  1
  Nd3+  Nd42  1  0.60469538  0.72876951  0.42280665  1
  Nd3+  Nd43  1  0.48357937  0.85568025  0.55861892  1
  Nd3+  Nd44  1  0.73273285  0.85180189  0.55954983  1
  Nd3+  Nd45  1  0.36584435  0.47413005  0.42630218  1
  Nd3+  Nd46  1  -0.01083584  0.63235901  0.06124256  1
  Nd3+  Nd47  1  0.73304758  0.35625717  0.56121197  1
  Nd3+  Nd48  1  0.74124536  0.12710604  0.05522440  1
  Nd3+  Nd49  1  0.24328354  0.63298997  0.06393477  1
  Nd3+  Nd50  1  0.11589649  0.00812166  0.94676073  1
  Nd3+  Nd51  1  0.47494930  0.60352255  0.56399729  1
  Sm3+  Sm52  1  0.23564396  0.35415562  0.55102136  1
  Sm3+  Sm53  1  0.62238233  0.75592701  0.95046539  1
  Sm3+  Sm54  1  0.23389060  0.85431177  0.54967020  1
  Sm3+  Sm55  1  0.86511528  0.50400819  0.94006209  1
  Sm3+  Sm56  1  0.24327395  0.13141895  0.05268517  1
  Sm3+  Sm57  1  0.60765884  0.23036929  0.45775083  1
  Sm3+  Sm58  1  0.49051408  0.62990670  0.06536341  1
  Sm3+  Sm59  1  -0.01371625  0.85207602  0.56005794  1
  Sm3+  Sm60  1  0.10900353  -0.01939805  0.42973312  1
  Sm3+  Sm61  1  -0.01251205  0.87931744  0.06229603  1
  Sm3+  Sm62  1  0.61735878  0.25809936  0.94406436  1
  Sm3+  Sm63  1  0.24441295  0.88047628  0.06618781  1
  Bi2+  Bi64  1  -0.03960684  0.15155325  0.30328012  1
  Bi2+  Bi65  1  0.02351684  0.13435974  0.79572794  1
  Bi2+  Bi66  1  0.10958542  0.35901481  0.24772828  1
  Bi2+  Bi67  1  0.03122273  0.39887957  0.80811004  1
  Bi2+  Bi68  1  0.09506137  0.65293788  0.25310340  1
  Bi2+  Bi69  1  -0.00194642  0.59085033  0.81219417  1
  Bi2+  Bi70  1  -0.00258409  0.91961737  0.28087271  1
  Bi2+  Bi71  1  0.01778806  0.86493280  0.79201187  1
  Bi2+  Bi72  1  0.25434219  0.13582242  0.29137706  1
  Bi2+  Bi73  1  0.23643435  0.11884221  0.74332221  1
  Bi2+  Bi74  1  0.24495549  0.45561848  0.30447767  1
  Bi2+  Bi75  1  0.21077507  0.42013651  0.76081406  1
  Bi2+  Bi76  1  0.25501109  0.71525544  0.31509028  1
  Bi2+  Bi77  1  0.18743030  0.63929263  0.79021006  1
  Bi2+  Bi78  1  0.22979096  0.92282771  0.30202005  1
  Bi2+  Bi79  1  0.26625689  0.92126307  0.81125906  1
  Bi2+  Bi80  1  0.53301853  0.09991378  0.30615414  1
  Bi2+  Bi81  1  0.50499476  0.13117472  0.79151990  1
  Bi2+  Bi82  1  0.48425492  0.34823785  0.29286527  1
  Bi2+  Bi83  1  0.52394310  0.35279160  0.78567305  1
  Bi2+  Bi84  1  0.39833976  0.58592207  0.29160301  1
  Bi2+  Bi85  1  0.52960039  0.60549448  0.79642051  1
  Bi2+  Bi86  1  0.41666151  0.85888453  0.29731140  1
  Bi2+  Bi87  1  0.51839706  0.88729366  0.80583375  1
  Bi2+  Bi88  1  0.72496396  0.15805012  0.28045715  1
  Bi2+  Bi89  1  0.78258285  0.07992309  0.78396784  1
  Bi2+  Bi90  1  0.75115811  0.35512216  0.29088455  1
  Bi2+  Bi91  1  0.77000226  0.43361517  0.78542310  1
  Bi2+  Bi92  1  0.80041044  0.61771470  0.29349625  1
  Bi2+  Bi93  1  0.81204160  0.63261557  0.76598581  1
  Bi2+  Bi94  1  0.76060373  0.86785791  0.32305348  1
  Bi2+  Bi95  1  0.77574074  0.82189056  0.78480100  1
  Bi2+  Bi96  1  0.12847179  -0.02997784  0.20065095  1
  Bi2+  Bi97  1  0.13537954  -0.03630151  0.70927955  1
  Bi2+  Bi98  1  0.10412032  0.16448282  0.22068251  1
  Bi2+  Bi99  1  0.11908226  0.26579248  0.71135905  1
  Bi2+  Bi100  1  0.18060536  0.51815386  0.18892302  1
  Bi2+  Bi101  1  0.14861716  0.56050345  0.68699703  1
  Bi2+  Bi102  1  0.15497220  0.78061480  0.16912309  1
  Bi2+  Bi103  1  0.12365775  0.76830798  0.70425988  1
  Bi2+  Bi104  1  0.35123160  -0.01100748  0.21568125  1
  Bi2+  Bi105  1  0.36692177  -0.05809630  0.71407626  1
  Bi2+  Bi106  1  0.37430758  0.20604244  0.20954771  1
  Bi2+  Bi107  1  0.37688558  0.23477978  0.70099008  1
  Bi2+  Bi108  1  0.37009782  0.46692977  0.19785643  1
  Bi2+  Bi109  1  0.38891752  0.49400205  0.69539199  1
  Bi2+  Bi110  1  0.34859412  0.73966631  0.21121568  1
  Bi2+  Bi111  1  0.37644347  0.76754902  0.76718884  1
  Bi2+  Bi112  1  0.60394551  0.01504946  0.21401084  1
  Bi2+  Bi113  1  0.63640737  0.00132983  0.69610155  1
  Bi2+  Bi114  1  0.61265875  0.28399536  0.21018010  1
  Bi2+  Bi115  1  0.71018996  0.25689653  0.74938817  1
  Bi2+  Bi116  1  0.62021092  0.50356394  0.21361394  1
  Bi2+  Bi117  1  0.64676861  0.50108308  0.68732674  1
  Bi2+  Bi118  1  0.62402217  0.75742063  0.22281234  1
  Bi2+  Bi119  1  0.60795142  0.75775494  0.74195151  1
  Bi2+  Bi120  1  0.87284299  0.06496485  0.21063909  1
  Bi2+  Bi121  1  0.86939745  -0.03279567  0.70336417  1
  Bi2+  Bi122  1  0.80486729  0.26707488  0.19126324  1
  Bi2+  Bi123  1  0.89281230  0.27512251  0.70674794  1
  Bi2+  Bi124  1  0.90346398  0.48679101  0.20796157  1
  Bi2+  Bi125  1  0.92817843  0.49676716  0.71395985  1
  Bi2+  Bi126  1  0.96485540  0.77477409  0.20529124  1
  Bi2+  Bi127  1  0.92321391  0.77361721  0.70360734  1
  S2-  S128  1  -0.04314900  0.18511190  0.15752435  1
  S2-  S129  1  -0.00888704  0.16747708  0.66533949  1
  S2-  S130  1  0.02620935  0.40932794  0.15650143  1
  S2-  S131  1  0.01312750  0.37674407  0.65661787  1
  S2-  S132  1  -0.07524211  0.62010042  0.15363105  1
  S2-  S133  1  -0.00272591  0.61368820  0.64401134  1
  S2-  S134  1  -0.08734199  0.91187475  0.14908818  1
  S2-  S135  1  -0.00243707  0.95915862  0.63810659  1
  S2-  S136  1  0.29238498  0.11107574  0.14463834  1
  S2-  S137  1  0.31620087  0.11437634  0.63968010  1
  S2-  S138  1  0.29111668  0.33683467  0.15587719  1
  S2-  S139  1  0.31841506  0.36099072  0.63839248  1
  S2-  S140  1  0.36524926  0.61999100  0.13701490  1
  S2-  S141  1  0.30821447  0.60137212  0.64027897  1
  S2-  S142  1  0.36233097  0.87618498  0.14020425  1
  S2-  S143  1  0.24584428  0.86022471  0.64831557  1
  S2-  S144  1  0.51197346  0.13887968  0.16046975  1
  S2-  S145  1  0.52422316  0.14705863  0.68516928  1
  S2-  S146  1  0.52428341  0.40205591  0.14879855  1
  S2-  S147  1  0.51753786  0.37617390  0.67663536  1
  S2-  S148  1  0.58143104  0.62855413  0.15528371  1
  S2-  S149  1  0.51486288  0.59743394  0.66200633  1
  S2-  S150  1  0.58102888  0.87978225  0.15478688  1
  S2-  S151  1  0.48997906  0.94282038  0.64529973  1
  S2-  S152  1  0.73308100  0.05743615  0.14630545  1
  S2-  S153  1  0.76056414  0.09472387  0.65650270  1
  S2-  S154  1  0.75065661  0.48241729  0.15431008  1
  S2-  S155  1  0.74712517  0.35141399  0.66021782  1
  S2-  S156  1  0.75514626  0.74095068  0.16946190  1
  S2-  S157  1  0.74132296  0.62042587  0.65857750  1
  S2-  S158  1  0.72853979  0.89861580  0.23319930  1
  S2-  S159  1  0.72308468  0.88122703  0.65796043  1
  S2-  S160  1  0.10053615  0.10503317  0.35456990  1
  S2-  S161  1  0.05769634  0.00999414  0.85280734  1
  S2-  S162  1  0.11074644  0.36079862  0.35181906  1
  S2-  S163  1  0.10687073  0.25688309  0.85165424  1
  S2-  S164  1  0.11600933  0.61220538  0.35424109  1
  S2-  S165  1  0.22775235  0.50380184  0.85374447  1
  S2-  S166  1  0.08974149  0.85822124  0.35762559  1
  S2-  S167  1  0.21650557  0.77889431  0.85887868  1
  S2-  S168  1  0.38120608  0.08785944  0.35718121  1
  S2-  S169  1  0.40364951  0.03364193  0.84011837  1
  S2-  S170  1  0.34638666  0.33251949  0.34625049  1
  S2-  S171  1  0.40156911  0.25417145  0.83029225  1
  S2-  S172  1  0.49479618  0.48296313  0.35632653  1
  S2-  S173  1  0.44583697  0.46696183  0.83158061  1
  S2-  S174  1  0.46652748  0.72636271  0.35621432  1
  S2-  S175  1  0.39654859  0.65820488  0.85124314  1
  S2-  S176  1  0.61098499  -0.04942889  0.34407686  1
  S2-  S177  1  0.62779266  0.02580012  0.83118389  1
  S2-  S178  1  0.54647962  0.23668681  0.36614437  1
  S2-  S179  1  0.63037567  0.25865390  0.84623218  1
  S2-  S180  1  0.70936927  0.48725157  0.34886396  1
  S2-  S181  1  0.65329250  0.51782701  0.84063902  1
  S2-  S182  1  0.66567783  0.72077013  0.32671228  1
  S2-  S183  1  0.60992749  0.76165218  0.85018130  1
  S2-  S184  1  0.87356134  0.00344038  0.34266775  1
  S2-  S185  1  0.84485697  -0.05676680  0.83631638  1
  S2-  S186  1  0.88349867  0.29318506  0.35348984  1
  S2-  S187  1  0.88241248  0.15421936  0.85281816  1
  S2-  S188  1  0.92170973  0.51370855  0.31013836  1
  S2-  S189  1  0.87311428  0.39220474  0.86311029  1
  S2-  S190  1  0.88310837  0.74018019  0.34189729  1
  S2-  S191  1  0.97920600  0.75402392  0.86226763  1
  S2-  S192  1  -0.01639834  0.10342288  0.45956759  1
  S2-  S193  1  -0.00508110  0.13659644  0.95971823  1
  S2-  S194  1  -0.01620329  0.35810199  0.45378072  1
  S2-  S195  1  -0.00495157  0.38473693  0.95912333  1
  S2-  S196  1  -0.02459731  0.59568034  0.44398332  1
  S2-  S197  1  -0.01109746  0.62485290  0.95671177  1
  S2-  S198  1  -0.01786886  0.85397817  0.45743663  1
  S2-  S199  1  -0.00893060  0.88639041  0.95914397  1
  S2-  S200  1  0.23585812  0.10409428  0.44986291  1
  S2-  S201  1  0.24297859  0.13178816  0.94703997  1
  S2-  S202  1  0.23949129  0.35311606  0.45065234  1
  S2-  S203  1  0.24463260  0.38102229  0.95447520  1
  S2-  S204  1  0.24310975  0.60268630  0.44774389  1
  S2-  S205  1  0.23502481  0.63445103  0.95790675  1
  S2-  S206  1  0.23848231  0.85674547  0.44634549  1
  S2-  S207  1  0.23761870  0.88597054  0.96239035  1
  S2-  S208  1  0.49028459  0.10158648  0.46761818  1
  S2-  S209  1  0.49319147  0.13310364  0.95194672  1
  S2-  S210  1  0.48789130  0.35573114  0.46498017  1
  S2-  S211  1  0.49379764  0.38152413  0.94833606  1
  S2-  S212  1  0.48716176  0.60586753  0.45777893  1
  S2-  S213  1  0.49541538  0.63532251  0.95860756  1
  S2-  S214  1  0.48779634  0.85657529  0.45424273  1
  S2-  S215  1  0.49233498  0.87789293  0.95295262  1
  S2-  S216  1  0.73354205  0.10718818  0.45221322  1
  S2-  S217  1  0.74066701  0.13470460  0.94967245  1
  S2-  S218  1  0.73353446  0.35265302  0.45499949  1
  S2-  S219  1  0.73827159  0.38158937  0.96057343  1
  S2-  S220  1  0.73023182  0.60673168  0.45133785  1
  S2-  S221  1  0.74675061  0.63199695  0.94545182  1
  S2-  S222  1  0.73065518  0.85084302  0.45318262  1
  S2-  S223  1  0.74351137  0.88108556  0.94454668  1
  S2-  S224  1  0.11834534  0.00494448  0.05384007  1
  S2-  S225  1  0.11347638  -0.02272494  0.53646800  1
  S2-  S226  1  0.11902296  0.25465853  0.05612132  1
  S2-  S227  1  0.11221396  0.22987656  0.54402320  1
  S2-  S228  1  0.11672907  0.50880940  0.04431085  1
  S2-  S229  1  0.11317092  0.47782143  0.53804326  1
  S2-  S230  1  0.11374435  0.75779227  0.04457181  1
  S2-  S231  1  0.10969667  0.73186819  0.53907559  1
  S2-  S232  1  0.36459391  0.00628898  0.04202173  1
  S2-  S233  1  0.35757324  -0.02392589  0.54153360  1
  S2-  S234  1  0.36565391  0.25597550  0.03943010  1
  S2-  S235  1  0.35915976  0.22912370  0.53828833  1
  S2-  S236  1  0.36627644  0.50632072  0.03609860  1
  S2-  S237  1  0.35654284  0.48098243  0.53518391  1
  S2-  S238  1  0.36371229  0.75551148  0.03915378  1
  S2-  S239  1  0.35936755  0.73379514  0.54246201  1
  S2-  S240  1  0.61427815  0.00716815  0.04117405  1
  S2-  S241  1  0.61180845  -0.02045943  0.54740428  1
  S2-  S242  1  0.61640778  0.25543163  0.04944662  1
  S2-  S243  1  0.60554443  0.22988359  0.56169823  1
  S2-  S244  1  0.61704794  0.50840743  0.04551335  1
  S2-  S245  1  0.60478608  0.47872535  0.54777611  1
  S2-  S246  1  0.61958123  0.75253761  0.05169257  1
  S2-  S247  1  0.60557222  0.72947941  0.54946546  1
  S2-  S248  1  0.86571532  0.00571056  0.04061594  1
  S2-  S249  1  0.85663902  -0.02466790  0.54706279  1
  S2-  S250  1  0.86439132  0.25721106  0.04427997  1
  S2-  S251  1  0.85892344  0.22978535  0.55063103  1
  S2-  S252  1  0.86470974  0.50621326  0.04421520  1
  S2-  S253  1  0.85844681  0.47873588  0.55189610  1
  S2-  S254  1  0.86440414  0.75715068  0.04881404  1
  S2-  S255  1  0.86070509  0.73086053  0.54752627  1
