# generated using pymatgen
data_La12Ce14Pr13Nd13Sm12(BiS2)64
_symmetry_space_group_name_H-M   'P 1'
_cell_length_a   16.10507974
_cell_length_b   16.13717022
_cell_length_c   27.36794377
_cell_angle_alpha   90.18163684
_cell_angle_beta   89.35516539
_cell_angle_gamma   89.90730083
_symmetry_Int_Tables_number   1
_chemical_formula_structural   La12Ce14Pr13Nd13Sm12(BiS2)64
_chemical_formula_sum   'La12 Ce14 Pr13 Nd13 Sm12 Bi64 S128'
_cell_volume   7112.17029937
_cell_formula_units_Z   1
loop_
 _symmetry_equiv_pos_site_id
 _symmetry_equiv_pos_as_xyz
  1  'x, y, z'
loop_
 _atom_type_symbol
 _atom_type_oxidation_number
  La3+  3.0
  Ce3+  3.0
  Pr3+  3.0
  Nd3+  3.0
  Sm3+  3.0
  Bi2+  2.0
  S2-  -2.0
loop_
 _atom_site_type_symbol
 _atom_site_label
 _atom_site_symmetry_multiplicity
 _atom_site_fract_x
 _atom_site_fract_y
 _atom_site_fract_z
 _atom_site_occupancy
  La3+  La0  1  0.12835385  0.25954762  0.41175865  1
  La3+  La1  1  0.63069884  0.00596294  0.39891850  1
  La3+  La2  1  0.36715020  0.01107296  0.43243045  1
  La3+  La3  1  0.74343166  0.38270260  0.55499098  1
  La3+  La4  1  0.86893983  0.00613583  0.89433357  1
  La3+  La5  1  0.49621636  0.88728872  0.55198278  1
  La3+  La6  1  -0.01028499  0.63422253  0.57385505  1
  La3+  La7  1  0.25854116  0.14878203  0.59321867  1
  La3+  La8  1  -0.01044806  0.14444273  0.58512262  1
  La3+  La9  1  -0.01270809  0.88937272  0.58029049  1
  La3+  La10  1  0.49297139  0.38155772  0.55861258  1
  La3+  La11  1  0.88114888  0.01196383  0.42995007  1
  Ce3+  Ce12  1  0.87776388  0.50899377  0.94891931  1
  Ce3+  Ce13  1  0.75519289  0.13581447  0.06394563  1
  Ce3+  Ce14  1  0.87447575  0.51003221  0.44310935  1
  Ce3+  Ce15  1  0.63131420  0.76212579  0.94934200  1
  Ce3+  Ce16  1  -0.00051597  0.38270459  0.06091733  1
  Ce3+  Ce17  1  0.13071759  0.01603678  0.92418848  1
  Ce3+  Ce18  1  0.24272354  0.63572410  0.56318380  1
  Ce3+  Ce19  1  0.25276383  0.63698774  0.06146979  1
  Ce3+  Ce20  1  0.49816501  0.88919664  0.06314755  1
  Ce3+  Ce21  1  0.38109148  0.51002363  0.94872541  1
  Ce3+  Ce22  1  0.49500098  0.13354162  0.54572085  1
  Ce3+  Ce23  1  0.11484514  0.76022381  0.44430326  1
  Ce3+  Ce24  1  0.00180274  0.37660005  0.55167250  1
  Ce3+  Ce25  1  0.49299970  0.37980124  0.06831994  1
  Pr3+  Pr26  1  0.12638229  0.51157686  0.43464604  1
  Pr3+  Pr27  1  0.75430074  0.88940015  0.07066443  1
  Pr3+  Pr28  1  0.87444760  0.75927110  0.43831407  1
  Pr3+  Pr29  1  0.74391188  0.63208647  0.07506673  1
  Pr3+  Pr30  1  0.12910560  0.51058019  0.94695436  1
  Pr3+  Pr31  1  0.00005412  0.63595872  0.06746513  1
  Pr3+  Pr32  1  0.87607303  0.76009895  0.94500390  1
  Pr3+  Pr33  1  0.11760776  0.01432726  0.45453073  1
  Pr3+  Pr34  1  0.62175642  0.25979602  0.43037061  1
  Pr3+  Pr35  1  0.88066719  0.25422323  0.93833310  1
  Pr3+  Pr36  1  0.63012606  0.50899503  0.93867595  1
  Pr3+  Pr37  1  0.87245770  0.25924958  0.42948112  1
  Pr3+  Pr38  1  0.74051654  0.63501400  0.56333479  1
  Nd3+  Nd39  1  0.74253544  0.38224830  0.06787449  1
  Nd3+  Nd40  1  0.12675819  0.76118905  0.93967490  1
  Nd3+  Nd41  1  0.12949136  0.25815538  0.93608155  1
  Nd3+  Nd42  1  0.01124232  0.13513715  0.06802293  1
  Nd3+  Nd43  1  0.37482246  0.51722834  0.43799539  1
  Nd3+  Nd44  1  0.37789484  0.00637553  0.92808149  1
  Nd3+  Nd45  1  0.49887129  0.63976425  0.56213240  1
  Nd3+  Nd46  1  0.38137674  0.75932929  0.94526911  1
  Nd3+  Nd47  1  0.00371439  0.88970251  0.05584386  1
  Nd3+  Nd48  1  0.38165065  0.26206290  0.93547819  1
  Nd3+  Nd49  1  0.62236513  0.51122268  0.43144583  1
  Nd3+  Nd50  1  0.74650034  0.88789064  0.55482899  1
  Nd3+  Nd51  1  0.37306556  0.76300149  0.44046378  1
  Sm3+  Sm52  1  0.24637159  0.38630613  0.55567223  1
  Sm3+  Sm53  1  0.63334947  0.75731245  0.42376040  1
  Sm3+  Sm54  1  0.37198864  0.26301690  0.43282168  1
  Sm3+  Sm55  1  0.63119595  0.00864891  0.94610617  1
  Sm3+  Sm56  1  0.25239457  0.13453923  0.05472259  1
  Sm3+  Sm57  1  0.74686221  0.13388744  0.55271792  1
  Sm3+  Sm58  1  0.24243257  0.88725986  0.55957056  1
  Sm3+  Sm59  1  0.25213727  0.88698239  0.05585096  1
  Sm3+  Sm60  1  0.50330675  0.63553878  0.06764321  1
  Sm3+  Sm61  1  0.25199402  0.38453239  0.06139147  1
  Sm3+  Sm62  1  0.63073654  0.25729674  0.94474035  1
  Sm3+  Sm63  1  0.49967076  0.13301093  0.04828807  1
  Bi2+  Bi64  1  -0.02219738  0.09140060  0.28700259  1
  Bi2+  Bi65  1  0.02854070  0.12930464  0.78248145  1
  Bi2+  Bi66  1  0.04666708  0.44005600  0.26438156  1
  Bi2+  Bi67  1  -0.03470682  0.31164581  0.80376523  1
  Bi2+  Bi68  1  0.04986387  0.62026983  0.31482831  1
  Bi2+  Bi69  1  -0.01026017  0.61469201  0.82311797  1
  Bi2+  Bi70  1  0.00418660  0.88038752  0.28738798  1
  Bi2+  Bi71  1  0.00616037  0.85057259  0.79030761  1
  Bi2+  Bi72  1  0.28334183  0.08514582  0.28962460  1
  Bi2+  Bi73  1  0.28303018  0.12615367  0.78551172  1
  Bi2+  Bi74  1  0.25415502  0.36071222  0.28673085  1
  Bi2+  Bi75  1  0.23951084  0.33440123  0.79281324  1
  Bi2+  Bi76  1  0.24281000  0.62751603  0.30123213  1
  Bi2+  Bi77  1  0.23456588  0.62558080  0.80360246  1
  Bi2+  Bi78  1  0.19601068  0.83984704  0.31484809  1
  Bi2+  Bi79  1  0.31945537  0.87509747  0.78182225  1
  Bi2+  Bi80  1  0.46016444  0.17753001  0.27539611  1
  Bi2+  Bi81  1  0.48614041  0.10533215  0.77300031  1
  Bi2+  Bi82  1  0.47887180  0.36362810  0.30881952  1
  Bi2+  Bi83  1  0.50061925  0.38663441  0.81639731  1
  Bi2+  Bi84  1  0.49416808  0.56485506  0.30700756  1
  Bi2+  Bi85  1  0.51199945  0.71661871  0.80174512  1
  Bi2+  Bi86  1  0.37904119  0.82253720  0.26939331  1
  Bi2+  Bi87  1  0.49267966  0.92599317  0.82266883  1
  Bi2+  Bi88  1  0.73204624  0.10194528  0.28039755  1
  Bi2+  Bi89  1  0.73482030  0.14360919  0.78587476  1
  Bi2+  Bi90  1  0.67467088  0.36574837  0.30436795  1
  Bi2+  Bi91  1  0.70120681  0.36259345  0.78493645  1
  Bi2+  Bi92  1  0.79358208  0.62038890  0.28399621  1
  Bi2+  Bi93  1  0.76672040  0.62647638  0.74231941  1
  Bi2+  Bi94  1  0.71613580  0.85502171  0.28372330  1
  Bi2+  Bi95  1  0.68518404  0.88206017  0.78899776  1
  Bi2+  Bi96  1  0.15226219  -0.02310812  0.23402392  1
  Bi2+  Bi97  1  0.15912662  -0.04012713  0.70898132  1
  Bi2+  Bi98  1  0.09102917  0.22975842  0.20968817  1
  Bi2+  Bi99  1  0.12522288  0.27768715  0.70814762  1
  Bi2+  Bi100  1  0.22885065  0.46869460  0.19568878  1
  Bi2+  Bi101  1  0.08996279  0.45418333  0.74596553  1
  Bi2+  Bi102  1  0.12809746  0.72777292  0.22624450  1
  Bi2+  Bi103  1  0.20313469  0.70611625  0.70031881  1
  Bi2+  Bi104  1  0.35382848  -0.05727374  0.18112320  1
  Bi2+  Bi105  1  0.45403986  -0.05497422  0.70494227  1
  Bi2+  Bi106  1  0.31828566  0.19505681  0.19595575  1
  Bi2+  Bi107  1  0.41743910  0.28995840  0.69337430  1
  Bi2+  Bi108  1  0.42330550  0.47388388  0.21246896  1
  Bi2+  Bi109  1  0.34326475  0.48615607  0.74994482  1
  Bi2+  Bi110  1  0.39985526  0.66930404  0.19038644  1
  Bi2+  Bi111  1  0.39611053  0.66554322  0.71480131  1
  Bi2+  Bi112  1  0.52903557  0.01875590  0.20474700  1
  Bi2+  Bi113  1  0.63857847  0.03072939  0.70481338  1
  Bi2+  Bi114  1  0.60876750  0.22545131  0.20600629  1
  Bi2+  Bi115  1  0.60695984  0.22673093  0.70857285  1
  Bi2+  Bi116  1  0.68309748  0.46618122  0.20579377  1
  Bi2+  Bi117  1  0.63230677  0.49414463  0.70565947  1
  Bi2+  Bi118  1  0.57276142  0.69613740  0.23461008  1
  Bi2+  Bi119  1  0.63119555  0.75230973  0.70944803  1
  Bi2+  Bi120  1  0.86443376  0.01185507  0.18537072  1
  Bi2+  Bi121  1  0.87246730  0.00347206  0.70156731  1
  Bi2+  Bi122  1  0.86699783  0.37288512  0.30050565  1
  Bi2+  Bi123  1  0.85450367  0.27166971  0.70322740  1
  Bi2+  Bi124  1  0.91027776  0.49433113  0.19434792  1
  Bi2+  Bi125  1  0.89138639  0.47098016  0.74892888  1
  Bi2+  Bi126  1  0.89822705  0.76804599  0.19419624  1
  Bi2+  Bi127  1  0.93161738  0.72013833  0.70847329  1
  S2-  S128  1  -0.04881599  0.14861301  0.16372799  1
  S2-  S129  1  0.02832867  0.06983809  0.67688068  1
  S2-  S130  1  0.05401015  0.36874084  0.15215292  1
  S2-  S131  1  -0.01119097  0.30174439  0.64046511  1
  S2-  S132  1  0.01284755  0.64024823  0.16695232  1
  S2-  S133  1  0.06545077  0.63034811  0.66553433  1
  S2-  S134  1  -0.01952463  0.90822720  0.15454063  1
  S2-  S135  1  0.03674087  0.85354443  0.67673865  1
  S2-  S136  1  0.16649281  0.13934575  0.14054387  1
  S2-  S137  1  0.25092605  0.09160923  0.69253073  1
  S2-  S138  1  0.35180651  0.36181305  0.14028802  1
  S2-  S139  1  0.26391503  0.31108054  0.64365092  1
  S2-  S140  1  0.23375509  0.63421903  0.15790888  1
  S2-  S141  1  0.28055833  0.57301060  0.65166465  1
  S2-  S142  1  0.20352795  0.88428625  0.14989150  1
  S2-  S143  1  0.26236698  0.86424316  0.65559592  1
  S2-  S144  1  0.46653409  0.15330136  0.14341278  1
  S2-  S145  1  0.42916768  0.15585768  0.63400223  1
  S2-  S146  1  0.59672335  0.37282782  0.14664208  1
  S2-  S147  1  0.49619779  0.42781030  0.65536147  1
  S2-  S148  1  0.60651173  0.61902033  0.14639749  1
  S2-  S149  1  0.61247220  0.62242608  0.63599613  1
  S2-  S150  1  0.52564011  0.87070125  0.15850084  1
  S2-  S151  1  0.51408492  0.82107561  0.64368775  1
  S2-  S152  1  0.72079994  0.11845947  0.16201848  1
  S2-  S153  1  0.82915455  0.13996464  0.64023551  1
  S2-  S154  1  0.81108931  0.37414425  0.15934358  1
  S2-  S155  1  0.74305930  0.38758043  0.65506339  1
  S2-  S156  1  0.81028163  0.63879229  0.16968968  1
  S2-  S157  1  0.84781914  0.63062095  0.64403759  1
  S2-  S158  1  0.76059584  0.86565506  0.17254166  1
  S2-  S159  1  0.83269591  0.88407949  0.64299135  1
  S2-  S160  1  0.02669696  -0.00058951  0.36591095  1
  S2-  S161  1  0.02840038  -0.01021689  0.84513127  1
  S2-  S162  1  0.07947593  0.20575732  0.31295133  1
  S2-  S163  1  0.13791335  0.16540976  0.85176237  1
  S2-  S164  1  0.12151679  0.40723484  0.35284966  1
  S2-  S165  1  0.12749839  0.50380105  0.84738652  1
  S2-  S166  1  0.00388390  0.76407679  0.36733569  1
  S2-  S167  1  0.12104912  0.74646958  0.84057408  1
  S2-  S168  1  0.37488694  -0.03634582  0.33586506  1
  S2-  S169  1  0.26357274  -0.00930351  0.85281149  1
  S2-  S170  1  0.28063271  0.24059622  0.35167007  1
  S2-  S171  1  0.38128345  0.25414443  0.83625444  1
  S2-  S172  1  0.31298713  0.49357079  0.34718842  1
  S2-  S173  1  0.39210754  0.50073680  0.85245671  1
  S2-  S174  1  0.37865606  0.70567524  0.34727658  1
  S2-  S175  1  0.34860269  0.73946250  0.84844268  1
  S2-  S176  1  0.60356139  -0.01889802  0.29380274  1
  S2-  S177  1  0.70302490  0.01683293  0.85746681  1
  S2-  S178  1  0.63646485  0.16103955  0.34777879  1
  S2-  S179  1  0.63043906  0.24639756  0.84732848  1
  S2-  S180  1  0.65545237  0.56606241  0.33942880  1
  S2-  S181  1  0.61791537  0.49324001  0.83851650  1
  S2-  S182  1  0.58846214  0.78707423  0.32868607  1
  S2-  S183  1  0.66108311  0.74239012  0.85385884  1
  S2-  S184  1  0.78840194  -0.01837439  0.34366642  1
  S2-  S185  1  0.85909768  -0.06717638  0.79379729  1
  S2-  S186  1  0.86164806  0.19662284  0.33457342  1
  S2-  S187  1  0.87714612  0.16521075  0.85035325  1
  S2-  S188  1  0.88600045  0.53858197  0.34672962  1
  S2-  S189  1  0.86026507  0.51966161  0.85300479  1
  S2-  S190  1  0.78084944  0.74783878  0.35168698  1
  S2-  S191  1  0.90041005  0.74716189  0.84510317  1
  S2-  S192  1  0.00084402  0.14605083  0.45478388  1
  S2-  S193  1  0.00630514  0.13514833  0.95845694  1
  S2-  S194  1  -0.00193605  0.38284571  0.44854050  1
  S2-  S195  1  0.00402513  0.38244925  0.95234092  1
  S2-  S196  1  -0.00158617  0.62940128  0.46421319  1
  S2-  S197  1  0.00327622  0.63561823  0.96034006  1
  S2-  S198  1  -0.00376360  0.88492570  0.47069514  1
  S2-  S199  1  -0.00002051  0.88556792  0.95067711  1
  S2-  S200  1  0.24458341  0.13489192  0.45092593  1
  S2-  S201  1  0.25995232  0.13615522  0.95203343  1
  S2-  S202  1  0.25134872  0.38622802  0.45391099  1
  S2-  S203  1  0.25475767  0.38348030  0.95436153  1
  S2-  S204  1  0.24661180  0.63840813  0.45552755  1
  S2-  S205  1  0.25415125  0.63664683  0.95589853  1
  S2-  S206  1  0.24298299  0.88417484  0.45488974  1
  S2-  S207  1  0.25383727  0.88117273  0.95283797  1
  S2-  S208  1  0.49389553  0.13394493  0.44070089  1
  S2-  S209  1  0.50436000  0.13199035  0.94381058  1
  S2-  S210  1  0.49587343  0.38622090  0.44836833  1
  S2-  S211  1  0.50626905  0.38216049  0.95801728  1
  S2-  S212  1  0.50153610  0.64067331  0.45333638  1
  S2-  S213  1  0.50601963  0.63569987  0.96048895  1
  S2-  S214  1  0.50242681  0.88729422  0.44352346  1
  S2-  S215  1  0.50452849  0.88626156  0.95604710  1
  S2-  S216  1  0.74588302  0.13124204  0.45084595  1
  S2-  S217  1  0.75333323  0.13288030  0.95829573  1
  S2-  S218  1  0.74585400  0.38579141  0.44627841  1
  S2-  S219  1  0.75313672  0.38064991  0.95541807  1
  S2-  S220  1  0.74643204  0.63153225  0.45637580  1
  S2-  S221  1  0.75231113  0.63365890  0.96426311  1
  S2-  S222  1  0.74353271  0.88691443  0.45080493  1
  S2-  S223  1  0.75699201  0.88976749  0.95966112  1
  S2-  S224  1  0.13093604  0.00926277  0.03848387  1
  S2-  S225  1  0.12528073  0.01718763  0.56002360  1
  S2-  S226  1  0.13184473  0.26306493  0.04121953  1
  S2-  S227  1  0.12926373  0.25698317  0.54737804  1
  S2-  S228  1  0.12791322  0.50915136  0.05274541  1
  S2-  S229  1  0.12146670  0.50676495  0.54663885  1
  S2-  S230  1  0.12679144  0.76159070  0.04737729  1
  S2-  S231  1  0.11944242  0.76289865  0.55252381  1
  S2-  S232  1  0.37461507  0.01127753  0.03818547  1
  S2-  S233  1  0.36543918  0.00996412  0.54277684  1
  S2-  S234  1  0.37418039  0.25532646  0.03935981  1
  S2-  S235  1  0.36885225  0.26045742  0.53466271  1
  S2-  S236  1  0.37722415  0.51321686  0.05302778  1
  S2-  S237  1  0.37351196  0.51189125  0.54418226  1
  S2-  S238  1  0.37800267  0.76135008  0.05158516  1
  S2-  S239  1  0.36816061  0.76055830  0.54689917  1
  S2-  S240  1  0.62584485  0.01201676  0.05088128  1
  S2-  S241  1  0.62256006  0.01196760  0.55243609  1
  S2-  S242  1  0.62345224  0.25437201  0.04710193  1
  S2-  S243  1  0.62000629  0.25581946  0.54007554  1
  S2-  S244  1  0.62235306  0.50611463  0.04491787  1
  S2-  S245  1  0.61660246  0.50637851  0.53724512  1
  S2-  S246  1  0.62655838  0.76438606  0.05427205  1
  S2-  S247  1  0.62292826  0.76312575  0.53405757  1
  S2-  S248  1  0.87991690  0.01365194  0.05385871  1
  S2-  S249  1  0.87200160  0.01453825  0.54078712  1
  S2-  S250  1  0.87762736  0.25980964  0.04678758  1
  S2-  S251  1  0.86840192  0.25946075  0.53664729  1
  S2-  S252  1  0.87320319  0.50871116  0.05353121  1
  S2-  S253  1  0.87290154  0.50110374  0.54777390  1
  S2-  S254  1  0.87580899  0.76165402  0.05265611  1
  S2-  S255  1  0.86764345  0.75944007  0.54402057  1
