# generated using pymatgen
data_La12Ce14Pr13Nd13Sm12(BiS2)64
_symmetry_space_group_name_H-M   'P 1'
_cell_length_a   16.11671407
_cell_length_b   16.08893687
_cell_length_c   27.41924163
_cell_angle_alpha   89.99571265
_cell_angle_beta   89.56634879
_cell_angle_gamma   89.97250225
_symmetry_Int_Tables_number   1
_chemical_formula_structural   La12Ce14Pr13Nd13Sm12(BiS2)64
_chemical_formula_sum   'La12 Ce14 Pr13 Nd13 Sm12 Bi64 S128'
_cell_volume   7109.62668292
_cell_formula_units_Z   1
loop_
 _symmetry_equiv_pos_site_id
 _symmetry_equiv_pos_as_xyz
  1  'x, y, z'
loop_
 _atom_type_symbol
 _atom_type_oxidation_number
  La3+  3.0
  Ce3+  3.0
  Pr3+  3.0
  Nd3+  3.0
  Sm3+  3.0
  Bi2+  2.0
  S2-  -2.0
loop_
 _atom_site_type_symbol
 _atom_site_label
 _atom_site_symmetry_multiplicity
 _atom_site_fract_x
 _atom_site_fract_y
 _atom_site_fract_z
 _atom_site_occupancy
  La3+  La0  1  0.22368962  0.87145204  0.57428395  1
  La3+  La1  1  0.37753277  0.49985592  0.93315515  1
  La3+  La2  1  0.23408167  0.85536964  0.10075359  1
  La3+  La3  1  0.48502082  0.12137213  0.09606318  1
  La3+  La4  1  0.60132456  0.49563650  0.42869160  1
  La3+  La5  1  0.61413216  0.72525638  0.88953855  1
  La3+  La6  1  -0.01770140  0.61229763  0.57320721  1
  La3+  La7  1  0.10369266  0.24248794  0.42814225  1
  La3+  La8  1  0.61017130  -0.01452058  0.39173396  1
  La3+  La9  1  0.85463920  0.74276858  0.43468044  1
  La3+  La10  1  0.86364596  -0.00550415  0.41012056  1
  La3+  La11  1  0.37385018  0.23690635  0.93001889  1
  Ce3+  Ce12  1  0.35655247  -0.00814927  0.43604326  1
  Ce3+  Ce13  1  0.73045541  0.12139209  0.55416833  1
  Ce3+  Ce14  1  0.36885001  -0.01128513  0.94934161  1
  Ce3+  Ce15  1  0.24509032  0.11588455  0.05794888  1
  Ce3+  Ce16  1  0.48291802  0.36830678  0.55602438  1
  Ce3+  Ce17  1  0.49217049  0.62324293  0.07110696  1
  Ce3+  Ce18  1  0.35245419  0.49908932  0.43468331  1
  Ce3+  Ce19  1  0.60645801  0.75123079  0.45263381  1
  Ce3+  Ce20  1  0.73219864  0.87160008  0.55934871  1
  Ce3+  Ce21  1  0.87508624  0.24070464  0.94725256  1
  Ce3+  Ce22  1  0.86855290  0.49177856  0.93992545  1
  Ce3+  Ce23  1  0.62236078  0.49469623  0.94978427  1
  Ce3+  Ce24  1  0.11828908  0.73590225  0.93111869  1
  Ce3+  Ce25  1  0.48164803  0.11691918  0.55431047  1
  Pr3+  Pr26  1  0.48936005  0.37038797  0.06007754  1
  Pr3+  Pr27  1  -0.02152102  0.86885798  0.56153175  1
  Pr3+  Pr28  1  0.74232624  0.11807852  0.06374425  1
  Pr3+  Pr29  1  0.61815270  -0.01328335  0.94488341  1
  Pr3+  Pr30  1  0.49244098  0.86310489  0.06942833  1
  Pr3+  Pr31  1  0.47615930  0.87761567  0.57705920  1
  Pr3+  Pr32  1  0.23758782  0.61572243  0.57262914  1
  Pr3+  Pr33  1  0.11980430  0.21869722  0.89174590  1
  Pr3+  Pr34  1  0.10929740  0.74516438  0.44077648  1
  Pr3+  Pr35  1  -0.00759855  0.85952428  0.07208481  1
  Pr3+  Pr36  1  -0.00151480  0.11690099  0.06758270  1
  Pr3+  Pr37  1  -0.00340942  0.37161859  0.06723811  1
  Pr3+  Pr38  1  0.11847668  0.48589947  0.92974602  1
  Nd3+  Nd39  1  0.85289619  0.49801070  0.43279492  1
  Nd3+  Nd40  1  0.11212213  -0.00870206  0.43256981  1
  Nd3+  Nd41  1  0.73241796  0.36326856  0.56099496  1
  Nd3+  Nd42  1  -0.01704518  0.12048997  0.55523752  1
  Nd3+  Nd43  1  0.73411872  0.60921340  0.57702285  1
  Nd3+  Nd44  1  0.35787281  0.24296391  0.43725519  1
  Nd3+  Nd45  1  0.74095004  0.36621594  0.05827344  1
  Nd3+  Nd46  1  0.87142582  -0.00744279  0.95045015  1
  Nd3+  Nd47  1  0.11831985  -0.01612664  0.94321818  1
  Nd3+  Nd48  1  0.37256413  0.74483601  0.95051253  1
  Nd3+  Nd49  1  0.60571788  0.24265989  0.42820987  1
  Nd3+  Nd50  1  -0.00488168  0.61580698  0.06000817  1
  Nd3+  Nd51  1  0.35973337  0.74816757  0.44989708  1
  Sm3+  Sm52  1  0.24006320  0.61534600  0.05924626  1
  Sm3+  Sm53  1  0.23350917  0.36937321  0.55231154  1
  Sm3+  Sm54  1  0.48721844  0.61739741  0.56808654  1
  Sm3+  Sm55  1  0.74386784  0.86508213  0.06295440  1
  Sm3+  Sm56  1  0.61593626  0.23709045  0.94177368  1
  Sm3+  Sm57  1  0.86824144  0.74530835  0.93626430  1
  Sm3+  Sm58  1  0.85352465  0.24385715  0.43412051  1
  Sm3+  Sm59  1  0.74311768  0.61955605  0.05672867  1
  Sm3+  Sm60  1  -0.01725094  0.37157468  0.54787453  1
  Sm3+  Sm61  1  0.10942987  0.49706366  0.43910975  1
  Sm3+  Sm62  1  0.24423324  0.36653933  0.04762989  1
  Sm3+  Sm63  1  0.22762296  0.12205689  0.55630731  1
  Bi2+  Bi64  1  0.05526426  0.15024905  0.30884493  1
  Bi2+  Bi65  1  0.02136702  0.20425067  0.76403741  1
  Bi2+  Bi66  1  0.00380130  0.40080428  0.29439261  1
  Bi2+  Bi67  1  -0.00736050  0.39900141  0.78284086  1
  Bi2+  Bi68  1  -0.02645041  0.59688529  0.27711811  1
  Bi2+  Bi69  1  0.02686403  0.66891266  0.79535086  1
  Bi2+  Bi70  1  0.01993076  0.95506227  0.30988024  1
  Bi2+  Bi71  1  -0.01116463  0.92508793  0.77645172  1
  Bi2+  Bi72  1  0.22886032  0.18640718  0.25101019  1
  Bi2+  Bi73  1  0.25018520  0.07128172  0.79177811  1
  Bi2+  Bi74  1  0.28946463  0.45922487  0.27471020  1
  Bi2+  Bi75  1  0.26119334  0.35195732  0.78228949  1
  Bi2+  Bi76  1  0.24614295  0.65114489  0.29697425  1
  Bi2+  Bi77  1  0.23257360  0.60728176  0.76793377  1
  Bi2+  Bi78  1  0.22802681  0.86875116  0.29810491  1
  Bi2+  Bi79  1  0.27684925  0.88062029  0.75236167  1
  Bi2+  Bi80  1  0.48794993  0.13267243  0.29406060  1
  Bi2+  Bi81  1  0.61388183  0.11311185  0.80377727  1
  Bi2+  Bi82  1  0.50811587  0.38423799  0.29284184  1
  Bi2+  Bi83  1  0.56018327  0.33211334  0.78707119  1
  Bi2+  Bi84  1  0.51746100  0.62654594  0.28721967  1
  Bi2+  Bi85  1  0.47538899  0.59170338  0.79528286  1
  Bi2+  Bi86  1  0.47887772  0.84791586  0.29251324  1
  Bi2+  Bi87  1  0.48476214  0.86969843  0.79796869  1
  Bi2+  Bi88  1  0.78362937  0.21545960  0.28147756  1
  Bi2+  Bi89  1  0.79965440  0.15842384  0.81813833  1
  Bi2+  Bi90  1  0.80318384  0.39659627  0.31753746  1
  Bi2+  Bi91  1  0.75801918  0.34664791  0.79353779  1
  Bi2+  Bi92  1  0.70663898  0.57345959  0.31033488  1
  Bi2+  Bi93  1  0.75265791  0.54160024  0.79228309  1
  Bi2+  Bi94  1  0.75287385  0.81807579  0.29895173  1
  Bi2+  Bi95  1  0.75841763  0.90725883  0.79737371  1
  Bi2+  Bi96  1  0.11098429  0.03653530  0.21612036  1
  Bi2+  Bi97  1  0.13726726  0.01899242  0.69636042  1
  Bi2+  Bi98  1  0.11828594  0.29904639  0.17968726  1
  Bi2+  Bi99  1  0.16514751  0.24801561  0.69198476  1
  Bi2+  Bi100  1  0.12648345  0.48990293  0.21334294  1
  Bi2+  Bi101  1  0.10847019  0.48798954  0.70548294  1
  Bi2+  Bi102  1  0.08379837  0.74690769  0.21247609  1
  Bi2+  Bi103  1  0.14299299  0.75590315  0.71326480  1
  Bi2+  Bi104  1  0.36482495  0.02044020  0.21679034  1
  Bi2+  Bi105  1  0.43501345  0.05997097  0.75197509  1
  Bi2+  Bi106  1  0.37376837  0.32526412  0.21030451  1
  Bi2+  Bi107  1  0.41996033  0.26448503  0.71900531  1
  Bi2+  Bi108  1  0.43534224  0.51481281  0.18278280  1
  Bi2+  Bi109  1  0.37288266  0.49086957  0.71870398  1
  Bi2+  Bi110  1  0.35967982  0.69118437  0.20590721  1
  Bi2+  Bi111  1  0.39536409  0.74929837  0.70087824  1
  Bi2+  Bi112  1  0.64925225  -0.01411109  0.18500472  1
  Bi2+  Bi113  1  0.69026678  -0.00722763  0.70305831  1
  Bi2+  Bi114  1  0.65184383  0.25667630  0.19955232  1
  Bi2+  Bi115  1  0.59972566  0.18349060  0.69353998  1
  Bi2+  Bi116  1  0.62415229  0.50165484  0.21328518  1
  Bi2+  Bi117  1  0.61891747  0.47416091  0.70897881  1
  Bi2+  Bi118  1  0.63536570  0.71463575  0.21145020  1
  Bi2+  Bi119  1  0.66830214  0.74441704  0.69847171  1
  Bi2+  Bi120  1  0.86056273  -0.04216904  0.24713427  1
  Bi2+  Bi121  1  0.87020414  0.05931831  0.72197458  1
  Bi2+  Bi122  1  0.94004406  0.25372025  0.21204118  1
  Bi2+  Bi123  1  0.85687412  0.25833040  0.70767948  1
  Bi2+  Bi124  1  0.87991243  0.46102794  0.20941813  1
  Bi2+  Bi125  1  0.87347930  0.51401433  0.70469769  1
  Bi2+  Bi126  1  0.85955903  0.72946996  0.21741777  1
  Bi2+  Bi127  1  0.87676741  0.76676606  0.76131917  1
  S2-  S128  1  -0.02244838  0.09909185  0.16704278  1
  S2-  S129  1  0.04363016  0.13856255  0.64709447  1
  S2-  S130  1  0.00257953  0.49879341  0.13830645  1
  S2-  S131  1  -0.01659777  0.41881775  0.64148079  1
  S2-  S132  1  -0.02067719  0.72116321  0.14044093  1
  S2-  S133  1  0.11164721  0.62235928  0.64535937  1
  S2-  S134  1  0.08854982  0.88828462  0.15745842  1
  S2-  S135  1  0.07977233  0.87531256  0.64313895  1
  S2-  S136  1  0.32416291  0.12655523  0.14418589  1
  S2-  S137  1  0.25687080  0.11395441  0.65364113  1
  S2-  S138  1  0.24383598  0.40392744  0.14395057  1
  S2-  S139  1  0.22786222  0.39208036  0.64928489  1
  S2-  S140  1  0.21175945  0.68692768  0.14878477  1
  S2-  S141  1  0.36775200  0.60597042  0.64387912  1
  S2-  S142  1  0.29818968  0.87713336  0.19859367  1
  S2-  S143  1  0.33841175  0.88130277  0.64984745  1
  S2-  S144  1  0.55166078  0.12512818  0.19596269  1
  S2-  S145  1  0.48362251  0.07629229  0.64930692  1
  S2-  S146  1  0.50152217  0.28771462  0.14655390  1
  S2-  S147  1  0.48781136  0.38940012  0.65387797  1
  S2-  S148  1  0.49419708  0.73866531  0.14806878  1
  S2-  S149  1  0.59977980  0.61350219  0.64753089  1
  S2-  S150  1  0.48757326  0.96404338  0.15057948  1
  S2-  S151  1  0.53777136  0.83257188  0.67108414  1
  S2-  S152  1  0.74887872  0.13005808  0.16342087  1
  S2-  S153  1  0.74004520  0.23094959  0.63272157  1
  S2-  S154  1  0.73946700  0.39307063  0.15598677  1
  S2-  S155  1  0.74367563  0.46221864  0.64314446  1
  S2-  S156  1  0.75643454  0.64012439  0.15486392  1
  S2-  S157  1  0.86317077  0.64276325  0.64709172  1
  S2-  S158  1  0.79438793  0.88522126  0.15803908  1
  S2-  S159  1  0.77701536  0.86725610  0.65459402  1
  S2-  S160  1  0.23359723  -0.00969122  0.35926734  1
  S2-  S161  1  0.11728758  0.05548740  0.85168148  1
  S2-  S162  1  0.18563821  0.25437119  0.33992937  1
  S2-  S163  1  0.12114596  0.37983140  0.84704007  1
  S2-  S164  1  0.21863389  0.51457493  0.36392517  1
  S2-  S165  1  0.15097822  0.60890085  0.85800051  1
  S2-  S166  1  0.12034367  0.74932590  0.33938080  1
  S2-  S167  1  0.05661721  0.81251946  0.85058702  1
  S2-  S168  1  0.44695012  -0.01337601  0.35073672  1
  S2-  S169  1  0.39648197  -0.00383504  0.85144368  1
  S2-  S170  1  0.41953696  0.25455102  0.34438043  1
  S2-  S171  1  0.27850961  0.22516770  0.84376950  1
  S2-  S172  1  0.46279136  0.51636476  0.35842097  1
  S2-  S173  1  0.37538162  0.46038651  0.83540217  1
  S2-  S174  1  0.34920816  0.76557575  0.34961520  1
  S2-  S175  1  0.43734161  0.72310158  0.85860985  1
  S2-  S176  1  0.59035845  -0.04345763  0.27141603  1
  S2-  S177  1  0.61037253  -0.10295486  0.85800222  1
  S2-  S178  1  0.62440303  0.14735927  0.34392296  1
  S2-  S179  1  0.51254282  0.22525676  0.86235329  1
  S2-  S180  1  0.62851728  0.36860888  0.35576793  1
  S2-  S181  1  0.60537234  0.54989306  0.85805886  1
  S2-  S182  1  0.60201592  0.80583666  0.36029120  1
  S2-  S183  1  0.59221257  0.72376251  0.78116981  1
  S2-  S184  1  0.75681615  -0.01801226  0.33102648  1
  S2-  S185  1  0.88525110  -0.02399748  0.85178956  1
  S2-  S186  1  0.88626932  0.15586976  0.35140681  1
  S2-  S187  1  0.95000570  0.22580341  0.86010186  1
  S2-  S188  1  0.85533941  0.61727057  0.35779736  1
  S2-  S189  1  0.90154702  0.51590196  0.84466364  1
  S2-  S190  1  0.89748933  0.83858119  0.35239223  1
  S2-  S191  1  0.78362604  0.74434315  0.85083612  1
  S2-  S192  1  -0.01643787  0.11469352  0.45169898  1
  S2-  S193  1  -0.00059079  0.11524898  0.96132697  1
  S2-  S194  1  -0.01884058  0.37287328  0.44266214  1
  S2-  S195  1  -0.00854061  0.36853892  0.95992369  1
  S2-  S196  1  -0.01296152  0.61648712  0.45589411  1
  S2-  S197  1  -0.01038475  0.61783880  0.95337789  1
  S2-  S198  1  -0.01440466  0.87295489  0.45705698  1
  S2-  S199  1  -0.00976741  0.86527553  0.96353073  1
  S2-  S200  1  0.23115853  0.12284807  0.45264212  1
  S2-  S201  1  0.24092997  0.11479208  0.95379657  1
  S2-  S202  1  0.23087300  0.36680643  0.45013525  1
  S2-  S203  1  0.25305993  0.36994384  0.94656990  1
  S2-  S204  1  0.23268877  0.62420170  0.46451443  1
  S2-  S205  1  0.25039464  0.61749439  0.95687758  1
  S2-  S206  1  0.23114583  0.86755910  0.46285939  1
  S2-  S207  1  0.24505387  0.86300796  0.93834445  1
  S2-  S208  1  0.48302819  0.11754227  0.45021226  1
  S2-  S209  1  0.49509576  0.11131574  0.96457098  1
  S2-  S210  1  0.47749511  0.36894092  0.45289306  1
  S2-  S211  1  0.49879324  0.36933139  0.95410267  1
  S2-  S212  1  0.48259450  0.62484715  0.46260077  1
  S2-  S213  1  0.50110742  0.62192209  0.96441403  1
  S2-  S214  1  0.48188305  0.87346026  0.46479641  1
  S2-  S215  1  0.49382613  0.86635913  0.96327423  1
  S2-  S216  1  0.73699790  0.11716041  0.44963783  1
  S2-  S217  1  0.74341702  0.11699573  0.95641709  1
  S2-  S218  1  0.73603462  0.36837101  0.45555920  1
  S2-  S219  1  0.74196492  0.36178999  0.95093802  1
  S2-  S220  1  0.72517724  0.61855528  0.45919023  1
  S2-  S221  1  0.74524560  0.62011023  0.95301071  1
  S2-  S222  1  0.73365060  0.87764377  0.45336542  1
  S2-  S223  1  0.74919435  0.86850234  0.95988188  1
  S2-  S224  1  0.12166079  -0.01191809  0.05049446  1
  S2-  S225  1  0.10658474  -0.00130116  0.53966993  1
  S2-  S226  1  0.12167035  0.24436072  0.05425004  1
  S2-  S227  1  0.10673873  0.24920239  0.53761195  1
  S2-  S228  1  0.12322119  0.49215524  0.03735894  1
  S2-  S229  1  0.11070684  0.49094394  0.54045171  1
  S2-  S230  1  0.12213488  0.74248591  0.04000829  1
  S2-  S231  1  0.10528295  0.74171919  0.54574957  1
  S2-  S232  1  0.35323998  -0.02247727  0.05258877  1
  S2-  S233  1  0.35013514  -0.00034742  0.54358387  1
  S2-  S234  1  0.36755149  0.24398577  0.04113434  1
  S2-  S235  1  0.35455143  0.24390567  0.54592417  1
  S2-  S236  1  0.36682713  0.49609932  0.04273489  1
  S2-  S237  1  0.35820275  0.49099828  0.54101662  1
  S2-  S238  1  0.35853510  0.74283948  0.05356899  1
  S2-  S239  1  0.35919139  0.74506684  0.55289387  1
  S2-  S240  1  0.62136970  -0.00865824  0.05218489  1
  S2-  S241  1  0.60906760  -0.00443468  0.55606672  1
  S2-  S242  1  0.61634570  0.24063243  0.04556579  1
  S2-  S243  1  0.60338216  0.24310281  0.53664049  1
  S2-  S244  1  0.61822321  0.49481957  0.05490960  1
  S2-  S245  1  0.60617765  0.49087841  0.54097203  1
  S2-  S246  1  0.62525538  0.74325895  0.05391338  1
  S2-  S247  1  0.60802648  0.74718519  0.55444546  1
  S2-  S248  1  0.87053229  -0.00750182  0.05476255  1
  S2-  S249  1  0.85868062  -0.00119545  0.55349789  1
  S2-  S250  1  0.87088209  0.24424573  0.05441162  1
  S2-  S251  1  0.86458651  0.24599242  0.53678281  1
  S2-  S252  1  0.86355215  0.49214451  0.04537675  1
  S2-  S253  1  0.85849221  0.49206363  0.53719902  1
  S2-  S254  1  0.86397965  0.74125976  0.04142951  1
  S2-  S255  1  0.85624248  0.74371305  0.54222219  1
