# generated using pymatgen
data_La12Ce14Pr13Nd13Sm12(BiS2)64
_symmetry_space_group_name_H-M   'P 1'
_cell_length_a   16.13155681
_cell_length_b   16.14359680
_cell_length_c   27.33948961
_cell_angle_alpha   90.00066935
_cell_angle_beta   89.85613983
_cell_angle_gamma   90.00595735
_symmetry_Int_Tables_number   1
_chemical_formula_structural   La12Ce14Pr13Nd13Sm12(BiS2)64
_chemical_formula_sum   'La12 Ce14 Pr13 Nd13 Sm12 Bi64 S128'
_cell_volume   7119.76428016
_cell_formula_units_Z   1
loop_
 _symmetry_equiv_pos_site_id
 _symmetry_equiv_pos_as_xyz
  1  'x, y, z'
loop_
 _atom_type_symbol
 _atom_type_oxidation_number
  La3+  3.0
  Ce3+  3.0
  Pr3+  3.0
  Nd3+  3.0
  Sm3+  3.0
  Bi2+  2.0
  S2-  -2.0
loop_
 _atom_site_type_symbol
 _atom_site_label
 _atom_site_symmetry_multiplicity
 _atom_site_fract_x
 _atom_site_fract_y
 _atom_site_fract_z
 _atom_site_occupancy
  La3+  La0  1  0.49234110  0.12803389  0.56833035  1
  La3+  La1  1  -0.00035779  0.39025257  0.07669170  1
  La3+  La2  1  0.37068501  0.01525837  0.89940155  1
  La3+  La3  1  0.74403555  0.86739922  0.58738704  1
  La3+  La4  1  -0.01716188  0.88465550  0.07555873  1
  La3+  La5  1  0.47420078  0.86867804  0.60001181  1
  La3+  La6  1  0.13024712  0.49799315  0.92740289  1
  La3+  La7  1  0.49266204  0.13190859  0.05549347  1
  La3+  La8  1  0.74642302  0.38026993  0.10391922  1
  La3+  La9  1  -0.01554089  0.12369910  0.56066959  1
  La3+  La10  1  0.24560911  0.63890771  0.07418325  1
  La3+  La11  1  0.73495072  0.88191426  0.06710825  1
  Ce3+  Ce12  1  0.11097543  0.49320661  0.44047049  1
  Ce3+  Ce13  1  0.11836072  0.25568865  0.94712660  1
  Ce3+  Ce14  1  0.49589854  0.88400174  0.04994537  1
  Ce3+  Ce15  1  0.49586616  0.38284608  0.05562616  1
  Ce3+  Ce16  1  0.24298100  0.38821368  0.07613866  1
  Ce3+  Ce17  1  0.85926922  0.49729375  0.43600247  1
  Ce3+  Ce18  1  0.86339873  0.00751393  0.93867216  1
  Ce3+  Ce19  1  0.61438209  0.24500141  0.42772608  1
  Ce3+  Ce20  1  -0.00791516  0.62850738  0.05400508  1
  Ce3+  Ce21  1  0.86239265  0.74772421  0.43156558  1
  Ce3+  Ce22  1  0.11159198  -0.00271585  0.44742386  1
  Ce3+  Ce23  1  0.11472770  0.00558053  0.94177460  1
  Ce3+  Ce24  1  0.48971629  0.62335619  0.56453789  1
  Ce3+  Ce25  1  0.73737340  0.12373028  0.55840139  1
  Pr3+  Pr26  1  -0.00944054  0.86839175  0.56180434  1
  Pr3+  Pr27  1  0.23630030  0.37128105  0.55736849  1
  Pr3+  Pr28  1  0.11153013  0.24460492  0.42879830  1
  Pr3+  Pr29  1  -0.02239031  0.37323219  0.56288283  1
  Pr3+  Pr30  1  0.36518506  0.24467155  0.43139713  1
  Pr3+  Pr31  1  0.23944014  0.12542972  0.56795239  1
  Pr3+  Pr32  1  0.11866695  0.75831644  0.94369867  1
  Pr3+  Pr33  1  0.60138742  0.49994296  0.42788806  1
  Pr3+  Pr34  1  0.73315676  0.13416248  0.06699048  1
  Pr3+  Pr35  1  0.87030630  0.50445068  0.94324669  1
  Pr3+  Pr36  1  -0.01218524  0.62374570  0.55506560  1
  Pr3+  Pr37  1  0.61818517  0.50350416  0.92725930  1
  Pr3+  Pr38  1  0.62567552  0.01389388  0.91686107  1
  Nd3+  Nd39  1  0.61986539  0.26046480  0.93405314  1
  Nd3+  Nd40  1  0.61489332  0.75063289  0.43887593  1
  Nd3+  Nd41  1  0.61125658  -0.00832604  0.45664710  1
  Nd3+  Nd42  1  -0.01081407  0.13362713  0.06113665  1
  Nd3+  Nd43  1  0.73467339  0.62507116  0.56098530  1
  Nd3+  Nd44  1  0.24265192  0.12960478  0.05853399  1
  Nd3+  Nd45  1  0.85702786  -0.00842592  0.43851331  1
  Nd3+  Nd46  1  0.49135620  0.37213355  0.56306016  1
  Nd3+  Nd47  1  0.23927590  0.62294886  0.55897972  1
  Nd3+  Nd48  1  0.73990482  0.62790023  0.05230454  1
  Nd3+  Nd49  1  0.36365717  -0.00351382  0.44690700  1
  Nd3+  Nd50  1  0.36524234  0.74684529  0.43166776  1
  Nd3+  Nd51  1  0.49605808  0.63108205  0.05372934  1
  Sm3+  Sm52  1  0.23985005  0.87092754  0.55888332  1
  Sm3+  Sm53  1  0.36736968  0.75932220  0.93578684  1
  Sm3+  Sm54  1  0.86701575  0.75814839  0.94216645  1
  Sm3+  Sm55  1  0.36277759  0.49770085  0.44692196  1
  Sm3+  Sm56  1  0.61729821  0.76131681  0.93383806  1
  Sm3+  Sm57  1  0.36505376  0.25590223  0.94089918  1
  Sm3+  Sm58  1  0.11165829  0.74770916  0.43141707  1
  Sm3+  Sm59  1  0.24296828  0.88216484  0.05544052  1
  Sm3+  Sm60  1  0.73544821  0.37427083  0.54967969  1
  Sm3+  Sm61  1  0.36738931  0.50894327  0.94720363  1
  Sm3+  Sm62  1  0.86958501  0.26085992  0.94847929  1
  Sm3+  Sm63  1  0.86155470  0.24591302  0.42935229  1
  Bi2+  Bi64  1  0.07573923  0.13951311  0.28861874  1
  Bi2+  Bi65  1  -0.03132177  0.10789847  0.80403525  1
  Bi2+  Bi66  1  -0.00588978  0.37431855  0.29470793  1
  Bi2+  Bi67  1  -0.01041488  0.39003932  0.81406911  1
  Bi2+  Bi68  1  0.04038721  0.63102770  0.24405966  1
  Bi2+  Bi69  1  0.04489616  0.61630500  0.74006284  1
  Bi2+  Bi70  1  0.03447515  0.88305462  0.30678390  1
  Bi2+  Bi71  1  -0.02305053  0.84095624  0.79782220  1
  Bi2+  Bi72  1  0.33487768  0.13424769  0.28051420  1
  Bi2+  Bi73  1  0.27141434  0.17814875  0.75708275  1
  Bi2+  Bi74  1  0.28487902  0.35213776  0.28886475  1
  Bi2+  Bi75  1  0.28415396  0.38336195  0.78205653  1
  Bi2+  Bi76  1  0.32349815  0.60889378  0.29882786  1
  Bi2+  Bi77  1  0.23103276  0.63254513  0.81510490  1
  Bi2+  Bi78  1  0.31508253  0.83962605  0.29718990  1
  Bi2+  Bi79  1  0.22585120  0.80841539  0.76287119  1
  Bi2+  Bi80  1  0.54132428  0.13124322  0.29442184  1
  Bi2+  Bi81  1  0.49721685  0.15105947  0.79040399  1
  Bi2+  Bi82  1  0.49000559  0.36823945  0.27428409  1
  Bi2+  Bi83  1  0.48823631  0.36664583  0.78387031  1
  Bi2+  Bi84  1  0.51606906  0.63476257  0.29660309  1
  Bi2+  Bi85  1  0.53701463  0.55901925  0.78461052  1
  Bi2+  Bi86  1  0.52495415  0.92885800  0.30154251  1
  Bi2+  Bi87  1  0.46882879  0.84906756  0.79249459  1
  Bi2+  Bi88  1  0.73733709  0.13104633  0.27453884  1
  Bi2+  Bi89  1  0.71770308  0.17051665  0.76118644  1
  Bi2+  Bi90  1  0.72828475  0.39400677  0.30000615  1
  Bi2+  Bi91  1  0.75772213  0.37274670  0.79484628  1
  Bi2+  Bi92  1  0.76982671  0.71603518  0.25270321  1
  Bi2+  Bi93  1  0.73578262  0.56589533  0.77147581  1
  Bi2+  Bi94  1  0.77878432  0.88735426  0.30560201  1
  Bi2+  Bi95  1  0.74251118  0.86852309  0.79363984  1
  Bi2+  Bi96  1  0.18704246  -0.03255404  0.25118760  1
  Bi2+  Bi97  1  0.08344450  -0.02331272  0.74739113  1
  Bi2+  Bi98  1  0.16984136  0.22751941  0.20972256  1
  Bi2+  Bi99  1  0.09472939  0.24553542  0.77130357  1
  Bi2+  Bi100  1  0.14091888  0.45417429  0.23601998  1
  Bi2+  Bi101  1  0.17302654  0.47653115  0.70881586  1
  Bi2+  Bi102  1  0.21528407  0.70225989  0.22230775  1
  Bi2+  Bi103  1  0.08209647  0.80819671  0.68401313  1
  Bi2+  Bi104  1  0.35958552  0.01102958  0.19581140  1
  Bi2+  Bi105  1  0.33167579  -0.00832170  0.71145432  1
  Bi2+  Bi106  1  0.37513165  0.28483988  0.19192902  1
  Bi2+  Bi107  1  0.37761149  0.30005640  0.68741030  1
  Bi2+  Bi108  1  0.38940720  0.49342673  0.20360746  1
  Bi2+  Bi109  1  0.45093658  0.48711639  0.67526410  1
  Bi2+  Bi110  1  0.39961863  0.82097515  0.19731819  1
  Bi2+  Bi111  1  0.36429447  0.63875423  0.72108506  1
  Bi2+  Bi112  1  0.64219714  -0.00385787  0.20970797  1
  Bi2+  Bi113  1  0.59721390  0.03570468  0.71229328  1
  Bi2+  Bi114  1  0.59278590  0.24688840  0.20388951  1
  Bi2+  Bi115  1  0.63858067  0.32465805  0.70588975  1
  Bi2+  Bi116  1  0.61145850  0.55729407  0.18602705  1
  Bi2+  Bi117  1  0.64536988  0.51503819  0.66713322  1
  Bi2+  Bi118  1  0.59437549  0.79579587  0.22553486  1
  Bi2+  Bi119  1  0.61917413  0.69605433  0.71303474  1
  Bi2+  Bi120  1  0.93804979  -0.00786212  0.21160279  1
  Bi2+  Bi121  1  0.86177687  0.00645689  0.70785075  1
  Bi2+  Bi122  1  0.87613134  0.23170879  0.22220036  1
  Bi2+  Bi123  1  0.89505762  0.24460723  0.69668595  1
  Bi2+  Bi124  1  0.89394616  0.51070173  0.21660204  1
  Bi2+  Bi125  1  0.89524884  0.45715039  0.70913717  1
  Bi2+  Bi126  1  0.93778791  0.78631976  0.20611513  1
  Bi2+  Bi127  1  0.89831621  0.73758710  0.70919252  1
  S2-  S128  1  -0.02505173  0.13223670  0.16087084  1
  S2-  S129  1  -0.02015201  0.11837411  0.66095008  1
  S2-  S130  1  -0.09662470  0.36639664  0.16062116  1
  S2-  S131  1  0.00915614  0.35463878  0.66166330  1
  S2-  S132  1  0.00288824  0.56631681  0.14350742  1
  S2-  S133  1  -0.05246536  0.59593179  0.65106762  1
  S2-  S134  1  0.05981518  0.90185435  0.16608227  1
  S2-  S135  1  -0.09981549  0.88118267  0.64691471  1
  S2-  S136  1  0.22137866  0.08988649  0.15399966  1
  S2-  S137  1  0.22245836  0.09115706  0.66658177  1
  S2-  S138  1  0.12368082  0.36095695  0.14909125  1
  S2-  S139  1  0.22030169  0.33259828  0.65394052  1
  S2-  S140  1  0.24997871  0.52022903  0.14832963  1
  S2-  S141  1  0.23034226  0.61380101  0.65850844  1
  S2-  S142  1  0.25694792  0.78324007  0.13661693  1
  S2-  S143  1  0.31513405  0.86601138  0.64649022  1
  S2-  S144  1  0.58221336  0.11048760  0.14020311  1
  S2-  S145  1  0.45351667  0.06437512  0.66027388  1
  S2-  S146  1  0.57897054  0.39990912  0.14002366  1
  S2-  S147  1  0.52945461  0.26115816  0.63779239  1
  S2-  S148  1  0.46357311  0.62793809  0.15204403  1
  S2-  S149  1  0.47376561  0.70678887  0.64976667  1
  S2-  S150  1  0.59490980  0.88350098  0.13233297  1
  S2-  S151  1  0.52316767  0.88937005  0.70052270  1
  S2-  S152  1  0.74917838  0.22606462  0.15413273  1
  S2-  S153  1  0.73993482  0.13145134  0.65597759  1
  S2-  S154  1  0.74060315  0.45157346  0.20401374  1
  S2-  S155  1  0.80831532  0.36292305  0.63813587  1
  S2-  S156  1  0.72577713  0.66133924  0.15043728  1
  S2-  S157  1  0.74289846  0.71865989  0.64634897  1
  S2-  S158  1  0.84147067  0.90041550  0.14683129  1
  S2-  S159  1  0.72447982  0.92319830  0.69034764  1
  S2-  S160  1  0.13862058  0.01567866  0.35157242  1
  S2-  S161  1  0.11117821  0.03870236  0.84604229  1
  S2-  S162  1  0.24079096  0.23420278  0.35717671  1
  S2-  S163  1  0.13611784  0.33324715  0.86198141  1
  S2-  S164  1  0.11397241  0.47382983  0.34343621  1
  S2-  S165  1  0.08206751  0.54545408  0.83410909  1
  S2-  S166  1  0.23592990  0.73414912  0.36043993  1
  S2-  S167  1  0.12686301  0.77584960  0.84405394  1
  S2-  S168  1  0.38946953  0.01533872  0.34883813  1
  S2-  S169  1  0.31875808  -0.06680641  0.81407167  1
  S2-  S170  1  0.49237672  0.26035399  0.35715680  1
  S2-  S171  1  0.35623124  0.17607441  0.85164983  1
  S2-  S172  1  0.43617050  0.51145817  0.35936816  1
  S2-  S173  1  0.29669358  0.49436732  0.85912751  1
  S2-  S174  1  0.49763695  0.75264261  0.36108527  1
  S2-  S175  1  0.38216194  0.72205178  0.84100277  1
  S2-  S176  1  0.65737819  -0.03147291  0.36118252  1
  S2-  S177  1  0.51289190  -0.00242898  0.83726236  1
  S2-  S178  1  0.74332372  0.24446697  0.35468549  1
  S2-  S179  1  0.63324012  0.16035568  0.85153492  1
  S2-  S180  1  0.65028533  0.52350295  0.33086541  1
  S2-  S181  1  0.61915591  0.37840108  0.85618095  1
  S2-  S182  1  0.74008258  0.74875964  0.35979226  1
  S2-  S183  1  0.61806378  0.79154645  0.83693354  1
  S2-  S184  1  0.90192394  -0.01129911  0.34084333  1
  S2-  S185  1  0.77216228  -0.00780946  0.85552721  1
  S2-  S186  1  0.98315078  0.23508660  0.35536765  1
  S2-  S187  1  0.89518095  0.25194505  0.84961695  1
  S2-  S188  1  0.86831983  0.47391069  0.33774906  1
  S2-  S189  1  0.85935896  0.49812452  0.84308333  1
  S2-  S190  1  0.98937174  0.75243750  0.35828746  1
  S2-  S191  1  0.85074654  0.75865850  0.84434852  1
  S2-  S192  1  -0.01714757  0.11740588  0.45380655  1
  S2-  S193  1  -0.00860001  0.13252271  0.95560849  1
  S2-  S194  1  -0.01598652  0.37136695  0.45442624  1
  S2-  S195  1  -0.00413349  0.38230138  0.96180896  1
  S2-  S196  1  -0.01072597  0.61871443  0.44984970  1
  S2-  S197  1  -0.00708559  0.63372978  0.94802179  1
  S2-  S198  1  -0.01124890  0.87350032  0.45724603  1
  S2-  S199  1  -0.01113397  0.88236886  0.95615726  1
  S2-  S200  1  0.23764626  0.12139655  0.46070228  1
  S2-  S201  1  0.24360197  0.12849813  0.95301833  1
  S2-  S202  1  0.24021390  0.37347129  0.45140185  1
  S2-  S203  1  0.24980982  0.37928041  0.96590282  1
  S2-  S204  1  0.23572816  0.61510724  0.45493730  1
  S2-  S205  1  0.24639167  0.63618547  0.95918531  1
  S2-  S206  1  0.23645730  0.87375271  0.45463438  1
  S2-  S207  1  0.24719621  0.88576903  0.95036961  1
  S2-  S208  1  0.48935925  0.11961075  0.45897657  1
  S2-  S209  1  0.48870586  0.13337873  0.94969609  1
  S2-  S210  1  0.48543843  0.37328363  0.45854461  1
  S2-  S211  1  0.48492934  0.38207679  0.94985640  1
  S2-  S212  1  0.48536060  0.62359584  0.46026302  1
  S2-  S213  1  0.49363679  0.63207252  0.94563491  1
  S2-  S214  1  0.48534642  0.87371171  0.45924009  1
  S2-  S215  1  0.48995301  0.88334847  0.94439088  1
  S2-  S216  1  0.73804006  0.11761397  0.45320443  1
  S2-  S217  1  0.74785185  0.13823567  0.95771711  1
  S2-  S218  1  0.73352066  0.37765214  0.44743604  1
  S2-  S219  1  0.74762564  0.38165923  0.95105547  1
  S2-  S220  1  0.73330153  0.61830663  0.45504653  1
  S2-  S221  1  0.74042303  0.63371856  0.94465900  1
  S2-  S222  1  0.73869240  0.87004848  0.46744258  1
  S2-  S223  1  0.74204328  0.87633220  0.95633890  1
  S2-  S224  1  0.11681147  0.00431085  0.04773638  1
  S2-  S225  1  0.11466690  -0.00422044  0.55500404  1
  S2-  S226  1  0.11850927  0.25260011  0.04989096  1
  S2-  S227  1  0.10958764  0.24782343  0.54294322  1
  S2-  S228  1  0.12295504  0.51259767  0.03984262  1
  S2-  S229  1  0.11131581  0.49623331  0.54861104  1
  S2-  S230  1  0.11151966  0.76028452  0.04914958  1
  S2-  S231  1  0.11660587  0.74638131  0.53960648  1
  S2-  S232  1  0.36710033  0.00314522  0.05075559  1
  S2-  S233  1  0.36162898  -0.00260502  0.55089499  1
  S2-  S234  1  0.36538402  0.25755900  0.04725255  1
  S2-  S235  1  0.36330231  0.24861706  0.54330917  1
  S2-  S236  1  0.37178205  0.50820500  0.04802580  1
  S2-  S237  1  0.36264068  0.49639307  0.55062913  1
  S2-  S238  1  0.37397038  0.75878665  0.03950458  1
  S2-  S239  1  0.35939204  0.74692579  0.54071349  1
  S2-  S240  1  0.61791317  0.00861635  0.02961766  1
  S2-  S241  1  0.61167250  -0.00835492  0.56274688  1
  S2-  S242  1  0.61877756  0.26146996  0.04071588  1
  S2-  S243  1  0.62054359  0.24927760  0.53475390  1
  S2-  S244  1  0.61751865  0.50724348  0.03421996  1
  S2-  S245  1  0.61218002  0.49675803  0.53928877  1
  S2-  S246  1  0.61689065  0.75264028  0.03702819  1
  S2-  S247  1  0.60869944  0.75107198  0.54926222  1
  S2-  S248  1  0.86283339  0.01320258  0.04488229  1
  S2-  S249  1  0.86044743  -0.00236155  0.54665072  1
  S2-  S250  1  0.86743991  0.25939643  0.05104172  1
  S2-  S251  1  0.85873019  0.24768036  0.53548207  1
  S2-  S252  1  0.86074646  0.50338570  0.05014822  1
  S2-  S253  1  0.85850414  0.50062131  0.54221284  1
  S2-  S254  1  0.86532561  0.75282383  0.04687268  1
  S2-  S255  1  0.86424075  0.74497799  0.54114374  1
