# generated using pymatgen
data_La12Ce14Pr13Nd13Sm12(BiS2)64
_symmetry_space_group_name_H-M   'P 1'
_cell_length_a   16.14072553
_cell_length_b   16.15864086
_cell_length_c   27.11805236
_cell_angle_alpha   89.91481274
_cell_angle_beta   90.06930531
_cell_angle_gamma   90.00757598
_symmetry_Int_Tables_number   1
_chemical_formula_structural   La12Ce14Pr13Nd13Sm12(BiS2)64
_chemical_formula_sum   'La12 Ce14 Pr13 Nd13 Sm12 Bi64 S128'
_cell_volume   7072.70549497
_cell_formula_units_Z   1
loop_
 _symmetry_equiv_pos_site_id
 _symmetry_equiv_pos_as_xyz
  1  'x, y, z'
loop_
 _atom_type_symbol
 _atom_type_oxidation_number
  La3+  3.0
  Ce3+  3.0
  Pr3+  3.0
  Nd3+  3.0
  Sm3+  3.0
  Bi2+  2.0
  S2-  -2.0
loop_
 _atom_site_type_symbol
 _atom_site_label
 _atom_site_symmetry_multiplicity
 _atom_site_fract_x
 _atom_site_fract_y
 _atom_site_fract_z
 _atom_site_occupancy
  La3+  La0  1  0.47623842  0.11831112  0.58195820  1
  La3+  La1  1  0.01711879  0.11026200  0.09722061  1
  La3+  La2  1  0.10142028  0.74379330  0.42244001  1
  La3+  La3  1  0.89220432  -0.00261041  0.92738019  1
  La3+  La4  1  0.85413962  0.25185652  0.40030253  1
  La3+  La5  1  0.52091023  0.62000860  0.09387079  1
  La3+  La6  1  0.63985240  0.25495940  0.88849003  1
  La3+  La7  1  0.76075689  0.61911185  0.05216684  1
  La3+  La8  1  0.76485616  0.87059568  0.05133578  1
  La3+  La9  1  0.72863741  0.62002635  0.58146095  1
  La3+  La10  1  0.26062244  0.62168348  0.07598185  1
  La3+  La11  1  0.51232199  0.36653051  0.06384761  1
  Ce3+  Ce12  1  0.36069883  0.50365984  0.44751016  1
  Ce3+  Ce13  1  0.89269494  0.24491158  0.93307306  1
  Ce3+  Ce14  1  0.60987194  0.00343359  0.44685732  1
  Ce3+  Ce15  1  0.86194574  0.74759325  0.44927456  1
  Ce3+  Ce16  1  0.10723013  0.49854287  0.44481551  1
  Ce3+  Ce17  1  0.10431966  0.00290500  0.44747101  1
  Ce3+  Ce18  1  0.13991268  0.49699712  0.94030368  1
  Ce3+  Ce19  1  0.25799788  0.11846293  0.05079159  1
  Ce3+  Ce20  1  0.89155208  0.74399487  0.92160977  1
  Ce3+  Ce21  1  -0.01770144  0.37251868  0.56334578  1
  Ce3+  Ce22  1  0.48080555  0.62838551  0.57039314  1
  Ce3+  Ce23  1  0.25966991  0.36537625  0.05655728  1
  Ce3+  Ce24  1  0.48039532  0.87435937  0.56048750  1
  Ce3+  Ce25  1  0.62279122  0.50402658  0.92306478  1
  Pr3+  Pr26  1  0.60938909  0.50582635  0.43976236  1
  Pr3+  Pr27  1  0.14222225  0.73743779  0.92040354  1
  Pr3+  Pr28  1  0.38836868  -0.00336028  0.93642880  1
  Pr3+  Pr29  1  0.88331275  0.49451107  0.92886760  1
  Pr3+  Pr30  1  -0.01804922  0.12827204  0.56254302  1
  Pr3+  Pr31  1  0.75964213  0.36854270  0.04733693  1
  Pr3+  Pr32  1  0.76481364  0.11976657  0.05750379  1
  Pr3+  Pr33  1  0.23468549  0.62810704  0.56441221  1
  Pr3+  Pr34  1  0.00895244  0.86201853  0.06230365  1
  Pr3+  Pr35  1  0.10720334  0.25131904  0.44275657  1
  Pr3+  Pr36  1  0.38803330  0.49636657  0.94421910  1
  Pr3+  Pr37  1  0.73478966  0.87454269  0.56265863  1
  Pr3+  Pr38  1  -0.02131298  0.87875286  0.57442848  1
  Nd3+  Nd39  1  0.48130885  0.37414113  0.57158341  1
  Nd3+  Nd40  1  0.51197564  0.86908870  0.05796749  1
  Nd3+  Nd41  1  0.23515715  0.37469750  0.56017392  1
  Nd3+  Nd42  1  -0.01297958  0.62359492  0.57391478  1
  Nd3+  Nd43  1  0.36131359  0.00043712  0.43899378  1
  Nd3+  Nd44  1  0.35133575  0.75093107  0.42938196  1
  Nd3+  Nd45  1  0.73067642  0.37419403  0.56235532  1
  Nd3+  Nd46  1  0.01025809  0.36686748  0.05927290  1
  Nd3+  Nd47  1  0.51269151  0.12078773  0.06021717  1
  Nd3+  Nd48  1  0.60267951  0.25139550  0.43605259  1
  Nd3+  Nd49  1  0.85804945  0.00237037  0.43987274  1
  Nd3+  Nd50  1  0.64238834  0.00024809  0.92633325  1
  Nd3+  Nd51  1  0.25834388  0.87106057  0.05746524  1
  Sm3+  Sm52  1  0.63690121  0.74693689  0.93210882  1
  Sm3+  Sm53  1  0.73329280  0.12800348  0.56478601  1
  Sm3+  Sm54  1  0.38507750  0.74594188  0.94398901  1
  Sm3+  Sm55  1  0.60751281  0.74776593  0.44669615  1
  Sm3+  Sm56  1  0.38971199  0.24427964  0.93266224  1
  Sm3+  Sm57  1  0.22997487  0.87250011  0.55549811  1
  Sm3+  Sm58  1  0.36351424  0.25044157  0.44122535  1
  Sm3+  Sm59  1  0.13209214  -0.00575314  0.93605764  1
  Sm3+  Sm60  1  0.13201084  0.24543762  0.93689509  1
  Sm3+  Sm61  1  0.85653947  0.49733294  0.45055246  1
  Sm3+  Sm62  1  0.01762157  0.62230082  0.05993555  1
  Sm3+  Sm63  1  0.23480107  0.12437134  0.55565105  1
  Bi2+  Bi64  1  -0.01076095  0.11520927  0.28978630  1
  Bi2+  Bi65  1  0.01180835  0.13895875  0.78766236  1
  Bi2+  Bi66  1  0.02904709  0.37645127  0.30350149  1
  Bi2+  Bi67  1  0.06025068  0.36036005  0.77260757  1
  Bi2+  Bi68  1  -0.01065432  0.64885539  0.28575685  1
  Bi2+  Bi69  1  0.07192076  0.63912264  0.77527474  1
  Bi2+  Bi70  1  0.03253229  0.85144196  0.28362689  1
  Bi2+  Bi71  1  0.06188664  0.88329534  0.78597336  1
  Bi2+  Bi72  1  0.24663215  0.17667323  0.28654473  1
  Bi2+  Bi73  1  0.22320892  0.14458758  0.79487568  1
  Bi2+  Bi74  1  0.27538451  0.37634888  0.29132604  1
  Bi2+  Bi75  1  0.23291331  0.33458354  0.82846248  1
  Bi2+  Bi76  1  0.28950384  0.65675584  0.29644962  1
  Bi2+  Bi77  1  0.31759105  0.57604247  0.80976272  1
  Bi2+  Bi78  1  0.30565016  0.90877453  0.25317051  1
  Bi2+  Bi79  1  0.25326017  0.87952596  0.80640765  1
  Bi2+  Bi80  1  0.43871559  0.11461350  0.29431461  1
  Bi2+  Bi81  1  0.49542842  0.12636751  0.77657464  1
  Bi2+  Bi82  1  0.45881502  0.31073356  0.26625658  1
  Bi2+  Bi83  1  0.40795549  0.38324851  0.78349528  1
  Bi2+  Bi84  1  0.50931790  0.57563194  0.30427831  1
  Bi2+  Bi85  1  0.48339026  0.66525128  0.77374593  1
  Bi2+  Bi86  1  0.58150408  0.91159668  0.27691515  1
  Bi2+  Bi87  1  0.45957356  0.86815892  0.79556408  1
  Bi2+  Bi88  1  0.71429726  0.11106181  0.28559456  1
  Bi2+  Bi89  1  0.74973513  0.10317543  0.77766595  1
  Bi2+  Bi90  1  0.71382128  0.38265121  0.29122321  1
  Bi2+  Bi91  1  0.80080375  0.36333464  0.79071427  1
  Bi2+  Bi92  1  0.75479045  0.65439210  0.29989763  1
  Bi2+  Bi93  1  0.74586590  0.61071849  0.80500501  1
  Bi2+  Bi94  1  0.76277015  0.85023219  0.29271832  1
  Bi2+  Bi95  1  0.66011560  0.86571324  0.80922657  1
  Bi2+  Bi96  1  0.14522136  0.00821268  0.25484600  1
  Bi2+  Bi97  1  0.14831879  0.01877294  0.71561569  1
  Bi2+  Bi98  1  0.13042420  0.31348507  0.19797147  1
  Bi2+  Bi99  1  0.13706024  0.21765267  0.69440525  1
  Bi2+  Bi100  1  0.14249361  0.51794923  0.26264812  1
  Bi2+  Bi101  1  0.21317799  0.46082381  0.72620101  1
  Bi2+  Bi102  1  0.10477497  0.74454224  0.19669100  1
  Bi2+  Bi103  1  0.22760884  0.74027757  0.72506050  1
  Bi2+  Bi104  1  0.44533286  -0.00755000  0.18264607  1
  Bi2+  Bi105  1  0.34164991  -0.01675976  0.70764165  1
  Bi2+  Bi106  1  0.34244654  0.16259170  0.18360062  1
  Bi2+  Bi107  1  0.34546403  0.23738143  0.71374516  1
  Bi2+  Bi108  1  0.39327464  0.47697789  0.21293124  1
  Bi2+  Bi109  1  0.35676770  0.58917502  0.68394093  1
  Bi2+  Bi110  1  0.39550635  0.76719530  0.20215606  1
  Bi2+  Bi111  1  0.42053528  0.77102780  0.67767802  1
  Bi2+  Bi112  1  0.63345949  0.03656122  0.18474453  1
  Bi2+  Bi113  1  0.60321214  -0.03548805  0.71970042  1
  Bi2+  Bi114  1  0.61015479  0.22407136  0.21228910  1
  Bi2+  Bi115  1  0.65480161  0.27189178  0.68253034  1
  Bi2+  Bi116  1  0.67127038  0.49087752  0.20328659  1
  Bi2+  Bi117  1  0.61804912  0.50120806  0.71844032  1
  Bi2+  Bi118  1  0.59203635  0.72746804  0.24228546  1
  Bi2+  Bi119  1  0.61282293  0.76991137  0.71050865  1
  Bi2+  Bi120  1  0.87253075  -0.02353420  0.20398954  1
  Bi2+  Bi121  1  0.90715146  -0.04411166  0.72094495  1
  Bi2+  Bi122  1  0.87786212  0.27887666  0.19401178  1
  Bi2+  Bi123  1  0.94374851  0.24420343  0.69672673  1
  Bi2+  Bi124  1  0.86654244  0.50125907  0.25982768  1
  Bi2+  Bi125  1  0.88524626  0.50750660  0.71156092  1
  Bi2+  Bi126  1  0.84550672  0.74987230  0.20717653  1
  Bi2+  Bi127  1  0.88001420  0.75734668  0.71585386  1
  S2-  S128  1  0.02961203  0.18566564  0.19292012  1
  S2-  S129  1  -0.04186000  0.07764216  0.65802939  1
  S2-  S130  1  -0.00524718  0.39379958  0.15869449  1
  S2-  S131  1  -0.00664451  0.40788190  0.65961016  1
  S2-  S132  1  -0.03584297  0.73121468  0.13447634  1
  S2-  S133  1  -0.01826523  0.62823348  0.67691258  1
  S2-  S134  1  0.00436305  0.95920151  0.14929194  1
  S2-  S135  1  0.01247161  0.84209957  0.67142632  1
  S2-  S136  1  0.19984004  0.10070056  0.14077868  1
  S2-  S137  1  0.31996341  0.11706842  0.64042519  1
  S2-  S138  1  0.28160241  0.37987996  0.15314312  1
  S2-  S139  1  0.29752198  0.37196234  0.65319312  1
  S2-  S140  1  0.12782662  0.60893033  0.14225157  1
  S2-  S141  1  0.18252105  0.61153864  0.66048529  1
  S2-  S142  1  0.24049731  0.82623245  0.15452043  1
  S2-  S143  1  0.23901479  0.87990190  0.65429287  1
  S2-  S144  1  0.49397314  0.23606842  0.13844497  1
  S2-  S145  1  0.51156163  0.18837658  0.67508035  1
  S2-  S146  1  0.52671151  0.46885498  0.14975273  1
  S2-  S147  1  0.52570942  0.40183653  0.66853528  1
  S2-  S148  1  0.37244182  0.61967356  0.15730522  1
  S2-  S149  1  0.58843783  0.61015486  0.64783754  1
  S2-  S150  1  0.53548868  0.77778821  0.14370205  1
  S2-  S151  1  0.48443809  0.96883512  0.64444533  1
  S2-  S152  1  0.85091163  0.12316938  0.14778394  1
  S2-  S153  1  0.73174646  0.12884916  0.66558015  1
  S2-  S154  1  0.75692438  0.35914633  0.14981170  1
  S2-  S155  1  0.74657879  0.42412404  0.66089800  1
  S2-  S156  1  0.68741940  0.61968043  0.14391744  1
  S2-  S157  1  0.78663343  0.64095626  0.67930732  1
  S2-  S158  1  0.76618670  0.87050000  0.15303246  1
  S2-  S159  1  0.79836109  0.88103084  0.65703561  1
  S2-  S160  1  0.07417867  -0.01486722  0.35172850  1
  S2-  S161  1  0.02482190  0.00386203  0.85589851  1
  S2-  S162  1  0.10181507  0.23381221  0.34242247  1
  S2-  S163  1  0.01896396  0.25712986  0.85822855  1
  S2-  S164  1  0.10191807  0.58097391  0.35959538  1
  S2-  S165  1  0.14300083  0.57742997  0.85294861  1
  S2-  S166  1  0.22401602  0.76831454  0.35060415  1
  S2-  S167  1  0.01542863  0.74444608  0.84628730  1
  S2-  S168  1  0.35933863  -0.01529060  0.33950073  1
  S2-  S169  1  0.40449170  0.02223368  0.83682856  1
  S2-  S170  1  0.47143155  0.24402444  0.36518399  1
  S2-  S171  1  0.47115108  0.25190506  0.84498631  1
  S2-  S172  1  0.36049369  0.51057555  0.34906607  1
  S2-  S173  1  0.45847078  0.49339448  0.85080802  1
  S2-  S174  1  0.42625249  0.72435154  0.33899031  1
  S2-  S175  1  0.29214336  0.73622810  0.85997340  1
  S2-  S176  1  0.59833543  0.03544242  0.35040660  1
  S2-  S177  1  0.61539904  0.09525579  0.84308750  1
  S2-  S178  1  0.70075665  0.24438708  0.35158655  1
  S2-  S179  1  0.65633003  0.27296890  0.77960158  1
  S2-  S180  1  0.58636367  0.43727440  0.34585502  1
  S2-  S181  1  0.67469705  0.44749210  0.83301956  1
  S2-  S182  1  0.62547338  0.64170676  0.37034522  1
  S2-  S183  1  0.60958576  0.64890259  0.85189107  1
  S2-  S184  1  0.85365875  0.08047876  0.35053991  1
  S2-  S185  1  0.78866053  -0.00826812  0.84058791  1
  S2-  S186  1  0.90704952  0.25707608  0.29776661  1
  S2-  S187  1  0.80697653  0.22408053  0.84679716  1
  S2-  S188  1  0.85675708  0.43593528  0.35825347  1
  S2-  S189  1  0.89424051  0.50907253  0.82560033  1
  S2-  S190  1  0.95401849  0.76418077  0.36522118  1
  S2-  S191  1  0.80243302  0.75411865  0.83347858  1
  S2-  S192  1  -0.02169259  0.13112929  0.45473957  1
  S2-  S193  1  0.01598998  0.12209906  0.95601630  1
  S2-  S194  1  -0.01969232  0.37256584  0.45610447  1
  S2-  S195  1  0.01374299  0.37745263  0.95211519  1
  S2-  S196  1  -0.01936501  0.61896838  0.46505476  1
  S2-  S197  1  0.01013523  0.61538579  0.95332911  1
  S2-  S198  1  -0.01839626  0.87950444  0.46539175  1
  S2-  S199  1  0.01659807  0.86589416  0.95193426  1
  S2-  S200  1  0.23699220  0.12672880  0.44993339  1
  S2-  S201  1  0.25725275  0.12073687  0.94281667  1
  S2-  S202  1  0.23737801  0.37353134  0.45171127  1
  S2-  S203  1  0.26286638  0.36728978  0.95044016  1
  S2-  S204  1  0.23201978  0.62503878  0.45738031  1
  S2-  S205  1  0.26398925  0.61940455  0.96343001  1
  S2-  S206  1  0.22937917  0.87968288  0.45188468  1
  S2-  S207  1  0.26016505  0.87512497  0.95165895  1
  S2-  S208  1  0.48216224  0.12193965  0.46604351  1
  S2-  S209  1  0.51092324  0.12105687  0.95322218  1
  S2-  S210  1  0.48184533  0.37758628  0.46306761  1
  S2-  S211  1  0.51295994  0.36483301  0.95176822  1
  S2-  S212  1  0.47988007  0.63070144  0.46270985  1
  S2-  S213  1  0.50503407  0.62789822  0.95535930  1
  S2-  S214  1  0.48534613  0.87272510  0.45090205  1
  S2-  S215  1  0.51233462  0.86988957  0.94857792  1
  S2-  S216  1  0.73467129  0.12832849  0.45893251  1
  S2-  S217  1  0.76227079  0.12124102  0.95101944  1
  S2-  S218  1  0.73364192  0.37283513  0.45765149  1
  S2-  S219  1  0.75892096  0.36907653  0.94165754  1
  S2-  S220  1  0.73909167  0.62510245  0.46906052  1
  S2-  S221  1  0.76057317  0.62014928  0.94434384  1
  S2-  S222  1  0.73406739  0.87220889  0.45313241  1
  S2-  S223  1  0.76058136  0.86944386  0.94474984  1
  S2-  S224  1  0.13376045  -0.00787627  0.04012292  1
  S2-  S225  1  0.11009854  0.00188166  0.55449703  1
  S2-  S226  1  0.13248031  0.24273700  0.04381236  1
  S2-  S227  1  0.11211079  0.24945194  0.55042952  1
  S2-  S228  1  0.13537467  0.48978141  0.04466195  1
  S2-  S229  1  0.10987031  0.49822878  0.55165529  1
  S2-  S230  1  0.13813955  0.74607471  0.03722737  1
  S2-  S231  1  0.10494651  0.75106611  0.55101734  1
  S2-  S232  1  0.38619142  -0.00518600  0.04442305  1
  S2-  S233  1  0.35225536  -0.00598028  0.54336787  1
  S2-  S234  1  0.38147207  0.24055275  0.03663010  1
  S2-  S235  1  0.35843989  0.25024071  0.54524933  1
  S2-  S236  1  0.38398150  0.49173591  0.04969150  1
  S2-  S237  1  0.35940693  0.50015400  0.55271036  1
  S2-  S238  1  0.38543008  0.74892858  0.04701002  1
  S2-  S239  1  0.35543534  0.75324554  0.54211817  1
  S2-  S240  1  0.63531399  -0.00485940  0.03882306  1
  S2-  S241  1  0.61342839  0.00099984  0.55167915  1
  S2-  S242  1  0.63951744  0.24104489  0.04731496  1
  S2-  S243  1  0.60639952  0.24836585  0.55067214  1
  S2-  S244  1  0.63463206  0.49506516  0.03513372  1
  S2-  S245  1  0.60518120  0.49641660  0.54743901  1
  S2-  S246  1  0.63628790  0.74695656  0.03634466  1
  S2-  S247  1  0.60838640  0.75255036  0.55113349  1
  S2-  S248  1  0.89014046  -0.00614018  0.03849701  1
  S2-  S249  1  0.85525211  0.00395866  0.54762390  1
  S2-  S250  1  0.88877347  0.24577303  0.04183609  1
  S2-  S251  1  0.85584616  0.25071176  0.55832078  1
  S2-  S252  1  0.88884397  0.49642055  0.04240695  1
  S2-  S253  1  0.85966625  0.49966173  0.55546345  1
  S2-  S254  1  0.88401341  0.74212836  0.02901522  1
  S2-  S255  1  0.86060238  0.74601474  0.55620981  1
