# generated using pymatgen
data_La12Ce14Pr13Nd13Sm12(BiS2)64
_symmetry_space_group_name_H-M   'P 1'
_cell_length_a   16.11843736
_cell_length_b   16.09345061
_cell_length_c   27.27545049
_cell_angle_alpha   89.64727101
_cell_angle_beta   90.17341946
_cell_angle_gamma   89.98779855
_symmetry_Int_Tables_number   1
_chemical_formula_structural   La12Ce14Pr13Nd13Sm12(BiS2)64
_chemical_formula_sum   'La12 Ce14 Pr13 Nd13 Sm12 Bi64 S128'
_cell_volume   7075.11997820
_cell_formula_units_Z   1
loop_
 _symmetry_equiv_pos_site_id
 _symmetry_equiv_pos_as_xyz
  1  'x, y, z'
loop_
 _atom_type_symbol
 _atom_type_oxidation_number
  La3+  3.0
  Ce3+  3.0
  Pr3+  3.0
  Nd3+  3.0
  Sm3+  3.0
  Bi2+  2.0
  S2-  -2.0
loop_
 _atom_site_type_symbol
 _atom_site_label
 _atom_site_symmetry_multiplicity
 _atom_site_fract_x
 _atom_site_fract_y
 _atom_site_fract_z
 _atom_site_occupancy
  La3+  La0  1  0.26443058  0.62795648  0.60047143  1
  La3+  La1  1  0.13379380  0.75564603  0.89164632  1
  La3+  La2  1  0.37248521  -0.00339806  0.94567963  1
  La3+  La3  1  0.75263068  0.36653071  0.56723940  1
  La3+  La4  1  0.00613394  0.86869033  0.07237948  1
  La3+  La5  1  0.61718532  0.23645187  0.89467009  1
  La3+  La6  1  0.00614295  0.11326255  0.57096710  1
  La3+  La7  1  0.63010419  0.22465863  0.38885897  1
  La3+  La8  1  0.87379064  0.74698307  0.94038670  1
  La3+  La9  1  0.75586896  0.87375948  0.11127510  1
  La3+  La10  1  0.74640664  0.11703452  0.60799197  1
  La3+  La11  1  0.13108862  0.50407794  0.41779896  1
  Ce3+  Ce12  1  0.87186726  0.00033020  0.44609343  1
  Ce3+  Ce13  1  0.00592293  0.37063816  0.55114976  1
  Ce3+  Ce14  1  0.12395195  -0.00455963  0.42580349  1
  Ce3+  Ce15  1  0.62535788  -0.00190640  0.94209391  1
  Ce3+  Ce16  1  0.75378273  0.62394863  0.55464135  1
  Ce3+  Ce17  1  0.12489770  0.49992158  0.93451887  1
  Ce3+  Ce18  1  0.50161773  0.36703143  0.05364087  1
  Ce3+  Ce19  1  0.62753025  0.74787038  0.43982452  1
  Ce3+  Ce20  1  0.50292218  0.36839901  0.55190222  1
  Ce3+  Ce21  1  0.24978109  0.11974768  0.55868493  1
  Ce3+  Ce22  1  0.87658108  0.49410652  0.44249242  1
  Ce3+  Ce23  1  -0.00073872  0.12022058  0.06069248  1
  Ce3+  Ce24  1  0.12789345  0.24463342  0.93610081  1
  Ce3+  Ce25  1  0.86893120  0.24582724  0.93982757  1
  Pr3+  Pr26  1  0.00050631  0.36959019  0.05607756  1
  Pr3+  Pr27  1  0.50428849  0.86767931  0.05925246  1
  Pr3+  Pr28  1  0.25102156  0.37114835  0.06497300  1
  Pr3+  Pr29  1  0.87162236  -0.00454567  0.95052196  1
  Pr3+  Pr30  1  0.37416463  0.24489887  0.43293309  1
  Pr3+  Pr31  1  0.50790190  0.11540103  0.07409656  1
  Pr3+  Pr32  1  0.25271709  0.37367248  0.55799908  1
  Pr3+  Pr33  1  0.00049222  0.62117002  0.06187817  1
  Pr3+  Pr34  1  0.00981628  0.62048003  0.55213741  1
  Pr3+  Pr35  1  0.37668529  0.49446205  0.93594677  1
  Pr3+  Pr36  1  0.37407960  0.74530808  0.93638004  1
  Pr3+  Pr37  1  0.37647799  0.49998372  0.43312321  1
  Pr3+  Pr38  1  0.25168040  0.86262941  0.07329960  1
  Nd3+  Nd39  1  0.74711521  0.62570425  0.06870089  1
  Nd3+  Nd40  1  0.62841015  0.74500396  0.93135332  1
  Nd3+  Nd41  1  0.25017689  0.61731577  0.06281412  1
  Nd3+  Nd42  1  0.74815817  0.36708031  0.06259636  1
  Nd3+  Nd43  1  0.37551092  0.24433433  0.94377397  1
  Nd3+  Nd44  1  0.38014847  -0.00053140  0.43965819  1
  Nd3+  Nd45  1  0.50350489  0.87093333  0.55664906  1
  Nd3+  Nd46  1  0.87348420  0.74939615  0.42831176  1
  Nd3+  Nd47  1  0.12670611  0.24699934  0.43143367  1
  Nd3+  Nd48  1  0.62764171  0.49010713  0.43444237  1
  Nd3+  Nd49  1  0.75559155  0.86461371  0.57041595  1
  Nd3+  Nd50  1  0.24592108  0.12349208  0.07460488  1
  Nd3+  Nd51  1  0.12184942  0.00015584  0.93937926  1
  Sm3+  Sm52  1  0.87021972  0.24296471  0.44638600  1
  Sm3+  Sm53  1  0.74804666  0.12150365  0.06375222  1
  Sm3+  Sm54  1  0.87283459  0.49446645  0.94776829  1
  Sm3+  Sm55  1  0.00515797  0.86875644  0.55010546  1
  Sm3+  Sm56  1  0.37797961  0.74618957  0.44028260  1
  Sm3+  Sm57  1  0.50502177  0.11982970  0.56186723  1
  Sm3+  Sm58  1  0.25252226  0.87013049  0.55311708  1
  Sm3+  Sm59  1  0.12931282  0.75032467  0.43008115  1
  Sm3+  Sm60  1  0.62758737  0.49269178  0.94597393  1
  Sm3+  Sm61  1  0.50220035  0.62015901  0.05471659  1
  Sm3+  Sm62  1  0.50128837  0.61926727  0.55789802  1
  Sm3+  Sm63  1  0.62991551  -0.00436754  0.44323642  1
  Bi2+  Bi64  1  0.03176481  0.15089658  0.32613946  1
  Bi2+  Bi65  1  0.02657622  0.15934279  0.77817181  1
  Bi2+  Bi66  1  -0.03898529  0.30893983  0.27416818  1
  Bi2+  Bi67  1  -0.00267780  0.35290050  0.78700765  1
  Bi2+  Bi68  1  -0.01272107  0.57169802  0.29801467  1
  Bi2+  Bi69  1  -0.01200624  0.64849898  0.78762799  1
  Bi2+  Bi70  1  0.06731740  0.97485361  0.28511100  1
  Bi2+  Bi71  1  0.01179082  0.90721957  0.79796817  1
  Bi2+  Bi72  1  0.21055643  0.13978281  0.27967074  1
  Bi2+  Bi73  1  0.28342400  0.18296826  0.82346532  1
  Bi2+  Bi74  1  0.20927463  0.37763674  0.28541177  1
  Bi2+  Bi75  1  0.19167245  0.35474686  0.80630952  1
  Bi2+  Bi76  1  0.24066619  0.62281356  0.28077681  1
  Bi2+  Bi77  1  0.27253970  0.60082750  0.79808265  1
  Bi2+  Bi78  1  0.27564729  0.88247921  0.28633524  1
  Bi2+  Bi79  1  0.32850477  0.93308400  0.75127712  1
  Bi2+  Bi80  1  0.46094954  0.09154993  0.28011057  1
  Bi2+  Bi81  1  0.45704225  0.08894502  0.78163439  1
  Bi2+  Bi82  1  0.46427597  0.37425301  0.29287637  1
  Bi2+  Bi83  1  0.49844165  0.48234629  0.80108421  1
  Bi2+  Bi84  1  0.49236204  0.56270997  0.31553097  1
  Bi2+  Bi85  1  0.47222341  0.67904617  0.81944512  1
  Bi2+  Bi86  1  0.49377981  0.82719329  0.28971306  1
  Bi2+  Bi87  1  0.56944560  0.84842059  0.80877071  1
  Bi2+  Bi88  1  0.76229202  0.10281146  0.29326954  1
  Bi2+  Bi89  1  0.77340860  0.09229179  0.80061873  1
  Bi2+  Bi90  1  0.75558343  0.36985165  0.28763430  1
  Bi2+  Bi91  1  0.75049746  0.39697543  0.80452674  1
  Bi2+  Bi92  1  0.67972406  0.60811418  0.29924136  1
  Bi2+  Bi93  1  0.72976562  0.62986816  0.77454364  1
  Bi2+  Bi94  1  0.78198463  0.85719556  0.29839164  1
  Bi2+  Bi95  1  0.76154889  0.86325678  0.79517923  1
  Bi2+  Bi96  1  0.23897334  0.00647310  0.19620673  1
  Bi2+  Bi97  1  0.17744034  0.05337272  0.73349376  1
  Bi2+  Bi98  1  0.09509483  0.26450384  0.19798920  1
  Bi2+  Bi99  1  0.14377878  0.26297226  0.70410047  1
  Bi2+  Bi100  1  0.10762054  0.51472350  0.20315265  1
  Bi2+  Bi101  1  0.10462702  0.50479973  0.69799857  1
  Bi2+  Bi102  1  0.14975425  0.75365758  0.21250003  1
  Bi2+  Bi103  1  0.10491065  0.76804519  0.67885969  1
  Bi2+  Bi104  1  0.40033861  -0.10388463  0.19005231  1
  Bi2+  Bi105  1  0.35449077  0.08687071  0.67911748  1
  Bi2+  Bi106  1  0.35837298  0.27199223  0.21803067  1
  Bi2+  Bi107  1  0.34376543  0.26921396  0.72126500  1
  Bi2+  Bi108  1  0.35876120  0.49652816  0.21643610  1
  Bi2+  Bi109  1  0.38888873  0.46349782  0.70625023  1
  Bi2+  Bi110  1  0.40319625  0.69219712  0.20829163  1
  Bi2+  Bi111  1  0.43054728  0.76958369  0.71983845  1
  Bi2+  Bi112  1  0.58583098  -0.01092031  0.21708982  1
  Bi2+  Bi113  1  0.60446381  -0.02399467  0.71584168  1
  Bi2+  Bi114  1  0.59744526  0.25001167  0.18511492  1
  Bi2+  Bi115  1  0.61035034  0.27123982  0.70297072  1
  Bi2+  Bi116  1  0.58048741  0.49077328  0.21850307  1
  Bi2+  Bi117  1  0.57216580  0.57974161  0.70748502  1
  Bi2+  Bi118  1  0.62251505  0.73441297  0.21869106  1
  Bi2+  Bi119  1  0.64066419  0.76630622  0.70262339  1
  Bi2+  Bi120  1  0.94297281  0.03567911  0.20736976  1
  Bi2+  Bi121  1  0.90745461  -0.03116541  0.70245862  1
  Bi2+  Bi122  1  0.85605055  0.20335472  0.19771307  1
  Bi2+  Bi123  1  0.87508853  0.28544027  0.69590921  1
  Bi2+  Bi124  1  0.82808980  0.53182950  0.23741222  1
  Bi2+  Bi125  1  0.87733116  0.50604507  0.74216971  1
  Bi2+  Bi126  1  0.89864475  0.73274094  0.21912093  1
  Bi2+  Bi127  1  0.86593403  0.77814605  0.71407888  1
  S2-  S128  1  0.06546734  0.11335966  0.15072406  1
  S2-  S129  1  -0.08801388  0.12823775  0.65598436  1
  S2-  S130  1  0.01216818  0.40724271  0.15446595  1
  S2-  S131  1  0.01803686  0.36837683  0.64897543  1
  S2-  S132  1  0.02181019  0.65925544  0.16089914  1
  S2-  S133  1  0.00994947  0.62269697  0.65311004  1
  S2-  S134  1  -0.08574914  0.87086023  0.16140093  1
  S2-  S135  1  0.03233213  0.91942881  0.64347589  1
  S2-  S136  1  0.24485275  0.25542454  0.14293141  1
  S2-  S137  1  0.14466235  0.12001229  0.63700745  1
  S2-  S138  1  0.24128995  0.49506226  0.13978324  1
  S2-  S139  1  0.24535110  0.46472176  0.64323812  1
  S2-  S140  1  0.27068779  0.72301760  0.14412599  1
  S2-  S141  1  0.21031194  0.63098142  0.70365856  1
  S2-  S142  1  0.13261557  0.88318473  0.14949841  1
  S2-  S143  1  0.25473791  0.79923494  0.64203155  1
  S2-  S144  1  0.44700337  0.14959458  0.17221294  1
  S2-  S145  1  0.57702406  0.11910752  0.65312275  1
  S2-  S146  1  0.49189936  0.38231301  0.15077409  1
  S2-  S147  1  0.49152455  0.36673483  0.65019852  1
  S2-  S148  1  0.54058889  0.62482461  0.15053132  1
  S2-  S149  1  0.42605856  0.62117338  0.64710042  1
  S2-  S150  1  0.58930982  0.86106451  0.14701758  1
  S2-  S151  1  0.49127265  0.88740347  0.65554201  1
  S2-  S152  1  0.64807808  0.10337064  0.14423250  1
  S2-  S153  1  0.74716711  0.17891108  0.70960745  1
  S2-  S154  1  0.75016700  0.32761469  0.16013908  1
  S2-  S155  1  0.73486386  0.37904889  0.66779887  1
  S2-  S156  1  0.75963768  0.71158409  0.15550591  1
  S2-  S157  1  0.77330881  0.71783338  0.63631466  1
  S2-  S158  1  0.74215100  0.94755715  0.21167000  1
  S2-  S159  1  0.74577474  0.95980945  0.65528690  1
  S2-  S160  1  0.13623626  -0.12825455  0.35500358  1
  S2-  S161  1  0.14444879  -0.08065111  0.85285812  1
  S2-  S162  1  0.24519914  0.24967726  0.35583175  1
  S2-  S163  1  0.12113944  0.13188226  0.86180859  1
  S2-  S164  1  0.06353000  0.42407424  0.33253384  1
  S2-  S165  1  0.12202485  0.58756577  0.84836347  1
  S2-  S166  1  0.11650904  0.64843309  0.34904548  1
  S2-  S167  1  0.10915553  0.77236828  0.77487852  1
  S2-  S168  1  0.36541856  0.00986781  0.33985151  1
  S2-  S169  1  0.38682020  -0.02216483  0.84455936  1
  S2-  S170  1  0.46394059  0.22263738  0.34601679  1
  S2-  S171  1  0.44763559  0.21864643  0.85441685  1
  S2-  S172  1  0.27278497  0.49358479  0.34982825  1
  S2-  S173  1  0.33305730  0.44965233  0.84164670  1
  S2-  S174  1  0.36344646  0.75724181  0.34160137  1
  S2-  S175  1  0.29449992  0.74153121  0.84606488  1
  S2-  S176  1  0.62465499  0.05598325  0.35037849  1
  S2-  S177  1  0.63314892  0.07571138  0.85251134  1
  S2-  S178  1  0.64663310  0.21865179  0.27510735  1
  S2-  S179  1  0.60606822  0.31971456  0.79971268  1
  S2-  S180  1  0.63346924  0.39230019  0.35181041  1
  S2-  S181  1  0.65106158  0.51830253  0.84987394  1
  S2-  S182  1  0.64239070  0.82034417  0.35140206  1
  S2-  S183  1  0.75117342  0.72765611  0.85869181  1
  S2-  S184  1  0.85764953  -0.02101960  0.34828794  1
  S2-  S185  1  0.89154312  0.01436062  0.84933249  1
  S2-  S186  1  0.80446814  0.23737440  0.35457001  1
  S2-  S187  1  0.78770905  0.24431788  0.85213603  1
  S2-  S188  1  0.84640610  0.49457638  0.34611079  1
  S2-  S189  1  0.88119287  0.50142490  0.84973348  1
  S2-  S190  1  0.90013188  0.74591128  0.32848366  1
  S2-  S191  1  0.96579159  0.76508554  0.85473601  1
  S2-  S192  1  -0.00037878  0.12145961  0.45638580  1
  S2-  S193  1  -0.00604644  0.12498326  0.95700796  1
  S2-  S194  1  -0.00266543  0.36595590  0.44678753  1
  S2-  S195  1  -0.00152283  0.37009634  0.94827831  1
  S2-  S196  1  -0.00310867  0.62487221  0.44657492  1
  S2-  S197  1  -0.00464886  0.61575338  0.95555524  1
  S2-  S198  1  -0.00255915  0.87121247  0.44711331  1
  S2-  S199  1  0.00082835  0.87632810  0.96166995  1
  S2-  S200  1  0.24928080  0.11655911  0.45222368  1
  S2-  S201  1  0.25130827  0.12270403  0.96512014  1
  S2-  S202  1  0.25115541  0.37313197  0.45304128  1
  S2-  S203  1  0.25001089  0.37002780  0.95614696  1
  S2-  S204  1  0.25494393  0.62988550  0.44804023  1
  S2-  S205  1  0.25196532  0.61803965  0.95465591  1
  S2-  S206  1  0.25826496  0.87190164  0.45020978  1
  S2-  S207  1  0.25091803  0.86865154  0.96006585  1
  S2-  S208  1  0.50632822  0.12020022  0.45696986  1
  S2-  S209  1  0.50151785  0.12016071  0.96294762  1
  S2-  S210  1  0.49896564  0.37080986  0.44870516  1
  S2-  S211  1  0.50631648  0.36746645  0.94663606  1
  S2-  S212  1  0.50474194  0.62231272  0.45198059  1
  S2-  S213  1  0.50412734  0.61814792  0.95034145  1
  S2-  S214  1  0.50189356  0.87306434  0.45081124  1
  S2-  S215  1  0.50218613  0.86866516  0.95191853  1
  S2-  S216  1  0.74691310  0.12156830  0.45458628  1
  S2-  S217  1  0.74616421  0.12431337  0.95987313  1
  S2-  S218  1  0.75239555  0.37070380  0.45920897  1
  S2-  S219  1  0.74758084  0.37072563  0.95615759  1
  S2-  S220  1  0.75067101  0.62095320  0.44869799  1
  S2-  S221  1  0.74917629  0.61450028  0.96213738  1
  S2-  S222  1  0.75185837  0.87055044  0.46077814  1
  S2-  S223  1  0.74608493  0.87367589  0.94908480  1
  S2-  S224  1  0.12841213  0.00051098  0.04647670  1
  S2-  S225  1  0.13014119  -0.00965327  0.53393748  1
  S2-  S226  1  0.12299678  0.24526834  0.04207397  1
  S2-  S227  1  0.12892290  0.24743311  0.53772172  1
  S2-  S228  1  0.12237380  0.49481419  0.04007149  1
  S2-  S229  1  0.12890667  0.49685690  0.53567390  1
  S2-  S230  1  0.12560372  0.73974557  0.04918520  1
  S2-  S231  1  0.13124228  0.74722190  0.53764521  1
  S2-  S232  1  0.37481993  -0.00455726  0.05528580  1
  S2-  S233  1  0.37775022  -0.00523600  0.54584129  1
  S2-  S234  1  0.37900917  0.24155802  0.04896802  1
  S2-  S235  1  0.37716442  0.24264296  0.54559753  1
  S2-  S236  1  0.38135660  0.49533673  0.04305627  1
  S2-  S237  1  0.37840760  0.49942714  0.54072194  1
  S2-  S238  1  0.38143929  0.74186115  0.04329547  1
  S2-  S239  1  0.37918965  0.74550820  0.54392010  1
  S2-  S240  1  0.63428240  -0.01172827  0.04657525  1
  S2-  S241  1  0.62850848  -0.00535336  0.54868047  1
  S2-  S242  1  0.62573316  0.24548840  0.05071960  1
  S2-  S243  1  0.62770968  0.24264778  0.55806120  1
  S2-  S244  1  0.62664519  0.49517122  0.05103996  1
  S2-  S245  1  0.62696291  0.49808296  0.54608008  1
  S2-  S246  1  0.62543506  0.74168582  0.03973223  1
  S2-  S247  1  0.62378366  0.74437662  0.54609024  1
  S2-  S248  1  0.86961686  -0.00362956  0.05772432  1
  S2-  S249  1  0.87739431  -0.00925876  0.55014571  1
  S2-  S250  1  0.87331386  0.24456553  0.04798668  1
  S2-  S251  1  0.87805861  0.24261866  0.55043938  1
  S2-  S252  1  0.87115853  0.49580728  0.05435076  1
  S2-  S253  1  0.87790768  0.49771332  0.55059220  1
  S2-  S254  1  0.87197508  0.74757541  0.04973363  1
  S2-  S255  1  0.88259214  0.74631946  0.53629838  1
