# generated using pymatgen
data_La12Ce14Pr13Nd13Sm12(BiS2)64
_symmetry_space_group_name_H-M   'P 1'
_cell_length_a   16.16177442
_cell_length_b   16.17312173
_cell_length_c   27.25610510
_cell_angle_alpha   89.96458781
_cell_angle_beta   90.03705315
_cell_angle_gamma   90.05519849
_symmetry_Int_Tables_number   1
_chemical_formula_structural   La12Ce14Pr13Nd13Sm12(BiS2)64
_chemical_formula_sum   'La12 Ce14 Pr13 Nd13 Sm12 Bi64 S128'
_cell_volume   7124.36754251
_cell_formula_units_Z   1
loop_
 _symmetry_equiv_pos_site_id
 _symmetry_equiv_pos_as_xyz
  1  'x, y, z'
loop_
 _atom_type_symbol
 _atom_type_oxidation_number
  La3+  3.0
  Ce3+  3.0
  Pr3+  3.0
  Nd3+  3.0
  Sm3+  3.0
  Bi2+  2.0
  S2-  -2.0
loop_
 _atom_site_type_symbol
 _atom_site_label
 _atom_site_symmetry_multiplicity
 _atom_site_fract_x
 _atom_site_fract_y
 _atom_site_fract_z
 _atom_site_occupancy
  La3+  La0  1  0.24577389  0.36345939  0.08155705  1
  La3+  La1  1  0.12367001  0.50597548  0.40788010  1
  La3+  La2  1  0.00173171  0.87747016  0.07858150  1
  La3+  La3  1  0.88339947  -0.00055947  0.39345324  1
  La3+  La4  1  0.49010955  0.62063186  0.60939256  1
  La3+  La5  1  0.51304775  0.88737846  0.59092625  1
  La3+  La6  1  0.75049208  0.36404424  0.06355631  1
  La3+  La7  1  0.12516730  -0.00387558  0.91933668  1
  La3+  La8  1  0.87852653  0.74203238  0.93893096  1
  La3+  La9  1  0.12557339  0.73491496  0.93422552  1
  La3+  La10  1  0.74160036  0.10586201  0.08952383  1
  La3+  La11  1  0.63006545  0.26274523  0.42352941  1
  Ce3+  Ce12  1  0.74250615  0.63477071  0.55879603  1
  Ce3+  Ce13  1  0.24198736  0.63567042  0.56979832  1
  Ce3+  Ce14  1  0.00453316  0.61969591  0.06398733  1
  Ce3+  Ce15  1  0.87871295  0.51437314  0.43937701  1
  Ce3+  Ce16  1  0.36959701  0.24034955  0.94484849  1
  Ce3+  Ce17  1  0.37766968  0.75887629  0.45688530  1
  Ce3+  Ce18  1  0.50203477  0.13487681  0.56222472  1
  Ce3+  Ce19  1  0.62330185  0.49012633  0.94014893  1
  Ce3+  Ce20  1  -0.00155049  0.88403524  0.55970091  1
  Ce3+  Ce21  1  0.37663581  0.00824529  0.44742878  1
  Ce3+  Ce22  1  0.88038371  0.75968742  0.44107969  1
  Ce3+  Ce23  1  0.24523486  0.86686518  0.05833513  1
  Ce3+  Ce24  1  0.12717612  0.00586245  0.44081695  1
  Ce3+  Ce25  1  0.37518232  0.51433630  0.44050820  1
  Pr3+  Pr26  1  0.74763962  0.13300320  0.55280072  1
  Pr3+  Pr27  1  0.62256627  -0.00798414  0.93327845  1
  Pr3+  Pr28  1  0.87364073  0.24001609  0.94693275  1
  Pr3+  Pr29  1  0.50204302  0.61573504  0.06397418  1
  Pr3+  Pr30  1  0.36898114  0.48941481  0.93886126  1
  Pr3+  Pr31  1  -0.00289170  0.13184141  0.55466748  1
  Pr3+  Pr32  1  0.62475881  0.76257818  0.43967254  1
  Pr3+  Pr33  1  0.13522168  0.75881716  0.43809102  1
  Pr3+  Pr34  1  0.49676445  0.86635509  0.05819007  1
  Pr3+  Pr35  1  0.62426351  0.01416623  0.42390623  1
  Pr3+  Pr36  1  0.87362121  -0.00715176  0.93879040  1
  Pr3+  Pr37  1  0.12744261  0.25629923  0.43571013  1
  Pr3+  Pr38  1  0.25014209  0.88493435  0.57500471  1
  Nd3+  Nd39  1  0.87535678  0.25899890  0.43535173  1
  Nd3+  Nd40  1  0.24869680  0.11393970  0.06320204  1
  Nd3+  Nd41  1  0.62198527  0.73911764  0.93741070  1
  Nd3+  Nd42  1  0.00075961  0.63401238  0.56677046  1
  Nd3+  Nd43  1  0.26071591  0.61328070  0.07910854  1
  Nd3+  Nd44  1  0.62285183  0.23991217  0.94000984  1
  Nd3+  Nd45  1  0.37577887  0.26061938  0.44290340  1
  Nd3+  Nd46  1  0.62451445  0.51163845  0.43272931  1
  Nd3+  Nd47  1  0.24934275  0.38803357  0.55516053  1
  Nd3+  Nd48  1  0.12551258  0.49000789  0.94318015  1
  Nd3+  Nd49  1  0.74820659  0.38674194  0.55416470  1
  Nd3+  Nd50  1  0.25040211  0.13056761  0.56655013  1
  Nd3+  Nd51  1  0.37294189  -0.01323735  0.93047939  1
  Sm3+  Sm52  1  0.87575796  0.48862108  0.94707084  1
  Sm3+  Sm53  1  0.37210843  0.73437066  0.93428683  1
  Sm3+  Sm54  1  0.00124191  0.36647042  0.06477142  1
  Sm3+  Sm55  1  -0.00088287  0.11396921  0.05653880  1
  Sm3+  Sm56  1  0.75083022  0.61573674  0.05398335  1
  Sm3+  Sm57  1  -0.00027991  0.38397846  0.55424763  1
  Sm3+  Sm58  1  0.12652183  0.24319548  0.94219659  1
  Sm3+  Sm59  1  0.49893917  0.11179231  0.05813025  1
  Sm3+  Sm60  1  0.74785187  0.86625208  0.05393375  1
  Sm3+  Sm61  1  0.49939893  0.38469450  0.55922880  1
  Sm3+  Sm62  1  0.74856192  0.88564196  0.55181857  1
  Sm3+  Sm63  1  0.49993466  0.36335560  0.05725430  1
  Bi2+  Bi64  1  0.02299753  0.14969011  0.23849423  1
  Bi2+  Bi65  1  0.01929171  0.20935937  0.78126295  1
  Bi2+  Bi66  1  -0.01092035  0.33827398  0.28709010  1
  Bi2+  Bi67  1  0.01205449  0.39779454  0.81797951  1
  Bi2+  Bi68  1  -0.00720640  0.62851553  0.29114666  1
  Bi2+  Bi69  1  -0.03021502  0.60644340  0.80402612  1
  Bi2+  Bi70  1  0.00691626  0.86976324  0.28779821  1
  Bi2+  Bi71  1  -0.00377718  0.84422426  0.79777560  1
  Bi2+  Bi72  1  0.18067216  0.11918846  0.30772965  1
  Bi2+  Bi73  1  0.26736476  0.16119710  0.79726795  1
  Bi2+  Bi74  1  0.28063582  0.40457781  0.30152635  1
  Bi2+  Bi75  1  0.20696762  0.37017369  0.84271223  1
  Bi2+  Bi76  1  0.32347648  0.65564452  0.29145047  1
  Bi2+  Bi77  1  0.23468726  0.54485920  0.79319585  1
  Bi2+  Bi78  1  0.25302898  0.93241592  0.30094737  1
  Bi2+  Bi79  1  0.25117448  0.90859043  0.79932850  1
  Bi2+  Bi80  1  0.48319648  0.06795208  0.26322922  1
  Bi2+  Bi81  1  0.53166609  0.15523114  0.76790679  1
  Bi2+  Bi82  1  0.51318339  0.28469748  0.30103010  1
  Bi2+  Bi83  1  0.45320019  0.35914157  0.78257987  1
  Bi2+  Bi84  1  0.57864907  0.62203542  0.30088459  1
  Bi2+  Bi85  1  0.50934625  0.60875508  0.81361026  1
  Bi2+  Bi86  1  0.47603249  0.87847916  0.29308412  1
  Bi2+  Bi87  1  0.49885321  0.88348461  0.79523910  1
  Bi2+  Bi88  1  0.74129307  0.13771301  0.28528572  1
  Bi2+  Bi89  1  0.80190645  0.09746877  0.78861626  1
  Bi2+  Bi90  1  0.74479740  0.38979270  0.28701430  1
  Bi2+  Bi91  1  0.74308931  0.31233773  0.79637733  1
  Bi2+  Bi92  1  0.75720911  0.56803844  0.33121941  1
  Bi2+  Bi93  1  0.74400613  0.61918719  0.73707046  1
  Bi2+  Bi94  1  0.73047267  0.85408958  0.27952493  1
  Bi2+  Bi95  1  0.76629716  0.90662408  0.77103828  1
  Bi2+  Bi96  1  0.18404385  0.01156960  0.20399591  1
  Bi2+  Bi97  1  0.10631469  0.01696429  0.70857292  1
  Bi2+  Bi98  1  0.15551573  0.29320564  0.22428844  1
  Bi2+  Bi99  1  0.18065711  0.29276108  0.73165060  1
  Bi2+  Bi100  1  0.14493390  0.52952045  0.20281731  1
  Bi2+  Bi101  1  0.08346841  0.48337451  0.72134031  1
  Bi2+  Bi102  1  0.07039342  0.76386046  0.20213370  1
  Bi2+  Bi103  1  0.09971969  0.73405944  0.71667403  1
  Bi2+  Bi104  1  0.36701126  -0.00304026  0.15321778  1
  Bi2+  Bi105  1  0.36634100  0.11038936  0.70279357  1
  Bi2+  Bi106  1  0.32847675  0.16201056  0.22554062  1
  Bi2+  Bi107  1  0.47108656  0.26637526  0.67592741  1
  Bi2+  Bi108  1  0.42792898  0.50215470  0.20581369  1
  Bi2+  Bi109  1  0.35272509  0.46687755  0.71157933  1
  Bi2+  Bi110  1  0.34618623  0.83489169  0.21697130  1
  Bi2+  Bi111  1  0.34860758  0.73413407  0.72371279  1
  Bi2+  Bi112  1  0.61484926  -0.03329019  0.20652094  1
  Bi2+  Bi113  1  0.64369931  0.01521312  0.70934552  1
  Bi2+  Bi114  1  0.58081198  0.26362242  0.19988195  1
  Bi2+  Bi115  1  0.67206180  0.24514736  0.69262952  1
  Bi2+  Bi116  1  0.62304119  0.49913978  0.21393455  1
  Bi2+  Bi117  1  0.61905238  0.42878430  0.73836216  1
  Bi2+  Bi118  1  0.63436225  0.71222988  0.20450620  1
  Bi2+  Bi119  1  0.62375461  0.76573827  0.71185245  1
  Bi2+  Bi120  1  0.87637628  -0.01365514  0.20530181  1
  Bi2+  Bi121  1  0.90286720  0.02015580  0.69910468  1
  Bi2+  Bi122  1  0.88279614  0.30176159  0.19153941  1
  Bi2+  Bi123  1  0.88277018  0.30137487  0.71667473  1
  Bi2+  Bi124  1  0.90627641  0.48297722  0.22185970  1
  Bi2+  Bi125  1  0.87480933  0.49460070  0.68871720  1
  Bi2+  Bi126  1  0.82096980  0.68793135  0.24986175  1
  Bi2+  Bi127  1  0.90759875  0.68712045  0.68963657  1
  S2-  S128  1  -0.00382979  0.04277599  0.14574055  1
  S2-  S129  1  0.02494167  0.12708393  0.65529869  1
  S2-  S130  1  0.09501573  0.38339414  0.14614544  1
  S2-  S131  1  0.00144114  0.37292074  0.65269139  1
  S2-  S132  1  -0.00721230  0.60203590  0.16161221  1
  S2-  S133  1  0.11074748  0.61379390  0.64569503  1
  S2-  S134  1  -0.07904778  0.83967148  0.16735553  1
  S2-  S135  1  0.00232493  0.89818403  0.65929682  1
  S2-  S136  1  0.24633164  0.22023432  0.14437284  1
  S2-  S137  1  0.24210074  0.02186505  0.64648290  1
  S2-  S138  1  0.27653612  0.48394054  0.15399482  1
  S2-  S139  1  0.25995839  0.36393798  0.65361773  1
  S2-  S140  1  0.20120861  0.67352789  0.16980026  1
  S2-  S141  1  0.32922913  0.61018791  0.65344342  1
  S2-  S142  1  0.14563267  0.87816571  0.14017161  1
  S2-  S143  1  0.22211776  0.80057420  0.66599874  1
  S2-  S144  1  0.58771476  0.11912476  0.14298326  1
  S2-  S145  1  0.51401501  0.04122608  0.64489983  1
  S2-  S146  1  0.45827369  0.35204917  0.15266782  1
  S2-  S147  1  0.50328995  0.45708722  0.64843384  1
  S2-  S148  1  0.42061424  0.63179761  0.15115471  1
  S2-  S149  1  0.49180892  0.64626226  0.71860996  1
  S2-  S150  1  0.54866967  0.84117524  0.15344399  1
  S2-  S151  1  0.45180328  0.84421124  0.68816589  1
  S2-  S152  1  0.80020992  0.14957555  0.18382932  1
  S2-  S153  1  0.76529655  0.10778397  0.65283246  1
  S2-  S154  1  0.70744401  0.35249484  0.15998814  1
  S2-  S155  1  0.73064823  0.40282074  0.65280438  1
  S2-  S156  1  0.72407925  0.59328988  0.14907065  1
  S2-  S157  1  0.65863908  0.63581074  0.64491914  1
  S2-  S158  1  0.74539092  0.94968715  0.13977692  1
  S2-  S159  1  0.67708208  0.87853142  0.64226889  1
  S2-  S160  1  0.05452092  -0.01412425  0.35253462  1
  S2-  S161  1  0.10063443  -0.02332375  0.81450001  1
  S2-  S162  1  0.13489536  0.35110032  0.35094638  1
  S2-  S163  1  0.12939723  0.15319195  0.85849248  1
  S2-  S164  1  0.18898337  0.55142596  0.31192195  1
  S2-  S165  1  0.11760079  0.59685955  0.86336651  1
  S2-  S166  1  0.08430287  0.74456701  0.34031235  1
  S2-  S167  1  0.14319994  0.79485572  0.83642779  1
  S2-  S168  1  0.38837164  0.01141214  0.34891150  1
  S2-  S169  1  0.38969836  0.00339049  0.83160920  1
  S2-  S170  1  0.35981789  0.26505898  0.34352072  1
  S2-  S171  1  0.39809620  0.23781245  0.84864851  1
  S2-  S172  1  0.38897835  0.51367833  0.34061518  1
  S2-  S173  1  0.35912192  0.60283521  0.86258283  1
  S2-  S174  1  0.31030112  0.75132350  0.36603185  1
  S2-  S175  1  0.36944125  0.80276152  0.84027945  1
  S2-  S176  1  0.72577545  -0.00688770  0.34004258  1
  S2-  S177  1  0.62787744  -0.03927816  0.83408238  1
  S2-  S178  1  0.59732749  0.14718119  0.34822976  1
  S2-  S179  1  0.63658971  0.19930679  0.84332301  1
  S2-  S180  1  0.60617658  0.39838235  0.35443248  1
  S2-  S181  1  0.62501856  0.49473491  0.84271968  1
  S2-  S182  1  0.60095128  0.78936494  0.33981990  1
  S2-  S183  1  0.59856051  0.74338516  0.83902838  1
  S2-  S184  1  0.89581221  0.09054242  0.30199572  1
  S2-  S185  1  0.88889060  -0.02857946  0.83910603  1
  S2-  S186  1  0.78216049  0.26218460  0.35112596  1
  S2-  S187  1  0.88957388  0.20422334  0.84902755  1
  S2-  S188  1  0.96904174  0.50010863  0.35569316  1
  S2-  S189  1  0.87278849  0.49148736  0.84862363  1
  S2-  S190  1  0.87664786  0.83337733  0.35129076  1
  S2-  S191  1  0.87678743  0.73690272  0.83849060  1
  S2-  S192  1  -0.00221052  0.13292044  0.44638081  1
  S2-  S193  1  -0.00028179  0.11618159  0.95353962  1
  S2-  S194  1  0.00128574  0.38042177  0.45207206  1
  S2-  S195  1  0.00002443  0.36493145  0.95980818  1
  S2-  S196  1  0.00513210  0.63504581  0.45701425  1
  S2-  S197  1  -0.00548558  0.61160336  0.95948924  1
  S2-  S198  1  0.00289300  0.88196048  0.45544900  1
  S2-  S199  1  0.00256258  0.86900649  0.94922230  1
  S2-  S200  1  0.25099742  0.13404395  0.45803079  1
  S2-  S201  1  0.25144889  0.11423933  0.95621119  1
  S2-  S202  1  0.25034500  0.38665787  0.45067663  1
  S2-  S203  1  0.24823318  0.36387162  0.96697885  1
  S2-  S204  1  0.24605740  0.62737212  0.45956995  1
  S2-  S205  1  0.25062402  0.61438159  0.96736866  1
  S2-  S206  1  0.25199436  0.88643618  0.46427724  1
  S2-  S207  1  0.24995078  0.86589341  0.94987417  1
  S2-  S208  1  0.49826756  0.13715809  0.45572379  1
  S2-  S209  1  0.49795102  0.11485878  0.95190686  1
  S2-  S210  1  0.49634467  0.38585352  0.45507482  1
  S2-  S211  1  0.49881404  0.36527835  0.95129198  1
  S2-  S212  1  0.50066936  0.63612508  0.44325076  1
  S2-  S213  1  0.50058798  0.61525923  0.95689822  1
  S2-  S214  1  0.50027343  0.88637863  0.44993552  1
  S2-  S215  1  0.49739573  0.86315644  0.95003422  1
  S2-  S216  1  0.75837427  0.12823049  0.44790482  1
  S2-  S217  1  0.74732688  0.11580908  0.95318813  1
  S2-  S218  1  0.75621771  0.39022076  0.45013116  1
  S2-  S219  1  0.74924983  0.36608170  0.95417648  1
  S2-  S220  1  0.75056739  0.63763355  0.45317118  1
  S2-  S221  1  0.75102765  0.61421654  0.94923531  1
  S2-  S222  1  0.75386439  0.88598050  0.44964280  1
  S2-  S223  1  0.74747450  0.86522237  0.94870133  1
  S2-  S224  1  0.12524720  -0.00374602  0.03590901  1
  S2-  S225  1  0.12293322  0.00870147  0.54537779  1
  S2-  S226  1  0.11843337  0.23815798  0.04582202  1
  S2-  S227  1  0.12569359  0.25803896  0.54489496  1
  S2-  S228  1  0.12460027  0.49457369  0.04809755  1
  S2-  S229  1  0.12063080  0.50334879  0.54504066  1
  S2-  S230  1  0.12253971  0.74271879  0.04407212  1
  S2-  S231  1  0.12156240  0.76140706  0.54681440  1
  S2-  S232  1  0.37361037  -0.00887936  0.03703333  1
  S2-  S233  1  0.37850563  0.00618368  0.55095179  1
  S2-  S234  1  0.37998525  0.23659296  0.04916844  1
  S2-  S235  1  0.37226565  0.25831199  0.54865385  1
  S2-  S236  1  0.38083815  0.48752234  0.04527606  1
  S2-  S237  1  0.37611131  0.50929312  0.54633988  1
  S2-  S238  1  0.37246561  0.74295359  0.04354935  1
  S2-  S239  1  0.38218978  0.75953022  0.56130445  1
  S2-  S240  1  0.62193758  -0.01139485  0.03986019  1
  S2-  S241  1  0.62590110  0.00785089  0.53621719  1
  S2-  S242  1  0.62386189  0.23860969  0.04509186  1
  S2-  S243  1  0.62478711  0.26257488  0.54152193  1
  S2-  S244  1  0.62428311  0.48925958  0.04748833  1
  S2-  S245  1  0.62133869  0.50790519  0.53951295  1
  S2-  S246  1  0.62806004  0.74007955  0.04431148  1
  S2-  S247  1  0.62162783  0.76207310  0.54419709  1
  S2-  S248  1  0.87166648  -0.00758228  0.04401657  1
  S2-  S249  1  0.87229081  0.00662220  0.54892048  1
  S2-  S250  1  0.87612677  0.23714532  0.05362180  1
  S2-  S251  1  0.87396131  0.26096060  0.54375265  1
  S2-  S252  1  0.87657199  0.49084298  0.05316884  1
  S2-  S253  1  0.87555498  0.51042941  0.54653723  1
  S2-  S254  1  0.87157054  0.74297699  0.04788463  1
  S2-  S255  1  0.87139326  0.75873747  0.54866812  1
