# generated using pymatgen
data_La12Ce14Pr13Nd13Sm12(BiS2)64
_symmetry_space_group_name_H-M   'P 1'
_cell_length_a   16.18310168
_cell_length_b   16.18442452
_cell_length_c   27.06359981
_cell_angle_alpha   90.01520416
_cell_angle_beta   89.98065609
_cell_angle_gamma   90.03473774
_symmetry_Int_Tables_number   1
_chemical_formula_structural   La12Ce14Pr13Nd13Sm12(BiS2)64
_chemical_formula_sum   'La12 Ce14 Pr13 Nd13 Sm12 Bi64 S128'
_cell_volume   7088.33880045
_cell_formula_units_Z   1
loop_
 _symmetry_equiv_pos_site_id
 _symmetry_equiv_pos_as_xyz
  1  'x, y, z'
loop_
 _atom_type_symbol
 _atom_type_oxidation_number
  La3+  3.0
  Ce3+  3.0
  Pr3+  3.0
  Nd3+  3.0
  Sm3+  3.0
  Bi2+  2.0
  S2-  -2.0
loop_
 _atom_site_type_symbol
 _atom_site_label
 _atom_site_symmetry_multiplicity
 _atom_site_fract_x
 _atom_site_fract_y
 _atom_site_fract_z
 _atom_site_occupancy
  La3+  La0  1  0.88554765  0.00959660  0.42058675  1
  La3+  La1  1  0.13591550  0.74196855  0.41214620  1
  La3+  La2  1  0.61914860  0.25809468  0.42090009  1
  La3+  La3  1  0.25092691  0.38254890  0.05503385  1
  La3+  La4  1  -0.00319681  0.37347293  0.58219980  1
  La3+  La5  1  0.51241716  0.12239071  0.58247544  1
  La3+  La6  1  0.63297693  0.01466338  0.91009889  1
  La3+  La7  1  0.87896802  0.25872518  0.42517973  1
  La3+  La8  1  0.01207932  0.88520773  0.09477630  1
  La3+  La9  1  0.63184254  0.51049584  0.93146314  1
  La3+  La10  1  0.14174505  0.49213866  0.43128341  1
  La3+  La11  1  0.26351070  0.38214446  0.59234428  1
  Ce3+  Ce12  1  0.75604276  0.62846365  0.55381853  1
  Ce3+  Ce13  1  0.00420784  0.12763164  0.56172476  1
  Ce3+  Ce14  1  -0.00448260  0.13330654  0.07127663  1
  Ce3+  Ce15  1  0.38331025  0.00986247  0.94329810  1
  Ce3+  Ce16  1  0.88096672  0.75255324  0.43547708  1
  Ce3+  Ce17  1  0.00647013  0.87786013  0.54887075  1
  Ce3+  Ce18  1  0.13266210  0.25837591  0.45216632  1
  Ce3+  Ce19  1  0.38385916  0.25214728  0.45057918  1
  Ce3+  Ce20  1  0.62684957  0.75131913  0.43095928  1
  Ce3+  Ce21  1  0.38252088  0.00202912  0.45181762  1
  Ce3+  Ce22  1  0.87937742  0.25836971  0.94041866  1
  Ce3+  Ce23  1  0.75522082  0.37532658  0.55671336  1
  Ce3+  Ce24  1  0.75284189  0.12702133  0.55320912  1
  Ce3+  Ce25  1  0.50742044  0.37606500  0.56867869  1
  Pr3+  Pr26  1  0.12817427  0.76299473  0.93302523  1
  Pr3+  Pr27  1  0.88353654  0.51046107  0.92955726  1
  Pr3+  Pr28  1  0.25148801  0.13504775  0.05504713  1
  Pr3+  Pr29  1  0.38038806  0.51138186  0.93632759  1
  Pr3+  Pr30  1  0.25481550  0.88445319  0.06474249  1
  Pr3+  Pr31  1  0.13848851  0.51407145  0.91184097  1
  Pr3+  Pr32  1  0.00803102  0.62621506  0.55725256  1
  Pr3+  Pr33  1  0.12612779  0.24689931  0.92331672  1
  Pr3+  Pr34  1  0.63488054  0.26708577  0.93063098  1
  Pr3+  Pr35  1  0.75855152  0.39508522  0.06862990  1
  Pr3+  Pr36  1  0.75699791  0.87907430  0.54939077  1
  Pr3+  Pr37  1  0.50672763  0.88704306  0.05560023  1
  Pr3+  Pr38  1  0.75574230  0.63426020  0.06043046  1
  Nd3+  Nd39  1  0.01067768  0.63142136  0.05989992  1
  Nd3+  Nd40  1  0.87952995  0.00858089  0.94098774  1
  Nd3+  Nd41  1  0.75331331  0.88891270  0.06251017  1
  Nd3+  Nd42  1  0.88393987  0.50090737  0.43658409  1
  Nd3+  Nd43  1  0.75068219  0.13842617  0.06507793  1
  Nd3+  Nd44  1  0.50376661  0.63339783  0.06642338  1
  Nd3+  Nd45  1  0.38257731  0.76144447  0.94222033  1
  Nd3+  Nd46  1  0.62751665  0.00438060  0.43251521  1
  Nd3+  Nd47  1  0.13542913  0.00105721  0.44275661  1
  Nd3+  Nd48  1  0.25224342  0.63292963  0.56687334  1
  Nd3+  Nd49  1  0.51066781  0.13643312  0.06281442  1
  Nd3+  Nd50  1  0.38269833  0.75247738  0.43662773  1
  Nd3+  Nd51  1  0.38078851  0.25550062  0.93143432  1
  Sm3+  Sm52  1  0.63172278  0.75836114  0.94373505  1
  Sm3+  Sm53  1  0.12899195  0.00576132  0.94314187  1
  Sm3+  Sm54  1  0.88168996  0.76218023  0.95238398  1
  Sm3+  Sm55  1  0.25318072  0.63423944  0.05360903  1
  Sm3+  Sm56  1  0.25619162  0.12741952  0.56172692  1
  Sm3+  Sm57  1  0.00671271  0.38560184  0.04335892  1
  Sm3+  Sm58  1  0.50502857  0.38336440  0.05157158  1
  Sm3+  Sm59  1  0.50821889  0.87536848  0.56174026  1
  Sm3+  Sm60  1  0.50743619  0.62962419  0.55637945  1
  Sm3+  Sm61  1  0.37873620  0.50086784  0.45125435  1
  Sm3+  Sm62  1  0.62958872  0.50177751  0.44287516  1
  Sm3+  Sm63  1  0.25400084  0.87386223  0.56341535  1
  Bi2+  Bi64  1  0.02212665  0.18165286  0.27072234  1
  Bi2+  Bi65  1  -0.03310481  0.08179115  0.79542495  1
  Bi2+  Bi66  1  0.04169740  0.38365624  0.28809251  1
  Bi2+  Bi67  1  -0.02629060  0.38235487  0.79257856  1
  Bi2+  Bi68  1  -0.05492674  0.55183705  0.29908412  1
  Bi2+  Bi69  1  -0.01887818  0.67072868  0.79091689  1
  Bi2+  Bi70  1  -0.01525429  0.89909107  0.29360564  1
  Bi2+  Bi71  1  -0.00335581  0.89017822  0.80055224  1
  Bi2+  Bi72  1  0.21700177  0.16774121  0.29502687  1
  Bi2+  Bi73  1  0.22827374  0.05651038  0.78541247  1
  Bi2+  Bi74  1  0.29093859  0.34014764  0.25552441  1
  Bi2+  Bi75  1  0.24417852  0.36017731  0.80234271  1
  Bi2+  Bi76  1  0.25464579  0.59421921  0.29774169  1
  Bi2+  Bi77  1  0.26582517  0.69780986  0.79199400  1
  Bi2+  Bi78  1  0.24306568  0.89362594  0.30844298  1
  Bi2+  Bi79  1  0.18620656  0.87086137  0.81875455  1
  Bi2+  Bi80  1  0.39564301  0.09588152  0.27601580  1
  Bi2+  Bi81  1  0.47632660  0.09737019  0.79284995  1
  Bi2+  Bi82  1  0.48228798  0.35273744  0.29044851  1
  Bi2+  Bi83  1  0.53838075  0.36496972  0.78353124  1
  Bi2+  Bi84  1  0.51709910  0.62109935  0.29418067  1
  Bi2+  Bi85  1  0.53261960  0.62189086  0.82840077  1
  Bi2+  Bi86  1  0.53829623  0.90143613  0.30334033  1
  Bi2+  Bi87  1  0.42623080  0.83960392  0.74493264  1
  Bi2+  Bi88  1  0.76798253  0.11448048  0.30122772  1
  Bi2+  Bi89  1  0.72713062  0.14491527  0.78216885  1
  Bi2+  Bi90  1  0.74389989  0.41460064  0.29935013  1
  Bi2+  Bi91  1  0.78795626  0.31760668  0.74202726  1
  Bi2+  Bi92  1  0.72327960  0.61368516  0.31955870  1
  Bi2+  Bi93  1  0.72095724  0.62766941  0.79977486  1
  Bi2+  Bi94  1  0.69513715  0.80176971  0.27670107  1
  Bi2+  Bi95  1  0.77193651  0.87847737  0.79526480  1
  Bi2+  Bi96  1  0.16366948  0.02151725  0.21455417  1
  Bi2+  Bi97  1  0.07927572  0.01351377  0.70329933  1
  Bi2+  Bi98  1  0.13309247  0.27433288  0.19078324  1
  Bi2+  Bi99  1  0.12046028  0.21501050  0.71805126  1
  Bi2+  Bi100  1  0.12958735  0.51812319  0.18818163  1
  Bi2+  Bi101  1  0.13956799  0.53397222  0.71427772  1
  Bi2+  Bi102  1  0.11829582  0.74164249  0.20988662  1
  Bi2+  Bi103  1  0.12113106  0.77850048  0.71450013  1
  Bi2+  Bi104  1  0.34697047  -0.05591986  0.20482297  1
  Bi2+  Bi105  1  0.26318498  -0.07582571  0.70024748  1
  Bi2+  Bi106  1  0.42231933  0.21885984  0.18902674  1
  Bi2+  Bi107  1  0.36309940  0.25012494  0.70940010  1
  Bi2+  Bi108  1  0.39961997  0.50555005  0.23395092  1
  Bi2+  Bi109  1  0.41429223  0.51208365  0.76645285  1
  Bi2+  Bi110  1  0.41771704  0.76620773  0.22720133  1
  Bi2+  Bi111  1  0.37388586  0.66797117  0.69595124  1
  Bi2+  Bi112  1  0.60957796  0.01180975  0.21142220  1
  Bi2+  Bi113  1  0.63039404  -0.01964178  0.70730307  1
  Bi2+  Bi114  1  0.60626730  0.26241149  0.21261184  1
  Bi2+  Bi115  1  0.61438689  0.24584686  0.70345075  1
  Bi2+  Bi116  1  0.64801851  0.53506105  0.21892877  1
  Bi2+  Bi117  1  0.62549314  0.51481124  0.72667566  1
  Bi2+  Bi118  1  0.59131953  0.71436309  0.18870113  1
  Bi2+  Bi119  1  0.58161016  0.72109038  0.72652123  1
  Bi2+  Bi120  1  0.87291042  -0.00416415  0.20280280  1
  Bi2+  Bi121  1  0.87852428  -0.05335574  0.69608814  1
  Bi2+  Bi122  1  0.86458285  0.25838927  0.21884008  1
  Bi2+  Bi123  1  0.86933776  0.14494999  0.70010044  1
  Bi2+  Bi124  1  0.88412126  0.45126160  0.20653944  1
  Bi2+  Bi125  1  0.89383309  0.52760483  0.69167792  1
  Bi2+  Bi126  1  0.85840204  0.70736832  0.24649196  1
  Bi2+  Bi127  1  0.83698075  0.73902993  0.72358278  1
  S2-  S128  1  0.02402509  0.03341561  0.15194049  1
  S2-  S129  1  -0.00078279  0.22283186  0.64465467  1
  S2-  S130  1  0.01725043  0.40629410  0.14154432  1
  S2-  S131  1  0.02168391  0.42573064  0.68293397  1
  S2-  S132  1  0.01155532  0.63467544  0.16049531  1
  S2-  S133  1  0.02626857  0.62608227  0.65916048  1
  S2-  S134  1  -0.05769155  0.84311946  0.18893249  1
  S2-  S135  1  0.01000623  0.85976039  0.64679140  1
  S2-  S136  1  0.22650911  0.14492797  0.15494290  1
  S2-  S137  1  0.24774568  0.14932498  0.65976481  1
  S2-  S138  1  0.25037791  0.40378285  0.15494544  1
  S2-  S139  1  0.21705306  0.34462114  0.69506403  1
  S2-  S140  1  0.22043938  0.63824953  0.15119487  1
  S2-  S141  1  0.25939746  0.53636396  0.65162949  1
  S2-  S142  1  0.16240962  0.86147828  0.15020195  1
  S2-  S143  1  0.24244002  0.76406781  0.63936995  1
  S2-  S144  1  0.62594535  0.13133895  0.13975234  1
  S2-  S145  1  0.46310973  0.12713133  0.68474660  1
  S2-  S146  1  0.50229146  0.36157927  0.14922044  1
  S2-  S147  1  0.41905594  0.37110498  0.65284790  1
  S2-  S148  1  0.43671537  0.62674822  0.15811279  1
  S2-  S149  1  0.52785092  0.61000945  0.65434876  1
  S2-  S150  1  0.50602412  0.93852655  0.15278670  1
  S2-  S151  1  0.50902152  0.90843204  0.65898898  1
  S2-  S152  1  0.85965240  0.13938032  0.14436021  1
  S2-  S153  1  0.66649209  0.11763621  0.64064081  1
  S2-  S154  1  0.73616311  0.31799011  0.15928559  1
  S2-  S155  1  0.83005972  0.38652637  0.64470660  1
  S2-  S156  1  0.77130012  0.53401935  0.14196684  1
  S2-  S157  1  0.77533070  0.64117341  0.65031094  1
  S2-  S158  1  0.73915934  0.92691055  0.16113044  1
  S2-  S159  1  0.72774970  0.89285838  0.65030503  1
  S2-  S160  1  0.10853486  -0.00859869  0.34402138  1
  S2-  S161  1  0.10880597  0.09095603  0.85838678  1
  S2-  S162  1  0.13218172  0.34659786  0.36796848  1
  S2-  S163  1  0.09988112  0.27692076  0.82207935  1
  S2-  S164  1  0.11049738  0.58987532  0.34682263  1
  S2-  S165  1  0.10808898  0.46872317  0.81243583  1
  S2-  S166  1  0.10896354  0.79070338  0.30996875  1
  S2-  S167  1  0.11658223  0.65954388  0.85128787  1
  S2-  S168  1  0.38255263  -0.02075437  0.35395074  1
  S2-  S169  1  0.36672539  0.00906079  0.84549055  1
  S2-  S170  1  0.46748584  0.23804374  0.36397284  1
  S2-  S171  1  0.36790142  0.24614737  0.83035784  1
  S2-  S172  1  0.30537691  0.48710598  0.36264126  1
  S2-  S173  1  0.29831501  0.50185478  0.84840664  1
  S2-  S174  1  0.28623866  0.74376215  0.35300142  1
  S2-  S175  1  0.40004830  0.76326021  0.84265576  1
  S2-  S176  1  0.61855347  0.05367465  0.33580755  1
  S2-  S177  1  0.57321284  -0.02614815  0.81146347  1
  S2-  S178  1  0.73632032  0.25578109  0.34458789  1
  S2-  S179  1  0.60425009  0.16342063  0.85125652  1
  S2-  S180  1  0.60380768  0.41876430  0.35752688  1
  S2-  S181  1  0.64764758  0.39345823  0.85636035  1
  S2-  S182  1  0.50478152  0.75862988  0.36028235  1
  S2-  S183  1  0.65560372  0.77231764  0.84688774  1
  S2-  S184  1  0.83508691  -0.04103527  0.32525618  1
  S2-  S185  1  0.78513879  0.00869562  0.85480623  1
  S2-  S186  1  0.91761828  0.14284526  0.35182673  1
  S2-  S187  1  0.85963150  0.27762537  0.84272245  1
  S2-  S188  1  0.89948738  0.39685590  0.35585582  1
  S2-  S189  1  0.89362683  0.52550017  0.82817259  1
  S2-  S190  1  0.91126259  0.75853630  0.33866575  1
  S2-  S191  1  0.88772932  0.77630721  0.85401608  1
  S2-  S192  1  0.01496034  0.12909094  0.45638485  1
  S2-  S193  1  0.00019823  0.13226557  0.95925927  1
  S2-  S194  1  0.00549585  0.37797955  0.46766894  1
  S2-  S195  1  0.00981476  0.38515142  0.93868279  1
  S2-  S196  1  0.00478073  0.62624723  0.45022626  1
  S2-  S197  1  0.00215831  0.63700403  0.95265725  1
  S2-  S198  1  0.00779156  0.87659238  0.44291207  1
  S2-  S199  1  0.00446843  0.88620570  0.95313632  1
  S2-  S200  1  0.25731352  0.12833551  0.45520022  1
  S2-  S201  1  0.25554837  0.13124956  0.94892921  1
  S2-  S202  1  0.26407953  0.37377652  0.47380145  1
  S2-  S203  1  0.25261406  0.37748830  0.94619647  1
  S2-  S204  1  0.25837347  0.62640375  0.46048837  1
  S2-  S205  1  0.25770138  0.63861916  0.94949640  1
  S2-  S206  1  0.25720024  0.87565138  0.45803332  1
  S2-  S207  1  0.25689119  0.88568099  0.95605367  1
  S2-  S208  1  0.50626308  0.12341518  0.46558838  1
  S2-  S209  1  0.50491788  0.13463303  0.95559735  1
  S2-  S210  1  0.50267479  0.38182488  0.46366467  1
  S2-  S211  1  0.49955882  0.38450819  0.94652943  1
  S2-  S212  1  0.50527272  0.62109119  0.45282678  1
  S2-  S213  1  0.50576503  0.63606522  0.95791975  1
  S2-  S214  1  0.50739271  0.87945487  0.45776368  1
  S2-  S215  1  0.51081753  0.88387412  0.94784352  1
  S2-  S216  1  0.75132323  0.12750898  0.44847315  1
  S2-  S217  1  0.75639462  0.13693465  0.95642757  1
  S2-  S218  1  0.75215666  0.38132799  0.45366227  1
  S2-  S219  1  0.76201560  0.38894380  0.95890780  1
  S2-  S220  1  0.75512427  0.62531678  0.44813306  1
  S2-  S221  1  0.75789469  0.63619513  0.95276643  1
  S2-  S222  1  0.75250131  0.87783663  0.44197000  1
  S2-  S223  1  0.75403038  0.88015478  0.95637795  1
  S2-  S224  1  0.12989030  0.00778593  0.04619300  1
  S2-  S225  1  0.13448719  0.00186477  0.55106789  1
  S2-  S226  1  0.12459611  0.25712812  0.03831170  1
  S2-  S227  1  0.13703301  0.25320413  0.55645690  1
  S2-  S228  1  0.13155115  0.51099734  0.03269200  1
  S2-  S229  1  0.13067865  0.50013838  0.55141584  1
  S2-  S230  1  0.12971676  0.75827013  0.04175999  1
  S2-  S231  1  0.12811373  0.75467276  0.53611046  1
  S2-  S232  1  0.38010975  0.01269854  0.05057669  1
  S2-  S233  1  0.37871514  -0.00140710  0.55916157  1
  S2-  S234  1  0.38147006  0.25866416  0.04096607  1
  S2-  S235  1  0.38422672  0.24497775  0.55602876  1
  S2-  S236  1  0.37899297  0.50942419  0.04461555  1
  S2-  S237  1  0.38682851  0.50708208  0.55390504  1
  S2-  S238  1  0.37898994  0.75891115  0.05006094  1
  S2-  S239  1  0.38665327  0.75412571  0.54555016  1
  S2-  S240  1  0.63136250  0.00883202  0.03820754  1
  S2-  S241  1  0.62849936  -0.00212065  0.54090682  1
  S2-  S242  1  0.62961834  0.26694578  0.04004743  1
  S2-  S243  1  0.62958035  0.25460036  0.54431008  1
  S2-  S244  1  0.62498257  0.51030979  0.04334300  1
  S2-  S245  1  0.63074714  0.50339887  0.54926757  1
  S2-  S246  1  0.62972586  0.75881831  0.04978330  1
  S2-  S247  1  0.62952000  0.75309539  0.54232572  1
  S2-  S248  1  0.88032408  0.00313366  0.04716380  1
  S2-  S249  1  0.88111064  0.00440271  0.53855013  1
  S2-  S250  1  0.88107466  0.26734103  0.04637351  1
  S2-  S251  1  0.87580449  0.24860933  0.53986776  1
  S2-  S252  1  0.88617920  0.51186543  0.03786535  1
  S2-  S253  1  0.87879013  0.50446862  0.54311758  1
  S2-  S254  1  0.88151182  0.76009639  0.05779078  1
  S2-  S255  1  0.88140320  0.75308718  0.54308658  1
