# generated using pymatgen
data_La12Ce14Pr13Nd13Sm12(BiS2)64
_symmetry_space_group_name_H-M   'P 1'
_cell_length_a   16.17687629
_cell_length_b   16.15860326
_cell_length_c   27.33747865
_cell_angle_alpha   90.32393065
_cell_angle_beta   89.77953844
_cell_angle_gamma   90.10441281
_symmetry_Int_Tables_number   1
_chemical_formula_structural   La12Ce14Pr13Nd13Sm12(BiS2)64
_chemical_formula_sum   'La12 Ce14 Pr13 Nd13 Sm12 Bi64 S128'
_cell_volume   7145.72139284
_cell_formula_units_Z   1
loop_
 _symmetry_equiv_pos_site_id
 _symmetry_equiv_pos_as_xyz
  1  'x, y, z'
loop_
 _atom_type_symbol
 _atom_type_oxidation_number
  La3+  3.0
  Ce3+  3.0
  Pr3+  3.0
  Nd3+  3.0
  Sm3+  3.0
  Bi2+  2.0
  S2-  -2.0
loop_
 _atom_site_type_symbol
 _atom_site_label
 _atom_site_symmetry_multiplicity
 _atom_site_fract_x
 _atom_site_fract_y
 _atom_site_fract_z
 _atom_site_occupancy
  La3+  La0  1  0.36465557  0.74417546  0.89279853  1
  La3+  La1  1  0.49203949  0.89785080  0.58916150  1
  La3+  La2  1  0.50025082  0.88149992  0.05923851  1
  La3+  La3  1  0.75623592  0.90492383  0.58408494  1
  La3+  La4  1  0.00163434  0.40008024  0.57175921  1
  La3+  La5  1  0.61518007  0.75884992  0.38671375  1
  La3+  La6  1  0.74805006  0.61937443  0.08256513  1
  La3+  La7  1  0.62806580  0.50129450  0.93772675  1
  La3+  La8  1  0.24710928  0.13374963  0.08911360  1
  La3+  La9  1  0.25306457  0.39936747  0.56231555  1
  La3+  La10  1  0.49699301  0.63418488  0.06757027  1
  La3+  La11  1  0.12565563  0.76599923  0.43754145  1
  Ce3+  Ce12  1  0.25369070  0.37795181  0.06522202  1
  Ce3+  Ce13  1  0.38135208  0.01388403  0.43731468  1
  Ce3+  Ce14  1  0.87559207  0.25254922  0.94191564  1
  Ce3+  Ce15  1  0.61642425  0.00035941  0.92618047  1
  Ce3+  Ce16  1  0.63825983  0.51650721  0.43468120  1
  Ce3+  Ce17  1  0.37792765  0.50003012  0.93728443  1
  Ce3+  Ce18  1  0.74777298  0.12540903  0.04905423  1
  Ce3+  Ce19  1  0.38006251  0.26635729  0.44186298  1
  Ce3+  Ce20  1  0.62957174  0.26358458  0.44216327  1
  Ce3+  Ce21  1  0.37715660  0.00308770  0.94153903  1
  Ce3+  Ce22  1  0.37749877  0.25370915  0.94103185  1
  Ce3+  Ce23  1  0.50544131  0.39484793  0.55382904  1
  Ce3+  Ce24  1  0.74878486  0.87691749  0.05381138  1
  Ce3+  Ce25  1  0.88210125  0.26732690  0.44461296  1
  Pr3+  Pr26  1  0.87733936  0.51709040  0.43532039  1
  Pr3+  Pr27  1  0.88152996  0.01874177  0.44162067  1
  Pr3+  Pr28  1  0.87584546  -0.00013020  0.93679781  1
  Pr3+  Pr29  1  0.00139714  0.37850764  0.06030145  1
  Pr3+  Pr30  1  0.63076449  0.00733441  0.44007727  1
  Pr3+  Pr31  1  0.12878055  0.50478914  0.94508875  1
  Pr3+  Pr32  1  0.12793770  0.00257044  0.93348250  1
  Pr3+  Pr33  1  0.12789555  0.25469530  0.93751305  1
  Pr3+  Pr34  1  0.12333922  0.51993483  0.43204231  1
  Pr3+  Pr35  1  0.25232644  0.63182348  0.06054503  1
  Pr3+  Pr36  1  0.62709135  0.74512592  0.92133860  1
  Pr3+  Pr37  1  0.74810660  0.64977938  0.56250600  1
  Pr3+  Pr38  1  0.00184073  0.12826214  0.06319278  1
  Nd3+  Nd39  1  0.25502846  0.64868125  0.56031960  1
  Nd3+  Nd40  1  0.38407653  0.52161042  0.44244298  1
  Nd3+  Nd41  1  0.50373301  0.12750943  0.06154461  1
  Nd3+  Nd42  1  0.74831646  0.37428804  0.06529073  1
  Nd3+  Nd43  1  0.13141929  0.26827518  0.43910631  1
  Nd3+  Nd44  1  0.87013452  0.77120707  0.44463012  1
  Nd3+  Nd45  1  0.50147986  0.13979094  0.56198055  1
  Nd3+  Nd46  1  0.00431380  0.15241265  0.56947749  1
  Nd3+  Nd47  1  0.00512404  0.89904235  0.56955277  1
  Nd3+  Nd48  1  0.87138177  0.75082163  0.93808472  1
  Nd3+  Nd49  1  0.74804239  0.39684640  0.56351660  1
  Nd3+  Nd50  1  0.00098407  0.87919942  0.05616293  1
  Nd3+  Nd51  1  0.25208347  0.87897067  0.05219408  1
  Sm3+  Sm52  1  0.00063848  0.62972050  0.05412008  1
  Sm3+  Sm53  1  0.12778665  0.01584444  0.44489371  1
  Sm3+  Sm54  1  0.38405732  0.76855609  0.44144843  1
  Sm3+  Sm55  1  0.50167033  0.37632830  0.05766727  1
  Sm3+  Sm56  1  0.00206838  0.64379139  0.56473675  1
  Sm3+  Sm57  1  0.87529073  0.50348683  0.94739813  1
  Sm3+  Sm58  1  0.62644844  0.25451966  0.93218080  1
  Sm3+  Sm59  1  0.25298013  0.14405688  0.55137074  1
  Sm3+  Sm60  1  0.50612223  0.64903445  0.55856531  1
  Sm3+  Sm61  1  0.75129011  0.14239651  0.55892025  1
  Sm3+  Sm62  1  0.12774607  0.75158003  0.94263253  1
  Sm3+  Sm63  1  0.25163964  0.89452862  0.55358844  1
  Bi2+  Bi64  1  0.03791121  0.12522792  0.29674164  1
  Bi2+  Bi65  1  0.02448247  0.01261278  0.79834959  1
  Bi2+  Bi66  1  -0.10346516  0.38049464  0.30633128  1
  Bi2+  Bi67  1  0.00782189  0.30915210  0.76299827  1
  Bi2+  Bi68  1  0.00063113  0.63167664  0.29769900  1
  Bi2+  Bi69  1  -0.01369351  0.64213633  0.79276623  1
  Bi2+  Bi70  1  0.04877308  0.83455704  0.31781090  1
  Bi2+  Bi71  1  -0.05067051  0.83912211  0.81933742  1
  Bi2+  Bi72  1  0.29576783  0.13586087  0.28432005  1
  Bi2+  Bi73  1  0.25394956  0.14641659  0.78891664  1
  Bi2+  Bi74  1  0.21848853  0.34665780  0.29767517  1
  Bi2+  Bi75  1  0.23413374  0.35933369  0.79928593  1
  Bi2+  Bi76  1  0.25196784  0.61199507  0.28886314  1
  Bi2+  Bi77  1  0.17677475  0.58623151  0.77855202  1
  Bi2+  Bi78  1  0.21373221  0.84205192  0.25655672  1
  Bi2+  Bi79  1  0.17274321  0.83737891  0.78702496  1
  Bi2+  Bi80  1  0.54144403  0.13541620  0.27977467  1
  Bi2+  Bi81  1  0.46990355  0.16555944  0.82208486  1
  Bi2+  Bi82  1  0.51374556  0.35027006  0.27197214  1
  Bi2+  Bi83  1  0.48112061  0.35307345  0.78289191  1
  Bi2+  Bi84  1  0.48657516  0.62572301  0.28422729  1
  Bi2+  Bi85  1  0.51618048  0.61309566  0.78446289  1
  Bi2+  Bi86  1  0.48664015  0.91798624  0.29830691  1
  Bi2+  Bi87  1  0.49414155  0.89320857  0.78301487  1
  Bi2+  Bi88  1  0.73326927  0.14742820  0.29741237  1
  Bi2+  Bi89  1  0.66684870  0.16340760  0.81014748  1
  Bi2+  Bi90  1  0.75947888  0.30586054  0.22745347  1
  Bi2+  Bi91  1  0.75400662  0.35826087  0.80474643  1
  Bi2+  Bi92  1  0.74843270  0.61244807  0.29165427  1
  Bi2+  Bi93  1  0.76971597  0.62360704  0.79129763  1
  Bi2+  Bi94  1  0.78992280  0.87141913  0.28530439  1
  Bi2+  Bi95  1  0.75336581  0.88071500  0.77590613  1
  Bi2+  Bi96  1  0.08226498  -0.02327180  0.21733544  1
  Bi2+  Bi97  1  0.11318680  -0.07707908  0.69094183  1
  Bi2+  Bi98  1  0.12432976  0.24069752  0.21305275  1
  Bi2+  Bi99  1  0.13679313  0.22451160  0.68904963  1
  Bi2+  Bi100  1  0.12994658  0.48557808  0.23125689  1
  Bi2+  Bi101  1  0.14055666  0.47806785  0.68783239  1
  Bi2+  Bi102  1  0.13296663  0.67323810  0.19567478  1
  Bi2+  Bi103  1  0.08411152  0.72874066  0.69505474  1
  Bi2+  Bi104  1  0.39211048  -0.05246892  0.20411579  1
  Bi2+  Bi105  1  0.28940209  0.00483283  0.71329542  1
  Bi2+  Bi106  1  0.39797587  0.23259676  0.20399972  1
  Bi2+  Bi107  1  0.39692058  0.20607867  0.71926340  1
  Bi2+  Bi108  1  0.35346605  0.45868242  0.24421403  1
  Bi2+  Bi109  1  0.36877696  0.50267440  0.75659975  1
  Bi2+  Bi110  1  0.36189780  0.73716279  0.20546044  1
  Bi2+  Bi111  1  0.36040397  0.73028335  0.69784914  1
  Bi2+  Bi112  1  0.63806063  0.00500944  0.20307724  1
  Bi2+  Bi113  1  0.61557662  0.08305139  0.71242423  1
  Bi2+  Bi114  1  0.60409890  0.21727466  0.17533384  1
  Bi2+  Bi115  1  0.62792138  0.27789714  0.69965136  1
  Bi2+  Bi116  1  0.63167889  0.46862229  0.21113114  1
  Bi2+  Bi117  1  0.65532105  0.47343405  0.69647668  1
  Bi2+  Bi118  1  0.64212188  0.74514328  0.18225371  1
  Bi2+  Bi119  1  0.62455492  0.72043433  0.69153268  1
  Bi2+  Bi120  1  0.88791990  0.02201041  0.24218736  1
  Bi2+  Bi121  1  0.89436542  0.03220565  0.70861353  1
  Bi2+  Bi122  1  0.92409723  0.20321118  0.20578221  1
  Bi2+  Bi123  1  0.84226280  0.20416848  0.75236201  1
  Bi2+  Bi124  1  0.93469636  0.47984139  0.21333620  1
  Bi2+  Bi125  1  0.90782489  0.47341569  0.75461707  1
  Bi2+  Bi126  1  0.93857912  0.77403130  0.23056196  1
  Bi2+  Bi127  1  0.89406392  0.75755601  0.71646265  1
  S2-  S128  1  0.10044013  0.10723449  0.14546017  1
  S2-  S129  1  0.03853574  0.07651948  0.65730878  1
  S2-  S130  1  0.00301194  0.34389261  0.15808966  1
  S2-  S131  1  0.00476029  0.28295153  0.64706659  1
  S2-  S132  1  -0.00624655  0.60913603  0.15029912  1
  S2-  S133  1  -0.00051611  0.53276010  0.63980153  1
  S2-  S134  1  -0.01602623  0.88608262  0.15485188  1
  S2-  S135  1  -0.10137988  0.89528093  0.64810641  1
  S2-  S136  1  0.31229925  0.08431766  0.18071976  1
  S2-  S137  1  0.27810777  0.13106544  0.64770721  1
  S2-  S138  1  0.25322200  0.28867284  0.14775973  1
  S2-  S139  1  0.24577526  0.35748747  0.65998010  1
  S2-  S140  1  0.30169518  0.60704229  0.15536838  1
  S2-  S141  1  0.25632851  0.60425928  0.65526377  1
  S2-  S142  1  0.25742501  0.87129491  0.15200135  1
  S2-  S143  1  0.31663234  0.87598283  0.64351348  1
  S2-  S144  1  0.51299680  0.00790338  0.13637202  1
  S2-  S145  1  0.50073442  0.04659445  0.64586840  1
  S2-  S146  1  0.50285062  0.36459190  0.15559568  1
  S2-  S147  1  0.51863287  0.39441927  0.64996816  1
  S2-  S148  1  0.57208401  0.58868300  0.15708822  1
  S2-  S149  1  0.48593317  0.63025048  0.65650525  1
  S2-  S150  1  0.48229074  0.77678769  0.14102332  1
  S2-  S151  1  0.49930278  0.82960220  0.68438370  1
  S2-  S152  1  0.73589383  0.11262204  0.14570930  1
  S2-  S153  1  0.75568221  0.06740161  0.64677739  1
  S2-  S154  1  0.76588754  0.46292394  0.14916477  1
  S2-  S155  1  0.76869422  0.36190712  0.66029533  1
  S2-  S156  1  0.78194290  0.66937653  0.17952286  1
  S2-  S157  1  0.74693137  0.59955788  0.65964191  1
  S2-  S158  1  0.72471059  0.88917382  0.15136704  1
  S2-  S159  1  0.69692274  0.86212964  0.68019196  1
  S2-  S160  1  0.10698077  -0.00391439  0.34907124  1
  S2-  S161  1  0.18676929  -0.00280912  0.83888067  1
  S2-  S162  1  0.08264875  0.27750411  0.34494983  1
  S2-  S163  1  0.12459678  0.24016702  0.83706678  1
  S2-  S164  1  -0.00233591  0.49409005  0.36009306  1
  S2-  S165  1  0.13048604  0.46726898  0.84671348  1
  S2-  S166  1  0.14077050  0.65005480  0.36089149  1
  S2-  S167  1  0.19118833  0.71515209  0.85447678  1
  S2-  S168  1  0.35048056  0.00617925  0.34055358  1
  S2-  S169  1  0.43760971  -0.00267539  0.85048628  1
  S2-  S170  1  0.35398348  0.25867174  0.34620977  1
  S2-  S171  1  0.36543168  0.36404556  0.86484682  1
  S2-  S172  1  0.38157707  0.52338008  0.34343606  1
  S2-  S173  1  0.38216629  0.58370171  0.85059262  1
  S2-  S174  1  0.44122220  0.76578859  0.34795937  1
  S2-  S175  1  0.34386314  0.80330038  0.79002050  1
  S2-  S176  1  0.63012073  -0.07525879  0.34995712  1
  S2-  S177  1  0.64010233  -0.06691622  0.83559729  1
  S2-  S178  1  0.62113632  0.26340867  0.34423720  1
  S2-  S179  1  0.62294915  0.37585189  0.86033630  1
  S2-  S180  1  0.60047273  0.58424867  0.34756265  1
  S2-  S181  1  0.63554640  0.59631355  0.85241353  1
  S2-  S182  1  0.62012778  0.73563599  0.27857734  1
  S2-  S183  1  0.51735140  0.75890607  0.84111418  1
  S2-  S184  1  0.86457141  -0.02738930  0.34472841  1
  S2-  S185  1  0.85956520  -0.00380580  0.83651564  1
  S2-  S186  1  0.85802141  0.22603161  0.35072698  1
  S2-  S187  1  0.90019738  0.25867510  0.84591859  1
  S2-  S188  1  0.77241110  0.49275694  0.35269995  1
  S2-  S189  1  0.84828354  0.49531324  0.85107286  1
  S2-  S190  1  0.79020454  0.74609611  0.35535678  1
  S2-  S191  1  0.77134462  0.74758050  0.85510834  1
  S2-  S192  1  0.00914676  0.14235219  0.45828113  1
  S2-  S193  1  0.00180916  0.12672224  0.95231340  1
  S2-  S194  1  0.00541925  0.38942365  0.46336794  1
  S2-  S195  1  0.00061690  0.38009367  0.95343558  1
  S2-  S196  1  -0.00288991  0.64617198  0.46010286  1
  S2-  S197  1  0.00044293  0.62917199  0.94924985  1
  S2-  S198  1  0.00347170  0.89234174  0.46122934  1
  S2-  S199  1  0.00285734  0.87410934  0.95058001  1
  S2-  S200  1  0.25207503  0.13937584  0.44752895  1
  S2-  S201  1  0.25253169  0.12941466  0.94685503  1
  S2-  S202  1  0.25464374  0.39751096  0.45162248  1
  S2-  S203  1  0.24892186  0.37845615  0.96155893  1
  S2-  S204  1  0.26063620  0.64433929  0.45519379  1
  S2-  S205  1  0.25201765  0.62851920  0.95549862  1
  S2-  S206  1  0.25221946  0.88947131  0.44848260  1
  S2-  S207  1  0.25273664  0.87354854  0.94559033  1
  S2-  S208  1  0.50451022  0.13857668  0.45262827  1
  S2-  S209  1  0.50444127  0.13233083  0.95561820  1
  S2-  S210  1  0.50582118  0.39329315  0.44688257  1
  S2-  S211  1  0.50139345  0.37496300  0.95692403  1
  S2-  S212  1  0.50757309  0.64823863  0.45391002  1
  S2-  S213  1  0.50034865  0.62785079  0.95663851  1
  S2-  S214  1  0.50169336  0.89008705  0.45577214  1
  S2-  S215  1  0.49849753  0.87543420  0.95131771  1
  S2-  S216  1  0.75250594  0.13908459  0.45496838  1
  S2-  S217  1  0.74880060  0.12753111  0.94344730  1
  S2-  S218  1  0.75415326  0.38580285  0.45766104  1
  S2-  S219  1  0.75597821  0.37566282  0.95950624  1
  S2-  S220  1  0.74962203  0.64594319  0.45713869  1
  S2-  S221  1  0.75613706  0.62451785  0.96443722  1
  S2-  S222  1  0.75938709  0.89767379  0.46667220  1
  S2-  S223  1  0.74892676  0.87921330  0.95000797  1
  S2-  S224  1  0.12743514  0.00347190  0.04059912  1
  S2-  S225  1  0.13179724  0.01938041  0.54821696  1
  S2-  S226  1  0.12588988  0.25284446  0.04456036  1
  S2-  S227  1  0.13374591  0.26942295  0.54513003  1
  S2-  S228  1  0.12618335  0.50462546  0.05280213  1
  S2-  S229  1  0.13094498  0.52598423  0.53978024  1
  S2-  S230  1  0.12432823  0.75407126  0.04734659  1
  S2-  S231  1  0.12670245  0.76956871  0.54802051  1
  S2-  S232  1  0.36774859  0.01099611  0.04681537  1
  S2-  S233  1  0.37313836  0.01823596  0.54205751  1
  S2-  S234  1  0.37875709  0.25021041  0.04745918  1
  S2-  S235  1  0.37860583  0.26783570  0.54836299  1
  S2-  S236  1  0.37843205  0.49901263  0.04865139  1
  S2-  S237  1  0.38155723  0.52336632  0.54847368  1
  S2-  S238  1  0.37041477  0.75581409  0.04280308  1
  S2-  S239  1  0.37984839  0.77005613  0.54533880  1
  S2-  S240  1  0.62792376  0.00368242  0.03353601  1
  S2-  S241  1  0.62669643  0.01858895  0.54624205  1
  S2-  S242  1  0.62567207  0.25377810  0.03924097  1
  S2-  S243  1  0.62710958  0.26448897  0.54890533  1
  S2-  S244  1  0.62495610  0.49684976  0.04646254  1
  S2-  S245  1  0.62584264  0.52150523  0.54357506  1
  S2-  S246  1  0.63153038  0.75032529  0.04509913  1
  S2-  S247  1  0.62360643  0.77627092  0.56383535  1
  S2-  S248  1  0.87739384  0.00380242  0.04492169  1
  S2-  S249  1  0.88499917  0.02776370  0.54713460  1
  S2-  S250  1  0.87563271  0.25173135  0.04960936  1
  S2-  S251  1  0.87149283  0.26811306  0.55001078  1
  S2-  S252  1  0.87910456  0.50393618  0.04921244  1
  S2-  S253  1  0.87114460  0.52159902  0.54436585  1
  S2-  S254  1  0.87759402  0.75165730  0.04710489  1
  S2-  S255  1  0.88090933  0.76761194  0.55152849  1
