# generated using pymatgen
data_La12Ce14Pr13Nd13Sm12(BiS2)64
_symmetry_space_group_name_H-M   'P 1'
_cell_length_a   16.11757920
_cell_length_b   16.11274204
_cell_length_c   27.31266432
_cell_angle_alpha   89.98553945
_cell_angle_beta   89.90686685
_cell_angle_gamma   90.00569073
_symmetry_Int_Tables_number   1
_chemical_formula_structural   La12Ce14Pr13Nd13Sm12(BiS2)64
_chemical_formula_sum   'La12 Ce14 Pr13 Nd13 Sm12 Bi64 S128'
_cell_volume   7093.04548044
_cell_formula_units_Z   1
loop_
 _symmetry_equiv_pos_site_id
 _symmetry_equiv_pos_as_xyz
  1  'x, y, z'
loop_
 _atom_type_symbol
 _atom_type_oxidation_number
  La3+  3.0
  Ce3+  3.0
  Pr3+  3.0
  Nd3+  3.0
  Sm3+  3.0
  Bi2+  2.0
  S2-  -2.0
loop_
 _atom_site_type_symbol
 _atom_site_label
 _atom_site_symmetry_multiplicity
 _atom_site_fract_x
 _atom_site_fract_y
 _atom_site_fract_z
 _atom_site_occupancy
  La3+  La0  1  0.50183618  0.13299199  0.07235301  1
  La3+  La1  1  0.25037282  0.13962723  0.09209008  1
  La3+  La2  1  0.14829569  0.75786034  0.37852834  1
  La3+  La3  1  0.12353662  0.25147072  0.93651441  1
  La3+  La4  1  0.12325037  0.51121463  0.93762322  1
  La3+  La5  1  -0.01280177  0.39015441  0.07237082  1
  La3+  La6  1  0.60776077  0.49138133  0.42022806  1
  La3+  La7  1  0.87192273  0.74691159  0.43625862  1
  La3+  La8  1  0.10279850  0.00163879  0.42788911  1
  La3+  La9  1  -0.00522755  0.13764455  0.06566128  1
  La3+  La10  1  0.88062471  0.00348485  0.89998097  1
  La3+  La11  1  0.36947824  0.01860004  0.93928227  1
  Ce3+  Ce12  1  -0.01080611  0.37370412  0.56878860  1
  Ce3+  Ce13  1  0.48981911  0.87271528  0.55044786  1
  Ce3+  Ce14  1  0.72931758  0.62160530  0.56194640  1
  Ce3+  Ce15  1  0.49448535  0.63976329  0.04987420  1
  Ce3+  Ce16  1  -0.00832372  0.88919899  0.06457773  1
  Ce3+  Ce17  1  -0.00598372  0.63595005  0.06017656  1
  Ce3+  Ce18  1  0.37318117  0.25879756  0.94456218  1
  Ce3+  Ce19  1  0.36665240  0.74879763  0.44484971  1
  Ce3+  Ce20  1  0.62240423  0.74320219  0.42699201  1
  Ce3+  Ce21  1  0.11194636  0.50725164  0.44020593  1
  Ce3+  Ce22  1  -0.01296380  0.87128678  0.56497858  1
  Ce3+  Ce23  1  0.73947113  0.39060606  0.06036675  1
  Ce3+  Ce24  1  0.49037855  0.62158425  0.55603133  1
  Ce3+  Ce25  1  0.87365500  0.76363342  0.94561392  1
  Pr3+  Pr26  1  0.87281194  0.26152430  0.93289597  1
  Pr3+  Pr27  1  0.36648257  0.52274769  0.92353430  1
  Pr3+  Pr28  1  0.48560662  0.12233714  0.56370528  1
  Pr3+  Pr29  1  0.24730929  0.88276245  0.07345740  1
  Pr3+  Pr30  1  0.49613738  0.39316084  0.06079495  1
  Pr3+  Pr31  1  0.23388137  0.12240674  0.56490001  1
  Pr3+  Pr32  1  0.73586597  0.87437639  0.56342436  1
  Pr3+  Pr33  1  0.62573669  0.76548928  0.93954562  1
  Pr3+  Pr34  1  -0.01314486  0.12862425  0.57727971  1
  Pr3+  Pr35  1  0.86485274  0.24811476  0.44240402  1
  Pr3+  Pr36  1  0.23160065  0.86969180  0.56115912  1
  Pr3+  Pr37  1  0.62765900  0.01753720  0.92782371  1
  Pr3+  Pr38  1  0.61337664  0.24322729  0.43239814  1
  Nd3+  Nd39  1  0.35906832  -0.00846067  0.44007550  1
  Nd3+  Nd40  1  0.61951334  0.51229740  0.93188511  1
  Nd3+  Nd41  1  0.49757910  0.88965948  0.06016648  1
  Nd3+  Nd42  1  0.12375446  0.01019556  0.94715906  1
  Nd3+  Nd43  1  0.86581394  0.00113416  0.44918024  1
  Nd3+  Nd44  1  0.36137603  0.24441694  0.44213510  1
  Nd3+  Nd45  1  0.72879763  0.12868512  0.58013548  1
  Nd3+  Nd46  1  0.24522757  0.38679649  0.06210761  1
  Nd3+  Nd47  1  -0.02107209  0.61723230  0.57462921  1
  Nd3+  Nd48  1  0.62161134  0.26076244  0.93509144  1
  Nd3+  Nd49  1  0.86422140  0.49668163  0.44410244  1
  Nd3+  Nd50  1  0.75154072  0.13809865  0.06191134  1
  Nd3+  Nd51  1  0.73233770  0.37179167  0.56407868  1
  Sm3+  Sm52  1  0.12248575  0.76593824  0.94853420  1
  Sm3+  Sm53  1  0.87998626  0.50567073  0.92896896  1
  Sm3+  Sm54  1  0.36181334  0.49956280  0.43739831  1
  Sm3+  Sm55  1  0.61533001  0.00228843  0.43697824  1
  Sm3+  Sm56  1  0.23842725  0.37429211  0.55326304  1
  Sm3+  Sm57  1  0.23648114  0.62253530  0.55870761  1
  Sm3+  Sm58  1  0.37066325  0.77303057  0.93217226  1
  Sm3+  Sm59  1  0.11153240  0.24842941  0.44122985  1
  Sm3+  Sm60  1  0.74731144  0.89084151  0.05574027  1
  Sm3+  Sm61  1  0.74614878  0.63578104  0.04882142  1
  Sm3+  Sm62  1  0.48643867  0.37284977  0.55422077  1
  Sm3+  Sm63  1  0.24820228  0.64048802  0.06371753  1
  Bi2+  Bi64  1  -0.03872736  0.12752988  0.30385495  1
  Bi2+  Bi65  1  0.02664779  0.14008591  0.79883786  1
  Bi2+  Bi66  1  -0.00566952  0.38667497  0.27756810  1
  Bi2+  Bi67  1  -0.00158331  0.40073954  0.78902818  1
  Bi2+  Bi68  1  -0.00742548  0.58394519  0.28839474  1
  Bi2+  Bi69  1  -0.10581434  0.60105454  0.79481859  1
  Bi2+  Bi70  1  -0.02490791  0.86395141  0.28249925  1
  Bi2+  Bi71  1  0.01628178  0.80821035  0.79127620  1
  Bi2+  Bi72  1  0.26973720  0.10623616  0.33204575  1
  Bi2+  Bi73  1  0.28829714  0.05758909  0.79816155  1
  Bi2+  Bi74  1  0.19218588  0.39008533  0.29368926  1
  Bi2+  Bi75  1  0.28422221  0.37738668  0.78942658  1
  Bi2+  Bi76  1  0.32325552  0.53620146  0.29261851  1
  Bi2+  Bi77  1  0.21342969  0.63400094  0.79297189  1
  Bi2+  Bi78  1  0.30213568  0.86571416  0.28520742  1
  Bi2+  Bi79  1  0.27574835  0.83054412  0.78641485  1
  Bi2+  Bi80  1  0.56660777  0.15184773  0.26613215  1
  Bi2+  Bi81  1  0.53814905  0.14477725  0.75357747  1
  Bi2+  Bi82  1  0.50267539  0.34434221  0.29090467  1
  Bi2+  Bi83  1  0.46065433  0.30482069  0.82183917  1
  Bi2+  Bi84  1  0.50895671  0.69071786  0.28481996  1
  Bi2+  Bi85  1  0.47522504  0.49797922  0.80486244  1
  Bi2+  Bi86  1  0.52403719  0.88811273  0.29329458  1
  Bi2+  Bi87  1  0.53347981  0.90773375  0.78228189  1
  Bi2+  Bi88  1  0.76202861  0.10523707  0.29010910  1
  Bi2+  Bi89  1  0.73162281  0.13421656  0.78858142  1
  Bi2+  Bi90  1  0.69677515  0.38439568  0.25823751  1
  Bi2+  Bi91  1  0.73144564  0.34971619  0.79354999  1
  Bi2+  Bi92  1  0.76152128  0.64695088  0.29341070  1
  Bi2+  Bi93  1  0.70022923  0.63158686  0.77430457  1
  Bi2+  Bi94  1  0.72040253  0.90916324  0.29328588  1
  Bi2+  Bi95  1  0.72893786  0.83554938  0.79614050  1
  Bi2+  Bi96  1  0.13371475  0.01038566  0.21508432  1
  Bi2+  Bi97  1  0.13037586  -0.03064816  0.70191206  1
  Bi2+  Bi98  1  0.10317790  0.26050647  0.21935987  1
  Bi2+  Bi99  1  0.13297463  0.24375608  0.70701150  1
  Bi2+  Bi100  1  0.21277817  0.51199740  0.19689013  1
  Bi2+  Bi101  1  0.18422201  0.49614057  0.70542810  1
  Bi2+  Bi102  1  0.12041179  0.68122967  0.19801026  1
  Bi2+  Bi103  1  0.06036887  0.65442624  0.72175295  1
  Bi2+  Bi104  1  0.40060686  0.03793713  0.21168930  1
  Bi2+  Bi105  1  0.37973657  -0.05145062  0.71602337  1
  Bi2+  Bi106  1  0.35447517  0.29758507  0.21906669  1
  Bi2+  Bi107  1  0.35147560  0.21420155  0.73890868  1
  Bi2+  Bi108  1  0.40814704  0.47736698  0.18716390  1
  Bi2+  Bi109  1  0.39962822  0.48344257  0.69987559  1
  Bi2+  Bi110  1  0.41969821  0.77816982  0.19792509  1
  Bi2+  Bi111  1  0.39953012  0.66593463  0.74946717  1
  Bi2+  Bi112  1  0.66734230  0.03479252  0.19011169  1
  Bi2+  Bi113  1  0.63543291  -0.02988991  0.68837988  1
  Bi2+  Bi114  1  0.63928811  0.22643576  0.16962291  1
  Bi2+  Bi115  1  0.60215838  0.32215578  0.70911653  1
  Bi2+  Bi116  1  0.59956205  0.52624651  0.20222854  1
  Bi2+  Bi117  1  0.67946790  0.49690892  0.68768706  1
  Bi2+  Bi118  1  0.62347801  0.78798450  0.20957753  1
  Bi2+  Bi119  1  0.56811710  0.73833666  0.71188751  1
  Bi2+  Bi120  1  0.91611145  0.00257873  0.20223621  1
  Bi2+  Bi121  1  0.88732881  -0.02958645  0.71686345  1
  Bi2+  Bi122  1  0.82290083  0.25561824  0.21237667  1
  Bi2+  Bi123  1  0.85692648  0.26158439  0.71873508  1
  Bi2+  Bi124  1  0.83875049  0.52590729  0.20039798  1
  Bi2+  Bi125  1  0.86698436  0.45722482  0.70600681  1
  Bi2+  Bi126  1  0.82941742  0.78503667  0.22163316  1
  Bi2+  Bi127  1  0.86904094  0.73345893  0.70892251  1
  S2-  S128  1  0.09755005  0.12932986  0.15046544  1
  S2-  S129  1  -0.00467401  0.06638797  0.67501550  1
  S2-  S130  1  0.03979830  0.38378488  0.17157608  1
  S2-  S131  1  -0.00648030  0.26391624  0.64861854  1
  S2-  S132  1  -0.02884899  0.61022375  0.15610702  1
  S2-  S133  1  0.00319751  0.48552650  0.64352222  1
  S2-  S134  1  0.03299243  0.89396326  0.16070556  1
  S2-  S135  1  0.00149142  0.86678882  0.66443569  1
  S2-  S136  1  0.25559809  0.12581483  0.24019629  1
  S2-  S137  1  0.20962170  0.10696412  0.66374320  1
  S2-  S138  1  0.24202014  0.29509582  0.14787940  1
  S2-  S139  1  0.21561523  0.34541745  0.65022335  1
  S2-  S140  1  0.25649727  0.74354732  0.14406698  1
  S2-  S141  1  0.28703437  0.60299438  0.65221296  1
  S2-  S142  1  0.26427618  0.98416311  0.15573807  1
  S2-  S143  1  0.24353477  0.86935437  0.66213492  1
  S2-  S144  1  0.40356875  0.16830300  0.15481897  1
  S2-  S145  1  0.57599669  0.11521553  0.64819013  1
  S2-  S146  1  0.61484672  0.39793221  0.13564660  1
  S2-  S147  1  0.46349622  0.34715401  0.65035430  1
  S2-  S148  1  0.46994069  0.63270976  0.14613788  1
  S2-  S149  1  0.59704018  0.62783383  0.63398982  1
  S2-  S150  1  0.51928668  0.98771558  0.14274452  1
  S2-  S151  1  0.49886379  0.86945830  0.64752204  1
  S2-  S152  1  0.86842927  0.14215815  0.14227186  1
  S2-  S153  1  0.77857193  0.05943178  0.67096926  1
  S2-  S154  1  0.84182527  0.39331765  0.13977970  1
  S2-  S155  1  0.73809943  0.26810261  0.64518423  1
  S2-  S156  1  0.72667557  0.61289502  0.14604961  1
  S2-  S157  1  0.83762251  0.62834525  0.63791602  1
  S2-  S158  1  0.79378759  0.90975842  0.15027684  1
  S2-  S159  1  0.75563116  0.84922049  0.66334747  1
  S2-  S160  1  0.18792293  -0.05875355  0.34614616  1
  S2-  S161  1  0.15566903  0.10005726  0.86276086  1
  S2-  S162  1  0.10635492  0.15445249  0.35868540  1
  S2-  S163  1  0.08835845  0.29699545  0.83883264  1
  S2-  S164  1  0.12113685  0.58475733  0.35253712  1
  S2-  S165  1  0.00989298  0.52885206  0.85856204  1
  S2-  S166  1  0.14961395  0.77997866  0.27121146  1
  S2-  S167  1  0.13764859  0.81840209  0.85458947  1
  S2-  S168  1  0.40396352  -0.00184038  0.34261698  1
  S2-  S169  1  0.36142357  -0.09917036  0.86129668  1
  S2-  S170  1  0.38217753  0.24022332  0.34386130  1
  S2-  S171  1  0.37274790  0.14924620  0.86703339  1
  S2-  S172  1  0.44852385  0.48377611  0.35274623  1
  S2-  S173  1  0.23403256  0.49559470  0.85628849  1
  S2-  S174  1  0.31979324  0.74118070  0.35016997  1
  S2-  S175  1  0.35882891  0.66741153  0.85445010  1
  S2-  S176  1  0.62405103  0.11557250  0.36160900  1
  S2-  S177  1  0.73351094  -0.01262848  0.84366866  1
  S2-  S178  1  0.64211625  0.35608582  0.35390312  1
  S2-  S179  1  0.61048311  0.15051009  0.85576370  1
  S2-  S180  1  0.62246831  0.61771246  0.34911982  1
  S2-  S181  1  0.64842385  0.49378923  0.83456823  1
  S2-  S182  1  0.75216711  0.77463716  0.35907841  1
  S2-  S183  1  0.58257402  0.77816996  0.84254651  1
  S2-  S184  1  0.95144441  -0.01194382  0.36020392  1
  S2-  S185  1  0.98390474  -0.01441201  0.81260070  1
  S2-  S186  1  0.90450741  0.27395043  0.34444075  1
  S2-  S187  1  0.88034662  0.15842134  0.84787741  1
  S2-  S188  1  0.86352147  0.53045041  0.34500661  1
  S2-  S189  1  0.86407262  0.38194381  0.85635652  1
  S2-  S190  1  0.97703568  0.75327876  0.35229747  1
  S2-  S191  1  0.87319500  0.81981261  0.85374085  1
  S2-  S192  1  -0.01153548  0.12833933  0.46639424  1
  S2-  S193  1  -0.00569230  0.12974956  0.95566503  1
  S2-  S194  1  -0.00716376  0.37351112  0.45569361  1
  S2-  S195  1  0.00009018  0.38599412  0.95976116  1
  S2-  S196  1  -0.01492158  0.61679343  0.46618399  1
  S2-  S197  1  -0.00193736  0.64310776  0.95520371  1
  S2-  S198  1  -0.01018527  0.87571671  0.46180549  1
  S2-  S199  1  -0.00312454  0.88910483  0.95642743  1
  S2-  S200  1  0.23652940  0.12001031  0.45829527  1
  S2-  S201  1  0.24781443  0.13870924  0.97301115  1
  S2-  S202  1  0.23792985  0.37361790  0.44800465  1
  S2-  S203  1  0.24989516  0.38290386  0.95652842  1
  S2-  S204  1  0.24130323  0.62602225  0.45425246  1
  S2-  S205  1  0.24496163  0.64531473  0.95951293  1
  S2-  S206  1  0.23405409  0.86689883  0.45520084  1
  S2-  S207  1  0.24477512  0.88626641  0.96484403  1
  S2-  S208  1  0.48252027  0.11825921  0.45733175  1
  S2-  S209  1  0.50166889  0.13750664  0.96373841  1
  S2-  S210  1  0.48248277  0.36779455  0.45227530  1
  S2-  S211  1  0.49548847  0.39015236  0.95172941  1
  S2-  S212  1  0.48621314  0.62337343  0.45175806  1
  S2-  S213  1  0.49764619  0.64189442  0.94569644  1
  S2-  S214  1  0.49438722  0.87446484  0.44468936  1
  S2-  S215  1  0.50308452  0.89168319  0.95506409  1
  S2-  S216  1  0.74089802  0.12336105  0.46323186  1
  S2-  S217  1  0.74859137  0.13928444  0.95509298  1
  S2-  S218  1  0.73977440  0.37107667  0.45764860  1
  S2-  S219  1  0.74087665  0.38981700  0.95281750  1
  S2-  S220  1  0.73928210  0.61781894  0.45581905  1
  S2-  S221  1  0.75028789  0.63415434  0.94238830  1
  S2-  S222  1  0.73828027  0.88262781  0.45667068  1
  S2-  S223  1  0.75044693  0.88981257  0.95303158  1
  S2-  S224  1  0.12124790  0.00702496  0.05093135  1
  S2-  S225  1  0.10967329  -0.00089406  0.54935468  1
  S2-  S226  1  0.11624119  0.26831652  0.04656005  1
  S2-  S227  1  0.11634797  0.25023615  0.54422774  1
  S2-  S228  1  0.12434120  0.51602531  0.04993401  1
  S2-  S229  1  0.11969620  0.49766491  0.54512716  1
  S2-  S230  1  0.11668943  0.76062291  0.05151330  1
  S2-  S231  1  0.11072259  0.73899905  0.56496631  1
  S2-  S232  1  0.37237066  0.01040172  0.04797794  1
  S2-  S233  1  0.36011189  -0.00382489  0.54882498  1
  S2-  S234  1  0.37662039  0.26722814  0.04809843  1
  S2-  S235  1  0.36029990  0.24782871  0.54856005  1
  S2-  S236  1  0.36757144  0.51603827  0.03957361  1
  S2-  S237  1  0.36272254  0.49695679  0.54230093  1
  S2-  S238  1  0.37490484  0.76540617  0.03874621  1
  S2-  S239  1  0.36274281  0.74704780  0.55098620  1
  S2-  S240  1  0.62881409  0.01218984  0.03881664  1
  S2-  S241  1  0.61264916  0.00026806  0.54150246  1
  S2-  S242  1  0.62119351  0.26097024  0.03976760  1
  S2-  S243  1  0.60593371  0.24831656  0.54122785  1
  S2-  S244  1  0.61915377  0.51988531  0.03665907  1
  S2-  S245  1  0.60768353  0.49188118  0.53635700  1
  S2-  S246  1  0.62431348  0.76429099  0.04732310  1
  S2-  S247  1  0.61215550  0.75141136  0.53520152  1
  S2-  S248  1  0.87015190  0.00978970  0.04408705  1
  S2-  S249  1  0.86217584  0.00128216  0.55480005  1
  S2-  S250  1  0.86779171  0.26565290  0.03967503  1
  S2-  S251  1  0.86069064  0.24794912  0.54832556  1
  S2-  S252  1  0.86903455  0.51629716  0.03519663  1
  S2-  S253  1  0.85654049  0.48993005  0.54727117  1
  S2-  S254  1  0.86744225  0.76119235  0.05168601  1
  S2-  S255  1  0.86039399  0.75218683  0.54481923  1
