# generated using pymatgen
data_La12Ce14Pr13Nd13Sm12(BiS2)64
_symmetry_space_group_name_H-M   'P 1'
_cell_length_a   16.15725330
_cell_length_b   16.19027316
_cell_length_c   27.21003623
_cell_angle_alpha   90.07222814
_cell_angle_beta   90.15162372
_cell_angle_gamma   90.00181353
_symmetry_Int_Tables_number   1
_chemical_formula_structural   La12Ce14Pr13Nd13Sm12(BiS2)64
_chemical_formula_sum   'La12 Ce14 Pr13 Nd13 Sm12 Bi64 S128'
_cell_volume   7117.85216567
_cell_formula_units_Z   1
loop_
 _symmetry_equiv_pos_site_id
 _symmetry_equiv_pos_as_xyz
  1  'x, y, z'
loop_
 _atom_type_symbol
 _atom_type_oxidation_number
  La3+  3.0
  Ce3+  3.0
  Pr3+  3.0
  Nd3+  3.0
  Sm3+  3.0
  Bi2+  2.0
  S2-  -2.0
loop_
 _atom_site_type_symbol
 _atom_site_label
 _atom_site_symmetry_multiplicity
 _atom_site_fract_x
 _atom_site_fract_y
 _atom_site_fract_z
 _atom_site_occupancy
  La3+  La0  1  0.12947863  0.75622908  0.41849740  1
  La3+  La1  1  0.25400544  0.63049990  0.06947159  1
  La3+  La2  1  0.50074035  0.12836758  0.05506047  1
  La3+  La3  1  0.25419542  0.37423165  0.10804353  1
  La3+  La4  1  0.86345822  0.49635942  0.42851149  1
  La3+  La5  1  0.50249606  0.63708840  0.07364606  1
  La3+  La6  1  0.62440532  0.25923343  0.93031042  1
  La3+  La7  1  0.00705482  0.13268370  0.05673459  1
  La3+  La8  1  0.86960790  0.24726673  0.44348541  1
  La3+  La9  1  0.86985126  0.75105534  0.42694401  1
  La3+  La10  1  0.38504683  0.74668797  0.91967909  1
  La3+  La11  1  0.12010344  0.49067950  0.41691366  1
  Ce3+  Ce12  1  0.50133780  0.87731599  0.05281130  1
  Ce3+  Ce13  1  0.49599421  0.37899347  0.06301870  1
  Ce3+  Ce14  1  0.23760718  0.62695266  0.56611755  1
  Ce3+  Ce15  1  0.87893526  0.25687493  0.94242244  1
  Ce3+  Ce16  1  0.12755403  0.75175093  0.94366810  1
  Ce3+  Ce17  1  0.74995865  0.37720805  0.06122735  1
  Ce3+  Ce18  1  -0.00013792  0.12436960  0.55821582  1
  Ce3+  Ce19  1  0.75168835  0.12933112  0.04733117  1
  Ce3+  Ce20  1  0.75499298  0.88036991  0.04694947  1
  Ce3+  Ce21  1  0.88231922  0.00254059  0.93080554  1
  Ce3+  Ce22  1  0.36971028  0.74839127  0.44553016  1
  Ce3+  Ce23  1  0.37482075  0.25580964  0.92947704  1
  Ce3+  Ce24  1  0.37285553  0.24419585  0.45503311  1
  Ce3+  Ce25  1  0.24692522  0.37652307  0.55530466  1
  Pr3+  Pr26  1  0.00252721  0.37700184  0.56271158  1
  Pr3+  Pr27  1  0.00019094  0.88549364  0.07038565  1
  Pr3+  Pr28  1  0.25459200  0.87496218  0.06355030  1
  Pr3+  Pr29  1  -0.00356462  0.62339716  0.55050679  1
  Pr3+  Pr30  1  0.49851689  0.86770205  0.56809071  1
  Pr3+  Pr31  1  0.74362478  0.12269092  0.56544722  1
  Pr3+  Pr32  1  0.25539337  0.12952142  0.05837971  1
  Pr3+  Pr33  1  0.12714607  0.00042013  0.43721335  1
  Pr3+  Pr34  1  0.37099378  0.49891083  0.43631237  1
  Pr3+  Pr35  1  0.49475415  0.37835308  0.56983418  1
  Pr3+  Pr36  1  0.49551280  0.11436140  0.58041648  1
  Pr3+  Pr37  1  0.23790606  0.12022909  0.58966190  1
  Pr3+  Pr38  1  0.88103174  0.75108137  0.94144646  1
  Nd3+  Nd39  1  0.61691073  0.00289904  0.43639721  1
  Nd3+  Nd40  1  0.61958038  0.50007175  0.44936831  1
  Nd3+  Nd41  1  0.12849946  0.25657256  0.93437826  1
  Nd3+  Nd42  1  0.12607445  0.24398327  0.43763044  1
  Nd3+  Nd43  1  0.12496187  -0.00159924  0.93501411  1
  Nd3+  Nd44  1  0.00403483  0.62745048  0.06847961  1
  Nd3+  Nd45  1  -0.00287459  0.87155367  0.55456797  1
  Nd3+  Nd46  1  0.75307145  0.62403956  0.56365853  1
  Nd3+  Nd47  1  0.61379439  0.24758606  0.44650652  1
  Nd3+  Nd48  1  0.86926102  -0.00006605  0.44412537  1
  Nd3+  Nd49  1  0.62576150  0.00387342  0.93194763  1
  Nd3+  Nd50  1  0.75279482  0.62904885  0.06092979  1
  Nd3+  Nd51  1  0.61780725  0.74798580  0.43956442  1
  Sm3+  Sm52  1  0.87895025  0.50452876  0.94519675  1
  Sm3+  Sm53  1  0.37686820  0.50044059  0.94067329  1
  Sm3+  Sm54  1  0.62701244  0.75085007  0.93622655  1
  Sm3+  Sm55  1  0.12988347  0.50233280  0.95061717  1
  Sm3+  Sm56  1  0.00449982  0.37884781  0.05999459  1
  Sm3+  Sm57  1  0.23735882  0.87087866  0.57020411  1
  Sm3+  Sm58  1  0.74598514  0.37313882  0.55977803  1
  Sm3+  Sm59  1  0.49441684  0.62773071  0.56776863  1
  Sm3+  Sm60  1  0.36683934  0.00566139  0.92097653  1
  Sm3+  Sm61  1  0.37133998  -0.00131403  0.45175512  1
  Sm3+  Sm62  1  0.74528886  0.87352434  0.55186252  1
  Sm3+  Sm63  1  0.62620309  0.50479418  0.95035293  1
  Bi2+  Bi64  1  0.01677147  0.10301066  0.30328830  1
  Bi2+  Bi65  1  0.00475753  0.08656129  0.77887541  1
  Bi2+  Bi66  1  0.00365685  0.29603243  0.28793224  1
  Bi2+  Bi67  1  0.01026891  0.36953353  0.80879042  1
  Bi2+  Bi68  1  -0.01721164  0.61977068  0.28314663  1
  Bi2+  Bi69  1  -0.02437912  0.58579242  0.79388733  1
  Bi2+  Bi70  1  -0.01821350  0.91338446  0.28685336  1
  Bi2+  Bi71  1  -0.01990101  0.82469809  0.80737073  1
  Bi2+  Bi72  1  0.20462865  0.11524936  0.33132805  1
  Bi2+  Bi73  1  0.25839134  0.13644135  0.78599004  1
  Bi2+  Bi74  1  0.27553442  0.28188217  0.30576217  1
  Bi2+  Bi75  1  0.21788778  0.41659830  0.79337981  1
  Bi2+  Bi76  1  0.25299791  0.62815820  0.30780751  1
  Bi2+  Bi77  1  0.24406876  0.60456121  0.75982677  1
  Bi2+  Bi78  1  0.24974738  0.90671902  0.28574622  1
  Bi2+  Bi79  1  0.23361976  0.87610735  0.78966466  1
  Bi2+  Bi80  1  0.47681618  0.11880205  0.31961358  1
  Bi2+  Bi81  1  0.51405104  0.12448280  0.78547727  1
  Bi2+  Bi82  1  0.52691595  0.34744245  0.23852361  1
  Bi2+  Bi83  1  0.54350322  0.37166066  0.80078357  1
  Bi2+  Bi84  1  0.52204082  0.63729930  0.27810756  1
  Bi2+  Bi85  1  0.45960876  0.59315248  0.78179072  1
  Bi2+  Bi86  1  0.50507873  0.91340095  0.24716665  1
  Bi2+  Bi87  1  0.50870482  0.85667281  0.78696101  1
  Bi2+  Bi88  1  0.72012753  0.06038546  0.30332819  1
  Bi2+  Bi89  1  0.80978910  0.04626167  0.80101798  1
  Bi2+  Bi90  1  0.69130835  0.33987799  0.30294713  1
  Bi2+  Bi91  1  0.76554540  0.37690000  0.76339057  1
  Bi2+  Bi92  1  0.73374617  0.62252435  0.30188177  1
  Bi2+  Bi93  1  0.68023187  0.59968145  0.77329453  1
  Bi2+  Bi94  1  0.72476571  0.88536691  0.25048490  1
  Bi2+  Bi95  1  0.76838013  0.85744525  0.78476330  1
  Bi2+  Bi96  1  0.16854665  0.02975854  0.20848906  1
  Bi2+  Bi97  1  0.11766228  -0.02154589  0.71056274  1
  Bi2+  Bi98  1  0.08600359  0.20740910  0.19592252  1
  Bi2+  Bi99  1  0.12989810  0.25667507  0.69875036  1
  Bi2+  Bi100  1  0.11211306  0.48196261  0.21091199  1
  Bi2+  Bi101  1  0.07715250  0.47745928  0.70264709  1
  Bi2+  Bi102  1  0.13913515  0.73019086  0.20604964  1
  Bi2+  Bi103  1  0.12339105  0.72546902  0.70352540  1
  Bi2+  Bi104  1  0.34238113  -0.04719041  0.18134923  1
  Bi2+  Bi105  1  0.37574034  -0.04579887  0.72476928  1
  Bi2+  Bi106  1  0.34117129  0.13792815  0.22783194  1
  Bi2+  Bi107  1  0.37948357  0.36685772  0.74132049  1
  Bi2+  Bi108  1  0.36979719  0.47854648  0.22559477  1
  Bi2+  Bi109  1  0.36370759  0.54470641  0.67555738  1
  Bi2+  Bi110  1  0.37887272  0.76134649  0.25278729  1
  Bi2+  Bi111  1  0.38419904  0.75151929  0.71464514  1
  Bi2+  Bi112  1  0.60386701  0.06296344  0.20196811  1
  Bi2+  Bi113  1  0.63173445  0.02012808  0.69936923  1
  Bi2+  Bi114  1  0.67095553  0.25247298  0.18550522  1
  Bi2+  Bi115  1  0.65365231  0.26617407  0.69431845  1
  Bi2+  Bi116  1  0.62432433  0.51330202  0.20640577  1
  Bi2+  Bi117  1  0.56208269  0.54044610  0.68729494  1
  Bi2+  Bi118  1  0.63137279  0.74577272  0.19395601  1
  Bi2+  Bi119  1  0.66801231  0.75001391  0.70243787  1
  Bi2+  Bi120  1  0.87990205  0.02015761  0.20488047  1
  Bi2+  Bi121  1  0.89916748  -0.04990759  0.71167217  1
  Bi2+  Bi122  1  0.84279192  0.20057678  0.24987608  1
  Bi2+  Bi123  1  0.87177241  0.21620100  0.74669391  1
  Bi2+  Bi124  1  0.81032418  0.46806095  0.24815152  1
  Bi2+  Bi125  1  0.83626763  0.53506481  0.71316303  1
  Bi2+  Bi126  1  0.89448532  0.82398068  0.19860661  1
  Bi2+  Bi127  1  0.88019598  0.75420002  0.70800191  1
  S2-  S128  1  0.01466994  0.05925063  0.14690400  1
  S2-  S129  1  0.07811934  0.12327992  0.64508598  1
  S2-  S130  1  0.02904702  0.36253475  0.15667168  1
  S2-  S131  1  -0.01286286  0.35265922  0.66329766  1
  S2-  S132  1  0.01399907  0.61666461  0.16915445  1
  S2-  S133  1  0.10226235  0.60687234  0.63219031  1
  S2-  S134  1  0.06158829  0.84719207  0.16323844  1
  S2-  S135  1  0.07820261  0.85565469  0.64221715  1
  S2-  S136  1  0.23915211  0.21184073  0.14686664  1
  S2-  S137  1  0.27500533  0.19130360  0.68371440  1
  S2-  S138  1  0.23139759  0.37392305  0.22322814  1
  S2-  S139  1  0.19744312  0.39285281  0.64702102  1
  S2-  S140  1  0.25144538  0.53190729  0.15572685  1
  S2-  S141  1  0.25645169  0.74776303  0.64060651  1
  S2-  S142  1  0.26099886  0.75768849  0.14306448  1
  S2-  S143  1  0.25620203  0.97742727  0.65066244  1
  S2-  S144  1  0.46650063  0.12608249  0.15390615  1
  S2-  S145  1  0.52614805  0.15860388  0.67944808  1
  S2-  S146  1  0.41879068  0.36409486  0.15085878  1
  S2-  S147  1  0.51278693  0.36524555  0.66988922  1
  S2-  S148  1  0.47754833  0.57507395  0.16912680  1
  S2-  S149  1  0.51049208  0.74288560  0.64262937  1
  S2-  S150  1  0.50242151  0.78484863  0.13501699  1
  S2-  S151  1  0.50091098  0.97335767  0.64918020  1
  S2-  S152  1  0.75159795  0.10546923  0.14330691  1
  S2-  S153  1  0.75532015  0.13516206  0.66575771  1
  S2-  S154  1  0.78058727  0.37896505  0.15764874  1
  S2-  S155  1  0.75617697  0.39752900  0.65626505  1
  S2-  S156  1  0.74171631  0.62703229  0.16021192  1
  S2-  S157  1  0.88105187  0.63330858  0.63170465  1
  S2-  S158  1  0.74451048  0.86635710  0.14376921  1
  S2-  S159  1  0.70974131  0.89031542  0.64718888  1
  S2-  S160  1  0.12120108  -0.09737274  0.35380734  1
  S2-  S161  1  0.21720125  0.01697001  0.84952147  1
  S2-  S162  1  0.12224178  0.33953874  0.35444777  1
  S2-  S163  1  0.15678784  0.25652832  0.83457841  1
  S2-  S164  1  0.12537158  0.52622890  0.31383457  1
  S2-  S165  1  0.11023994  0.50945311  0.85194208  1
  S2-  S166  1  0.09769321  0.71712454  0.31789048  1
  S2-  S167  1  0.12814105  0.76690950  0.84529393  1
  S2-  S168  1  0.34927514  0.01597430  0.35298990  1
  S2-  S169  1  0.38182982  0.13815096  0.85120428  1
  S2-  S170  1  0.41909726  0.26670201  0.36118495  1
  S2-  S171  1  0.39449934  0.37093452  0.85215606  1
  S2-  S172  1  0.36078028  0.50642598  0.33477645  1
  S2-  S173  1  0.36094157  0.60070114  0.85986104  1
  S2-  S174  1  0.31963263  0.77560686  0.35404330  1
  S2-  S175  1  0.37162724  0.87914600  0.85217310  1
  S2-  S176  1  0.57017530  -0.02828147  0.34222198  1
  S2-  S177  1  0.57981279  -0.00086638  0.83500856  1
  S2-  S178  1  0.62380616  0.18943187  0.35313138  1
  S2-  S179  1  0.62550592  0.22200817  0.83095409  1
  S2-  S180  1  0.65833245  0.48508533  0.35342291  1
  S2-  S181  1  0.62926129  0.48760639  0.85239109  1
  S2-  S182  1  0.61740744  0.73279843  0.34030755  1
  S2-  S183  1  0.54131601  0.73711874  0.85203143  1
  S2-  S184  1  0.85124305  -0.03007336  0.34717687  1
  S2-  S185  1  1.00060420  -0.02211126  0.86025812  1
  S2-  S186  1  0.85009553  0.27500994  0.34512587  1
  S2-  S187  1  0.91626797  0.25053905  0.84723825  1
  S2-  S188  1  0.91493116  0.48929797  0.33290891  1
  S2-  S189  1  0.88561888  0.46889832  0.84889220  1
  S2-  S190  1  0.86162359  0.72010321  0.32805149  1
  S2-  S191  1  0.88194436  0.69385870  0.84595791  1
  S2-  S192  1  -0.00327608  0.12237392  0.45136743  1
  S2-  S193  1  0.00431628  0.13167720  0.94979986  1
  S2-  S194  1  -0.00626579  0.37164783  0.45329398  1
  S2-  S195  1  0.00286535  0.38125206  0.95513780  1
  S2-  S196  1  -0.00453876  0.62309382  0.44062150  1
  S2-  S197  1  0.00288390  0.62415492  0.96001058  1
  S2-  S198  1  -0.00664584  0.87581572  0.44923731  1
  S2-  S199  1  0.00149727  0.87423273  0.96260925  1
  S2-  S200  1  0.24917288  0.12283913  0.46564677  1
  S2-  S201  1  0.24870254  0.13049647  0.95284201  1
  S2-  S202  1  0.25143620  0.37121634  0.45088701  1
  S2-  S203  1  0.25020807  0.38241082  0.94715051  1
  S2-  S204  1  0.24403187  0.62142784  0.44820773  1
  S2-  S205  1  0.24783190  0.62686742  0.96008146  1
  S2-  S206  1  0.25008580  0.87665766  0.46165893  1
  S2-  S207  1  0.24960954  0.87641333  0.95501457  1
  S2-  S208  1  0.49558078  0.12010277  0.46815245  1
  S2-  S209  1  0.50319468  0.12757374  0.94799806  1
  S2-  S210  1  0.49633663  0.37674477  0.46205106  1
  S2-  S211  1  0.50394822  0.38240834  0.95719125  1
  S2-  S212  1  0.49611370  0.62369026  0.45727600  1
  S2-  S213  1  0.50736417  0.62532637  0.96114483  1
  S2-  S214  1  0.49585172  0.87398143  0.45679554  1
  S2-  S215  1  0.50670668  0.87938782  0.94941293  1
  S2-  S216  1  0.74317512  0.12311427  0.45783486  1
  S2-  S217  1  0.75307652  0.12963574  0.94146146  1
  S2-  S218  1  0.74026068  0.37058495  0.45572699  1
  S2-  S219  1  0.75341363  0.38169938  0.95316723  1
  S2-  S220  1  0.74494977  0.62513245  0.45518429  1
  S2-  S221  1  0.75166319  0.62642654  0.95281410  1
  S2-  S222  1  0.74106522  0.87536739  0.44678422  1
  S2-  S223  1  0.75233519  0.87612784  0.93970607  1
  S2-  S224  1  0.13142729  0.00147926  0.04407148  1
  S2-  S225  1  0.11943417  -0.00231145  0.54357249  1
  S2-  S226  1  0.12931000  0.26017402  0.04250022  1
  S2-  S227  1  0.12322563  0.24965114  0.54395377  1
  S2-  S228  1  0.12634638  0.49946821  0.05441889  1
  S2-  S229  1  0.12240812  0.49586627  0.52977153  1
  S2-  S230  1  0.12077829  0.75457320  0.04871856  1
  S2-  S231  1  0.11873921  0.74948973  0.53071123  1
  S2-  S232  1  0.37590874  0.00144254  0.03698553  1
  S2-  S233  1  0.36846787  -0.00466253  0.55323053  1
  S2-  S234  1  0.37642102  0.25459514  0.03963590  1
  S2-  S235  1  0.37257799  0.24757396  0.56240616  1
  S2-  S236  1  0.37763450  0.50427730  0.04725938  1
  S2-  S237  1  0.37237587  0.50458238  0.54536521  1
  S2-  S238  1  0.37871717  0.75495464  0.03367033  1
  S2-  S239  1  0.37096457  0.74627872  0.54643350  1
  S2-  S240  1  0.62778844  0.00203419  0.03960284  1
  S2-  S241  1  0.62274851  -0.00312961  0.54438469  1
  S2-  S242  1  0.62588625  0.25492844  0.04117952  1
  S2-  S243  1  0.61928482  0.25015102  0.55444310  1
  S2-  S244  1  0.62644419  0.50406722  0.05540011  1
  S2-  S245  1  0.62444868  0.50235395  0.55461930  1
  S2-  S246  1  0.63333006  0.75419050  0.03941407  1
  S2-  S247  1  0.62822900  0.74478119  0.54423366  1
  S2-  S248  1  0.87776318  0.00619149  0.03894356  1
  S2-  S249  1  0.87124801  -0.00264283  0.55112581  1
  S2-  S250  1  0.87838166  0.25553297  0.04977131  1
  S2-  S251  1  0.87092307  0.24992523  0.55255690  1
  S2-  S252  1  0.87873259  0.50260661  0.05158102  1
  S2-  S253  1  0.86943037  0.49252318  0.53869977  1
  S2-  S254  1  0.87925020  0.75151960  0.04981519  1
  S2-  S255  1  0.86913560  0.75435465  0.53557503  1
