# generated using pymatgen
data_La12Ce14Pr13Nd13Sm12(BiS2)64
_symmetry_space_group_name_H-M   'P 1'
_cell_length_a   16.17466696
_cell_length_b   16.19363991
_cell_length_c   27.17156805
_cell_angle_alpha   90.00676570
_cell_angle_beta   89.88501800
_cell_angle_gamma   89.98314908
_symmetry_Int_Tables_number   1
_chemical_formula_structural   La12Ce14Pr13Nd13Sm12(BiS2)64
_chemical_formula_sum   'La12 Ce14 Pr13 Nd13 Sm12 Bi64 S128'
_cell_volume   7116.94534455
_cell_formula_units_Z   1
loop_
 _symmetry_equiv_pos_site_id
 _symmetry_equiv_pos_as_xyz
  1  'x, y, z'
loop_
 _atom_type_symbol
 _atom_type_oxidation_number
  La3+  3.0
  Ce3+  3.0
  Pr3+  3.0
  Nd3+  3.0
  Sm3+  3.0
  Bi2+  2.0
  S2-  -2.0
loop_
 _atom_site_type_symbol
 _atom_site_label
 _atom_site_symmetry_multiplicity
 _atom_site_fract_x
 _atom_site_fract_y
 _atom_site_fract_z
 _atom_site_occupancy
  La3+  La0  1  0.49330055  0.61385759  0.57466342  1
  La3+  La1  1  0.61544706  -0.01716652  0.42176971  1
  La3+  La2  1  0.61947884  0.23615222  0.44345281  1
  La3+  La3  1  0.87232032  0.73507694  0.42383824  1
  La3+  La4  1  0.74569775  0.11856918  0.09122731  1
  La3+  La5  1  0.74134044  0.36791366  0.60939104  1
  La3+  La6  1  0.73995991  0.10839724  0.57077340  1
  La3+  La7  1  0.62844223  0.50698861  0.90193113  1
  La3+  La8  1  0.13189508  0.23496849  0.40329286  1
  La3+  La9  1  0.48902731  0.10720155  0.56945019  1
  La3+  La10  1  -0.00016765  0.38609997  0.07253761  1
  La3+  La11  1  0.01027787  0.12730366  0.08157208  1
  Ce3+  Ce12  1  0.61894540  0.49075560  0.44422063  1
  Ce3+  Ce13  1  0.74271471  0.86415551  0.54930498  1
  Ce3+  Ce14  1  -0.00941751  0.61080155  0.55685110  1
  Ce3+  Ce15  1  0.12090315  -0.00947916  0.43493180  1
  Ce3+  Ce16  1  0.11720097  0.73496781  0.43518757  1
  Ce3+  Ce17  1  0.00114928  0.87631891  0.06116506  1
  Ce3+  Ce18  1  0.87591763  0.24901095  0.95179365  1
  Ce3+  Ce19  1  0.87563291  0.00375033  0.95174158  1
  Ce3+  Ce20  1  0.49817605  0.87583998  0.06224746  1
  Ce3+  Ce21  1  0.63290582  0.00239298  0.94288720  1
  Ce3+  Ce22  1  0.49473443  0.36342015  0.56123069  1
  Ce3+  Ce23  1  0.12729581  0.00111649  0.94512363  1
  Ce3+  Ce24  1  0.00176546  0.62873523  0.06105755  1
  Ce3+  Ce25  1  0.25462623  0.87755604  0.06339685  1
  Pr3+  Pr26  1  0.24127938  0.61272489  0.56856021  1
  Pr3+  Pr27  1  0.60890394  0.72879126  0.42188984  1
  Pr3+  Pr28  1  0.50604359  0.37736466  0.05333198  1
  Pr3+  Pr29  1  0.38064861  0.25122141  0.94006157  1
  Pr3+  Pr30  1  0.23968131  0.35947573  0.56090632  1
  Pr3+  Pr31  1  -0.01105253  0.35793084  0.55672117  1
  Pr3+  Pr32  1  0.37909318  0.00120958  0.94065470  1
  Pr3+  Pr33  1  -0.00904569  0.86296115  0.55079165  1
  Pr3+  Pr34  1  0.12253043  0.49975161  0.93102846  1
  Pr3+  Pr35  1  0.37926349  0.74830048  0.94238213  1
  Pr3+  Pr36  1  0.24054485  0.86139704  0.55524642  1
  Pr3+  Pr37  1  0.62900537  0.75095861  0.93589612  1
  Pr3+  Pr38  1  0.36796762  -0.00926430  0.43071400  1
  Nd3+  Nd39  1  0.75273116  0.37749494  0.05849292  1
  Nd3+  Nd40  1  0.86701838  0.23798465  0.43642196  1
  Nd3+  Nd41  1  0.37954911  0.49923131  0.94068112  1
  Nd3+  Nd42  1  0.87027068  0.48312592  0.43887968  1
  Nd3+  Nd43  1  0.49360615  0.85910657  0.55225659  1
  Nd3+  Nd44  1  0.36738056  0.48746878  0.44360481  1
  Nd3+  Nd45  1  0.50429500  0.62439721  0.05954208  1
  Nd3+  Nd46  1  0.75232502  0.62879569  0.06570893  1
  Nd3+  Nd47  1  0.12876206  0.75309466  0.94767110  1
  Nd3+  Nd48  1  0.12495159  0.25079695  0.94663469  1
  Nd3+  Nd49  1  0.87829916  0.50248451  0.93486690  1
  Nd3+  Nd50  1  0.86779547  -0.00665177  0.42297278  1
  Nd3+  Nd51  1  0.24249351  0.10979892  0.56576489  1
  Sm3+  Sm52  1  0.36272923  0.73392487  0.43710261  1
  Sm3+  Sm53  1  0.74709739  0.87087243  0.07133760  1
  Sm3+  Sm54  1  0.25298953  0.12837635  0.06084012  1
  Sm3+  Sm55  1  0.63206571  0.24987492  0.94437806  1
  Sm3+  Sm56  1  0.75014207  0.61210428  0.56186644  1
  Sm3+  Sm57  1  -0.01117992  0.11335726  0.55006599  1
  Sm3+  Sm58  1  0.25140840  0.62434689  0.05494703  1
  Sm3+  Sm59  1  0.11878708  0.48483493  0.44255471  1
  Sm3+  Sm60  1  0.50335881  0.12694656  0.05968089  1
  Sm3+  Sm61  1  0.36914873  0.23724169  0.44476896  1
  Sm3+  Sm62  1  0.25301054  0.37739907  0.05413627  1
  Sm3+  Sm63  1  0.87567058  0.75126034  0.94342944  1
  Bi2+  Bi64  1  0.00913230  0.13043512  0.28688096  1
  Bi2+  Bi65  1  -0.00377106  0.09227078  0.75696881  1
  Bi2+  Bi66  1  -0.01845225  0.39971701  0.29454468  1
  Bi2+  Bi67  1  0.01745933  0.36288630  0.78809195  1
  Bi2+  Bi68  1  -0.05608898  0.64587903  0.28921356  1
  Bi2+  Bi69  1  0.03773173  0.62238796  0.78779989  1
  Bi2+  Bi70  1  0.08943598  0.88134960  0.27363672  1
  Bi2+  Bi71  1  0.06379398  0.90232402  0.76531586  1
  Bi2+  Bi72  1  0.27440122  0.09212392  0.28762874  1
  Bi2+  Bi73  1  0.19911105  0.14991545  0.78564678  1
  Bi2+  Bi74  1  0.33809387  0.39130861  0.24636478  1
  Bi2+  Bi75  1  0.19686735  0.45486675  0.79442311  1
  Bi2+  Bi76  1  0.23543835  0.70024868  0.32512969  1
  Bi2+  Bi77  1  0.24165267  0.64970108  0.78651977  1
  Bi2+  Bi78  1  0.26220645  0.89824448  0.32558371  1
  Bi2+  Bi79  1  0.24093073  0.85558012  0.80015902  1
  Bi2+  Bi80  1  0.45996406  0.18700055  0.31588522  1
  Bi2+  Bi81  1  0.50006677  0.13124276  0.81072550  1
  Bi2+  Bi82  1  0.51516194  0.39134869  0.29914804  1
  Bi2+  Bi83  1  0.43777905  0.39412724  0.78118658  1
  Bi2+  Bi84  1  0.47126010  0.58652893  0.30296667  1
  Bi2+  Bi85  1  0.48879725  0.65367302  0.78750462  1
  Bi2+  Bi86  1  0.46316424  0.87834460  0.29631831  1
  Bi2+  Bi87  1  0.52714746  0.84515972  0.77600218  1
  Bi2+  Bi88  1  0.76148479  0.14501846  0.29671600  1
  Bi2+  Bi89  1  0.75545174  0.10767284  0.81341572  1
  Bi2+  Bi90  1  0.70597083  0.40391699  0.25997850  1
  Bi2+  Bi91  1  0.75702468  0.35202421  0.81432048  1
  Bi2+  Bi92  1  0.70427696  0.60444760  0.27061079  1
  Bi2+  Bi93  1  0.76785222  0.64698924  0.78370467  1
  Bi2+  Bi94  1  0.73706643  0.87047047  0.27956308  1
  Bi2+  Bi95  1  0.78559650  0.86053935  0.79176249  1
  Bi2+  Bi96  1  0.19810084  -0.01950008  0.20031124  1
  Bi2+  Bi97  1  0.15390327  0.03299909  0.69335923  1
  Bi2+  Bi98  1  0.16135308  0.27214263  0.20566367  1
  Bi2+  Bi99  1  0.15764206  0.30671535  0.71152052  1
  Bi2+  Bi100  1  0.16499467  0.55709709  0.26077316  1
  Bi2+  Bi101  1  0.13376492  0.55375269  0.68244754  1
  Bi2+  Bi102  1  0.14037684  0.72985066  0.21114787  1
  Bi2+  Bi103  1  0.13466126  0.74680160  0.70180779  1
  Bi2+  Bi104  1  0.41092502  0.01258019  0.21037790  1
  Bi2+  Bi105  1  0.33463680  0.02595928  0.73662016  1
  Bi2+  Bi106  1  0.37176523  0.20243117  0.20114885  1
  Bi2+  Bi107  1  0.34187855  0.22958931  0.71635976  1
  Bi2+  Bi108  1  0.36429881  0.57255518  0.20206663  1
  Bi2+  Bi109  1  0.33399126  0.51483206  0.71341510  1
  Bi2+  Bi110  1  0.33960381  0.76441033  0.23326103  1
  Bi2+  Bi111  1  0.38697854  0.78861667  0.69957302  1
  Bi2+  Bi112  1  0.61494437  0.00117528  0.21482335  1
  Bi2+  Bi113  1  0.61380682  -0.02591985  0.70809828  1
  Bi2+  Bi114  1  0.56268045  0.24909053  0.21937517  1
  Bi2+  Bi115  1  0.61812011  0.24157113  0.71276317  1
  Bi2+  Bi116  1  0.58367159  0.50651410  0.19296333  1
  Bi2+  Bi117  1  0.61536939  0.50169832  0.71133302  1
  Bi2+  Bi118  1  0.61935162  0.75381396  0.21479052  1
  Bi2+  Bi119  1  0.67205143  0.76623009  0.70635682  1
  Bi2+  Bi120  1  0.88034441  -0.02762851  0.22109540  1
  Bi2+  Bi121  1  0.86213154  -0.01899348  0.70254826  1
  Bi2+  Bi122  1  0.88863898  0.26792653  0.20535427  1
  Bi2+  Bi123  1  0.89382547  0.23531634  0.71211886  1
  Bi2+  Bi124  1  0.82314117  0.53463456  0.18903913  1
  Bi2+  Bi125  1  0.95276462  0.50071038  0.71310708  1
  Bi2+  Bi126  1  0.91087370  0.71366300  0.18663917  1
  Bi2+  Bi127  1  0.87077980  0.75828517  0.70460600  1
  S2-  S128  1  -0.03686269  0.11416693  0.18109607  1
  S2-  S129  1  -0.04435752  0.11364624  0.64769995  1
  S2-  S130  1  0.03608133  0.35178544  0.16941832  1
  S2-  S131  1  -0.08632860  0.36437508  0.64794696  1
  S2-  S132  1  -0.01663919  0.55761206  0.14804009  1
  S2-  S133  1  -0.08784383  0.62709182  0.64251433  1
  S2-  S134  1  -0.02841258  0.87486573  0.15814175  1
  S2-  S135  1  -0.03422773  0.87342198  0.65042265  1
  S2-  S136  1  0.16522673  0.12436662  0.14563447  1
  S2-  S137  1  0.35616528  0.10336305  0.64186497  1
  S2-  S138  1  0.25457022  0.37593852  0.15201715  1
  S2-  S139  1  0.30366725  0.36336589  0.65493273  1
  S2-  S140  1  0.21773620  0.60576566  0.15091102  1
  S2-  S141  1  0.35614731  0.63864507  0.64419132  1
  S2-  S142  1  0.33055248  0.88046871  0.15087342  1
  S2-  S143  1  0.24417024  0.85405809  0.65605944  1
  S2-  S144  1  0.58631572  0.12422850  0.14513183  1
  S2-  S145  1  0.57742316  0.10860491  0.65788838  1
  S2-  S146  1  0.50644613  0.37270117  0.15367575  1
  S2-  S147  1  0.55194660  0.36632162  0.65449494  1
  S2-  S148  1  0.50575379  0.65836307  0.15742177  1
  S2-  S149  1  0.56210347  0.64168866  0.66845526  1
  S2-  S150  1  0.56294677  0.87768797  0.15288615  1
  S2-  S151  1  0.48268380  0.89557136  0.65018115  1
  S2-  S152  1  0.76677445  0.17063932  0.19111209  1
  S2-  S153  1  0.75421148  0.20700310  0.65569424  1
  S2-  S154  1  0.77523534  0.37437850  0.15765328  1
  S2-  S155  1  0.73464134  0.37166051  0.72097065  1
  S2-  S156  1  0.74962576  0.74338511  0.14321835  1
  S2-  S157  1  0.73035014  0.52885973  0.64743313  1
  S2-  S158  1  0.75632152  0.97059864  0.15384758  1
  S2-  S159  1  0.73942759  0.96282915  0.63363181  1
  S2-  S160  1  0.12856365  0.08299815  0.35073303  1
  S2-  S161  1  0.14809749  -0.02242959  0.84925952  1
  S2-  S162  1  0.10227361  0.28413856  0.30649107  1
  S2-  S163  1  0.12173012  0.26249877  0.84801733  1
  S2-  S164  1  0.10349654  0.48667753  0.34383965  1
  S2-  S165  1  0.00029184  0.49902704  0.85913449  1
  S2-  S166  1  0.01673877  0.73641844  0.35491573  1
  S2-  S167  1  0.12719977  0.74133428  0.84901042  1
  S2-  S168  1  0.48155832  0.01989287  0.35281727  1
  S2-  S169  1  0.38585816  0.03084274  0.84136250  1
  S2-  S170  1  0.30056690  0.22912116  0.35490218  1
  S2-  S171  1  0.39627193  0.26179920  0.84036450  1
  S2-  S172  1  0.35789423  0.46546903  0.34455127  1
  S2-  S173  1  0.42066837  0.52836413  0.84614218  1
  S2-  S174  1  0.45920577  0.72231856  0.35576123  1
  S2-  S175  1  0.41256370  0.77585231  0.84538868  1
  S2-  S176  1  0.74171334  0.01457165  0.35068963  1
  S2-  S177  1  0.61810662  0.01487864  0.84455516  1
  S2-  S178  1  0.63413032  0.20569309  0.34380938  1
  S2-  S179  1  0.63702845  0.22719769  0.84583003  1
  S2-  S180  1  0.61973208  0.58266162  0.36065517  1
  S2-  S181  1  0.59614375  0.42668958  0.81170363  1
  S2-  S182  1  0.61675283  0.84949908  0.34609377  1
  S2-  S183  1  0.62444079  0.65978766  0.84910766  1
  S2-  S184  1  0.94192321  -0.00459064  0.32454328  1
  S2-  S185  1  0.85262777  -0.00552170  0.85361677  1
  S2-  S186  1  0.89144354  0.24758736  0.33500210  1
  S2-  S187  1  0.86393559  0.22516507  0.85407519  1
  S2-  S188  1  0.87848063  0.50219487  0.33900481  1
  S2-  S189  1  0.78299103  0.50618737  0.85011426  1
  S2-  S190  1  0.80670180  0.73738657  0.32872408  1
  S2-  S191  1  0.87244006  0.73702466  0.84501160  1
  S2-  S192  1  -0.00399360  0.11820708  0.44612461  1
  S2-  S193  1  0.00393146  0.12547415  0.96320695  1
  S2-  S194  1  0.00083139  0.35618546  0.44869760  1
  S2-  S195  1  0.00090675  0.37374174  0.96167743  1
  S2-  S196  1  -0.00399663  0.60581050  0.45201068  1
  S2-  S197  1  0.00230169  0.63150238  0.95527544  1
  S2-  S198  1  -0.00505122  0.86969377  0.44491411  1
  S2-  S199  1  0.00104334  0.87454170  0.95296749  1
  S2-  S200  1  0.24446585  0.11447464  0.45942331  1
  S2-  S201  1  0.25247874  0.12773888  0.95476560  1
  S2-  S202  1  0.24035253  0.36046221  0.45334527  1
  S2-  S203  1  0.25208898  0.37651354  0.94839264  1
  S2-  S204  1  0.24043376  0.60868114  0.45837843  1
  S2-  S205  1  0.25172895  0.62299512  0.94884232  1
  S2-  S206  1  0.24163971  0.86117068  0.44949445  1
  S2-  S207  1  0.25548372  0.87542955  0.95587375  1
  S2-  S208  1  0.48969558  0.11608751  0.45980313  1
  S2-  S209  1  0.50586391  0.12767749  0.95544236  1
  S2-  S210  1  0.49117094  0.36323934  0.45247307  1
  S2-  S211  1  0.50941286  0.37737646  0.94667870  1
  S2-  S212  1  0.48802988  0.61013748  0.46352114  1
  S2-  S213  1  0.50515995  0.62232015  0.95401032  1
  S2-  S214  1  0.48450277  0.85817807  0.44936772  1
  S2-  S215  1  0.50380838  0.87657873  0.95347290  1
  S2-  S216  1  0.74596968  0.11420221  0.45769162  1
  S2-  S217  1  0.75129516  0.12679002  0.96485313  1
  S2-  S218  1  0.74312638  0.36473431  0.43697116  1
  S2-  S219  1  0.75002101  0.37698578  0.95252277  1
  S2-  S220  1  0.74945131  0.61033859  0.45466733  1
  S2-  S221  1  0.75330302  0.62806568  0.95788867  1
  S2-  S222  1  0.74527574  0.85782450  0.44600378  1
  S2-  S223  1  0.75352320  0.87408221  0.95925605  1
  S2-  S224  1  0.12968296  -0.00088521  0.05016225  1
  S2-  S225  1  0.11581664  -0.00936844  0.54428331  1
  S2-  S226  1  0.12968875  0.25638138  0.05101199  1
  S2-  S227  1  0.11611707  0.23206378  0.55801241  1
  S2-  S228  1  0.13019678  0.50079571  0.04056847  1
  S2-  S229  1  0.11592930  0.48495693  0.54791158  1
  S2-  S230  1  0.12998363  0.75165337  0.05415126  1
  S2-  S231  1  0.11583547  0.73547954  0.54487709  1
  S2-  S232  1  0.37742358  0.00756783  0.04841778  1
  S2-  S233  1  0.36530151  -0.01825224  0.53928081  1
  S2-  S234  1  0.37760106  0.25114045  0.04787037  1
  S2-  S235  1  0.36752123  0.23985019  0.54778672  1
  S2-  S236  1  0.37640628  0.50141962  0.04769246  1
  S2-  S237  1  0.36581200  0.48572516  0.54988447  1
  S2-  S238  1  0.37568976  0.74563117  0.04918642  1
  S2-  S239  1  0.36543667  0.73855689  0.54098100  1
  S2-  S240  1  0.62473444  -0.00215522  0.04703297  1
  S2-  S241  1  0.61307332  -0.01564075  0.53478878  1
  S2-  S242  1  0.62956285  0.25090908  0.04933056  1
  S2-  S243  1  0.61955172  0.24254495  0.55039362  1
  S2-  S244  1  0.63067690  0.50307485  0.05303681  1
  S2-  S245  1  0.62013200  0.48748566  0.54735714  1
  S2-  S246  1  0.62399199  0.75143013  0.04279504  1
  S2-  S247  1  0.62117989  0.73597971  0.54438586  1
  S2-  S248  1  0.87888292  0.00235378  0.05616358  1
  S2-  S249  1  0.87067937  -0.01140675  0.53306755  1
  S2-  S250  1  0.87789532  0.24876631  0.05949908  1
  S2-  S251  1  0.86623014  0.23576919  0.54174676  1
  S2-  S252  1  0.87340648  0.50493090  0.04263298  1
  S2-  S253  1  0.86564283  0.48385888  0.54346180  1
  S2-  S254  1  0.87814375  0.75348960  0.04672538  1
  S2-  S255  1  0.86757743  0.73859833  0.53638829  1
