# generated using pymatgen
data_La12Ce14Pr13Nd13Sm12(BiS2)64
_symmetry_space_group_name_H-M   'P 1'
_cell_length_a   16.20280698
_cell_length_b   16.18673143
_cell_length_c   27.09225912
_cell_angle_alpha   89.89372133
_cell_angle_beta   90.12999851
_cell_angle_gamma   90.05966243
_symmetry_Int_Tables_number   1
_chemical_formula_structural   La12Ce14Pr13Nd13Sm12(BiS2)64
_chemical_formula_sum   'La12 Ce14 Pr13 Nd13 Sm12 Bi64 S128'
_cell_volume   7105.46560685
_cell_formula_units_Z   1
loop_
 _symmetry_equiv_pos_site_id
 _symmetry_equiv_pos_as_xyz
  1  'x, y, z'
loop_
 _atom_type_symbol
 _atom_type_oxidation_number
  La3+  3.0
  Ce3+  3.0
  Pr3+  3.0
  Nd3+  3.0
  Sm3+  3.0
  Bi2+  2.0
  S2-  -2.0
loop_
 _atom_site_type_symbol
 _atom_site_label
 _atom_site_symmetry_multiplicity
 _atom_site_fract_x
 _atom_site_fract_y
 _atom_site_fract_z
 _atom_site_occupancy
  La3+  La0  1  0.36614106  0.74923167  0.42403862  1
  La3+  La1  1  -0.00010156  0.13463879  0.60328832  1
  La3+  La2  1  0.49450634  0.62425113  0.07966943  1
  La3+  La3  1  0.86626174  0.50227164  0.93480824  1
  La3+  La4  1  0.25340479  0.37029806  0.56632857  1
  La3+  La5  1  0.86251759  0.24990947  0.90272902  1
  La3+  La6  1  0.25916374  0.12068459  0.56943746  1
  La3+  La7  1  0.36716059  0.26024982  0.41155243  1
  La3+  La8  1  0.75264470  0.61761692  0.08445973  1
  La3+  La9  1  0.63132954  0.25215017  0.42758220  1
  La3+  La10  1  0.74740167  0.87027448  0.07489441  1
  La3+  La11  1  0.62317629  0.74844586  0.94398119  1
  Ce3+  Ce12  1  0.50027414  0.12952311  0.55386458  1
  Ce3+  Ce13  1  -0.00259928  0.87447980  0.05136002  1
  Ce3+  Ce14  1  0.37113140  0.24822462  0.93797087  1
  Ce3+  Ce15  1  0.12584898  0.00398772  0.44860996  1
  Ce3+  Ce16  1  0.75054657  0.87805672  0.55983934  1
  Ce3+  Ce17  1  0.62689290  0.75012650  0.43591033  1
  Ce3+  Ce18  1  0.74806947  0.37024603  0.06449949  1
  Ce3+  Ce19  1  0.12092429  0.49646071  0.93447777  1
  Ce3+  Ce20  1  0.50257457  0.87366264  0.54751248  1
  Ce3+  Ce21  1  0.62120483  -0.00041602  0.94926109  1
  Ce3+  Ce22  1  -0.00011547  0.37275705  0.55775545  1
  Ce3+  Ce23  1  -0.00295041  0.12634564  0.04519071  1
  Ce3+  Ce24  1  0.87166332  0.74666260  0.93948915  1
  Ce3+  Ce25  1  0.75214663  0.12909264  0.56360814  1
  Pr3+  Pr26  1  0.25482200  0.87313410  0.56649320  1
  Pr3+  Pr27  1  0.87078561  -0.00381430  0.93479727  1
  Pr3+  Pr28  1  0.12469755  0.75252898  0.44544968  1
  Pr3+  Pr29  1  0.25444417  0.62751249  0.57378785  1
  Pr3+  Pr30  1  0.62612236  0.00266027  0.43683483  1
  Pr3+  Pr31  1  0.24673353  0.62170653  0.07397431  1
  Pr3+  Pr32  1  0.12308459  0.24978939  0.43645277  1
  Pr3+  Pr33  1  0.12180882  0.25465992  0.92052040  1
  Pr3+  Pr34  1  0.13699806  0.00066985  0.90450417  1
  Pr3+  Pr35  1  0.48878690  0.12274583  0.07444858  1
  Pr3+  Pr36  1  0.87722682  0.25078127  0.43632049  1
  Pr3+  Pr37  1  -0.00354637  0.36234587  0.06083165  1
  Pr3+  Pr38  1  0.62210503  0.24953822  0.94299526  1
  Nd3+  Nd39  1  0.37075595  0.50110722  0.94532073  1
  Nd3+  Nd40  1  0.75077222  0.37843343  0.56188252  1
  Nd3+  Nd41  1  0.12164910  0.74644990  0.95044618  1
  Nd3+  Nd42  1  0.87630862  0.50466840  0.43928120  1
  Nd3+  Nd43  1  0.62540690  0.50393061  0.43536043  1
  Nd3+  Nd44  1  0.75392645  0.62891162  0.56242426  1
  Nd3+  Nd45  1  0.49668600  0.37077196  0.06117227  1
  Nd3+  Nd46  1  -0.00217624  0.61037312  0.06754620  1
  Nd3+  Nd47  1  0.36747965  0.74767478  0.94527298  1
  Nd3+  Nd48  1  0.37341688  -0.00042704  0.93879831  1
  Nd3+  Nd49  1  0.24530188  0.37056905  0.05723543  1
  Nd3+  Nd50  1  0.61827514  0.50665223  0.94431044  1
  Nd3+  Nd51  1  0.37429084  0.00424005  0.43406337  1
  Sm3+  Sm52  1  0.12666398  0.50348824  0.44837566  1
  Sm3+  Sm53  1  0.74769506  0.12277398  0.05988412  1
  Sm3+  Sm54  1  0.24509346  0.12408985  0.05731653  1
  Sm3+  Sm55  1  0.24294404  0.87542557  0.05945606  1
  Sm3+  Sm56  1  0.87622625  0.00097440  0.44877071  1
  Sm3+  Sm57  1  0.87552809  0.75197756  0.44321423  1
  Sm3+  Sm58  1  0.50308639  0.62583359  0.55250288  1
  Sm3+  Sm59  1  0.00096454  0.62475925  0.55805286  1
  Sm3+  Sm60  1  0.50297713  0.37541991  0.54967823  1
  Sm3+  Sm61  1  0.00220168  0.87747397  0.56381351  1
  Sm3+  Sm62  1  0.37368899  0.50268360  0.44731413  1
  Sm3+  Sm63  1  0.49324851  0.87423855  0.05935093  1
  Bi2+  Bi64  1  -0.00522232  0.18663223  0.33068188  1
  Bi2+  Bi65  1  -0.01012663  0.09002253  0.80825923  1
  Bi2+  Bi66  1  -0.00610407  0.34536356  0.26817309  1
  Bi2+  Bi67  1  -0.00123954  0.45027905  0.78550642  1
  Bi2+  Bi68  1  0.01308102  0.61952162  0.29437118  1
  Bi2+  Bi69  1  0.02134754  0.64242124  0.79812652  1
  Bi2+  Bi70  1  0.02248373  0.88459674  0.27611783  1
  Bi2+  Bi71  1  -0.03996865  0.85590905  0.76429986  1
  Bi2+  Bi72  1  0.17164386  0.12819210  0.30266387  1
  Bi2+  Bi73  1  0.29627022  0.11939460  0.79000213  1
  Bi2+  Bi74  1  0.19015568  0.37432641  0.26619636  1
  Bi2+  Bi75  1  0.27946148  0.41132771  0.79619371  1
  Bi2+  Bi76  1  0.26653477  0.60102847  0.30987819  1
  Bi2+  Bi77  1  0.21395779  0.59031596  0.81709631  1
  Bi2+  Bi78  1  0.21745246  0.86234669  0.28758881  1
  Bi2+  Bi79  1  0.26427693  0.83300258  0.79173279  1
  Bi2+  Bi80  1  0.49555473  0.10672687  0.29678710  1
  Bi2+  Bi81  1  0.49860290  0.12811706  0.78867566  1
  Bi2+  Bi82  1  0.47100986  0.37007499  0.29073472  1
  Bi2+  Bi83  1  0.54165539  0.34046394  0.75227521  1
  Bi2+  Bi84  1  0.53020258  0.62556129  0.28566283  1
  Bi2+  Bi85  1  0.45358241  0.62461000  0.79178317  1
  Bi2+  Bi86  1  0.46092851  0.90413412  0.24862435  1
  Bi2+  Bi87  1  0.52584034  0.90543822  0.78264114  1
  Bi2+  Bi88  1  0.75378590  0.11590766  0.29645882  1
  Bi2+  Bi89  1  0.70473323  0.11556000  0.78601076  1
  Bi2+  Bi90  1  0.77745603  0.34973419  0.27007273  1
  Bi2+  Bi91  1  0.73400004  0.37555820  0.78567090  1
  Bi2+  Bi92  1  0.78041072  0.64358470  0.30532784  1
  Bi2+  Bi93  1  0.71623911  0.61340675  0.80221843  1
  Bi2+  Bi94  1  0.75219573  0.91931042  0.27618931  1
  Bi2+  Bi95  1  0.79921394  0.85371902  0.82808249  1
  Bi2+  Bi96  1  0.09583063  0.01798475  0.19915752  1
  Bi2+  Bi97  1  0.13828695  -0.01258906  0.70863346  1
  Bi2+  Bi98  1  0.13758689  0.21428978  0.20010842  1
  Bi2+  Bi99  1  0.11885341  0.24382708  0.71896551  1
  Bi2+  Bi100  1  0.15605442  0.54373087  0.19770980  1
  Bi2+  Bi101  1  0.11832173  0.52354992  0.70500222  1
  Bi2+  Bi102  1  0.11150444  0.72773105  0.22017661  1
  Bi2+  Bi103  1  0.16875568  0.71285766  0.71804432  1
  Bi2+  Bi104  1  0.29126985  -0.00713062  0.21171082  1
  Bi2+  Bi105  1  0.39997531  0.00454664  0.71570591  1
  Bi2+  Bi106  1  0.37842256  0.24932377  0.19893621  1
  Bi2+  Bi107  1  0.38796893  0.27009110  0.69886551  1
  Bi2+  Bi108  1  0.34142537  0.49887745  0.22627073  1
  Bi2+  Bi109  1  0.31236588  0.55168424  0.71064005  1
  Bi2+  Bi110  1  0.35741140  0.74515730  0.22346530  1
  Bi2+  Bi111  1  0.41791390  0.74902248  0.70790283  1
  Bi2+  Bi112  1  0.65670185  0.02345375  0.19842377  1
  Bi2+  Bi113  1  0.61087878  -0.01707327  0.68287125  1
  Bi2+  Bi114  1  0.62059203  0.27066011  0.21031691  1
  Bi2+  Bi115  1  0.60882580  0.17848524  0.69128432  1
  Bi2+  Bi116  1  0.65669314  0.49723782  0.22961768  1
  Bi2+  Bi117  1  0.58445100  0.51614013  0.70541403  1
  Bi2+  Bi118  1  0.61784819  0.76198029  0.21907709  1
  Bi2+  Bi119  1  0.67392936  0.78827304  0.74632821  1
  Bi2+  Bi120  1  0.92447196  0.05982722  0.25228022  1
  Bi2+  Bi121  1  0.79351351  -0.05113698  0.72292348  1
  Bi2+  Bi122  1  0.87012799  0.27294334  0.18530895  1
  Bi2+  Bi123  1  0.87704425  0.25277996  0.71491353  1
  Bi2+  Bi124  1  0.90180984  0.50893539  0.20717848  1
  Bi2+  Bi125  1  0.84987298  0.49944886  0.70334510  1
  Bi2+  Bi126  1  0.88608901  0.79178690  0.20436418  1
  Bi2+  Bi127  1  0.87235923  0.69201125  0.72439377  1
  S2-  S128  1  0.00872099  0.22012909  0.12918329  1
  S2-  S129  1  0.00482667  0.10711341  0.71010434  1
  S2-  S130  1  0.01867251  0.46765962  0.14361092  1
  S2-  S131  1  0.00540513  0.30296971  0.64978054  1
  S2-  S132  1  -0.09575327  0.64294199  0.15034014  1
  S2-  S133  1  -0.03659535  0.61541788  0.65316852  1
  S2-  S134  1  -0.00194661  0.87498538  0.14967189  1
  S2-  S135  1  0.02933111  0.88546402  0.66133792  1
  S2-  S136  1  0.34250916  0.11821085  0.14034351  1
  S2-  S137  1  0.16051918  0.13801209  0.65264378  1
  S2-  S138  1  0.25569017  0.33049459  0.15553507  1
  S2-  S139  1  0.24311801  0.33022480  0.66524612  1
  S2-  S140  1  0.36379854  0.62612969  0.15149223  1
  S2-  S141  1  0.27681646  0.75295108  0.64240922  1
  S2-  S142  1  0.26952059  0.85048711  0.15586873  1
  S2-  S143  1  0.26663716  0.97003444  0.65075199  1
  S2-  S144  1  0.53169298  0.14539815  0.17545363  1
  S2-  S145  1  0.40022348  0.14249597  0.63463849  1
  S2-  S146  1  0.50309396  0.36481280  0.16202697  1
  S2-  S147  1  0.50483879  0.38499678  0.64844442  1
  S2-  S148  1  0.58426792  0.61430489  0.16871878  1
  S2-  S149  1  0.50393962  0.63504329  0.65134595  1
  S2-  S150  1  0.52858816  0.87882779  0.15636503  1
  S2-  S151  1  0.49250145  0.86902374  0.64510988  1
  S2-  S152  1  0.74444283  0.16662520  0.15635270  1
  S2-  S153  1  0.83527588  0.14309534  0.64944352  1
  S2-  S154  1  0.75375528  0.47074233  0.14658825  1
  S2-  S155  1  0.77658245  0.36046317  0.66132864  1
  S2-  S156  1  0.73904306  0.75047232  0.15317419  1
  S2-  S157  1  0.71787587  0.57370272  0.65492281  1
  S2-  S158  1  0.78701709  0.95068679  0.16479578  1
  S2-  S159  1  0.76169813  0.81925982  0.65151180  1
  S2-  S160  1  0.13308936  -0.01862116  0.35117390  1
  S2-  S161  1  0.08579379  -0.06220311  0.81151805  1
  S2-  S162  1  0.21498705  0.28602764  0.35309227  1
  S2-  S163  1  0.14817540  0.14596775  0.84166046  1
  S2-  S164  1  0.11961657  0.53219266  0.35031152  1
  S2-  S165  1  0.12492779  0.39454227  0.85221408  1
  S2-  S166  1  0.21990688  0.74617972  0.36218406  1
  S2-  S167  1  0.14656222  0.74233970  0.85177011  1
  S2-  S168  1  0.39089134  -0.00875971  0.33463812  1
  S2-  S169  1  0.29215252  -0.02190799  0.85094938  1
  S2-  S170  1  0.38161323  0.22239967  0.30636714  1
  S2-  S171  1  0.33792123  0.26891280  0.84184047  1
  S2-  S172  1  0.36437216  0.47321571  0.35064359  1
  S2-  S173  1  0.40996686  0.49262737  0.84766266  1
  S2-  S174  1  0.42350121  0.72089864  0.32770365  1
  S2-  S175  1  0.37745502  0.75987279  0.84496126  1
  S2-  S176  1  0.62364372  0.00956668  0.33592412  1
  S2-  S177  1  0.60576978  0.00646036  0.85091303  1
  S2-  S178  1  0.56303361  0.25760369  0.33221490  1
  S2-  S179  1  0.70372583  0.24874102  0.85328868  1
  S2-  S180  1  0.61590485  0.49344603  0.33594408  1
  S2-  S181  1  0.65232785  0.47289142  0.84723803  1
  S2-  S182  1  0.64933962  0.74157240  0.33782392  1
  S2-  S183  1  0.58990647  0.67183828  0.85593408  1
  S2-  S184  1  0.85234062  -0.01106921  0.35095044  1
  S2-  S185  1  0.84020259  0.08670336  0.84951922  1
  S2-  S186  1  0.76771962  0.25328023  0.35682108  1
  S2-  S187  1  0.96023354  0.24632092  0.81259040  1
  S2-  S188  1  0.86042580  0.51403179  0.33953113  1
  S2-  S189  1  0.86544306  0.40744858  0.84892847  1
  S2-  S190  1  0.90025923  0.73504514  0.34574061  1
  S2-  S191  1  0.85068089  0.63761466  0.86456223  1
  S2-  S192  1  -0.00196398  0.12283204  0.45292430  1
  S2-  S193  1  0.00090712  0.12086960  0.94077040  1
  S2-  S194  1  0.00144029  0.38058731  0.44877560  1
  S2-  S195  1  -0.00574142  0.37100740  0.95222238  1
  S2-  S196  1  0.00054236  0.62761475  0.45376567  1
  S2-  S197  1  0.00020262  0.62224645  0.95865917  1
  S2-  S198  1  -0.00204182  0.87549923  0.45563850  1
  S2-  S199  1  0.00146497  0.87514788  0.94378688  1
  S2-  S200  1  0.25301746  0.12805481  0.45248467  1
  S2-  S201  1  0.24864876  0.12171679  0.95305356  1
  S2-  S202  1  0.24881875  0.38316968  0.45828721  1
  S2-  S203  1  0.25038739  0.37454243  0.95212605  1
  S2-  S204  1  0.24883399  0.62206314  0.46518760  1
  S2-  S205  1  0.24623535  0.62265038  0.96308105  1
  S2-  S206  1  0.25082295  0.87981916  0.45827496  1
  S2-  S207  1  0.24408817  0.87417520  0.95518102  1
  S2-  S208  1  0.49827683  0.13013295  0.44436716  1
  S2-  S209  1  0.49510989  0.12386089  0.95857434  1
  S2-  S210  1  0.49952377  0.37931811  0.44494207  1
  S2-  S211  1  0.49623037  0.37467953  0.95358737  1
  S2-  S212  1  0.49892950  0.62496234  0.44669696  1
  S2-  S213  1  0.49072111  0.62559932  0.96659497  1
  S2-  S214  1  0.49960974  0.87507917  0.43988850  1
  S2-  S215  1  0.49368084  0.87292517  0.95326707  1
  S2-  S216  1  0.75314319  0.12240922  0.45636478  1
  S2-  S217  1  0.74401697  0.12181269  0.95639262  1
  S2-  S218  1  0.75144653  0.38309528  0.45358935  1
  S2-  S219  1  0.73977357  0.37701993  0.95875055  1
  S2-  S220  1  0.75259497  0.62766854  0.45379314  1
  S2-  S221  1  0.74218938  0.62457465  0.96982477  1
  S2-  S222  1  0.75243875  0.87504868  0.45177261  1
  S2-  S223  1  0.74606793  0.87485968  0.96186472  1
  S2-  S224  1  0.12379135  0.00141080  0.04880089  1
  S2-  S225  1  0.12079280  0.00149757  0.55275671  1
  S2-  S226  1  0.12831551  0.24604119  0.03207817  1
  S2-  S227  1  0.12468281  0.24910858  0.54427078  1
  S2-  S228  1  0.12709144  0.49601499  0.04249735  1
  S2-  S229  1  0.12591017  0.50098407  0.55441203  1
  S2-  S230  1  0.12189900  0.74596366  0.05707149  1
  S2-  S231  1  0.12186464  0.74874947  0.55231108  1
  S2-  S232  1  0.36874571  -0.00586067  0.04511978  1
  S2-  S233  1  0.38248111  -0.00245912  0.53999434  1
  S2-  S234  1  0.37087705  0.24841221  0.04394907  1
  S2-  S235  1  0.37954018  0.25722213  0.53234764  1
  S2-  S236  1  0.37032602  0.49377217  0.05304690  1
  S2-  S237  1  0.37893743  0.50119684  0.55295452  1
  S2-  S238  1  0.36855134  0.75369504  0.05076860  1
  S2-  S239  1  0.38092960  0.74654898  0.53586352  1
  S2-  S240  1  0.61856661  0.00035287  0.05533283  1
  S2-  S241  1  0.62631141  0.00337168  0.54422900  1
  S2-  S242  1  0.61949173  0.24408886  0.05094525  1
  S2-  S243  1  0.62751412  0.25470893  0.54103179  1
  S2-  S244  1  0.61671678  0.49654726  0.05204303  1
  S2-  S245  1  0.62571699  0.50193538  0.54285079  1
  S2-  S246  1  0.61462493  0.75125542  0.05204648  1
  S2-  S247  1  0.62753306  0.74794620  0.54408920  1
  S2-  S248  1  0.87223404  0.00159007  0.04427199  1
  S2-  S249  1  0.87934849  0.00024821  0.55448607  1
  S2-  S250  1  0.86545340  0.24443175  0.03749830  1
  S2-  S251  1  0.87431238  0.25370449  0.54272173  1
  S2-  S252  1  0.87453301  0.49123737  0.04386929  1
  S2-  S253  1  0.87641867  0.50124073  0.54674198  1
  S2-  S254  1  0.87684366  0.74893629  0.04447431  1
  S2-  S255  1  0.87996013  0.75142712  0.54849744  1
