# generated using pymatgen
data_La12Ce14Pr13Nd13Sm12(BiS2)64
_symmetry_space_group_name_H-M   'P 1'
_cell_length_a   16.16145069
_cell_length_b   16.15933139
_cell_length_c   27.16855355
_cell_angle_alpha   89.83380750
_cell_angle_beta   89.86263406
_cell_angle_gamma   89.93014532
_symmetry_Int_Tables_number   1
_chemical_formula_structural   La12Ce14Pr13Nd13Sm12(BiS2)64
_chemical_formula_sum   'La12 Ce14 Pr13 Nd13 Sm12 Bi64 S128'
_cell_volume   7095.23610485
_cell_formula_units_Z   1
loop_
 _symmetry_equiv_pos_site_id
 _symmetry_equiv_pos_as_xyz
  1  'x, y, z'
loop_
 _atom_type_symbol
 _atom_type_oxidation_number
  La3+  3.0
  Ce3+  3.0
  Pr3+  3.0
  Nd3+  3.0
  Sm3+  3.0
  Bi2+  2.0
  S2-  -2.0
loop_
 _atom_site_type_symbol
 _atom_site_label
 _atom_site_symmetry_multiplicity
 _atom_site_fract_x
 _atom_site_fract_y
 _atom_site_fract_z
 _atom_site_occupancy
  La3+  La0  1  0.12421450  0.47816601  0.41731358  1
  La3+  La1  1  0.73959261  0.85714141  0.59351362  1
  La3+  La2  1  0.74381122  0.60798614  0.57492375  1
  La3+  La3  1  0.25438538  0.63477391  0.06844806  1
  La3+  La4  1  -0.00221829  0.61126774  0.56388816  1
  La3+  La5  1  0.25576102  0.37390753  0.10640128  1
  La3+  La6  1  0.87687461  0.23770954  0.39286462  1
  La3+  La7  1  0.74710914  0.11735775  0.56901198  1
  La3+  La8  1  0.37628135  0.01876507  0.92251801  1
  La3+  La9  1  0.49037939  0.36059861  0.59049936  1
  La3+  La10  1  0.36876155  0.74484989  0.42542331  1
  La3+  La11  1  -0.00931899  0.38483105  0.08099973  1
  Ce3+  Ce12  1  0.62555271  0.24196559  0.44136628  1
  Ce3+  Ce13  1  -0.00247716  0.88621248  0.04927413  1
  Ce3+  Ce14  1  0.62544537  -0.00866263  0.45040206  1
  Ce3+  Ce15  1  0.88245645  0.50571289  0.93931127  1
  Ce3+  Ce16  1  0.12006452  0.74011230  0.43916435  1
  Ce3+  Ce17  1  0.49338831  0.86744919  0.56360548  1
  Ce3+  Ce18  1  0.12573094  0.75903003  0.94413318  1
  Ce3+  Ce19  1  0.63217374  0.00686582  0.93445371  1
  Ce3+  Ce20  1  0.24713739  0.86659102  0.55854774  1
  Ce3+  Ce21  1  -0.00624034  0.37003034  0.55497708  1
  Ce3+  Ce22  1  0.49334515  0.11399621  0.56127426  1
  Ce3+  Ce23  1  0.87931526  0.25927260  0.93767382  1
  Ce3+  Ce24  1  0.62772725  0.75950035  0.93772353  1
  Ce3+  Ce25  1  0.62368554  0.74378336  0.44760988  1
  Pr3+  Pr26  1  0.87126584  -0.00893629  0.44829555  1
  Pr3+  Pr27  1  0.88208922  0.01788651  0.91116234  1
  Pr3+  Pr28  1  0.74951149  0.38286573  0.05449047  1
  Pr3+  Pr29  1  0.11770445  -0.00705772  0.44171664  1
  Pr3+  Pr30  1  0.37213739  0.75793106  0.92819619  1
  Pr3+  Pr31  1  0.00641229  0.85897646  0.58292615  1
  Pr3+  Pr32  1  0.12717349  0.00866396  0.92919573  1
  Pr3+  Pr33  1  0.86121152  0.49619083  0.42542533  1
  Pr3+  Pr34  1  0.49867689  0.88594041  0.04887081  1
  Pr3+  Pr35  1  0.49731947  0.13288383  0.05830813  1
  Pr3+  Pr36  1  0.74935599  0.63317336  0.05372239  1
  Pr3+  Pr37  1  0.87579572  0.74864268  0.92295677  1
  Pr3+  Pr38  1  0.49905724  0.63153958  0.05297711  1
  Nd3+  Nd39  1  0.61848993  0.50235776  0.91854764  1
  Nd3+  Nd40  1  0.87156751  0.73987462  0.44552273  1
  Nd3+  Nd41  1  0.25353609  0.88098825  0.06607845  1
  Nd3+  Nd42  1  0.62687988  0.25596032  0.94228334  1
  Nd3+  Nd43  1  0.49291901  0.61509573  0.55967730  1
  Nd3+  Nd44  1  0.37406003  -0.00896474  0.43038394  1
  Nd3+  Nd45  1  0.24614844  0.36599360  0.56267320  1
  Nd3+  Nd46  1  0.75158277  0.12987300  0.05755988  1
  Nd3+  Nd47  1  0.37343040  0.51272544  0.93025534  1
  Nd3+  Nd48  1  0.00116638  0.13156124  0.05672915  1
  Nd3+  Nd49  1  0.24930945  0.61279262  0.55237208  1
  Nd3+  Nd50  1  -0.00112440  0.63412720  0.06149331  1
  Nd3+  Nd51  1  0.75573260  0.88404561  0.05154081  1
  Sm3+  Sm52  1  0.12792607  0.50592616  0.95229091  1
  Sm3+  Sm53  1  0.37630264  0.24338858  0.44295066  1
  Sm3+  Sm54  1  0.62236342  0.49054820  0.44728570  1
  Sm3+  Sm55  1  0.24650742  0.11610526  0.55205614  1
  Sm3+  Sm56  1  0.24900622  0.13308586  0.06003658  1
  Sm3+  Sm57  1  0.12876969  0.26348059  0.95147789  1
  Sm3+  Sm58  1  0.74608747  0.36817535  0.56000813  1
  Sm3+  Sm59  1  0.37583661  0.26414511  0.94153324  1
  Sm3+  Sm60  1  0.12240646  0.24281789  0.44561070  1
  Sm3+  Sm61  1  -0.00656403  0.11760457  0.55974162  1
  Sm3+  Sm62  1  0.49730935  0.38415680  0.05902276  1
  Sm3+  Sm63  1  0.37471322  0.49595586  0.43096594  1
  Bi2+  Bi64  1  0.02721720  0.05767888  0.27273616  1
  Bi2+  Bi65  1  0.00703182  0.15391868  0.78817466  1
  Bi2+  Bi66  1  0.01841386  0.37752696  0.28571781  1
  Bi2+  Bi67  1  0.01147432  0.36723390  0.79977522  1
  Bi2+  Bi68  1  -0.06514242  0.70290754  0.27023688  1
  Bi2+  Bi69  1  0.00070497  0.64725860  0.80694639  1
  Bi2+  Bi70  1  -0.04960226  0.88728042  0.31752611  1
  Bi2+  Bi71  1  0.07565599  0.89326908  0.77659243  1
  Bi2+  Bi72  1  0.37435108  0.09735034  0.30198433  1
  Bi2+  Bi73  1  0.20119518  0.14191113  0.78714500  1
  Bi2+  Bi74  1  0.26163492  0.33883055  0.29097699  1
  Bi2+  Bi75  1  0.27606321  0.36836901  0.79144639  1
  Bi2+  Bi76  1  0.24019586  0.61332761  0.30062844  1
  Bi2+  Bi77  1  0.22378284  0.55733477  0.80389185  1
  Bi2+  Bi78  1  0.23480407  0.90525295  0.29823854  1
  Bi2+  Bi79  1  0.26733461  0.84860810  0.80494148  1
  Bi2+  Bi80  1  0.57299772  0.16302603  0.30268431  1
  Bi2+  Bi81  1  0.44260002  0.06526067  0.78016373  1
  Bi2+  Bi82  1  0.50451481  0.37776565  0.28940530  1
  Bi2+  Bi83  1  0.48267989  0.31105471  0.79511955  1
  Bi2+  Bi84  1  0.52023746  0.59509557  0.28847403  1
  Bi2+  Bi85  1  0.48337065  0.58548395  0.78922149  1
  Bi2+  Bi86  1  0.50885603  0.94582231  0.29447770  1
  Bi2+  Bi87  1  0.45510126  0.85808142  0.77136829  1
  Bi2+  Bi88  1  0.75278045  0.07451372  0.28935208  1
  Bi2+  Bi89  1  0.71601154  0.14077960  0.80776889  1
  Bi2+  Bi90  1  0.73167241  0.38358628  0.28717032  1
  Bi2+  Bi91  1  0.82579004  0.37584123  0.76249243  1
  Bi2+  Bi92  1  0.73376065  0.64248838  0.30105368  1
  Bi2+  Bi93  1  0.74724372  0.66669341  0.80059925  1
  Bi2+  Bi94  1  0.76303843  0.85632780  0.28979339  1
  Bi2+  Bi95  1  0.66679830  0.91524549  0.77841228  1
  Bi2+  Bi96  1  0.17061128  -0.04062481  0.18168634  1
  Bi2+  Bi97  1  0.21180611  -0.01291054  0.71368140  1
  Bi2+  Bi98  1  0.20791994  0.12966088  0.23294115  1
  Bi2+  Bi99  1  0.14823519  0.28245418  0.70466600  1
  Bi2+  Bi100  1  0.13453172  0.53904719  0.22128222  1
  Bi2+  Bi101  1  0.11702032  0.47583945  0.71418669  1
  Bi2+  Bi102  1  0.08903728  0.81374182  0.24388522  1
  Bi2+  Bi103  1  0.13109693  0.72567807  0.70632816  1
  Bi2+  Bi104  1  0.36085952  -0.01654482  0.20132019  1
  Bi2+  Bi105  1  0.40637804  -0.02444919  0.67699418  1
  Bi2+  Bi106  1  0.42131837  0.23273021  0.20509644  1
  Bi2+  Bi107  1  0.34621553  0.24084725  0.71032555  1
  Bi2+  Bi108  1  0.39811330  0.51232377  0.21217834  1
  Bi2+  Bi109  1  0.35050046  0.50497023  0.71969089  1
  Bi2+  Bi110  1  0.37840760  0.76360513  0.20599793  1
  Bi2+  Bi111  1  0.32728921  0.75025631  0.70901505  1
  Bi2+  Bi112  1  0.62168125  0.02792499  0.21104469  1
  Bi2+  Bi113  1  0.57126960  0.08486005  0.69479473  1
  Bi2+  Bi114  1  0.61669791  0.28273371  0.20927902  1
  Bi2+  Bi115  1  0.67876155  0.26229367  0.72124737  1
  Bi2+  Bi116  1  0.61219403  0.47888398  0.20846055  1
  Bi2+  Bi117  1  0.65210275  0.51305859  0.71002360  1
  Bi2+  Bi118  1  0.58758967  0.77266688  0.25044536  1
  Bi2+  Bi119  1  0.59527159  0.72836098  0.71244106  1
  Bi2+  Bi120  1  0.86490261  0.00576611  0.17654108  1
  Bi2+  Bi121  1  0.87758724  0.03470489  0.71717535  1
  Bi2+  Bi122  1  0.88857979  0.24758256  0.20153109  1
  Bi2+  Bi123  1  0.94747959  0.26709194  0.69661234  1
  Bi2+  Bi124  1  0.86601811  0.52035198  0.20273016  1
  Bi2+  Bi125  1  0.92692594  0.52929594  0.72242408  1
  Bi2+  Bi126  1  0.81572892  0.77737325  0.18719912  1
  Bi2+  Bi127  1  0.87466544  0.78181860  0.71405980  1
  S2-  S128  1  -0.01427724  0.12167178  0.15643649  1
  S2-  S129  1  -0.00058237  0.11559971  0.65843707  1
  S2-  S130  1  0.01221212  0.34146786  0.17924899  1
  S2-  S131  1  -0.00194425  0.47745385  0.63457797  1
  S2-  S132  1  -0.00339852  0.58214982  0.15757907  1
  S2-  S133  1  -0.00297712  0.71341684  0.64988176  1
  S2-  S134  1  -0.04776029  0.87098601  0.14372009  1
  S2-  S135  1  -0.03695351  0.91488217  0.67917446  1
  S2-  S136  1  0.26934093  0.20584158  0.14939326  1
  S2-  S137  1  0.26949411  0.11568582  0.64908414  1
  S2-  S138  1  0.19423145  0.38166170  0.20891994  1
  S2-  S139  1  0.34287178  0.38563732  0.64564171  1
  S2-  S140  1  0.25976044  0.53519123  0.15068659  1
  S2-  S141  1  0.25272366  0.62274172  0.65293446  1
  S2-  S142  1  0.25755327  0.76183715  0.14268665  1
  S2-  S143  1  0.15837703  0.86497501  0.64246089  1
  S2-  S144  1  0.49504711  0.09796626  0.15673984  1
  S2-  S145  1  0.48655266  0.20260015  0.64579507  1
  S2-  S146  1  0.41913734  0.37842683  0.14706325  1
  S2-  S147  1  0.56631445  0.38497753  0.68440843  1
  S2-  S148  1  0.46192029  0.63889388  0.15126592  1
  S2-  S149  1  0.52026652  0.60682282  0.65901360  1
  S2-  S150  1  0.45654832  0.87192271  0.14690127  1
  S2-  S151  1  0.57608993  0.85065903  0.64918584  1
  S2-  S152  1  0.76441034  0.14419496  0.15649263  1
  S2-  S153  1  0.75532229  0.13494561  0.66997147  1
  S2-  S154  1  0.83044060  0.38510165  0.14373018  1
  S2-  S155  1  0.75937378  0.47067204  0.64141934  1
  S2-  S156  1  0.75684028  0.62384430  0.15466190  1
  S2-  S157  1  0.75636713  0.71090643  0.65829546  1
  S2-  S158  1  0.71875303  0.91523378  0.14824194  1
  S2-  S159  1  0.76590467  0.91590774  0.69130470  1
  S2-  S160  1  0.13376675  0.03446663  0.34287045  1
  S2-  S161  1  0.02114867  0.00084497  0.84531151  1
  S2-  S162  1  0.12651231  0.31131353  0.35572077  1
  S2-  S163  1  0.12923790  0.26429582  0.85243251  1
  S2-  S164  1  0.07905420  0.53798803  0.32205456  1
  S2-  S165  1  0.08181941  0.51011901  0.85664209  1
  S2-  S166  1  0.19430096  0.75369618  0.35039184  1
  S2-  S167  1  0.12356578  0.76241491  0.84593572  1
  S2-  S168  1  0.38162713  -0.12520491  0.35382981  1
  S2-  S169  1  0.24931612  0.01195855  0.85489480  1
  S2-  S170  1  0.39280722  0.26011239  0.34521469  1
  S2-  S171  1  0.40012642  0.19282466  0.85298399  1
  S2-  S172  1  0.27121022  0.46658394  0.35226803  1
  S2-  S173  1  0.47671261  0.45791606  0.85305611  1
  S2-  S174  1  0.38977903  0.62268967  0.35344725  1
  S2-  S175  1  0.36281226  0.63849524  0.85409604  1
  S2-  S176  1  0.65725840  -0.03128440  0.35478797  1
  S2-  S177  1  0.58250697  0.03169351  0.84154956  1
  S2-  S178  1  0.71121771  0.24213182  0.35378165  1
  S2-  S179  1  0.62485598  0.28551323  0.84347599  1
  S2-  S180  1  0.70091008  0.50199225  0.35896736  1
  S2-  S181  1  0.65788513  0.53414221  0.82068033  1
  S2-  S182  1  0.59756552  0.73034139  0.35077583  1
  S2-  S183  1  0.62997501  0.76961053  0.83960374  1
  S2-  S184  1  0.87200788  0.06797260  0.35694998  1
  S2-  S185  1  0.78970201  -0.01299237  0.82361152  1
  S2-  S186  1  0.95770162  0.22226328  0.29489432  1
  S2-  S187  1  0.86740680  0.17817390  0.85102132  1
  S2-  S188  1  0.88309110  0.39486336  0.34245141  1
  S2-  S189  1  0.86986800  0.57634945  0.85135410  1
  S2-  S190  1  0.86786410  0.64084942  0.36127847  1
  S2-  S191  1  0.88362058  0.78045391  0.82150966  1
  S2-  S192  1  -0.00429684  0.12400377  0.45405456  1
  S2-  S193  1  0.00717886  0.13805097  0.95085737  1
  S2-  S194  1  -0.00818568  0.35882035  0.45083093  1
  S2-  S195  1  0.00262990  0.38243829  0.96238521  1
  S2-  S196  1  0.00120498  0.61328739  0.45372482  1
  S2-  S197  1  0.00366564  0.63219690  0.95559443  1
  S2-  S198  1  -0.00301732  0.86499974  0.46040058  1
  S2-  S199  1  -0.00379750  0.88016588  0.94478171  1
  S2-  S200  1  0.24927304  0.11934405  0.44711802  1
  S2-  S201  1  0.25151182  0.14141816  0.95607525  1
  S2-  S202  1  0.25260384  0.36117079  0.45785091  1
  S2-  S203  1  0.25259143  0.38552183  0.94634966  1
  S2-  S204  1  0.24409548  0.61373068  0.44878709  1
  S2-  S205  1  0.24624070  0.63295720  0.95861227  1
  S2-  S206  1  0.24390383  0.87138909  0.45421169  1
  S2-  S207  1  0.25253202  0.88269976  0.95618205  1
  S2-  S208  1  0.49760098  0.11555482  0.45191996  1
  S2-  S209  1  0.50355846  0.13423354  0.95303249  1
  S2-  S210  1  0.49782617  0.36896406  0.44689455  1
  S2-  S211  1  0.50311622  0.37918639  0.95691628  1
  S2-  S212  1  0.50009881  0.61540648  0.45492936  1
  S2-  S213  1  0.50601289  0.63338113  0.94667155  1
  S2-  S214  1  0.49862662  0.86867963  0.45720442  1
  S2-  S215  1  0.49721276  0.88502074  0.94138715  1
  S2-  S216  1  0.74838886  0.11765929  0.46122137  1
  S2-  S217  1  0.75205427  0.13284812  0.95103045  1
  S2-  S218  1  0.74609330  0.36523247  0.45741151  1
  S2-  S219  1  0.74958698  0.38514323  0.94604579  1
  S2-  S220  1  0.74092641  0.61832859  0.46547725  1
  S2-  S221  1  0.74460727  0.62736046  0.94731040  1
  S2-  S222  1  0.74934879  0.86507515  0.46100983  1
  S2-  S223  1  0.75675909  0.88164045  0.94363685  1
  S2-  S224  1  0.12832057  0.00865352  0.04120349  1
  S2-  S225  1  0.11919216  -0.00216355  0.54810531  1
  S2-  S226  1  0.12575371  0.26028832  0.05684206  1
  S2-  S227  1  0.12109936  0.23995664  0.55090386  1
  S2-  S228  1  0.12238858  0.50344164  0.05547072  1
  S2-  S229  1  0.12770074  0.48787796  0.53677478  1
  S2-  S230  1  0.12092564  0.76078046  0.04970303  1
  S2-  S231  1  0.12609624  0.73750289  0.54342971  1
  S2-  S232  1  0.37037351  0.01036230  0.03944662  1
  S2-  S233  1  0.36876295  -0.00719116  0.53852547  1
  S2-  S234  1  0.37368788  0.25933673  0.04434435  1
  S2-  S235  1  0.36898825  0.24026999  0.54531454  1
  S2-  S236  1  0.37760741  0.50524956  0.03887978  1
  S2-  S237  1  0.37407047  0.48918205  0.53959262  1
  S2-  S238  1  0.37799920  0.75926628  0.03485735  1
  S2-  S239  1  0.37109329  0.74163399  0.54393932  1
  S2-  S240  1  0.62589740  0.00829168  0.04162917  1
  S2-  S241  1  0.62198215  -0.00960511  0.55600036  1
  S2-  S242  1  0.62382821  0.25797855  0.05011825  1
  S2-  S243  1  0.62131589  0.24538029  0.54982980  1
  S2-  S244  1  0.62317990  0.50515152  0.04278245  1
  S2-  S245  1  0.61150718  0.48358017  0.55035047  1
  S2-  S246  1  0.62554242  0.76085175  0.04601431  1
  S2-  S247  1  0.61892838  0.73786190  0.55105462  1
  S2-  S248  1  0.87589976  0.01093528  0.03489910  1
  S2-  S249  1  0.87286255  -0.01187794  0.55705126  1
  S2-  S250  1  0.87539392  0.25488346  0.04365650  1
  S2-  S251  1  0.87112284  0.24531176  0.55963663  1
  S2-  S252  1  0.87462523  0.51046718  0.04362196  1
  S2-  S253  1  0.86883707  0.48994156  0.53501813  1
  S2-  S254  1  0.87502562  0.75548599  0.03585106  1
  S2-  S255  1  0.87046768  0.74188740  0.55057562  1
