# generated using pymatgen
data_La12Ce14Pr13Nd13Sm12(BiS2)64
_symmetry_space_group_name_H-M   'P 1'
_cell_length_a   16.12691906
_cell_length_b   16.15036710
_cell_length_c   27.22343808
_cell_angle_alpha   90.07941940
_cell_angle_beta   90.03023524
_cell_angle_gamma   89.96921041
_symmetry_Int_Tables_number   1
_chemical_formula_structural   La12Ce14Pr13Nd13Sm12(BiS2)64
_chemical_formula_sum   'La12 Ce14 Pr13 Nd13 Sm12 Bi64 S128'
_cell_volume   7090.48979247
_cell_formula_units_Z   1
loop_
 _symmetry_equiv_pos_site_id
 _symmetry_equiv_pos_as_xyz
  1  'x, y, z'
loop_
 _atom_type_symbol
 _atom_type_oxidation_number
  La3+  3.0
  Ce3+  3.0
  Pr3+  3.0
  Nd3+  3.0
  Sm3+  3.0
  Bi2+  2.0
  S2-  -2.0
loop_
 _atom_site_type_symbol
 _atom_site_label
 _atom_site_symmetry_multiplicity
 _atom_site_fract_x
 _atom_site_fract_y
 _atom_site_fract_z
 _atom_site_occupancy
  La3+  La0  1  0.12154386  0.50152815  0.89953634  1
  La3+  La1  1  0.01052722  0.88030328  0.07295816  1
  La3+  La2  1  0.60762432  0.48734036  0.43242633  1
  La3+  La3  1  -0.01655667  0.61244498  0.57382737  1
  La3+  La4  1  0.60476526  0.74669490  0.40807343  1
  La3+  La5  1  0.11035169  0.50423797  0.42701026  1
  La3+  La6  1  0.74118212  0.11514438  0.58009478  1
  La3+  La7  1  0.00723554  0.39138237  0.07475434  1
  La3+  La8  1  0.50289226  0.13202729  0.06614074  1
  La3+  La9  1  0.37710682  0.75776092  0.89436520  1
  La3+  La10  1  0.12950404  0.00225721  0.93497946  1
  La3+  La11  1  0.75024947  0.63840053  0.08533955  1
  Ce3+  Ce12  1  0.62600109  0.51377016  0.93857715  1
  Ce3+  Ce13  1  0.00778071  0.63040667  0.05410904  1
  Ce3+  Ce14  1  0.73636325  0.60958894  0.56901105  1
  Ce3+  Ce15  1  0.35980637  0.74760945  0.44303688  1
  Ce3+  Ce16  1  0.87698138  0.51081933  0.94395096  1
  Ce3+  Ce17  1  0.62997087  0.75684718  0.93768278  1
  Ce3+  Ce18  1  0.23078858  0.62037968  0.57217402  1
  Ce3+  Ce19  1  0.88113440  0.75507702  0.93936596  1
  Ce3+  Ce20  1  0.60941035  0.24153230  0.44680977  1
  Ce3+  Ce21  1  0.85880815  0.24477753  0.43412326  1
  Ce3+  Ce22  1  0.75478826  0.38505503  0.05318056  1
  Ce3+  Ce23  1  0.48501746  0.36912884  0.56211342  1
  Ce3+  Ce24  1  0.48760423  0.86713179  0.55613151  1
  Ce3+  Ce25  1  0.23137325  0.11446223  0.55417671  1
  Pr3+  Pr26  1  0.60225037  -0.00049067  0.42833260  1
  Pr3+  Pr27  1  0.48247941  0.11512013  0.56698988  1
  Pr3+  Pr28  1  0.25309748  0.88194694  0.06118898  1
  Pr3+  Pr29  1  0.75812655  0.13079082  0.07485789  1
  Pr3+  Pr30  1  0.35818149  0.49452285  0.44428787  1
  Pr3+  Pr31  1  0.50262110  0.63186662  0.05781173  1
  Pr3+  Pr32  1  0.23466619  0.87627448  0.57994923  1
  Pr3+  Pr33  1  0.11105760  0.74717697  0.44382178  1
  Pr3+  Pr34  1  0.38022259  0.25807641  0.94405682  1
  Pr3+  Pr35  1  0.10318293  0.23736600  0.40693738  1
  Pr3+  Pr36  1  0.50642049  0.38299620  0.06672621  1
  Pr3+  Pr37  1  0.25688621  0.39518518  0.06730102  1
  Pr3+  Pr38  1  0.85249486  -0.00560130  0.43327658  1
  Nd3+  Nd39  1  0.38220460  0.49864951  0.92044370  1
  Nd3+  Nd40  1  0.85879193  0.50202389  0.43100806  1
  Nd3+  Nd41  1  0.49988560  0.88072874  0.06048178  1
  Nd3+  Nd42  1  0.12863225  0.26497972  0.94567352  1
  Nd3+  Nd43  1  0.23132877  0.37064506  0.55914385  1
  Nd3+  Nd44  1  0.25481068  0.62935653  0.04188942  1
  Nd3+  Nd45  1  0.75575789  0.88518969  0.06774458  1
  Nd3+  Nd46  1  0.87878287  0.25874332  0.94614595  1
  Nd3+  Nd47  1  0.10235374  -0.01012393  0.42798273  1
  Nd3+  Nd48  1  0.87850304  0.00629249  0.94239284  1
  Nd3+  Nd49  1  -0.01431282  0.36696948  0.54971138  1
  Nd3+  Nd50  1  0.37928633  0.00475729  0.93577464  1
  Nd3+  Nd51  1  0.35804696  -0.00465088  0.43331187  1
  Sm3+  Sm52  1  0.62813332  0.00406750  0.94550423  1
  Sm3+  Sm53  1  0.25260613  0.13498635  0.05461592  1
  Sm3+  Sm54  1  0.48430376  0.62030721  0.56272377  1
  Sm3+  Sm55  1  0.62941240  0.25431907  0.94415249  1
  Sm3+  Sm56  1  0.85598547  0.74199287  0.44282849  1
  Sm3+  Sm57  1  0.00572570  0.13319394  0.05579366  1
  Sm3+  Sm58  1  0.35487370  0.24635581  0.44611734  1
  Sm3+  Sm59  1  0.73281496  0.87057255  0.55779882  1
  Sm3+  Sm60  1  0.12574753  0.75498519  0.92845452  1
  Sm3+  Sm61  1  -0.01643412  0.86981176  0.55670550  1
  Sm3+  Sm62  1  -0.01595779  0.11683730  0.55359485  1
  Sm3+  Sm63  1  0.73567634  0.36520987  0.56285514  1
  Bi2+  Bi64  1  0.04297414  0.10703483  0.24889847  1
  Bi2+  Bi65  1  -0.03545569  0.12876373  0.78111777  1
  Bi2+  Bi66  1  0.02164316  0.34334420  0.28246194  1
  Bi2+  Bi67  1  -0.00771180  0.34505060  0.79252256  1
  Bi2+  Bi68  1  0.00445677  0.58799165  0.30263324  1
  Bi2+  Bi69  1  -0.06088377  0.62655736  0.80051027  1
  Bi2+  Bi70  1  0.06614995  0.85607007  0.31770001  1
  Bi2+  Bi71  1  -0.01230911  0.89932371  0.79402957  1
  Bi2+  Bi72  1  0.26343488  0.04203205  0.29846660  1
  Bi2+  Bi73  1  0.21624645  0.16670333  0.78186832  1
  Bi2+  Bi74  1  0.29015546  0.40556504  0.29991370  1
  Bi2+  Bi75  1  0.26207832  0.37218021  0.78601774  1
  Bi2+  Bi76  1  0.24207440  0.69768080  0.26929988  1
  Bi2+  Bi77  1  0.23985539  0.63758805  0.77047501  1
  Bi2+  Bi78  1  0.26122065  0.86161532  0.34197842  1
  Bi2+  Bi79  1  0.23704015  0.89122970  0.77771381  1
  Bi2+  Bi80  1  0.58737237  0.15302981  0.32216604  1
  Bi2+  Bi81  1  0.39507526  0.11873236  0.82066207  1
  Bi2+  Bi82  1  0.53794753  0.39255678  0.28048628  1
  Bi2+  Bi83  1  0.50546439  0.37688507  0.79309293  1
  Bi2+  Bi84  1  0.50200122  0.62312956  0.29325151  1
  Bi2+  Bi85  1  0.56145065  0.64725760  0.79220365  1
  Bi2+  Bi86  1  0.46903354  0.89208415  0.29779242  1
  Bi2+  Bi87  1  0.51217978  0.92636985  0.79223580  1
  Bi2+  Bi88  1  0.78747013  0.15784117  0.31830883  1
  Bi2+  Bi89  1  0.57123594  0.15032479  0.77660765  1
  Bi2+  Bi90  1  0.72340956  0.31672686  0.24533128  1
  Bi2+  Bi91  1  0.78550101  0.34484210  0.78653273  1
  Bi2+  Bi92  1  0.76691312  0.59211030  0.28909002  1
  Bi2+  Bi93  1  0.75936612  0.63095989  0.85940065  1
  Bi2+  Bi94  1  0.77245158  0.96481337  0.30918128  1
  Bi2+  Bi95  1  0.76767608  0.81534449  0.82201739  1
  Bi2+  Bi96  1  0.13485176  -0.05626851  0.22301598  1
  Bi2+  Bi97  1  0.10814420  0.06010145  0.70692035  1
  Bi2+  Bi98  1  0.21487256  0.20007629  0.22191134  1
  Bi2+  Bi99  1  0.08985198  0.25227703  0.70350294  1
  Bi2+  Bi100  1  0.15136481  0.45977584  0.19250961  1
  Bi2+  Bi101  1  0.12127462  0.48673472  0.70193990  1
  Bi2+  Bi102  1  0.10282874  0.69636537  0.19162157  1
  Bi2+  Bi103  1  0.07671164  0.77586383  0.70757520  1
  Bi2+  Bi104  1  0.35259987  -0.01416627  0.20254941  1
  Bi2+  Bi105  1  0.39219151  0.03173485  0.69993627  1
  Bi2+  Bi106  1  0.43306509  0.23071344  0.25862448  1
  Bi2+  Bi107  1  0.38175321  0.22325811  0.71986431  1
  Bi2+  Bi108  1  0.37450932  0.59265736  0.20720507  1
  Bi2+  Bi109  1  0.41425894  0.50728846  0.70279341  1
  Bi2+  Bi110  1  0.37924005  0.79032464  0.20346200  1
  Bi2+  Bi111  1  0.40638464  0.75513747  0.69896897  1
  Bi2+  Bi112  1  0.65258086  0.06388083  0.22664979  1
  Bi2+  Bi113  1  0.69092833  -0.03194533  0.74978618  1
  Bi2+  Bi114  1  0.57476609  0.23338880  0.18067523  1
  Bi2+  Bi115  1  0.64539486  0.36433015  0.70239852  1
  Bi2+  Bi116  1  0.61720344  0.48571960  0.18965027  1
  Bi2+  Bi117  1  0.70996187  0.52487411  0.76624850  1
  Bi2+  Bi118  1  0.62702614  0.76536040  0.20997792  1
  Bi2+  Bi119  1  0.66666240  0.77419337  0.72615715  1
  Bi2+  Bi120  1  0.88412380  -0.01490497  0.21304289  1
  Bi2+  Bi121  1  0.86794500  -0.03184995  0.69751430  1
  Bi2+  Bi122  1  0.83783633  0.17606450  0.20442880  1
  Bi2+  Bi123  1  0.88958188  0.25177178  0.69880762  1
  Bi2+  Bi124  1  0.89759053  0.46672394  0.20156738  1
  Bi2+  Bi125  1  0.86877536  0.49421794  0.69947447  1
  Bi2+  Bi126  1  0.94556969  0.75415647  0.24867423  1
  Bi2+  Bi127  1  0.86331440  0.76035110  0.72181275  1
  S2-  S128  1  -0.01673534  0.10202886  0.15200099  1
  S2-  S129  1  -0.10401614  0.10544832  0.63893018  1
  S2-  S130  1  0.01983494  0.34123878  0.17418153  1
  S2-  S131  1  -0.00981907  0.44842296  0.63877979  1
  S2-  S132  1  0.02161332  0.55090362  0.14292319  1
  S2-  S133  1  0.10460403  0.63028757  0.64818621  1
  S2-  S134  1  -0.06426052  0.85276041  0.16366091  1
  S2-  S135  1  0.02420795  0.89732584  0.65176991  1
  S2-  S136  1  0.23819063  0.08833652  0.14856511  1
  S2-  S137  1  0.23717953  0.02946359  0.64037371  1
  S2-  S138  1  0.25326600  0.33770481  0.16594648  1
  S2-  S139  1  0.23602731  0.40191709  0.65831512  1
  S2-  S140  1  0.25571066  0.54603949  0.13228131  1
  S2-  S141  1  0.31236471  0.61418307  0.66269352  1
  S2-  S142  1  0.14991712  0.84766520  0.14148169  1
  S2-  S143  1  0.24501845  0.81758565  0.67880018  1
  S2-  S144  1  0.47578773  0.08408405  0.16134570  1
  S2-  S145  1  0.52078634  0.12015682  0.66634788  1
  S2-  S146  1  0.46477773  0.45852515  0.15485469  1
  S2-  S147  1  0.47997714  0.36087078  0.65974977  1
  S2-  S148  1  0.59403340  0.63097650  0.14590246  1
  S2-  S149  1  0.51635140  0.61422375  0.66187330  1
  S2-  S150  1  0.52774345  0.85968934  0.15971215  1
  S2-  S151  1  0.46169859  0.88564856  0.65377826  1
  S2-  S152  1  0.74315562  0.00790019  0.14625820  1
  S2-  S153  1  0.73570460  0.25480838  0.64471343  1
  S2-  S154  1  0.76314758  0.39254127  0.15118271  1
  S2-  S155  1  0.72420553  0.47954124  0.63710739  1
  S2-  S156  1  0.81034054  0.59518797  0.18505629  1
  S2-  S157  1  0.85511931  0.63755747  0.64329543  1
  S2-  S158  1  0.74183287  0.78132819  0.14627030  1
  S2-  S159  1  0.72404109  0.96846187  0.64068369  1
  S2-  S160  1  0.11896668  0.09073894  0.34707402  1
  S2-  S161  1  0.13444682  -0.02956974  0.83570406  1
  S2-  S162  1  0.16864947  0.28162052  0.31480953  1
  S2-  S163  1  0.12876497  0.34000397  0.85537558  1
  S2-  S164  1  0.12395370  0.46556728  0.32545780  1
  S2-  S165  1  0.09649723  0.56927711  0.79977194  1
  S2-  S166  1  0.11896843  0.65081852  0.35977726  1
  S2-  S167  1  0.21577876  0.76219379  0.84097347  1
  S2-  S168  1  0.46706187  0.02713426  0.35346090  1
  S2-  S169  1  0.36721306  -0.08145680  0.84771586  1
  S2-  S170  1  0.37075897  0.28149508  0.34958280  1
  S2-  S171  1  0.38156383  0.34379961  0.85566759  1
  S2-  S172  1  0.37884478  0.51691997  0.34449427  1
  S2-  S173  1  0.27317830  0.51232219  0.83910731  1
  S2-  S174  1  0.44846193  0.74019879  0.35518151  1
  S2-  S175  1  0.39470455  0.68384626  0.79757121  1
  S2-  S176  1  0.62201296  -0.10566083  0.34719235  1
  S2-  S177  1  0.63091763  0.02634689  0.84753853  1
  S2-  S178  1  0.61047822  0.32393528  0.36144374  1
  S2-  S179  1  0.60986259  0.26455693  0.84616845  1
  S2-  S180  1  0.63251610  0.52257704  0.33417834  1
  S2-  S181  1  0.52396590  0.50661912  0.85709644  1
  S2-  S182  1  0.65967628  0.70926906  0.31052522  1
  S2-  S183  1  0.54445481  0.78714272  0.85258910  1
  S2-  S184  1  0.94064055  -0.03338045  0.34733977  1
  S2-  S185  1  0.88820123  0.00578919  0.84236141  1
  S2-  S186  1  0.95224898  0.24723010  0.34934579  1
  S2-  S187  1  0.86680810  0.23137498  0.84840535  1
  S2-  S188  1  0.87286550  0.47018463  0.33229691  1
  S2-  S189  1  0.94789376  0.47816653  0.85660644  1
  S2-  S190  1  0.87305324  0.69640961  0.34741187  1
  S2-  S191  1  0.99264742  0.76482861  0.86034687  1
  S2-  S192  1  -0.01606866  0.11761862  0.45079931  1
  S2-  S193  1  0.00583998  0.13413866  0.95013438  1
  S2-  S194  1  -0.01203204  0.37254951  0.44572986  1
  S2-  S195  1  0.00024993  0.38056261  0.96315028  1
  S2-  S196  1  -0.01897103  0.62242329  0.46032390  1
  S2-  S197  1  0.00924699  0.62629786  0.94971732  1
  S2-  S198  1  -0.02025534  0.86524552  0.45361798  1
  S2-  S199  1  0.00377481  0.88476927  0.95969337  1
  S2-  S200  1  0.23337880  0.12121469  0.44904798  1
  S2-  S201  1  0.25198158  0.13410375  0.94906371  1
  S2-  S202  1  0.22835584  0.36682141  0.45059183  1
  S2-  S203  1  0.25493987  0.38359435  0.95826713  1
  S2-  S204  1  0.23915047  0.62246305  0.46174096  1
  S2-  S205  1  0.25432506  0.63248534  0.93914344  1
  S2-  S206  1  0.23366421  0.87452025  0.46095320  1
  S2-  S207  1  0.25515713  0.87727452  0.95398753  1
  S2-  S208  1  0.47755007  0.12468836  0.45976213  1
  S2-  S209  1  0.50527109  0.13049959  0.95608832  1
  S2-  S210  1  0.47913340  0.36686544  0.45709755  1
  S2-  S211  1  0.51064318  0.37718421  0.95967224  1
  S2-  S212  1  0.48716708  0.62007531  0.45658470  1
  S2-  S213  1  0.49727501  0.64109897  0.95063235  1
  S2-  S214  1  0.48444420  0.87058339  0.45307998  1
  S2-  S215  1  0.50176482  0.88580667  0.95581562  1
  S2-  S216  1  0.73259558  0.11923709  0.45585558  1
  S2-  S217  1  0.75215656  0.13024847  0.96045033  1
  S2-  S218  1  0.74044604  0.37012001  0.45568621  1
  S2-  S219  1  0.75060612  0.38156912  0.94707301  1
  S2-  S220  1  0.73050215  0.62134942  0.45159012  1
  S2-  S221  1  0.75326598  0.63436825  0.96970510  1
  S2-  S222  1  0.73127785  0.86391535  0.45338226  1
  S2-  S223  1  0.75446408  0.88418528  0.95760998  1
  S2-  S224  1  0.12934594  0.01119747  0.04342566  1
  S2-  S225  1  0.10488692  -0.00645834  0.53844808  1
  S2-  S226  1  0.12927745  0.25702677  0.05199820  1
  S2-  S227  1  0.10853033  0.24043509  0.55137624  1
  S2-  S228  1  0.12875855  0.50704550  0.03554444  1
  S2-  S229  1  0.11198144  0.49341105  0.53781227  1
  S2-  S230  1  0.13070637  0.75305568  0.03441684  1
  S2-  S231  1  0.11098771  0.75290400  0.54993510  1
  S2-  S232  1  0.37414245  0.00805926  0.04327275  1
  S2-  S233  1  0.36042655  -0.00824605  0.54090215  1
  S2-  S234  1  0.37699037  0.25840039  0.05239142  1
  S2-  S235  1  0.35542464  0.24247826  0.55233282  1
  S2-  S236  1  0.38498178  0.50691536  0.03238146  1
  S2-  S237  1  0.36026207  0.49464881  0.55068597  1
  S2-  S238  1  0.37529475  0.75529279  0.05637148  1
  S2-  S239  1  0.36005752  0.74575466  0.55082074  1
  S2-  S240  1  0.62539201  0.00690116  0.04895687  1
  S2-  S241  1  0.60789724  -0.00495748  0.53986805  1
  S2-  S242  1  0.63349110  0.25514601  0.04931371  1
  S2-  S243  1  0.60794004  0.24196531  0.55055976  1
  S2-  S244  1  0.62887991  0.50586481  0.04450508  1
  S2-  S245  1  0.60349760  0.49315011  0.54143126  1
  S2-  S246  1  0.62501983  0.76300476  0.04296507  1
  S2-  S247  1  0.61382122  0.74132782  0.55822439  1
  S2-  S248  1  0.88370067  0.00899164  0.04756682  1
  S2-  S249  1  0.86038223  -0.01020958  0.53888612  1
  S2-  S250  1  0.88150932  0.25660260  0.05325421  1
  S2-  S251  1  0.86223421  0.24340385  0.53964522  1
  S2-  S252  1  0.87624087  0.51082067  0.04992623  1
  S2-  S253  1  0.85837777  0.48966569  0.53764721  1
  S2-  S254  1  0.88371131  0.75722913  0.04709007  1
  S2-  S255  1  0.85710348  0.75069768  0.54683282  1
