# generated using pymatgen
data_La12Ce14Pr13Nd13Sm12(BiS2)64
_symmetry_space_group_name_H-M   'P 1'
_cell_length_a   16.15438720
_cell_length_b   16.18132955
_cell_length_c   27.21239307
_cell_angle_alpha   90.10482573
_cell_angle_beta   89.98244279
_cell_angle_gamma   89.98786341
_symmetry_Int_Tables_number   1
_chemical_formula_structural   La12Ce14Pr13Nd13Sm12(BiS2)64
_chemical_formula_sum   'La12 Ce14 Pr13 Nd13 Sm12 Bi64 S128'
_cell_volume   7113.29253567
_cell_formula_units_Z   1
loop_
 _symmetry_equiv_pos_site_id
 _symmetry_equiv_pos_as_xyz
  1  'x, y, z'
loop_
 _atom_type_symbol
 _atom_type_oxidation_number
  La3+  3.0
  Ce3+  3.0
  Pr3+  3.0
  Nd3+  3.0
  Sm3+  3.0
  Bi2+  2.0
  S2-  -2.0
loop_
 _atom_site_type_symbol
 _atom_site_label
 _atom_site_symmetry_multiplicity
 _atom_site_fract_x
 _atom_site_fract_y
 _atom_site_fract_z
 _atom_site_occupancy
  La3+  La0  1  -0.00043848  0.13455865  0.07651357  1
  La3+  La1  1  0.26667649  0.13556019  0.09768060  1
  La3+  La2  1  0.76074186  0.37036823  0.05153527  1
  La3+  La3  1  0.49177952  0.62155262  0.58431137  1
  La3+  La4  1  0.14277013  0.50986949  0.91670954  1
  La3+  La5  1  -0.00582203  0.87011227  0.55914042  1
  La3+  La6  1  0.86471281  0.74182272  0.42887287  1
  La3+  La7  1  0.89964844  -0.01126764  0.92692553  1
  La3+  La8  1  0.27095246  0.86816567  0.10389281  1
  La3+  La9  1  0.75378548  0.12263104  0.57837965  1
  La3+  La10  1  0.13888799  0.24098096  0.93338493  1
  La3+  La11  1  0.01081059  0.37276095  0.59449213  1
  Ce3+  Ce12  1  0.62056536  0.24448476  0.45130913  1
  Ce3+  Ce13  1  0.63591865  0.24348863  0.93863685  1
  Ce3+  Ce14  1  -0.00970293  0.62056766  0.56952476  1
  Ce3+  Ce15  1  0.36956941  0.49300469  0.43861316  1
  Ce3+  Ce16  1  0.74338761  0.87041594  0.56054742  1
  Ce3+  Ce17  1  0.87438101  0.24449671  0.44600846  1
  Ce3+  Ce18  1  0.13574260  0.74763865  0.95665472  1
  Ce3+  Ce19  1  0.36983980  -0.00770408  0.43583189  1
  Ce3+  Ce20  1  0.38116506  -0.00454241  0.94783016  1
  Ce3+  Ce21  1  0.63227115  0.49493808  0.93453758  1
  Ce3+  Ce22  1  0.61577222  0.49384078  0.44636387  1
  Ce3+  Ce23  1  0.38352506  0.49837295  0.93976755  1
  Ce3+  Ce24  1  0.63550682  0.74795385  0.94217772  1
  Ce3+  Ce25  1  0.36950328  0.24055371  0.42934950  1
  Pr3+  Pr26  1  0.48926966  0.12135862  0.56101103  1
  Pr3+  Pr27  1  0.88655731  0.49680511  0.92713226  1
  Pr3+  Pr28  1  0.48996108  0.37013371  0.56589649  1
  Pr3+  Pr29  1  0.74801099  0.37079982  0.56013407  1
  Pr3+  Pr30  1  0.00625617  0.87461431  0.08322375  1
  Pr3+  Pr31  1  0.00816235  0.61947963  0.06499375  1
  Pr3+  Pr32  1  0.11238014  0.74192155  0.42916430  1
  Pr3+  Pr33  1  0.76028877  0.87554139  0.06558408  1
  Pr3+  Pr34  1  0.74503877  0.62095625  0.56761588  1
  Pr3+  Pr35  1  0.00041754  0.11636325  0.56256701  1
  Pr3+  Pr36  1  0.11288698  -0.01156672  0.41768221  1
  Pr3+  Pr37  1  0.50675458  0.36883590  0.05238308  1
  Pr3+  Pr38  1  0.25916616  0.62005637  0.07346743  1
  Nd3+  Nd39  1  0.25567694  0.37454537  0.05708531  1
  Nd3+  Nd40  1  0.11694478  0.49576088  0.43965884  1
  Nd3+  Nd41  1  0.24609587  0.62114499  0.55895149  1
  Nd3+  Nd42  1  0.24041412  0.12101549  0.55685175  1
  Nd3+  Nd43  1  0.86381122  -0.00099401  0.43219206  1
  Nd3+  Nd44  1  0.37250802  0.73586614  0.42690066  1
  Nd3+  Nd45  1  0.49481289  0.87061834  0.55086588  1
  Nd3+  Nd46  1  0.63819209  -0.00330000  0.93320294  1
  Nd3+  Nd47  1  0.38218786  0.74870323  0.94341441  1
  Nd3+  Nd48  1  0.51074305  0.87529321  0.05955850  1
  Nd3+  Nd49  1  0.50969142  0.62213022  0.05714196  1
  Nd3+  Nd50  1  0.38139709  0.23963392  0.93111264  1
  Nd3+  Nd51  1  0.88696113  0.74708126  0.94346991  1
  Sm3+  Sm52  1  0.13390398  -0.00445523  0.96419357  1
  Sm3+  Sm53  1  0.76284130  0.12019354  0.04880401  1
  Sm3+  Sm54  1  0.89316721  0.23967451  0.92077454  1
  Sm3+  Sm55  1  0.75945474  0.62027251  0.05179311  1
  Sm3+  Sm56  1  0.11924495  0.24376858  0.43484078  1
  Sm3+  Sm57  1  0.50697654  0.12041918  0.05761448  1
  Sm3+  Sm58  1  0.62266802  0.74254242  0.43732709  1
  Sm3+  Sm59  1  0.24451964  0.36953398  0.55242693  1
  Sm3+  Sm60  1  0.24629718  0.86852773  0.55044364  1
  Sm3+  Sm61  1  0.62491098  -0.00070237  0.44392423  1
  Sm3+  Sm62  1  0.01134010  0.37238692  0.04292957  1
  Sm3+  Sm63  1  0.87117458  0.49357719  0.44726231  1
  Bi2+  Bi64  1  0.00290918  0.13729211  0.30194679  1
  Bi2+  Bi65  1  -0.02511626  0.09404570  0.79862757  1
  Bi2+  Bi66  1  -0.00030518  0.41481332  0.22969212  1
  Bi2+  Bi67  1  -0.03859362  0.34586895  0.79410120  1
  Bi2+  Bi68  1  0.00018552  0.58211147  0.29316782  1
  Bi2+  Bi69  1  -0.06634575  0.61765942  0.80307686  1
  Bi2+  Bi70  1  0.01560457  0.84611306  0.28522026  1
  Bi2+  Bi71  1  0.05324485  0.83360931  0.82379981  1
  Bi2+  Bi72  1  0.26589144  0.17837026  0.30156647  1
  Bi2+  Bi73  1  0.24745179  0.09635999  0.78520869  1
  Bi2+  Bi74  1  0.25140887  0.41805643  0.27661717  1
  Bi2+  Bi75  1  0.29471797  0.34798038  0.77282689  1
  Bi2+  Bi76  1  0.24810415  0.63459912  0.29494093  1
  Bi2+  Bi77  1  0.25554347  0.63724695  0.79632950  1
  Bi2+  Bi78  1  0.28635931  0.91468035  0.30273259  1
  Bi2+  Bi79  1  0.21460524  0.87271185  0.75813088  1
  Bi2+  Bi80  1  0.52704907  0.13148358  0.29385835  1
  Bi2+  Bi81  1  0.42126704  0.18873532  0.79738079  1
  Bi2+  Bi82  1  0.52456919  0.42089614  0.28395918  1
  Bi2+  Bi83  1  0.46844481  0.41451949  0.80944741  1
  Bi2+  Bi84  1  0.51074249  0.62535930  0.29318027  1
  Bi2+  Bi85  1  0.49670877  0.60619160  0.78194730  1
  Bi2+  Bi86  1  0.58012186  0.93929106  0.28596253  1
  Bi2+  Bi87  1  0.39986937  0.87463004  0.80542187  1
  Bi2+  Bi88  1  0.75623242  0.13391830  0.29237975  1
  Bi2+  Bi89  1  0.69181540  0.11170804  0.78648636  1
  Bi2+  Bi90  1  0.70440395  0.32872448  0.27674136  1
  Bi2+  Bi91  1  0.64608501  0.35138220  0.77906724  1
  Bi2+  Bi92  1  0.75916817  0.51748733  0.27587680  1
  Bi2+  Bi93  1  0.73941286  0.64826768  0.78300730  1
  Bi2+  Bi94  1  0.79771518  0.87315375  0.29900146  1
  Bi2+  Bi95  1  0.74397557  0.88148056  0.80554239  1
  Bi2+  Bi96  1  0.12605652  0.00173030  0.22201149  1
  Bi2+  Bi97  1  0.09001511  0.02713349  0.72108701  1
  Bi2+  Bi98  1  0.12811847  0.26054602  0.19863726  1
  Bi2+  Bi99  1  0.16868097  0.23932899  0.71073422  1
  Bi2+  Bi100  1  0.17605380  0.48659657  0.17271454  1
  Bi2+  Bi101  1  0.10216217  0.55262801  0.74796020  1
  Bi2+  Bi102  1  0.12103246  0.66079520  0.21242839  1
  Bi2+  Bi103  1  0.06510260  0.74250238  0.72105191  1
  Bi2+  Bi104  1  0.45157332  -0.00507887  0.20459681  1
  Bi2+  Bi105  1  0.33746240  0.07930579  0.68146758  1
  Bi2+  Bi106  1  0.46714879  0.26735188  0.21609622  1
  Bi2+  Bi107  1  0.34849194  0.27297155  0.65431929  1
  Bi2+  Bi108  1  0.36328435  0.52513626  0.21246369  1
  Bi2+  Bi109  1  0.36823101  0.50519750  0.71472746  1
  Bi2+  Bi110  1  0.39842648  0.73456579  0.22273062  1
  Bi2+  Bi111  1  0.36017352  0.78645119  0.69554612  1
  Bi2+  Bi112  1  0.64408427  -0.02969005  0.17286217  1
  Bi2+  Bi113  1  0.48129391  -0.03202799  0.72270529  1
  Bi2+  Bi114  1  0.63908797  0.16810601  0.19743404  1
  Bi2+  Bi115  1  0.52067225  0.26603963  0.70870618  1
  Bi2+  Bi116  1  0.60964323  0.51992108  0.19678115  1
  Bi2+  Bi117  1  0.63698094  0.50747565  0.70848608  1
  Bi2+  Bi118  1  0.64652969  0.75925491  0.26258948  1
  Bi2+  Bi119  1  0.59315092  0.74537902  0.72635108  1
  Bi2+  Bi120  1  0.82515959  0.00972072  0.21160912  1
  Bi2+  Bi121  1  0.85220995  -0.00465021  0.69545556  1
  Bi2+  Bi122  1  0.86354223  0.27562096  0.20187532  1
  Bi2+  Bi123  1  0.81146280  0.24610311  0.70506161  1
  Bi2+  Bi124  1  0.86391239  0.52851008  0.17749888  1
  Bi2+  Bi125  1  0.88447595  0.50505202  0.69915178  1
  Bi2+  Bi126  1  0.82569099  0.74741550  0.21080996  1
  Bi2+  Bi127  1  0.87049998  0.75581099  0.72109654  1
  S2-  S128  1  0.03888998  0.11657673  0.17667975  1
  S2-  S129  1  -0.10383086  0.13486405  0.64461474  1
  S2-  S130  1  -0.00522472  0.31354974  0.13474394  1
  S2-  S131  1  -0.04924432  0.32660314  0.68900524  1
  S2-  S132  1  -0.03342374  0.66603092  0.15983035  1
  S2-  S133  1  0.02793461  0.52391622  0.65045087  1
  S2-  S134  1  0.07157815  0.86741616  0.18011392  1
  S2-  S135  1  -0.00445073  0.94234974  0.65054838  1
  S2-  S136  1  0.23849089  0.13544443  0.20568691  1
  S2-  S137  1  0.12829099  0.12348688  0.63459138  1
  S2-  S138  1  0.26564397  0.29626922  0.14403093  1
  S2-  S139  1  0.17387132  0.36493603  0.64289392  1
  S2-  S140  1  0.26651256  0.72030877  0.15819118  1
  S2-  S141  1  0.34123997  0.63515435  0.64277305  1
  S2-  S142  1  0.27875870  0.93622753  0.19852884  1
  S2-  S143  1  0.24481773  0.87426864  0.64933135  1
  S2-  S144  1  0.42901471  0.13666023  0.14491421  1
  S2-  S145  1  0.51244326  0.09814350  0.66000786  1
  S2-  S146  1  0.52436133  0.38404450  0.15197357  1
  S2-  S147  1  0.49720968  0.47636293  0.64862504  1
  S2-  S148  1  0.48796042  0.62213218  0.15586796  1
  S2-  S149  1  0.63325040  0.64573048  0.64807018  1
  S2-  S150  1  0.44593728  0.84865321  0.15079083  1
  S2-  S151  1  0.51417131  0.83989025  0.64816579  1
  S2-  S152  1  0.84105539  0.14153033  0.13551522  1
  S2-  S153  1  0.71470414  0.10042532  0.67969794  1
  S2-  S154  1  0.76620521  0.38162627  0.15181616  1
  S2-  S155  1  0.75421264  0.39403791  0.66016980  1
  S2-  S156  1  0.72834147  0.63615819  0.14807407  1
  S2-  S157  1  0.86440290  0.63803610  0.64326653  1
  S2-  S158  1  0.86447454  0.87865389  0.14707374  1
  S2-  S159  1  0.77104354  0.86623013  0.65809830  1
  S2-  S160  1  0.16385191  0.04951863  0.32489491  1
  S2-  S161  1  0.06012361  -0.01176184  0.87183584  1
  S2-  S162  1  0.11265196  0.24996476  0.33447914  1
  S2-  S163  1  0.02861281  0.21927636  0.85368412  1
  S2-  S164  1  0.14559276  0.50914047  0.34055727  1
  S2-  S165  1  0.08913459  0.44449548  0.82567614  1
  S2-  S166  1  0.14383891  0.84112966  0.34448897  1
  S2-  S167  1  0.13801960  0.68645143  0.86420472  1
  S2-  S168  1  0.37410437  0.06066416  0.34536784  1
  S2-  S169  1  0.38067858  0.03660621  0.85231744  1
  S2-  S170  1  0.35286133  0.31642499  0.34173613  1
  S2-  S171  1  0.26165738  0.24568228  0.85682325  1
  S2-  S172  1  0.37477436  0.59529532  0.35958870  1
  S2-  S173  1  0.28938069  0.51429571  0.85807220  1
  S2-  S174  1  0.39337320  0.81767946  0.33740120  1
  S2-  S175  1  0.39611125  0.71409083  0.84521763  1
  S2-  S176  1  0.72777674  0.00691957  0.36344347  1
  S2-  S177  1  0.61628643  -0.01254576  0.83300005  1
  S2-  S178  1  0.60564902  0.25028865  0.35413151  1
  S2-  S179  1  0.60502066  0.21388768  0.84350915  1
  S2-  S180  1  0.62424662  0.52326312  0.34982046  1
  S2-  S181  1  0.63446991  0.53893108  0.84072902  1
  S2-  S182  1  0.73259720  0.74310294  0.36014153  1
  S2-  S183  1  0.64610685  0.77296019  0.84493371  1
  S2-  S184  1  0.96860118  -0.01185971  0.35088738  1
  S2-  S185  1  0.82549061  0.02946927  0.83468466  1
  S2-  S186  1  0.88418924  0.21774863  0.34760217  1
  S2-  S187  1  0.83174204  0.24750542  0.82528409  1
  S2-  S188  1  0.87985552  0.50657724  0.34854398  1
  S2-  S189  1  0.85899189  0.46711259  0.82801130  1
  S2-  S190  1  0.98181994  0.72445898  0.35083462  1
  S2-  S191  1  0.89053741  0.83920074  0.85957636  1
  S2-  S192  1  -0.00152324  0.11954730  0.45385739  1
  S2-  S193  1  0.01128892  0.12046704  0.96501357  1
  S2-  S194  1  -0.00349149  0.37083848  0.44293030  1
  S2-  S195  1  0.01276574  0.37499816  0.94156196  1
  S2-  S196  1  -0.00710145  0.61714269  0.45963471  1
  S2-  S197  1  0.00763620  0.62078071  0.95633701  1
  S2-  S198  1  -0.00946291  0.86787720  0.45211472  1
  S2-  S199  1  0.01283866  0.86654874  0.97405980  1
  S2-  S200  1  0.24189254  0.11936997  0.44975239  1
  S2-  S201  1  0.25791611  0.11496400  0.96103879  1
  S2-  S202  1  0.24131146  0.37033384  0.44763869  1
  S2-  S203  1  0.26115373  0.37440784  0.95276208  1
  S2-  S204  1  0.24084299  0.62211304  0.45413657  1
  S2-  S205  1  0.26288311  0.62492480  0.96597215  1
  S2-  S206  1  0.24855557  0.86560839  0.44713700  1
  S2-  S207  1  0.25667590  0.87259907  0.95097701  1
  S2-  S208  1  0.49703018  0.11788320  0.45329898  1
  S2-  S209  1  0.50992014  0.11887194  0.95270690  1
  S2-  S210  1  0.49219119  0.36805514  0.45578988  1
  S2-  S211  1  0.50750818  0.36738953  0.94569091  1
  S2-  S212  1  0.49899476  0.62293729  0.45842848  1
  S2-  S213  1  0.50950267  0.62340763  0.95062139  1
  S2-  S214  1  0.50450477  0.87250707  0.44461905  1
  S2-  S215  1  0.51066690  0.87303550  0.95217191  1
  S2-  S216  1  0.74598094  0.12543133  0.46567897  1
  S2-  S217  1  0.76410451  0.12112829  0.94531927  1
  S2-  S218  1  0.74643046  0.37068372  0.45254430  1
  S2-  S219  1  0.76007425  0.36997117  0.94243082  1
  S2-  S220  1  0.74394146  0.61310502  0.46014057  1
  S2-  S221  1  0.76067852  0.62191490  0.94649733  1
  S2-  S222  1  0.74245077  0.87155878  0.45755457  1
  S2-  S223  1  0.75883083  0.87327311  0.95792386  1
  S2-  S224  1  0.14098009  -0.00019378  0.06828379  1
  S2-  S225  1  0.12474239  -0.01064282  0.53433625  1
  S2-  S226  1  0.13524854  0.24808575  0.04347127  1
  S2-  S227  1  0.11844631  0.25113893  0.53824483  1
  S2-  S228  1  0.13201522  0.49753401  0.03985224  1
  S2-  S229  1  0.12338783  0.49666967  0.54342508  1
  S2-  S230  1  0.13431130  0.74888367  0.06121597  1
  S2-  S231  1  0.12100640  0.74455869  0.54694478  1
  S2-  S232  1  0.38110697  -0.00469250  0.05376399  1
  S2-  S233  1  0.36757458  -0.00617036  0.54387332  1
  S2-  S234  1  0.38438519  0.24461808  0.03803322  1
  S2-  S235  1  0.36640745  0.24412507  0.53646456  1
  S2-  S236  1  0.38445152  0.49722378  0.04913975  1
  S2-  S237  1  0.36683130  0.49400574  0.54384815  1
  S2-  S238  1  0.38430792  0.74763465  0.04844424  1
  S2-  S239  1  0.37167433  0.74779322  0.53693455  1
  S2-  S240  1  0.63454686  0.00115853  0.04105212  1
  S2-  S241  1  0.61999330  -0.00137916  0.54877815  1
  S2-  S242  1  0.63409070  0.24126255  0.04634252  1
  S2-  S243  1  0.61914697  0.24568164  0.55868201  1
  S2-  S244  1  0.63349555  0.49721769  0.04177961  1
  S2-  S245  1  0.61999922  0.49412264  0.54993529  1
  S2-  S246  1  0.63499103  0.74759225  0.04916443  1
  S2-  S247  1  0.61897133  0.74677435  0.54090156  1
  S2-  S248  1  0.88517947  -0.00217992  0.04210825  1
  S2-  S249  1  0.86809574  -0.00564692  0.54137354  1
  S2-  S250  1  0.88371002  0.25130768  0.02812336  1
  S2-  S251  1  0.88088407  0.25544297  0.55038221  1
  S2-  S252  1  0.88488073  0.49664509  0.03737994  1
  S2-  S253  1  0.87720927  0.48819421  0.55037932  1
  S2-  S254  1  0.88044507  0.74301236  0.04831087  1
  S2-  S255  1  0.86700548  0.74774154  0.54018828  1
