# generated using pymatgen
data_La12Ce14Pr13Nd13Sm12(BiS2)64
_symmetry_space_group_name_H-M   'P 1'
_cell_length_a   16.17587238
_cell_length_b   16.19393063
_cell_length_c   27.09918139
_cell_angle_alpha   90.00275873
_cell_angle_beta   90.01523654
_cell_angle_gamma   90.06272819
_symmetry_Int_Tables_number   1
_chemical_formula_structural   La12Ce14Pr13Nd13Sm12(BiS2)64
_chemical_formula_sum   'La12 Ce14 Pr13 Nd13 Sm12 Bi64 S128'
_cell_volume   7098.65193572
_cell_formula_units_Z   1
loop_
 _symmetry_equiv_pos_site_id
 _symmetry_equiv_pos_as_xyz
  1  'x, y, z'
loop_
 _atom_type_symbol
 _atom_type_oxidation_number
  La3+  3.0
  Ce3+  3.0
  Pr3+  3.0
  Nd3+  3.0
  Sm3+  3.0
  Bi2+  2.0
  S2-  -2.0
loop_
 _atom_site_type_symbol
 _atom_site_label
 _atom_site_symmetry_multiplicity
 _atom_site_fract_x
 _atom_site_fract_y
 _atom_site_fract_z
 _atom_site_occupancy
  La3+  La0  1  0.62036758  -0.01184587  0.93348815  1
  La3+  La1  1  0.49339799  0.12090149  0.59134681  1
  La3+  La2  1  0.26171991  0.60943461  0.10666710  1
  La3+  La3  1  0.61845596  0.74092020  0.90870327  1
  La3+  La4  1  0.00711583  0.37801541  0.56237114  1
  La3+  La5  1  0.63195912  0.23522458  0.91391918  1
  La3+  La6  1  0.00985446  0.10072025  0.10858042  1
  La3+  La7  1  0.50836225  0.63389203  0.55880825  1
  La3+  La8  1  0.36214414  0.24583857  0.91885067  1
  La3+  La9  1  0.76449028  0.62910545  0.57718844  1
  La3+  La10  1  0.50716604  0.38902256  0.58139462  1
  La3+  La11  1  0.12534618  0.49215208  0.93809765  1
  Ce3+  Ce12  1  0.00525529  0.61952281  0.06124738  1
  Ce3+  Ce13  1  0.49782650  0.36714061  0.04642485  1
  Ce3+  Ce14  1  0.87200777  0.23963837  0.94683209  1
  Ce3+  Ce15  1  0.51062888  0.87953695  0.56575383  1
  Ce3+  Ce16  1  0.37249728  0.74047181  0.94241962  1
  Ce3+  Ce17  1  0.75350324  0.37721604  0.55752029  1
  Ce3+  Ce18  1  0.87176674  0.49487680  0.94768982  1
  Ce3+  Ce19  1  0.00020023  0.36692448  0.06230976  1
  Ce3+  Ce20  1  0.62215409  0.49151307  0.93792936  1
  Ce3+  Ce21  1  0.13416142  0.25810310  0.44207192  1
  Ce3+  Ce22  1  0.75338216  0.13323166  0.56286689  1
  Ce3+  Ce23  1  0.87368341  0.73991645  0.92544082  1
  Ce3+  Ce24  1  0.38406739  0.51219404  0.43072947  1
  Ce3+  Ce25  1  0.87988013  0.75610267  0.44298740  1
  Pr3+  Pr26  1  0.49830527  0.86313683  0.06236782  1
  Pr3+  Pr27  1  0.74985876  0.11549153  0.06814387  1
  Pr3+  Pr28  1  0.13433975  0.50579108  0.43128216  1
  Pr3+  Pr29  1  0.12804455  0.75572082  0.43861681  1
  Pr3+  Pr30  1  0.25568860  0.11757441  0.06294199  1
  Pr3+  Pr31  1  0.38347804  0.00783185  0.43365636  1
  Pr3+  Pr32  1  0.75014497  0.61953515  0.05871420  1
  Pr3+  Pr33  1  0.87221018  -0.00691416  0.93648810  1
  Pr3+  Pr34  1  0.12093648  0.24191170  0.94580490  1
  Pr3+  Pr35  1  0.74926563  0.86496358  0.05478200  1
  Pr3+  Pr36  1  0.00496710  0.88346442  0.56723200  1
  Pr3+  Pr37  1  0.25538872  0.63266268  0.56014870  1
  Pr3+  Pr38  1  0.12120761  0.74325888  0.92738829  1
  Nd3+  Nd39  1  0.12396252  -0.00566501  0.93626661  1
  Nd3+  Nd40  1  0.88080519  0.00880452  0.43982726  1
  Nd3+  Nd41  1  0.63560001  0.75753881  0.44296263  1
  Nd3+  Nd42  1  0.49927578  0.12217589  0.05790469  1
  Nd3+  Nd43  1  0.25616805  0.88119593  0.55683661  1
  Nd3+  Nd44  1  0.63068361  0.00894625  0.44780104  1
  Nd3+  Nd45  1  0.00835411  0.13090913  0.56108283  1
  Nd3+  Nd46  1  0.25152240  0.36670990  0.06789427  1
  Nd3+  Nd47  1  0.38267489  0.76341427  0.42842517  1
  Nd3+  Nd48  1  0.63552656  0.50665166  0.43725387  1
  Nd3+  Nd49  1  0.25608899  0.39273825  0.56776648  1
  Nd3+  Nd50  1  0.76121205  0.88518746  0.56923794  1
  Nd3+  Nd51  1  0.25845089  0.13506751  0.55983665  1
  Sm3+  Sm52  1  0.87926666  0.50409184  0.44260592  1
  Sm3+  Sm53  1  0.62662625  0.25593932  0.45093482  1
  Sm3+  Sm54  1  0.24440380  0.86378649  0.05722256  1
  Sm3+  Sm55  1  0.74665404  0.36646683  0.05313082  1
  Sm3+  Sm56  1  0.00612509  0.62959607  0.55698732  1
  Sm3+  Sm57  1  0.12976586  0.00917022  0.43965325  1
  Sm3+  Sm58  1  -0.00005584  0.86795111  0.05325845  1
  Sm3+  Sm59  1  0.50027145  0.61760171  0.05766728  1
  Sm3+  Sm60  1  0.37267747  0.49427912  0.94113225  1
  Sm3+  Sm61  1  0.88089781  0.25628227  0.44159574  1
  Sm3+  Sm62  1  0.37237985  -0.00698714  0.94159850  1
  Sm3+  Sm63  1  0.38314335  0.25972269  0.44856595  1
  Bi2+  Bi64  1  -0.00168039  0.13003919  0.31399488  1
  Bi2+  Bi65  1  -0.00754071  0.09865453  0.80369729  1
  Bi2+  Bi66  1  -0.06328150  0.36138234  0.26159010  1
  Bi2+  Bi67  1  0.03783382  0.29043256  0.81339201  1
  Bi2+  Bi68  1  -0.00294574  0.67181297  0.28062434  1
  Bi2+  Bi69  1  -0.00526381  0.59936586  0.78267992  1
  Bi2+  Bi70  1  -0.02556505  0.86163562  0.23585068  1
  Bi2+  Bi71  1  0.03099726  0.86441560  0.78512549  1
  Bi2+  Bi72  1  0.26993039  0.13945097  0.29818013  1
  Bi2+  Bi73  1  0.19666973  0.08809207  0.73956268  1
  Bi2+  Bi74  1  0.24424272  0.35705368  0.30706696  1
  Bi2+  Bi75  1  0.20859477  0.39903355  0.78960216  1
  Bi2+  Bi76  1  0.24391985  0.60532648  0.30802894  1
  Bi2+  Bi77  1  0.24866033  0.69826736  0.80310075  1
  Bi2+  Bi78  1  0.27522734  0.90144532  0.27100100  1
  Bi2+  Bi79  1  0.21224098  0.88056308  0.82812804  1
  Bi2+  Bi80  1  0.51968344  0.16480438  0.30067915  1
  Bi2+  Bi81  1  0.51380755  0.12328849  0.79427990  1
  Bi2+  Bi82  1  0.53900860  0.32707064  0.23820232  1
  Bi2+  Bi83  1  0.48506460  0.38651283  0.79805607  1
  Bi2+  Bi84  1  0.53565717  0.59958213  0.25025524  1
  Bi2+  Bi85  1  0.52315740  0.63486697  0.78500782  1
  Bi2+  Bi86  1  0.53105198  0.89768896  0.29733682  1
  Bi2+  Bi87  1  0.50000953  0.85524654  0.77717252  1
  Bi2+  Bi88  1  0.73788968  0.12597097  0.30533604  1
  Bi2+  Bi89  1  0.79030875  0.10123286  0.79552107  1
  Bi2+  Bi90  1  0.72235660  0.39736817  0.30065056  1
  Bi2+  Bi91  1  0.77838555  0.41600824  0.78410883  1
  Bi2+  Bi92  1  0.71704966  0.62731034  0.31304719  1
  Bi2+  Bi93  1  0.79507138  0.60852137  0.76762040  1
  Bi2+  Bi94  1  0.76744085  0.80568109  0.27724623  1
  Bi2+  Bi95  1  0.75279703  0.85385186  0.77970345  1
  Bi2+  Bi96  1  0.12454477  0.00668768  0.23215198  1
  Bi2+  Bi97  1  0.09863791  -0.04808436  0.68204542  1
  Bi2+  Bi98  1  0.17377193  0.23552685  0.21328610  1
  Bi2+  Bi99  1  0.11970158  0.25627389  0.70771405  1
  Bi2+  Bi100  1  0.10415607  0.48143470  0.21140799  1
  Bi2+  Bi101  1  0.11743555  0.57222334  0.68690512  1
  Bi2+  Bi102  1  0.14222465  0.76578538  0.20351238  1
  Bi2+  Bi103  1  0.15830514  0.75994161  0.69726305  1
  Bi2+  Bi104  1  0.40114376  0.04256960  0.23285623  1
  Bi2+  Bi105  1  0.34261411  -0.03910291  0.75555627  1
  Bi2+  Bi106  1  0.36415414  0.25114631  0.19992006  1
  Bi2+  Bi107  1  0.36925851  0.24015725  0.70938411  1
  Bi2+  Bi108  1  0.39737007  0.48349222  0.21417381  1
  Bi2+  Bi109  1  0.34177810  0.55632419  0.74827878  1
  Bi2+  Bi110  1  0.40059413  0.75996822  0.24565027  1
  Bi2+  Bi111  1  0.36857791  0.73498166  0.70277136  1
  Bi2+  Bi112  1  0.60144778  0.02644080  0.21456602  1
  Bi2+  Bi113  1  0.62769742  -0.00547199  0.70444442  1
  Bi2+  Bi114  1  0.62093420  0.19596056  0.16610281  1
  Bi2+  Bi115  1  0.66401179  0.25048179  0.71113633  1
  Bi2+  Bi116  1  0.68536936  0.50278633  0.20463072  1
  Bi2+  Bi117  1  0.60862054  0.49032096  0.70454643  1
  Bi2+  Bi118  1  0.62772613  0.79686554  0.19702280  1
  Bi2+  Bi119  1  0.56500220  0.73769398  0.68961755  1
  Bi2+  Bi120  1  0.80734986  0.00238840  0.22590188  1
  Bi2+  Bi121  1  0.92830014  0.03679423  0.70031304  1
  Bi2+  Bi122  1  0.79299486  0.24547483  0.21813595  1
  Bi2+  Bi123  1  0.88150018  0.26615585  0.74015198  1
  Bi2+  Bi124  1  0.89527383  0.53507603  0.21960104  1
  Bi2+  Bi125  1  0.92550620  0.45504538  0.71090850  1
  Bi2+  Bi126  1  0.87226556  0.71661275  0.18535466  1
  Bi2+  Bi127  1  0.95370579  0.75663802  0.70146087  1
  S2-  S128  1  0.02175381  0.14790958  0.21584922  1
  S2-  S129  1  -0.01274453  0.18612307  0.65450295  1
  S2-  S130  1  0.01858041  0.37226811  0.16138362  1
  S2-  S131  1  0.06393642  0.41180379  0.65592119  1
  S2-  S132  1  0.09463609  0.62262180  0.14618610  1
  S2-  S133  1  -0.08597548  0.62808410  0.64054849  1
  S2-  S134  1  0.00442042  0.93392895  0.14552127  1
  S2-  S135  1  -0.11132611  0.89311781  0.64382002  1
  S2-  S136  1  0.17303157  0.09386621  0.15084060  1
  S2-  S137  1  0.33451295  0.11458162  0.64747884  1
  S2-  S138  1  0.24625990  0.45451068  0.15643203  1
  S2-  S139  1  0.26437934  0.32413998  0.66061190  1
  S2-  S140  1  0.27437093  0.66089489  0.20875788  1
  S2-  S141  1  0.26406256  0.53504908  0.64390382  1
  S2-  S142  1  0.24400088  0.86324539  0.15578171  1
  S2-  S143  1  0.28866355  0.86579491  0.65462013  1
  S2-  S144  1  0.38856957  0.12058205  0.13553350  1
  S2-  S145  1  0.53476634  0.15898777  0.68949282  1
  S2-  S146  1  0.46523971  0.37131448  0.14258845  1
  S2-  S147  1  0.49801057  0.35527474  0.68553502  1
  S2-  S148  1  0.44513199  0.60024417  0.15093051  1
  S2-  S149  1  0.49747509  0.53709548  0.64141951  1
  S2-  S150  1  0.47854254  0.84130554  0.16299003  1
  S2-  S151  1  0.49665852  0.96734385  0.64885416  1
  S2-  S152  1  0.84983729  0.11308383  0.15183517  1
  S2-  S153  1  0.73718984  0.12001580  0.66100527  1
  S2-  S154  1  0.74853001  0.37078004  0.15137803  1
  S2-  S155  1  0.72375338  0.38671553  0.65315106  1
  S2-  S156  1  0.68358676  0.65563635  0.14903964  1
  S2-  S157  1  0.70277381  0.62707651  0.67383243  1
  S2-  S158  1  0.73371669  0.91835329  0.15081861  1
  S2-  S159  1  0.68547784  0.86209683  0.66114636  1
  S2-  S160  1  0.10786526  0.00275926  0.34231066  1
  S2-  S161  1  0.14421707  0.05055541  0.84096549  1
  S2-  S162  1  0.12805516  0.23889187  0.34475731  1
  S2-  S163  1  0.20391941  0.27225989  0.85876382  1
  S2-  S164  1  0.12364320  0.47544486  0.33060937  1
  S2-  S165  1  0.11408911  0.50602364  0.83673645  1
  S2-  S166  1  0.14197605  0.72753961  0.33896364  1
  S2-  S167  1  -0.00306869  0.73643032  0.85290159  1
  S2-  S168  1  0.38020152  -0.10497257  0.35684165  1
  S2-  S169  1  0.40402891  0.01945826  0.84548659  1
  S2-  S170  1  0.38109717  0.24176194  0.34909578  1
  S2-  S171  1  0.39632275  0.24242894  0.81757824  1
  S2-  S172  1  0.35338985  0.46643197  0.33611846  1
  S2-  S173  1  0.34687632  0.46708070  0.84421175  1
  S2-  S174  1  0.38085186  0.67221132  0.34276315  1
  S2-  S175  1  0.45771906  0.74223455  0.85610916  1
  S2-  S176  1  0.63046377  0.00449616  0.34839086  1
  S2-  S177  1  0.63930010  0.08990137  0.85166578  1
  S2-  S178  1  0.64335253  0.26057692  0.35236925  1
  S2-  S179  1  0.60069526  0.27850754  0.81212099  1
  S2-  S180  1  0.59251117  0.51080951  0.33977992  1
  S2-  S181  1  0.59703331  0.50671850  0.84037792  1
  S2-  S182  1  0.61162929  0.76618097  0.34404364  1
  S2-  S183  1  0.62447633  0.88218582  0.84605075  1
  S2-  S184  1  0.87145267  0.02469313  0.34016342  1
  S2-  S185  1  0.84470591  -0.05727321  0.83793576  1
  S2-  S186  1  0.89953289  0.26764052  0.34353076  1
  S2-  S187  1  0.79917355  0.22901758  0.85843861  1
  S2-  S188  1  0.83029296  0.50919589  0.34824061  1
  S2-  S189  1  0.87128344  0.50793587  0.84965430  1
  S2-  S190  1  0.89045970  0.75565549  0.34534316  1
  S2-  S191  1  0.76316236  0.72183814  0.84335941  1
  S2-  S192  1  0.00650462  0.13342444  0.45344908  1
  S2-  S193  1  -0.00262932  0.11689079  0.94729901  1
  S2-  S194  1  0.00421595  0.38154257  0.45093206  1
  S2-  S195  1  -0.00403757  0.36798669  0.95445469  1
  S2-  S196  1  0.00357201  0.62668723  0.45049122  1
  S2-  S197  1  -0.00111232  0.61624031  0.95532278  1
  S2-  S198  1  0.00646889  0.88527552  0.45438570  1
  S2-  S199  1  -0.00072944  0.87091922  0.94838820  1
  S2-  S200  1  0.25797273  0.13067751  0.45213958  1
  S2-  S201  1  0.24970725  0.11587984  0.95391572  1
  S2-  S202  1  0.25872117  0.38209408  0.45635980  1
  S2-  S203  1  0.24970905  0.37164048  0.96066126  1
  S2-  S204  1  0.25608171  0.63405092  0.45200210  1
  S2-  S205  1  0.24950978  0.61812248  0.94272718  1
  S2-  S206  1  0.24943010  0.88405391  0.45054392  1
  S2-  S207  1  0.24955128  0.86797725  0.95155719  1
  S2-  S208  1  0.50438659  0.13298413  0.45687121  1
  S2-  S209  1  0.49299465  0.12011604  0.95140794  1
  S2-  S210  1  0.50747160  0.38201762  0.45466314  1
  S2-  S211  1  0.49574076  0.36619847  0.94049230  1
  S2-  S212  1  0.51109174  0.63407757  0.45048084  1
  S2-  S213  1  0.49801437  0.61426921  0.95290127  1
  S2-  S214  1  0.51063217  0.88108028  0.45775981  1
  S2-  S215  1  0.49309263  0.86770613  0.95503960  1
  S2-  S216  1  0.75570617  0.13513447  0.45513971  1
  S2-  S217  1  0.74881052  0.11328563  0.96079996  1
  S2-  S218  1  0.75614304  0.37729101  0.45234298  1
  S2-  S219  1  0.74714274  0.36909850  0.94840378  1
  S2-  S220  1  0.75880029  0.62941417  0.46023324  1
  S2-  S221  1  0.74431616  0.61624059  0.95165617  1
  S2-  S222  1  0.75775457  0.88503143  0.45573695  1
  S2-  S223  1  0.74851592  0.86211033  0.94992735  1
  S2-  S224  1  0.12486024  -0.00965743  0.04306174  1
  S2-  S225  1  0.13353427  0.00859305  0.54621665  1
  S2-  S226  1  0.12301004  0.24106351  0.05412359  1
  S2-  S227  1  0.13480930  0.25676018  0.54897455  1
  S2-  S228  1  0.12742015  0.49147621  0.04709382  1
  S2-  S229  1  0.12841808  0.50847771  0.53922084  1
  S2-  S230  1  0.12311482  0.74621908  0.03921596  1
  S2-  S231  1  0.12668664  0.75580196  0.54785725  1
  S2-  S232  1  0.37230182  -0.01554735  0.04562963  1
  S2-  S233  1  0.37889948  0.00305463  0.54005386  1
  S2-  S234  1  0.37308826  0.24704006  0.03500950  1
  S2-  S235  1  0.38353075  0.26166170  0.55277787  1
  S2-  S236  1  0.37179824  0.49596649  0.04541386  1
  S2-  S237  1  0.38164018  0.50785422  0.53839843  1
  S2-  S238  1  0.36744970  0.73646193  0.05116577  1
  S2-  S239  1  0.38058479  0.75827610  0.54173250  1
  S2-  S240  1  0.61911742  -0.00728573  0.04556993  1
  S2-  S241  1  0.63183016  0.00780601  0.55286769  1
  S2-  S242  1  0.62412523  0.24468774  0.03568527  1
  S2-  S243  1  0.62183979  0.25347073  0.55643502  1
  S2-  S244  1  0.62320243  0.49287330  0.04654499  1
  S2-  S245  1  0.63655428  0.50661790  0.54516904  1
  S2-  S246  1  0.62029285  0.74134301  0.03955097  1
  S2-  S247  1  0.63934151  0.75591954  0.54945689  1
  S2-  S248  1  0.87612789  -0.00945376  0.04396080  1
  S2-  S249  1  0.88169347  0.01306034  0.54566191  1
  S2-  S250  1  0.87275724  0.24597667  0.05212186  1
  S2-  S251  1  0.87998674  0.25449917  0.54754486  1
  S2-  S252  1  0.87337169  0.49228640  0.05520692  1
  S2-  S253  1  0.88151278  0.49979738  0.54672214  1
  S2-  S254  1  0.87702564  0.74346204  0.04077835  1
  S2-  S255  1  0.88352776  0.75711184  0.54562687  1
