# generated using pymatgen
data_La12Ce14Pr13Nd13Sm12(BiS2)64
_symmetry_space_group_name_H-M   'P 1'
_cell_length_a   16.09528080
_cell_length_b   16.11620983
_cell_length_c   27.33018408
_cell_angle_alpha   90.18949614
_cell_angle_beta   90.20300468
_cell_angle_gamma   89.94624176
_symmetry_Int_Tables_number   1
_chemical_formula_structural   La12Ce14Pr13Nd13Sm12(BiS2)64
_chemical_formula_sum   'La12 Ce14 Pr13 Nd13 Sm12 Bi64 S128'
_cell_volume   7089.22466975
_cell_formula_units_Z   1
loop_
 _symmetry_equiv_pos_site_id
 _symmetry_equiv_pos_as_xyz
  1  'x, y, z'
loop_
 _atom_type_symbol
 _atom_type_oxidation_number
  La3+  3.0
  Ce3+  3.0
  Pr3+  3.0
  Nd3+  3.0
  Sm3+  3.0
  Bi2+  2.0
  S2-  -2.0
loop_
 _atom_site_type_symbol
 _atom_site_label
 _atom_site_symmetry_multiplicity
 _atom_site_fract_x
 _atom_site_fract_y
 _atom_site_fract_z
 _atom_site_occupancy
  La3+  La0  1  0.72572709  0.37462276  0.07731819  1
  La3+  La1  1  0.60888695  -0.02249052  0.40478193  1
  La3+  La2  1  0.25537567  0.10188614  0.59222078  1
  La3+  La3  1  0.74251929  0.11469555  0.07464338  1
  La3+  La4  1  0.10945137  -0.00255687  0.89763463  1
  La3+  La5  1  0.60977150  0.73896662  0.91041853  1
  La3+  La6  1  0.49096810  0.60448803  0.57660959  1
  La3+  La7  1  0.61909016  0.73019128  0.43207286  1
  La3+  La8  1  0.87183184  0.72730926  0.42583877  1
  La3+  La9  1  0.85537380  0.25316089  0.93443128  1
  La3+  La10  1  0.74033891  0.85640048  0.58776986  1
  La3+  La11  1  0.49674342  0.35658187  0.56719830  1
  Ce3+  Ce12  1  0.23564274  0.36897320  0.05112722  1
  Ce3+  Ce13  1  -0.01732908  0.37367586  0.06374907  1
  Ce3+  Ce14  1  -0.00306655  0.10187308  0.58532994  1
  Ce3+  Ce15  1  0.48495861  0.37201595  0.05523832  1
  Ce3+  Ce16  1  -0.01149045  0.62525667  0.06351346  1
  Ce3+  Ce17  1  0.74588404  0.35485867  0.55592027  1
  Ce3+  Ce18  1  0.35959659  0.23795794  0.92752540  1
  Ce3+  Ce19  1  0.48793952  0.11977867  0.06149809  1
  Ce3+  Ce20  1  -0.01197993  0.61832825  0.56862928  1
  Ce3+  Ce21  1  0.36634548  0.48031561  0.44805870  1
  Ce3+  Ce22  1  0.85588084  0.49906203  0.95463051  1
  Ce3+  Ce23  1  0.11992501  -0.01707171  0.44241416  1
  Ce3+  Ce24  1  0.48718593  0.87194820  0.05067128  1
  Ce3+  Ce25  1  0.23384641  0.87598588  0.04830745  1
  Pr3+  Pr26  1  -0.01357821  0.87585355  0.05893432  1
  Pr3+  Pr27  1  0.49472350  0.85836239  0.55692230  1
  Pr3+  Pr28  1  0.86865377  0.22942834  0.43571947  1
  Pr3+  Pr29  1  0.11699055  0.72373221  0.43175843  1
  Pr3+  Pr30  1  -0.01116224  0.13198889  0.06173055  1
  Pr3+  Pr31  1  0.86228282  -0.00136239  0.93107804  1
  Pr3+  Pr32  1  -0.00523583  0.85752048  0.56665380  1
  Pr3+  Pr33  1  -0.00723550  0.35349926  0.57521531  1
  Pr3+  Pr34  1  0.35745459  0.74385483  0.93181040  1
  Pr3+  Pr35  1  0.23408065  0.62617969  0.06862884  1
  Pr3+  Pr36  1  0.86635545  -0.02175197  0.44117721  1
  Pr3+  Pr37  1  0.61548740  -0.00140872  0.93115795  1
  Pr3+  Pr38  1  0.23548321  0.35874942  0.57566200  1
  Nd3+  Nd39  1  0.49580720  0.10355548  0.55774321  1
  Nd3+  Nd40  1  0.23464297  0.12418130  0.04987500  1
  Nd3+  Nd41  1  0.11739951  0.22968320  0.45221239  1
  Nd3+  Nd42  1  0.61098704  0.49723933  0.93737691  1
  Nd3+  Nd43  1  0.35975024  -0.01823247  0.42916800  1
  Nd3+  Nd44  1  0.24417693  0.85991611  0.55306572  1
  Nd3+  Nd45  1  0.24271634  0.61192616  0.57145445  1
  Nd3+  Nd46  1  0.36238815  -0.00312200  0.93358325  1
  Nd3+  Nd47  1  0.36562226  0.23175960  0.44754662  1
  Nd3+  Nd48  1  0.10047739  0.25519634  0.92137542  1
  Nd3+  Nd49  1  0.10969150  0.74493067  0.93467993  1
  Nd3+  Nd50  1  0.36861132  0.71911853  0.43451925  1
  Nd3+  Nd51  1  0.86726382  0.48176045  0.45185040  1
  Sm3+  Sm52  1  0.86211364  0.74781021  0.94289997  1
  Sm3+  Sm53  1  0.73877486  0.61341088  0.56797671  1
  Sm3+  Sm54  1  0.72503358  0.62939142  0.06980719  1
  Sm3+  Sm55  1  0.36063859  0.49455180  0.94099208  1
  Sm3+  Sm56  1  0.10966523  0.49556162  0.93989409  1
  Sm3+  Sm57  1  0.47982491  0.62651540  0.06181305  1
  Sm3+  Sm58  1  0.61518899  0.23158059  0.43985846  1
  Sm3+  Sm59  1  0.61753486  0.48521732  0.43985836  1
  Sm3+  Sm60  1  0.61348186  0.24596719  0.94326700  1
  Sm3+  Sm61  1  0.11642604  0.48230990  0.44801796  1
  Sm3+  Sm62  1  0.73451157  0.87015889  0.05218965  1
  Sm3+  Sm63  1  0.74505802  0.10538710  0.54908329  1
  Bi2+  Bi64  1  0.04604297  0.14261840  0.28274603  1
  Bi2+  Bi65  1  0.00510301  0.13197238  0.78276172  1
  Bi2+  Bi66  1  0.00109988  0.36323409  0.29885022  1
  Bi2+  Bi67  1  -0.02418823  0.38845373  0.79183298  1
  Bi2+  Bi68  1  -0.01320636  0.62385073  0.30324112  1
  Bi2+  Bi69  1  0.03355409  0.59746669  0.79188860  1
  Bi2+  Bi70  1  0.03424096  0.86719177  0.26671174  1
  Bi2+  Bi71  1  -0.02157586  0.85532669  0.78423935  1
  Bi2+  Bi72  1  0.24326108  0.15216799  0.30189415  1
  Bi2+  Bi73  1  0.27486293  0.13076658  0.78016205  1
  Bi2+  Bi74  1  0.31914301  0.40295861  0.31675586  1
  Bi2+  Bi75  1  0.25324508  0.41238487  0.79182114  1
  Bi2+  Bi76  1  0.24110447  0.66128449  0.30719161  1
  Bi2+  Bi77  1  0.20213321  0.69248142  0.81054570  1
  Bi2+  Bi78  1  0.22875031  0.91573117  0.27307125  1
  Bi2+  Bi79  1  0.34459864  0.83840016  0.80879245  1
  Bi2+  Bi80  1  0.51403211  0.20639017  0.28060055  1
  Bi2+  Bi81  1  0.53968952  0.12933087  0.79915865  1
  Bi2+  Bi82  1  0.54068170  0.40363525  0.30288968  1
  Bi2+  Bi83  1  0.52118574  0.33154040  0.79121842  1
  Bi2+  Bi84  1  0.43096855  0.65506911  0.27531272  1
  Bi2+  Bi85  1  0.48421415  0.58970192  0.78896451  1
  Bi2+  Bi86  1  0.49051079  0.87261289  0.28118837  1
  Bi2+  Bi87  1  0.52819534  0.93212514  0.81169585  1
  Bi2+  Bi88  1  0.78001730  0.13530879  0.30082187  1
  Bi2+  Bi89  1  0.74069014  0.13364348  0.78311708  1
  Bi2+  Bi90  1  0.73428245  0.47712567  0.30917678  1
  Bi2+  Bi91  1  0.71717910  0.37241897  0.79933895  1
  Bi2+  Bi92  1  0.67723191  0.66024173  0.27820565  1
  Bi2+  Bi93  1  0.75745977  0.55854290  0.78140494  1
  Bi2+  Bi94  1  0.76906382  0.89205330  0.29063902  1
  Bi2+  Bi95  1  0.77891432  0.88730145  0.78837897  1
  Bi2+  Bi96  1  0.11155505  0.01870947  0.20409210  1
  Bi2+  Bi97  1  0.13021666  -0.04708991  0.71307562  1
  Bi2+  Bi98  1  0.17437159  0.25462526  0.20184718  1
  Bi2+  Bi99  1  0.12489958  0.26550557  0.70427470  1
  Bi2+  Bi100  1  0.15735625  0.45392912  0.25804784  1
  Bi2+  Bi101  1  0.16320010  0.55303746  0.70654501  1
  Bi2+  Bi102  1  0.14766304  0.73054088  0.21481217  1
  Bi2+  Bi103  1  0.15242656  0.74766538  0.70439815  1
  Bi2+  Bi104  1  0.38305045  0.03687773  0.24976108  1
  Bi2+  Bi105  1  0.39557611  -0.05805812  0.71398275  1
  Bi2+  Bi106  1  0.39850495  0.32643152  0.22097806  1
  Bi2+  Bi107  1  0.43610550  0.23467380  0.70333423  1
  Bi2+  Bi108  1  0.32964900  0.51660354  0.21375023  1
  Bi2+  Bi109  1  0.35347749  0.50404611  0.71332013  1
  Bi2+  Bi110  1  0.36203860  0.78396848  0.19498640  1
  Bi2+  Bi111  1  0.42378234  0.74008361  0.71962699  1
  Bi2+  Bi112  1  0.59364392  0.01869154  0.19443846  1
  Bi2+  Bi113  1  0.58607463  -0.00565939  0.71103680  1
  Bi2+  Bi114  1  0.66141344  0.29730808  0.21644023  1
  Bi2+  Bi115  1  0.62786491  0.21082675  0.69523971  1
  Bi2+  Bi116  1  0.60715470  0.50870110  0.21451894  1
  Bi2+  Bi117  1  0.61554922  0.47721395  0.71289857  1
  Bi2+  Bi118  1  0.64986377  0.77506483  0.18407092  1
  Bi2+  Bi119  1  0.64424822  0.73402588  0.71098665  1
  Bi2+  Bi120  1  0.87588154  -0.03224430  0.20772919  1
  Bi2+  Bi121  1  0.87373798  0.05065269  0.70752483  1
  Bi2+  Bi122  1  0.91736145  0.22795741  0.20998450  1
  Bi2+  Bi123  1  0.85466116  0.31629139  0.70875570  1
  Bi2+  Bi124  1  0.88105916  0.47448180  0.23056795  1
  Bi2+  Bi125  1  0.89887728  0.50542314  0.70358869  1
  Bi2+  Bi126  1  0.94884560  0.64326943  0.19521306  1
  Bi2+  Bi127  1  0.90370798  0.70112214  0.72334784  1
  S2-  S128  1  -0.11448612  0.10636424  0.14281331  1
  S2-  S129  1  -0.03060593  0.23320143  0.65207093  1
  S2-  S130  1  0.02691706  0.27731914  0.14059030  1
  S2-  S131  1  0.11150565  0.39633863  0.64981535  1
  S2-  S132  1  0.10212542  0.61727638  0.14000821  1
  S2-  S133  1  0.01064989  0.73385505  0.64297642  1
  S2-  S134  1  -0.03022921  0.86177195  0.15960451  1
  S2-  S135  1  -0.00596536  0.96540548  0.64871421  1
  S2-  S136  1  0.22210170  0.12075031  0.15092038  1
  S2-  S137  1  0.14169514  0.10349453  0.66945990  1
  S2-  S138  1  0.27550033  0.36065196  0.14588444  1
  S2-  S139  1  0.27603281  0.26697404  0.66046574  1
  S2-  S140  1  0.36246631  0.63459473  0.13913008  1
  S2-  S141  1  0.35974903  0.64171874  0.64666418  1
  S2-  S142  1  0.22993054  0.84073972  0.14347238  1
  S2-  S143  1  0.25847233  0.92396996  0.64590983  1
  S2-  S144  1  0.45979041  0.09436594  0.15850495  1
  S2-  S145  1  0.41252713  0.09102855  0.64614786  1
  S2-  S146  1  0.57628000  0.38125593  0.13890834  1
  S2-  S147  1  0.48026035  0.45203779  0.65025437  1
  S2-  S148  1  0.59013537  0.63250471  0.13916668  1
  S2-  S149  1  0.61934359  0.60951386  0.64667345  1
  S2-  S150  1  0.50305214  0.86452182  0.14930233  1
  S2-  S151  1  0.58527821  0.85514888  0.64660652  1
  S2-  S152  1  0.66530814  0.15370518  0.16414584  1
  S2-  S153  1  0.74939374  0.12029910  0.64674290  1
  S2-  S154  1  0.80873502  0.35184687  0.16648290  1
  S2-  S155  1  0.70076166  0.35907931  0.64929292  1
  S2-  S156  1  0.78627755  0.69650678  0.15741291  1
  S2-  S157  1  0.77961421  0.71574388  0.64850857  1
  S2-  S158  1  0.72945058  0.93599574  0.14408537  1
  S2-  S159  1  0.78982084  0.91512944  0.68568139  1
  S2-  S160  1  0.22030349  0.00177835  0.36222014  1
  S2-  S161  1  0.20098840  -0.00540523  0.80621040  1
  S2-  S162  1  0.11996883  0.25400077  0.35279666  1
  S2-  S163  1  0.15126527  0.18393836  0.83269528  1
  S2-  S164  1  0.12142529  0.58035577  0.36648280  1
  S2-  S165  1  0.11179443  0.40491246  0.85548324  1
  S2-  S166  1  0.00792563  0.77066419  0.35425292  1
  S2-  S167  1  0.09840365  0.83162901  0.84916171  1
  S2-  S168  1  0.45717569  -0.00036905  0.34578881  1
  S2-  S169  1  0.37702169  0.10423436  0.85531995  1
  S2-  S170  1  0.37230957  0.23251337  0.34784347  1
  S2-  S171  1  0.36147716  0.31053516  0.83657238  1
  S2-  S172  1  0.36613551  0.56629596  0.36400589  1
  S2-  S173  1  0.34885803  0.52800221  0.84519326  1
  S2-  S174  1  0.36992506  0.77917527  0.33997696  1
  S2-  S175  1  0.46068558  0.72411402  0.85204944  1
  S2-  S176  1  0.66280671  0.02588130  0.30754955  1
  S2-  S177  1  0.73832564  0.00968564  0.85643492  1
  S2-  S178  1  0.64556449  0.22946244  0.34320685  1
  S2-  S179  1  0.72043849  0.24068812  0.86499133  1
  S2-  S180  1  0.61138284  0.59709474  0.36407862  1
  S2-  S181  1  0.63015990  0.58610128  0.85221079  1
  S2-  S182  1  0.60412870  0.82942147  0.34464210  1
  S2-  S183  1  0.64833066  0.79808305  0.81153182  1
  S2-  S184  1  0.87260983  0.01330712  0.34066801  1
  S2-  S185  1  0.95989531  0.00934720  0.84290788  1
  S2-  S186  1  0.87145462  0.27807037  0.33917080  1
  S2-  S187  1  0.95532360  0.24053655  0.84985907  1
  S2-  S188  1  0.87025538  0.55750852  0.36307818  1
  S2-  S189  1  0.84953386  0.44186866  0.86342943  1
  S2-  S190  1  0.79792823  0.75052182  0.33174407  1
  S2-  S191  1  0.86385959  0.76466390  0.84534422  1
  S2-  S192  1  -0.00618693  0.10611208  0.45261134  1
  S2-  S193  1  -0.01132515  0.12204855  0.95344556  1
  S2-  S194  1  -0.00650222  0.35825479  0.46161801  1
  S2-  S195  1  -0.01682675  0.37804678  0.95998132  1
  S2-  S196  1  -0.00785328  0.60502448  0.46476515  1
  S2-  S197  1  -0.01403728  0.62100039  0.95323036  1
  S2-  S198  1  -0.00360318  0.85997644  0.45931624  1
  S2-  S199  1  -0.01328183  0.87205716  0.95235625  1
  S2-  S200  1  0.24420343  0.11116157  0.46344524  1
  S2-  S201  1  0.22850498  0.11618751  0.94558838  1
  S2-  S202  1  0.23888439  0.35779107  0.46281772  1
  S2-  S203  1  0.23851160  0.37087832  0.94804133  1
  S2-  S204  1  0.24274611  0.60311196  0.46635433  1
  S2-  S205  1  0.23409267  0.61743575  0.95470733  1
  S2-  S206  1  0.24161787  0.84915135  0.44844234  1
  S2-  S207  1  0.23432664  0.87571261  0.94341628  1
  S2-  S208  1  0.49406573  0.10865001  0.45155588  1
  S2-  S209  1  0.49212184  0.12157123  0.95422444  1
  S2-  S210  1  0.49481447  0.35735529  0.45576187  1
  S2-  S211  1  0.48745280  0.37096502  0.94834255  1
  S2-  S212  1  0.49131731  0.60131456  0.46639745  1
  S2-  S213  1  0.48342116  0.61776184  0.95618013  1
  S2-  S214  1  0.48668239  0.85637083  0.45116455  1
  S2-  S215  1  0.48786338  0.87266613  0.94554895  1
  S2-  S216  1  0.73712121  0.10526873  0.44467113  1
  S2-  S217  1  0.73597952  0.12230357  0.96385371  1
  S2-  S218  1  0.73989449  0.35695873  0.44958201  1
  S2-  S219  1  0.72888536  0.37603734  0.96663379  1
  S2-  S220  1  0.74370459  0.60455033  0.46322989  1
  S2-  S221  1  0.73664376  0.62637939  0.95917855  1
  S2-  S222  1  0.74139773  0.86108639  0.44518234  1
  S2-  S223  1  0.73389995  0.86372928  0.94819066  1
  S2-  S224  1  0.10978233  0.00111269  0.05043647  1
  S2-  S225  1  0.12170901  -0.01381478  0.54615295  1
  S2-  S226  1  0.11295883  0.25006059  0.03258256  1
  S2-  S227  1  0.11956860  0.22637318  0.55587317  1
  S2-  S228  1  0.11168799  0.49396824  0.04338596  1
  S2-  S229  1  0.11345103  0.49277437  0.54967792  1
  S2-  S230  1  0.11019606  0.74905436  0.04012473  1
  S2-  S231  1  0.12347038  0.73303396  0.54201866  1
  S2-  S232  1  0.36054392  -0.00144075  0.04025724  1
  S2-  S233  1  0.36939420  -0.01760998  0.53755572  1
  S2-  S234  1  0.36337430  0.24477597  0.03893629  1
  S2-  S235  1  0.37027895  0.23370234  0.55064707  1
  S2-  S236  1  0.36072458  0.49618005  0.04519629  1
  S2-  S237  1  0.35989580  0.47920758  0.55208427  1
  S2-  S238  1  0.35930581  0.75077026  0.03745598  1
  S2-  S239  1  0.36763866  0.73586887  0.54233750  1
  S2-  S240  1  0.61098106  -0.00430074  0.03944986  1
  S2-  S241  1  0.62239494  -0.01604955  0.54720258  1
  S2-  S242  1  0.60889550  0.24363919  0.04573263  1
  S2-  S243  1  0.61917782  0.22977242  0.54431547  1
  S2-  S244  1  0.60630021  0.50341549  0.04142815  1
  S2-  S245  1  0.62268334  0.48041639  0.54337145  1
  S2-  S246  1  0.61004515  0.75032505  0.03648896  1
  S2-  S247  1  0.61975451  0.73449554  0.54178362  1
  S2-  S248  1  0.86077188  -0.00795688  0.03826469  1
  S2-  S249  1  0.86418921  -0.01886043  0.54781436  1
  S2-  S250  1  0.85713552  0.25373038  0.04586847  1
  S2-  S251  1  0.86853808  0.22912095  0.54249434  1
  S2-  S252  1  0.85604177  0.50474297  0.06114394  1
  S2-  S253  1  0.86791717  0.48436919  0.55797289  1
  S2-  S254  1  0.86060351  0.74863423  0.04650363  1
  S2-  S255  1  0.86469487  0.73719885  0.54038781  1
