# generated using pymatgen
data_La12Ce14Pr13Nd13Sm12(BiS2)64
_symmetry_space_group_name_H-M   'P 1'
_cell_length_a   16.11417805
_cell_length_b   16.11840316
_cell_length_c   27.37998243
_cell_angle_alpha   90.06117678
_cell_angle_beta   90.15529466
_cell_angle_gamma   89.99961857
_symmetry_Int_Tables_number   1
_chemical_formula_structural   La12Ce14Pr13Nd13Sm12(BiS2)64
_chemical_formula_sum   'La12 Ce14 Pr13 Nd13 Sm12 Bi64 S128'
_cell_volume   7111.50459034
_cell_formula_units_Z   1
loop_
 _symmetry_equiv_pos_site_id
 _symmetry_equiv_pos_as_xyz
  1  'x, y, z'
loop_
 _atom_type_symbol
 _atom_type_oxidation_number
  La3+  3.0
  Ce3+  3.0
  Pr3+  3.0
  Nd3+  3.0
  Sm3+  3.0
  Bi2+  2.0
  S2-  -2.0
loop_
 _atom_site_type_symbol
 _atom_site_label
 _atom_site_symmetry_multiplicity
 _atom_site_fract_x
 _atom_site_fract_y
 _atom_site_fract_z
 _atom_site_occupancy
  La3+  La0  1  0.37816266  0.51558104  0.38312910  1
  La3+  La1  1  0.63124433  0.76143824  0.43318702  1
  La3+  La2  1  0.50786272  0.63297094  0.55589650  1
  La3+  La3  1  0.00742840  0.14087086  0.57178418  1
  La3+  La4  1  0.88191857  0.25734489  0.93851334  1
  La3+  La5  1  0.50179608  0.37709654  0.07068927  1
  La3+  La6  1  0.76316569  0.12513450  0.08851593  1
  La3+  La7  1  0.50802878  0.14149819  0.57366538  1
  La3+  La8  1  0.75405633  0.38760033  0.07383368  1
  La3+  La9  1  0.00117699  0.38618106  0.07389730  1
  La3+  La10  1  0.39123100  0.00562636  0.90558678  1
  La3+  La11  1  0.25806466  0.64063135  0.09720265  1
  Ce3+  Ce12  1  0.50681334  0.62518890  0.07640645  1
  Ce3+  Ce13  1  0.38087754  0.75386735  0.94674855  1
  Ce3+  Ce14  1  0.38691693  0.25522424  0.42584829  1
  Ce3+  Ce15  1  0.13484768  0.76077621  0.44347928  1
  Ce3+  Ce16  1  0.75458426  0.63046518  0.05647546  1
  Ce3+  Ce17  1  0.25693270  0.88291911  0.06107763  1
  Ce3+  Ce18  1  0.26271465  0.87733366  0.57943297  1
  Ce3+  Ce19  1  0.75614988  0.88251258  0.06291304  1
  Ce3+  Ce20  1  0.76267991  0.88384495  0.56536816  1
  Ce3+  Ce21  1  0.62790623  0.50107326  0.94220537  1
  Ce3+  Ce22  1  0.38171635  0.00504235  0.44485392  1
  Ce3+  Ce23  1  0.76293858  0.13814497  0.55178583  1
  Ce3+  Ce24  1  0.00673971  0.62771070  0.05713694  1
  Ce3+  Ce25  1  0.75940793  0.63398704  0.55323167  1
  Pr3+  Pr26  1  0.88290313  0.25903076  0.40095685  1
  Pr3+  Pr27  1  0.51411575  0.88483462  0.57101164  1
  Pr3+  Pr28  1  0.25952824  0.13344817  0.55575481  1
  Pr3+  Pr29  1  0.88397806  0.50724520  0.43121413  1
  Pr3+  Pr30  1  0.12675185  -0.00128853  0.92677030  1
  Pr3+  Pr31  1  0.88163107  0.49983487  0.92958251  1
  Pr3+  Pr32  1  0.13340038  0.75803566  0.93706916  1
  Pr3+  Pr33  1  0.88482318  0.01004363  0.43038647  1
  Pr3+  Pr34  1  0.13240609  0.24304631  0.93130869  1
  Pr3+  Pr35  1  0.88300867  0.75950080  0.42886693  1
  Pr3+  Pr36  1  0.25304848  0.12910177  0.05803016  1
  Pr3+  Pr37  1  0.38149462  0.50578540  0.94483786  1
  Pr3+  Pr38  1  0.62625981  0.75546881  0.94319921  1
  Nd3+  Nd39  1  0.87870603  0.01188160  0.93683874  1
  Nd3+  Nd40  1  0.00960355  0.39128300  0.56456624  1
  Nd3+  Nd41  1  0.12687618  0.50288085  0.93783053  1
  Nd3+  Nd42  1  0.38186630  0.25123564  0.93471295  1
  Nd3+  Nd43  1  0.87700920  0.75524314  0.94677935  1
  Nd3+  Nd44  1  0.63203892  0.25041125  0.95050008  1
  Nd3+  Nd45  1  0.01284140  0.13458816  0.07192512  1
  Nd3+  Nd46  1  0.00948840  0.87982736  0.05897364  1
  Nd3+  Nd47  1  0.63029134  0.25446440  0.42735370  1
  Nd3+  Nd48  1  0.25117177  0.38058128  0.05394899  1
  Nd3+  Nd49  1  0.62695891  0.50578890  0.43375346  1
  Nd3+  Nd50  1  0.75982015  0.38181313  0.55148416  1
  Nd3+  Nd51  1  0.00888539  0.63250498  0.55738685  1
  Sm3+  Sm52  1  0.50201717  0.13468329  0.06794628  1
  Sm3+  Sm53  1  0.26307197  0.38369822  0.55066946  1
  Sm3+  Sm54  1  0.26226430  0.63422043  0.55106801  1
  Sm3+  Sm55  1  0.37947074  0.76413113  0.43356840  1
  Sm3+  Sm56  1  0.00422886  0.88411124  0.56271013  1
  Sm3+  Sm57  1  0.62828598  0.00674003  0.95269342  1
  Sm3+  Sm58  1  0.50656666  0.38157499  0.55188101  1
  Sm3+  Sm59  1  0.12980012  0.25830888  0.44176426  1
  Sm3+  Sm60  1  0.12984900  0.00634039  0.45113325  1
  Sm3+  Sm61  1  0.50405820  0.87924338  0.06231366  1
  Sm3+  Sm62  1  0.63330587  0.01037728  0.44527892  1
  Sm3+  Sm63  1  0.13741232  0.50810876  0.43753224  1
  Bi2+  Bi64  1  0.00443016  0.08031529  0.27937318  1
  Bi2+  Bi65  1  -0.00960017  0.11976258  0.80730802  1
  Bi2+  Bi66  1  0.01060906  0.35911221  0.27988157  1
  Bi2+  Bi67  1  -0.04539648  0.37504768  0.79216259  1
  Bi2+  Bi68  1  -0.01468141  0.63220493  0.28355477  1
  Bi2+  Bi69  1  -0.03039906  0.62414860  0.79172190  1
  Bi2+  Bi70  1  0.02181399  0.81894348  0.31163110  1
  Bi2+  Bi71  1  0.02418932  0.81820181  0.79394943  1
  Bi2+  Bi72  1  0.36229589  0.11592692  0.31596348  1
  Bi2+  Bi73  1  0.22763964  0.14297216  0.76262063  1
  Bi2+  Bi74  1  0.21177804  0.36471802  0.28974664  1
  Bi2+  Bi75  1  0.23390040  0.31970253  0.81618808  1
  Bi2+  Bi76  1  0.25137615  0.64032551  0.28099119  1
  Bi2+  Bi77  1  0.23761497  0.64120455  0.78092122  1
  Bi2+  Bi78  1  0.24893821  0.95189204  0.30379222  1
  Bi2+  Bi79  1  0.23990959  0.83867142  0.76814869  1
  Bi2+  Bi80  1  0.49215568  0.08089136  0.22525027  1
  Bi2+  Bi81  1  0.52717775  0.13332804  0.79545555  1
  Bi2+  Bi82  1  0.50887900  0.34094385  0.29079101  1
  Bi2+  Bi83  1  0.42332001  0.35750341  0.79117731  1
  Bi2+  Bi84  1  0.48318553  0.72594617  0.26542367  1
  Bi2+  Bi85  1  0.51711768  0.62452282  0.81165368  1
  Bi2+  Bi86  1  0.51950354  0.96364525  0.31343693  1
  Bi2+  Bi87  1  0.50587296  0.86781520  0.79812905  1
  Bi2+  Bi88  1  0.73702498  0.14054200  0.28211548  1
  Bi2+  Bi89  1  0.72864714  0.14197534  0.78976573  1
  Bi2+  Bi90  1  0.74747772  0.42457714  0.28214067  1
  Bi2+  Bi91  1  0.70728361  0.39838887  0.78509818  1
  Bi2+  Bi92  1  0.80339817  0.62227020  0.32915460  1
  Bi2+  Bi93  1  0.78584218  0.57785545  0.75165183  1
  Bi2+  Bi94  1  0.75140121  0.80636792  0.30234318  1
  Bi2+  Bi95  1  0.76054463  0.80302028  0.77586906  1
  Bi2+  Bi96  1  0.13167375  -0.01387803  0.21043286  1
  Bi2+  Bi97  1  0.02742043  -0.06830014  0.70191632  1
  Bi2+  Bi98  1  0.18436298  0.17346430  0.27750462  1
  Bi2+  Bi99  1  0.11283825  0.28517548  0.72490776  1
  Bi2+  Bi100  1  0.12244128  0.43071463  0.19455401  1
  Bi2+  Bi101  1  0.17099374  0.46800608  0.74783225  1
  Bi2+  Bi102  1  0.09011811  0.77659501  0.20694380  1
  Bi2+  Bi103  1  0.10055447  0.67839041  0.69740557  1
  Bi2+  Bi104  1  0.31638186  0.04136367  0.17646444  1
  Bi2+  Bi105  1  0.36117906  -0.00635532  0.70114845  1
  Bi2+  Bi106  1  0.36441476  0.23289188  0.21001867  1
  Bi2+  Bi107  1  0.37726472  0.23700553  0.69253284  1
  Bi2+  Bi108  1  0.37826882  0.48337095  0.18535220  1
  Bi2+  Bi109  1  0.35816511  0.48324538  0.70975251  1
  Bi2+  Bi110  1  0.35929447  0.85535411  0.22165685  1
  Bi2+  Bi111  1  0.37998909  0.71424715  0.71023150  1
  Bi2+  Bi112  1  0.64192494  -0.11578071  0.21681800  1
  Bi2+  Bi113  1  0.64286597  -0.04062705  0.73212006  1
  Bi2+  Bi114  1  0.62536869  0.34108806  0.20349731  1
  Bi2+  Bi115  1  0.65885826  0.26361151  0.70397448  1
  Bi2+  Bi116  1  0.63121589  0.58709451  0.27062775  1
  Bi2+  Bi117  1  0.55167090  0.43305777  0.71540885  1
  Bi2+  Bi118  1  0.70040645  0.70432837  0.18546281  1
  Bi2+  Bi119  1  0.63976632  0.71686267  0.69884938  1
  Bi2+  Bi120  1  0.87135834  -0.01651874  0.21815594  1
  Bi2+  Bi121  1  0.82836879  -0.01714550  0.75889308  1
  Bi2+  Bi122  1  0.90331649  0.24925132  0.20745873  1
  Bi2+  Bi123  1  0.87092360  0.21080173  0.68812837  1
  Bi2+  Bi124  1  0.87856548  0.51445724  0.20898424  1
  Bi2+  Bi125  1  0.90865677  0.46099994  0.69692557  1
  Bi2+  Bi126  1  0.88737535  0.75765785  0.21040626  1
  Bi2+  Bi127  1  0.91718218  0.73359899  0.69319253  1
  S2-  S128  1  -0.09282961  0.10582886  0.15099798  1
  S2-  S129  1  -0.01323603  0.08094149  0.66795323  1
  S2-  S130  1  0.04162121  0.28341472  0.15355679  1
  S2-  S131  1  0.01614006  0.28104632  0.64265231  1
  S2-  S132  1  0.00699483  0.53398976  0.13934758  1
  S2-  S133  1  0.02207031  0.52142044  0.63546827  1
  S2-  S134  1  -0.01470447  0.89168745  0.15779659  1
  S2-  S135  1  -0.11196663  0.87429979  0.63714826  1
  S2-  S136  1  0.15059777  0.10253197  0.13963326  1
  S2-  S137  1  0.25599161  0.12578796  0.65636411  1
  S2-  S138  1  0.27166604  0.34908934  0.15089081  1
  S2-  S139  1  0.28379783  0.36447756  0.64932383  1
  S2-  S140  1  0.20853778  0.57490057  0.18810288  1
  S2-  S141  1  0.25435120  0.66908552  0.64769350  1
  S2-  S142  1  0.23686191  0.80197976  0.14881828  1
  S2-  S143  1  0.19659658  0.90423191  0.67208502  1
  S2-  S144  1  0.49326147  0.25034646  0.14396244  1
  S2-  S145  1  0.48619943  0.07516050  0.66788143  1
  S2-  S146  1  0.53631926  0.47834968  0.15121438  1
  S2-  S147  1  0.51283132  0.29153446  0.63717214  1
  S2-  S148  1  0.40692497  0.64336091  0.15530891  1
  S2-  S149  1  0.50611955  0.64105568  0.65699592  1
  S2-  S150  1  0.49994868  0.86533367  0.16103003  1
  S2-  S151  1  0.40244841  0.86171299  0.64840062  1
  S2-  S152  1  0.71872105  0.20183055  0.18304057  1
  S2-  S153  1  0.74311301  0.13031219  0.64988794  1
  S2-  S154  1  0.86450316  0.37448122  0.15055809  1
  S2-  S155  1  0.78487017  0.35690673  0.65025215  1
  S2-  S156  1  0.75261125  0.54825090  0.14115879  1
  S2-  S157  1  0.74189291  0.60856915  0.64925607  1
  S2-  S158  1  0.74764952  0.96992126  0.14823750  1
  S2-  S159  1  0.64924206  0.87010663  0.64262484  1
  S2-  S160  1  0.09814403  -0.00570727  0.35496594  1
  S2-  S161  1  0.15168072  0.11660832  0.85133522  1
  S2-  S162  1  0.04468433  0.25346418  0.35710476  1
  S2-  S163  1  0.00835256  0.26412312  0.86037811  1
  S2-  S164  1  0.19894603  0.51606456  0.34594939  1
  S2-  S165  1  0.01612451  0.50251177  0.85881098  1
  S2-  S166  1  0.17043242  0.75730930  0.34789398  1
  S2-  S167  1  0.15857090  0.86040635  0.85571556  1
  S2-  S168  1  0.37646731  -0.10223800  0.36763609  1
  S2-  S169  1  0.35756674  -0.04837216  0.80764406  1
  S2-  S170  1  0.36000160  0.35100064  0.34380136  1
  S2-  S171  1  0.39650402  0.15601746  0.85122272  1
  S2-  S172  1  0.37253503  0.52759811  0.27492172  1
  S2-  S173  1  0.41626617  0.51319763  0.84617570  1
  S2-  S174  1  0.38390098  0.68203997  0.34491041  1
  S2-  S175  1  0.41505455  0.75278401  0.85079153  1
  S2-  S176  1  0.66146647  0.02672763  0.34724208  1
  S2-  S177  1  0.56306557  -0.00167375  0.86088949  1
  S2-  S178  1  0.51042349  0.21797923  0.35498965  1
  S2-  S179  1  0.61126068  0.24697100  0.85045366  1
  S2-  S180  1  0.54838915  0.49382097  0.34506007  1
  S2-  S181  1  0.63847764  0.52636404  0.84548725  1
  S2-  S182  1  0.57972985  0.79199661  0.33828880  1
  S2-  S183  1  0.62782638  0.75882174  0.84269719  1
  S2-  S184  1  0.87465880  0.10856884  0.34356394  1
  S2-  S185  1  0.98561378  -0.01450949  0.85728607  1
  S2-  S186  1  0.73087829  0.26606238  0.34118991  1
  S2-  S187  1  0.84142772  0.13672900  0.86333867  1
  S2-  S188  1  0.89014429  0.41120802  0.34692972  1
  S2-  S189  1  0.82781243  0.37751370  0.85954150  1
  S2-  S190  1  0.87634950  0.88320047  0.35675185  1
  S2-  S191  1  0.88403558  0.75464661  0.84849127  1
  S2-  S192  1  0.01002477  0.13235455  0.45926240  1
  S2-  S193  1  0.00705559  0.12625816  0.96325043  1
  S2-  S194  1  0.01378720  0.38839540  0.45624648  1
  S2-  S195  1  0.00893319  0.38185083  0.96386454  1
  S2-  S196  1  0.01131531  0.63238963  0.44850633  1
  S2-  S197  1  0.00640102  0.63547479  0.95282800  1
  S2-  S198  1  0.00803138  0.88202583  0.46014385  1
  S2-  S199  1  0.00192164  0.87438433  0.95611018  1
  S2-  S200  1  0.25287308  0.13214764  0.44831871  1
  S2-  S201  1  0.26539242  0.12059567  0.95281885  1
  S2-  S202  1  0.25525031  0.38127948  0.44882381  1
  S2-  S203  1  0.25482050  0.37945241  0.94776864  1
  S2-  S204  1  0.26139012  0.63218554  0.44985502  1
  S2-  S205  1  0.25389345  0.62852455  0.93950677  1
  S2-  S206  1  0.25308493  0.88396310  0.46678961  1
  S2-  S207  1  0.26637260  0.88510974  0.95553830  1
  S2-  S208  1  0.50803373  0.12700834  0.46161309  1
  S2-  S209  1  0.50425728  0.12755569  0.96412030  1
  S2-  S210  1  0.50631346  0.38143774  0.45038617  1
  S2-  S211  1  0.50365054  0.37590298  0.95769088  1
  S2-  S212  1  0.50534638  0.63402157  0.44802937  1
  S2-  S213  1  0.50581162  0.62966467  0.96307011  1
  S2-  S214  1  0.51090098  0.88570605  0.46226508  1
  S2-  S215  1  0.50255151  0.88263619  0.95864176  1
  S2-  S216  1  0.75835548  0.13586000  0.44892981  1
  S2-  S217  1  0.74894505  0.12549575  0.96871434  1
  S2-  S218  1  0.75514016  0.38440249  0.44689050  1
  S2-  S219  1  0.74901663  0.37938416  0.96564351  1
  S2-  S220  1  0.75432965  0.63155629  0.44858179  1
  S2-  S221  1  0.75404582  0.62847613  0.94932443  1
  S2-  S222  1  0.75573758  0.88533998  0.45572809  1
  S2-  S223  1  0.75283223  0.88275865  0.95395719  1
  S2-  S224  1  0.13072739  -0.00149379  0.03807547  1
  S2-  S225  1  0.13031330  0.00645951  0.55543047  1
  S2-  S226  1  0.13263689  0.25597749  0.03875993  1
  S2-  S227  1  0.13792769  0.26286268  0.54461367  1
  S2-  S228  1  0.14129428  0.51506969  0.04311142  1
  S2-  S229  1  0.14241963  0.51026592  0.54039703  1
  S2-  S230  1  0.13394645  0.75162156  0.04388862  1
  S2-  S231  1  0.13034749  0.75802841  0.55048554  1
  S2-  S232  1  0.38519259  0.00559118  0.05853006  1
  S2-  S233  1  0.38291780  0.00777496  0.55003647  1
  S2-  S234  1  0.37574400  0.25378204  0.04049269  1
  S2-  S235  1  0.38170895  0.25886596  0.53566549  1
  S2-  S236  1  0.37410014  0.50917927  0.05050993  1
  S2-  S237  1  0.38361122  0.50674069  0.55250727  1
  S2-  S238  1  0.38131692  0.75514329  0.05029774  1
  S2-  S239  1  0.38333872  0.75726042  0.54019516  1
  S2-  S240  1  0.62204387  0.00753275  0.05535890  1
  S2-  S241  1  0.63485964  0.01444136  0.54890455  1
  S2-  S242  1  0.63435437  0.25171527  0.05509741  1
  S2-  S243  1  0.63430925  0.26026920  0.53686263  1
  S2-  S244  1  0.62797828  0.50760826  0.04433934  1
  S2-  S245  1  0.63182280  0.50411764  0.54235154  1
  S2-  S246  1  0.62885467  0.75736203  0.05117394  1
  S2-  S247  1  0.63518962  0.75554643  0.54064056  1
  S2-  S248  1  0.88364314  0.00019158  0.04364852  1
  S2-  S249  1  0.88467287  0.01072482  0.54195688  1
  S2-  S250  1  0.87985277  0.25154200  0.04969318  1
  S2-  S251  1  0.88571942  0.26370843  0.54122950  1
  S2-  S252  1  0.87887970  0.51068427  0.03701083  1
  S2-  S253  1  0.88160617  0.50992128  0.53809829  1
  S2-  S254  1  0.88117288  0.75557138  0.05307604  1
  S2-  S255  1  0.88470787  0.75418837  0.53663419  1
