# generated using pymatgen
data_La12Ce14Pr13Nd13Sm12(BiS2)64
_symmetry_space_group_name_H-M   'P 1'
_cell_length_a   16.12368140
_cell_length_b   16.13801545
_cell_length_c   27.26708359
_cell_angle_alpha   89.82331845
_cell_angle_beta   90.22276132
_cell_angle_gamma   90.06399553
_symmetry_Int_Tables_number   1
_chemical_formula_structural   La12Ce14Pr13Nd13Sm12(BiS2)64
_chemical_formula_sum   'La12 Ce14 Pr13 Nd13 Sm12 Bi64 S128'
_cell_volume   7094.91851656
_cell_formula_units_Z   1
loop_
 _symmetry_equiv_pos_site_id
 _symmetry_equiv_pos_as_xyz
  1  'x, y, z'
loop_
 _atom_type_symbol
 _atom_type_oxidation_number
  La3+  3.0
  Ce3+  3.0
  Pr3+  3.0
  Nd3+  3.0
  Sm3+  3.0
  Bi2+  2.0
  S2-  -2.0
loop_
 _atom_site_type_symbol
 _atom_site_label
 _atom_site_symmetry_multiplicity
 _atom_site_fract_x
 _atom_site_fract_y
 _atom_site_fract_z
 _atom_site_occupancy
  La3+  La0  1  0.62644304  0.25316948  0.43097203  1
  La3+  La1  1  0.37096498  0.24133544  0.90952137  1
  La3+  La2  1  0.87001000  0.50891515  0.93062658  1
  La3+  La3  1  0.12639987  0.75813117  0.92562298  1
  La3+  La4  1  0.00750976  0.13380431  0.08859946  1
  La3+  La5  1  0.49985987  0.12790873  0.06494101  1
  La3+  La6  1  0.74558231  0.62708070  0.07356689  1
  La3+  La7  1  0.24243267  0.63232699  0.59138878  1
  La3+  La8  1  0.87848397  0.26414026  0.39241246  1
  La3+  La9  1  0.62839429  0.75595741  0.93115732  1
  La3+  La10  1  0.01446727  0.86972001  0.08972302  1
  La3+  La11  1  0.88051828  0.00129954  0.40655977  1
  Ce3+  Ce12  1  0.00092717  0.37740325  0.05365456  1
  Ce3+  Ce13  1  -0.00333090  0.62436697  0.06691838  1
  Ce3+  Ce14  1  0.13049434  0.74899872  0.43726457  1
  Ce3+  Ce15  1  0.36800773  0.49943268  0.92876494  1
  Ce3+  Ce16  1  0.62864412  0.75336849  0.44312705  1
  Ce3+  Ce17  1  0.12570470  0.25235162  0.44219275  1
  Ce3+  Ce18  1  0.75955207  0.63006385  0.55457871  1
  Ce3+  Ce19  1  0.25045513  0.87659563  0.05569133  1
  Ce3+  Ce20  1  0.11766594  0.50964279  0.91937270  1
  Ce3+  Ce21  1  0.62271205  0.50252598  0.93681980  1
  Ce3+  Ce22  1  0.50272937  0.87736589  0.55783984  1
  Ce3+  Ce23  1  0.25817993  0.12859621  0.57151466  1
  Ce3+  Ce24  1  0.87605997  0.00296109  0.95376742  1
  Ce3+  Ce25  1  0.88831612  0.75108414  0.42378252  1
  Pr3+  Pr26  1  0.62972063  0.50491515  0.44259255  1
  Pr3+  Pr27  1  0.75733363  0.37514177  0.55781656  1
  Pr3+  Pr28  1  0.50849100  0.12792362  0.57005061  1
  Pr3+  Pr29  1  0.49761112  0.37530843  0.04898546  1
  Pr3+  Pr30  1  0.25064675  0.37737547  0.05598455  1
  Pr3+  Pr31  1  0.37617499  0.25796273  0.43603014  1
  Pr3+  Pr32  1  0.12984995  0.50220219  0.45086914  1
  Pr3+  Pr33  1  0.50107533  0.62971815  0.56066596  1
  Pr3+  Pr34  1  0.87569958  0.25081276  0.93813705  1
  Pr3+  Pr35  1  0.25244784  0.37011535  0.57803927  1
  Pr3+  Pr36  1  0.75822822  0.12764778  0.56386025  1
  Pr3+  Pr37  1  -0.00504921  0.64027624  0.57811130  1
  Pr3+  Pr38  1  0.12549005  0.25190759  0.93133923  1
  Nd3+  Nd39  1  0.24913755  0.13402575  0.06693878  1
  Nd3+  Nd40  1  0.38174215  0.75325462  0.92919563  1
  Nd3+  Nd41  1  0.75212494  0.37511777  0.05958625  1
  Nd3+  Nd42  1  0.62813074  0.00702016  0.43914267  1
  Nd3+  Nd43  1  0.37146275  0.75244079  0.43747828  1
  Nd3+  Nd44  1  0.12578733  0.00104441  0.93884766  1
  Nd3+  Nd45  1  0.24893528  0.88061748  0.56208518  1
  Nd3+  Nd46  1  0.74916485  0.88170966  0.06700354  1
  Nd3+  Nd47  1  0.50560463  0.37661897  0.56443447  1
  Nd3+  Nd48  1  0.63611802  0.01660815  0.92123945  1
  Nd3+  Nd49  1  0.37680856  0.00653640  0.44486741  1
  Nd3+  Nd50  1  0.50073767  0.62606247  0.06092742  1
  Nd3+  Nd51  1  0.12756100  0.00772811  0.43441131  1
  Sm3+  Sm52  1  0.00169613  0.87930709  0.55040690  1
  Sm3+  Sm53  1  0.37303113  0.50294354  0.45710770  1
  Sm3+  Sm54  1  0.87541169  0.75543471  0.95578944  1
  Sm3+  Sm55  1  0.75691091  0.87972242  0.54789232  1
  Sm3+  Sm56  1  0.62479302  0.25237213  0.94339647  1
  Sm3+  Sm57  1  0.75227981  0.12679336  0.06677301  1
  Sm3+  Sm58  1  0.24916402  0.62831645  0.04854540  1
  Sm3+  Sm59  1  0.00262283  0.37451017  0.55671415  1
  Sm3+  Sm60  1  0.37852324  0.00636512  0.94631224  1
  Sm3+  Sm61  1  0.50173467  0.87812507  0.05499685  1
  Sm3+  Sm62  1  -0.00305518  0.12686837  0.55328365  1
  Sm3+  Sm63  1  0.88165010  0.50320916  0.43964930  1
  Bi2+  Bi64  1  0.01196112  0.13839691  0.27707719  1
  Bi2+  Bi65  1  0.01363333  0.08130456  0.79799243  1
  Bi2+  Bi66  1  0.03107206  0.39058016  0.28995724  1
  Bi2+  Bi67  1  0.02450057  0.28205313  0.79857661  1
  Bi2+  Bi68  1  -0.03495740  0.61915133  0.29316593  1
  Bi2+  Bi69  1  -0.03129051  0.66139574  0.79430321  1
  Bi2+  Bi70  1  -0.00734229  0.87430649  0.29012883  1
  Bi2+  Bi71  1  -0.00972378  0.88172210  0.77990125  1
  Bi2+  Bi72  1  0.24613911  0.13281981  0.29956625  1
  Bi2+  Bi73  1  0.23561224  0.08925942  0.79002561  1
  Bi2+  Bi74  1  0.26893848  0.32196956  0.31667597  1
  Bi2+  Bi75  1  0.19926769  0.36279773  0.77547429  1
  Bi2+  Bi76  1  0.24181679  0.57244489  0.30605030  1
  Bi2+  Bi77  1  0.26249819  0.62246323  0.79804758  1
  Bi2+  Bi78  1  0.25724157  0.85644528  0.29468749  1
  Bi2+  Bi79  1  0.22483446  0.88875811  0.77899191  1
  Bi2+  Bi80  1  0.45214422  0.12495274  0.30629835  1
  Bi2+  Bi81  1  0.51024422  0.13069335  0.79947428  1
  Bi2+  Bi82  1  0.44342426  0.32945814  0.26141097  1
  Bi2+  Bi83  1  0.52913853  0.42215227  0.79085196  1
  Bi2+  Bi84  1  0.43212813  0.62701179  0.28649272  1
  Bi2+  Bi85  1  0.51871318  0.64200629  0.77995550  1
  Bi2+  Bi86  1  0.48222533  0.81527396  0.30822437  1
  Bi2+  Bi87  1  0.50427533  0.86985167  0.77172830  1
  Bi2+  Bi88  1  0.70620094  0.15210386  0.28192476  1
  Bi2+  Bi89  1  0.81413321  0.12617146  0.78550942  1
  Bi2+  Bi90  1  0.73956600  0.43135178  0.28951785  1
  Bi2+  Bi91  1  0.71709202  0.36838628  0.79641440  1
  Bi2+  Bi92  1  0.77170510  0.63290375  0.28759970  1
  Bi2+  Bi93  1  0.70394638  0.66837674  0.80908990  1
  Bi2+  Bi94  1  0.70731833  0.81980645  0.26952907  1
  Bi2+  Bi95  1  0.78680957  0.88075442  0.80003758  1
  Bi2+  Bi96  1  0.19147689  -0.00436207  0.21819224  1
  Bi2+  Bi97  1  0.18457597  -0.00729046  0.68074826  1
  Bi2+  Bi98  1  0.16735827  0.29262779  0.21630801  1
  Bi2+  Bi99  1  0.10665480  0.16832884  0.70853788  1
  Bi2+  Bi100  1  0.15985171  0.48670902  0.20192902  1
  Bi2+  Bi101  1  0.06062079  0.46331018  0.72513713  1
  Bi2+  Bi102  1  0.15631955  0.74964751  0.21948905  1
  Bi2+  Bi103  1  0.10539933  0.74740771  0.71016082  1
  Bi2+  Bi104  1  0.38296210  -0.06498304  0.20792352  1
  Bi2+  Bi105  1  0.37428442  -0.00499709  0.71614402  1
  Bi2+  Bi106  1  0.36990474  0.16207626  0.20108825  1
  Bi2+  Bi107  1  0.37027475  0.25919965  0.70605084  1
  Bi2+  Bi108  1  0.35919398  0.48163715  0.20728172  1
  Bi2+  Bi109  1  0.42562083  0.49739963  0.69833802  1
  Bi2+  Bi110  1  0.34674793  0.73684018  0.19770264  1
  Bi2+  Bi111  1  0.39083484  0.75487629  0.69172635  1
  Bi2+  Bi112  1  0.56847845  -0.03524627  0.25019710  1
  Bi2+  Bi113  1  0.69930293  0.01676791  0.71716678  1
  Bi2+  Bi114  1  0.60156077  0.30846237  0.19300565  1
  Bi2+  Bi115  1  0.63617795  0.25147634  0.71311783  1
  Bi2+  Bi116  1  0.60494305  0.55658456  0.24412186  1
  Bi2+  Bi117  1  0.68436661  0.52392462  0.72911473  1
  Bi2+  Bi118  1  0.54804292  0.74445731  0.19786843  1
  Bi2+  Bi119  1  0.66928486  0.80248226  0.71846923  1
  Bi2+  Bi120  1  0.82530591  -0.00237134  0.20811999  1
  Bi2+  Bi121  1  0.90065172  -0.00143847  0.70374635  1
  Bi2+  Bi122  1  0.85939459  0.26436800  0.18642991  1
  Bi2+  Bi123  1  0.88034528  0.25930798  0.70469958  1
  Bi2+  Bi124  1  0.96203898  0.49726130  0.20375059  1
  Bi2+  Bi125  1  0.87953134  0.50371133  0.75802502  1
  Bi2+  Bi126  1  0.89337828  0.74248065  0.20181890  1
  Bi2+  Bi127  1  0.85886630  0.75348371  0.70020832  1
  S2-  S128  1  -0.05614070  0.11238015  0.18467570  1
  S2-  S129  1  -0.10799071  0.12714198  0.63537718  1
  S2-  S130  1  0.00697906  0.29931302  0.14145794  1
  S2-  S131  1  -0.01449930  0.36592028  0.65556195  1
  S2-  S132  1  0.03919477  0.71389316  0.14812923  1
  S2-  S133  1  0.09909807  0.60693768  0.65849619  1
  S2-  S134  1  -0.03603144  0.90747917  0.18775068  1
  S2-  S135  1  -0.00196471  0.79793165  0.63871346  1
  S2-  S136  1  0.14959122  0.10207803  0.14759786  1
  S2-  S137  1  0.23000825  0.23526331  0.64707454  1
  S2-  S138  1  0.27176971  0.27362035  0.13775536  1
  S2-  S139  1  0.28956850  0.41040195  0.67931586  1
  S2-  S140  1  0.27084172  0.59687074  0.14520030  1
  S2-  S141  1  0.30434550  0.61049097  0.69331448  1
  S2-  S142  1  0.17366124  0.87168725  0.14372998  1
  S2-  S143  1  0.24686490  0.78680372  0.64616553  1
  S2-  S144  1  0.52440131  0.15646347  0.16342235  1
  S2-  S145  1  0.40099686  0.12992310  0.65039351  1
  S2-  S146  1  0.48893509  0.40560129  0.14836428  1
  S2-  S147  1  0.50678090  0.33959950  0.66190085  1
  S2-  S148  1  0.61025800  0.61910836  0.14124162  1
  S2-  S149  1  0.51242490  0.64031021  0.66035769  1
  S2-  S150  1  0.53149218  0.90938116  0.15040796  1
  S2-  S151  1  0.48626475  0.89724540  0.65424381  1
  S2-  S152  1  0.74183401  0.13438502  0.16564392  1
  S2-  S153  1  0.64023206  0.12646581  0.64340309  1
  S2-  S154  1  0.74202761  0.39076719  0.15923558  1
  S2-  S155  1  0.74899064  0.33256290  0.65655483  1
  S2-  S156  1  0.86327310  0.60232824  0.14640368  1
  S2-  S157  1  0.84773289  0.62529952  0.63860592  1
  S2-  S158  1  0.75834062  0.84854406  0.16582324  1
  S2-  S159  1  0.76710278  0.89872483  0.64572637  1
  S2-  S160  1  0.03663333  0.00745937  0.34690661  1
  S2-  S161  1  0.11119375  -0.10465544  0.85805966  1
  S2-  S162  1  0.04937098  0.24884216  0.35298810  1
  S2-  S163  1  0.22484841  0.23901458  0.84826710  1
  S2-  S164  1  0.10417473  0.51019558  0.35050686  1
  S2-  S165  1  0.23525175  0.47231623  0.84973884  1
  S2-  S166  1  0.02489410  0.73993234  0.35696181  1
  S2-  S167  1  0.11576300  0.64715698  0.84632170  1
  S2-  S168  1  0.33613509  0.00403483  0.34797707  1
  S2-  S169  1  0.37350970  0.07930163  0.85697793  1
  S2-  S170  1  0.49272446  0.26043296  0.35927316  1
  S2-  S171  1  0.42973390  0.29052664  0.81204714  1
  S2-  S172  1  0.33935721  0.46183114  0.36412234  1
  S2-  S173  1  0.41646322  0.55322127  0.83763628  1
  S2-  S174  1  0.25068746  0.72877979  0.36488915  1
  S2-  S175  1  0.28755414  0.76212727  0.84370517  1
  S2-  S176  1  0.60539824  0.04906115  0.34303376  1
  S2-  S177  1  0.57077676  -0.02146891  0.83118847  1
  S2-  S178  1  0.71547048  0.27464163  0.34459117  1
  S2-  S179  1  0.63026678  0.17582837  0.85619204  1
  S2-  S180  1  0.61091239  0.48336360  0.34323162  1
  S2-  S181  1  0.73181348  0.51512276  0.86270796  1
  S2-  S182  1  0.63090089  0.74064113  0.34625086  1
  S2-  S183  1  0.50802825  0.76156082  0.85613011  1
  S2-  S184  1  0.81902531  0.04804772  0.30933543  1
  S2-  S185  1  0.79249738  0.01099119  0.86616115  1
  S2-  S186  1  0.88490034  0.23704624  0.28408023  1
  S2-  S187  1  0.85549742  0.28323389  0.83925007  1
  S2-  S188  1  0.88113267  0.42749560  0.35085415  1
  S2-  S189  1  0.97181025  0.50268419  0.84858109  1
  S2-  S190  1  0.85767699  0.85485169  0.34395039  1
  S2-  S191  1  0.84757889  0.73722812  0.85865987  1
  S2-  S192  1  -0.00155493  0.12802568  0.45065173  1
  S2-  S193  1  0.00072672  0.12531070  0.94492938  1
  S2-  S194  1  0.00174964  0.37732824  0.45366036  1
  S2-  S195  1  0.00116532  0.37667956  0.94859330  1
  S2-  S196  1  0.00329122  0.62379239  0.46160607  1
  S2-  S197  1  -0.00345805  0.63241403  0.95800692  1
  S2-  S198  1  0.00683177  0.88145182  0.44920642  1
  S2-  S199  1  -0.00433504  0.87786337  0.96072874  1
  S2-  S200  1  0.25254944  0.13036667  0.45737773  1
  S2-  S201  1  0.24807685  0.12352627  0.95838235  1
  S2-  S202  1  0.25098645  0.37519937  0.46817269  1
  S2-  S203  1  0.25095212  0.37327941  0.95143922  1
  S2-  S204  1  0.25510711  0.62421764  0.47163049  1
  S2-  S205  1  0.25365040  0.62952091  0.94733015  1
  S2-  S206  1  0.25106925  0.88280676  0.45588091  1
  S2-  S207  1  0.25930990  0.88138854  0.95157020  1
  S2-  S208  1  0.50038681  0.12740146  0.46043179  1
  S2-  S209  1  0.50342631  0.12750816  0.95621709  1
  S2-  S210  1  0.50086163  0.38479125  0.45939613  1
  S2-  S211  1  0.49897409  0.37317119  0.94148807  1
  S2-  S212  1  0.49751266  0.62768078  0.45250827  1
  S2-  S213  1  0.50171594  0.62513328  0.95488166  1
  S2-  S214  1  0.50090106  0.87843277  0.44994103  1
  S2-  S215  1  0.50473926  0.88822224  0.95249980  1
  S2-  S216  1  0.75735141  0.12744952  0.44501291  1
  S2-  S217  1  0.75088984  0.13222998  0.96272482  1
  S2-  S218  1  0.75561660  0.38193016  0.45250582  1
  S2-  S219  1  0.74851057  0.37279824  0.95395418  1
  S2-  S220  1  0.75748688  0.62848213  0.44780203  1
  S2-  S221  1  0.74725664  0.63397915  0.96477263  1
  S2-  S222  1  0.75006894  0.87988465  0.44448457  1
  S2-  S223  1  0.74922754  0.87999237  0.96042407  1
  S2-  S224  1  0.12248602  0.00085787  0.04328834  1
  S2-  S225  1  0.12425738  0.00607121  0.54287031  1
  S2-  S226  1  0.12362514  0.25186452  0.03805557  1
  S2-  S227  1  0.12164384  0.24824492  0.54689673  1
  S2-  S228  1  0.12601946  0.50355972  0.04315067  1
  S2-  S229  1  0.12785662  0.49637402  0.55735406  1
  S2-  S230  1  0.12929623  0.75040534  0.03750272  1
  S2-  S231  1  0.12587813  0.75449233  0.54302094  1
  S2-  S232  1  0.37464655  0.00233038  0.05186719  1
  S2-  S233  1  0.37772200  0.00069108  0.54952893  1
  S2-  S234  1  0.37690869  0.24983068  0.03473832  1
  S2-  S235  1  0.38169301  0.25467755  0.54524634  1
  S2-  S236  1  0.37528604  0.50440797  0.03945911  1
  S2-  S237  1  0.37539932  0.50220794  0.56141333  1
  S2-  S238  1  0.37902205  0.75232303  0.04325329  1
  S2-  S239  1  0.37733351  0.75514171  0.54468140  1
  S2-  S240  1  0.62743498  0.00578782  0.04787589  1
  S2-  S241  1  0.63087370  -0.00067610  0.54426310  1
  S2-  S242  1  0.62833120  0.25083090  0.04844590  1
  S2-  S243  1  0.62967049  0.25467317  0.54158947  1
  S2-  S244  1  0.62519808  0.49691855  0.04148302  1
  S2-  S245  1  0.63101674  0.50458245  0.55207905  1
  S2-  S246  1  0.62356978  0.75790171  0.04313796  1
  S2-  S247  1  0.63153010  0.75399182  0.55034105  1
  S2-  S248  1  0.87983428  0.00395645  0.06048222  1
  S2-  S249  1  0.87910446  -0.00050505  0.53449534  1
  S2-  S250  1  0.87537567  0.24767135  0.04567052  1
  S2-  S251  1  0.88009506  0.25411394  0.54144852  1
  S2-  S252  1  0.87433082  0.49791499  0.04070320  1
  S2-  S253  1  0.88262200  0.49972817  0.54360767  1
  S2-  S254  1  0.87571594  0.75908078  0.05723659  1
  S2-  S255  1  0.87681370  0.75865075  0.53279178  1
