# generated using pymatgen
data_La12Ce14Pr13Nd13Sm12(BiS2)64
_symmetry_space_group_name_H-M   'P 1'
_cell_length_a   16.11482573
_cell_length_b   16.10775710
_cell_length_c   27.20124058
_cell_angle_alpha   90.19465669
_cell_angle_beta   90.43723996
_cell_angle_gamma   90.02576057
_symmetry_Int_Tables_number   1
_chemical_formula_structural   La12Ce14Pr13Nd13Sm12(BiS2)64
_chemical_formula_sum   'La12 Ce14 Pr13 Nd13 Sm12 Bi64 S128'
_cell_volume   7060.47948366
_cell_formula_units_Z   1
loop_
 _symmetry_equiv_pos_site_id
 _symmetry_equiv_pos_as_xyz
  1  'x, y, z'
loop_
 _atom_type_symbol
 _atom_type_oxidation_number
  La3+  3.0
  Ce3+  3.0
  Pr3+  3.0
  Nd3+  3.0
  Sm3+  3.0
  Bi2+  2.0
  S2-  -2.0
loop_
 _atom_site_type_symbol
 _atom_site_label
 _atom_site_symmetry_multiplicity
 _atom_site_fract_x
 _atom_site_fract_y
 _atom_site_fract_z
 _atom_site_occupancy
  La3+  La0  1  0.88500000  0.73437165  0.92308912  1
  La3+  La1  1  0.87641385  0.48262838  0.89834828  1
  La3+  La2  1  -0.00861946  0.10738519  0.06958330  1
  La3+  La3  1  0.11312826  0.24714209  0.42198677  1
  La3+  La4  1  0.61715921  -0.02179119  0.91589920  1
  La3+  La5  1  0.51239510  0.36906098  0.09357358  1
  La3+  La6  1  0.74885094  0.11851248  0.56981405  1
  La3+  La7  1  -0.00013557  0.60305021  0.06377635  1
  La3+  La8  1  0.48366993  0.13517243  0.61207279  1
  La3+  La9  1  0.11311993  -0.01038915  0.42904339  1
  La3+  La10  1  0.12640022  0.47473823  0.92523563  1
  La3+  La11  1  0.24391473  0.11084496  0.11983807  1
  Ce3+  Ce12  1  0.50298203  0.86401136  0.06026797  1
  Ce3+  Ce13  1  0.25362936  0.36224087  0.54586561  1
  Ce3+  Ce14  1  0.37052307  0.73360244  0.94502993  1
  Ce3+  Ce15  1  0.74836771  0.10310279  0.05462898  1
  Ce3+  Ce16  1  0.49866815  0.88011971  0.55853610  1
  Ce3+  Ce17  1  0.62901797  0.74438220  0.44087510  1
  Ce3+  Ce18  1  0.62142455  0.23277005  0.94491623  1
  Ce3+  Ce19  1  0.00030654  0.11948099  0.56724186  1
  Ce3+  Ce20  1  0.37241573  0.49292395  0.43467599  1
  Ce3+  Ce21  1  0.37054396  0.74691772  0.43490853  1
  Ce3+  Ce22  1  0.62039542  0.49188621  0.43932530  1
  Ce3+  Ce23  1  0.25096874  0.86240726  0.06840822  1
  Ce3+  Ce24  1  0.87176403  0.24184050  0.44285865  1
  Ce3+  Ce25  1  0.75185758  0.61948387  0.56040701  1
  Pr3+  Pr26  1  0.12240087  0.49526917  0.43614582  1
  Pr3+  Pr27  1  0.88525356  -0.01617998  0.92633857  1
  Pr3+  Pr28  1  0.62216791  0.23786724  0.43580612  1
  Pr3+  Pr29  1  0.49757927  0.62188275  0.55535665  1
  Pr3+  Pr30  1  0.76073241  0.86727393  0.57267442  1
  Pr3+  Pr31  1  0.36935211  -0.01357109  0.42084534  1
  Pr3+  Pr32  1  0.37382613  0.48156105  0.93580847  1
  Pr3+  Pr33  1  0.75046287  0.60565816  0.04733980  1
  Pr3+  Pr34  1  0.00616719  0.61218261  0.58148280  1
  Pr3+  Pr35  1  0.38318110  0.23548434  0.41394062  1
  Pr3+  Pr36  1  0.25388733  0.60491164  0.06896721  1
  Pr3+  Pr37  1  0.00382407  0.35568142  0.06231464  1
  Pr3+  Pr38  1  0.25457960  0.36011386  0.07145996  1
  Nd3+  Nd39  1  0.62380389  0.73429915  0.93282528  1
  Nd3+  Nd40  1  0.87112505  0.73724087  0.43469874  1
  Nd3+  Nd41  1  0.87304944  -0.00825218  0.43679304  1
  Nd3+  Nd42  1  0.37120285  -0.01707461  0.94166036  1
  Nd3+  Nd43  1  -0.00861225  0.85526383  0.07640433  1
  Nd3+  Nd44  1  0.62922889  -0.00963985  0.44093770  1
  Nd3+  Nd45  1  0.62390468  0.47886481  0.92602827  1
  Nd3+  Nd46  1  0.87359398  0.23092457  0.92940158  1
  Nd3+  Nd47  1  0.74746945  0.36906750  0.55895408  1
  Nd3+  Nd48  1  0.87334658  0.49269312  0.43854581  1
  Nd3+  Nd49  1  0.11280538  0.74081342  0.43074575  1
  Nd3+  Nd50  1  0.12292725  0.73099211  0.94975831  1
  Nd3+  Nd51  1  0.24894795  0.61906045  0.55774946  1
  Sm3+  Sm52  1  0.74994082  0.35877150  0.05324064  1
  Sm3+  Sm53  1  0.50295250  0.60976319  0.05578567  1
  Sm3+  Sm54  1  0.75315586  0.85748136  0.04925278  1
  Sm3+  Sm55  1  0.12343282  -0.01424467  0.95423834  1
  Sm3+  Sm56  1  0.00459595  0.36739886  0.56194459  1
  Sm3+  Sm57  1  0.12675051  0.23501881  0.94731175  1
  Sm3+  Sm58  1  0.24653311  0.87116155  0.55509341  1
  Sm3+  Sm59  1  0.49793310  0.36733774  0.55368713  1
  Sm3+  Sm60  1  0.00938165  0.86657295  0.56596444  1
  Sm3+  Sm61  1  0.49992791  0.10317728  0.06848398  1
  Sm3+  Sm62  1  0.25299759  0.11839269  0.54548215  1
  Sm3+  Sm63  1  0.37560421  0.23248323  0.95466910  1
  Bi2+  Bi64  1  -0.07676655  0.13592238  0.28426976  1
  Bi2+  Bi65  1  0.03991251  0.11857716  0.78711784  1
  Bi2+  Bi66  1  -0.07619238  0.40727927  0.30835070  1
  Bi2+  Bi67  1  0.03606430  0.35777714  0.78167406  1
  Bi2+  Bi68  1  0.03076642  0.63941077  0.29736458  1
  Bi2+  Bi69  1  0.00254409  0.63051293  0.77815112  1
  Bi2+  Bi70  1  -0.00651031  0.88194476  0.27939565  1
  Bi2+  Bi71  1  0.02124322  0.86770512  0.79562330  1
  Bi2+  Bi72  1  0.21205031  0.12674820  0.32105709  1
  Bi2+  Bi73  1  0.23401649  0.09010980  0.78308282  1
  Bi2+  Bi74  1  0.23850065  0.43107365  0.28711472  1
  Bi2+  Bi75  1  0.27223692  0.36737698  0.79844109  1
  Bi2+  Bi76  1  0.33454961  0.67982193  0.30375776  1
  Bi2+  Bi77  1  0.31221782  0.63463608  0.79067407  1
  Bi2+  Bi78  1  0.26514331  0.85625650  0.27341328  1
  Bi2+  Bi79  1  0.22058664  0.89314318  0.79442896  1
  Bi2+  Bi80  1  0.57676816  0.10865712  0.28837706  1
  Bi2+  Bi81  1  0.49119472  0.15644696  0.81901620  1
  Bi2+  Bi82  1  0.48974256  0.39608087  0.29336540  1
  Bi2+  Bi83  1  0.47074682  0.40745589  0.77205084  1
  Bi2+  Bi84  1  0.53713105  0.70703564  0.28691661  1
  Bi2+  Bi85  1  0.51339960  0.57684287  0.82411728  1
  Bi2+  Bi86  1  0.54601163  0.90929190  0.29807090  1
  Bi2+  Bi87  1  0.41646770  0.88824385  0.77785078  1
  Bi2+  Bi88  1  0.74843066  0.17126734  0.32970900  1
  Bi2+  Bi89  1  0.73835905  0.19035583  0.79766122  1
  Bi2+  Bi90  1  0.73356047  0.36877610  0.30457662  1
  Bi2+  Bi91  1  0.80273196  0.39212550  0.76358595  1
  Bi2+  Bi92  1  0.73486479  0.64910149  0.28006027  1
  Bi2+  Bi93  1  0.71039482  0.63058570  0.79380279  1
  Bi2+  Bi94  1  0.74570181  0.88399931  0.28903793  1
  Bi2+  Bi95  1  0.79677806  0.97389057  0.78878674  1
  Bi2+  Bi96  1  0.08681428  0.01313234  0.22265599  1
  Bi2+  Bi97  1  0.11790127  0.06174696  0.68309436  1
  Bi2+  Bi98  1  0.10184016  0.28801949  0.21478143  1
  Bi2+  Bi99  1  0.05593593  0.25220417  0.67696163  1
  Bi2+  Bi100  1  0.13128242  0.55511687  0.19825970  1
  Bi2+  Bi101  1  0.14677283  0.48906174  0.70375429  1
  Bi2+  Bi102  1  0.25034711  0.71525458  0.18745496  1
  Bi2+  Bi103  1  0.21004865  0.75391724  0.70959393  1
  Bi2+  Bi104  1  0.41951316  -0.06356020  0.21032035  1
  Bi2+  Bi105  1  0.29355608  -0.03812234  0.68769423  1
  Bi2+  Bi106  1  0.37193083  0.22325717  0.22809874  1
  Bi2+  Bi107  1  0.24821309  0.24379561  0.71052266  1
  Bi2+  Bi108  1  0.38757466  0.57519921  0.20378407  1
  Bi2+  Bi109  1  0.34674630  0.51005538  0.70073531  1
  Bi2+  Bi110  1  0.46152229  0.75199324  0.17533933  1
  Bi2+  Bi111  1  0.40084897  0.71101670  0.69528820  1
  Bi2+  Bi112  1  0.66698353  0.06030631  0.18690485  1
  Bi2+  Bi113  1  0.59729900  0.00512546  0.71521854  1
  Bi2+  Bi114  1  0.66970950  0.24675754  0.21647078  1
  Bi2+  Bi115  1  0.60503522  0.27157365  0.70733129  1
  Bi2+  Bi116  1  0.65488270  0.50611410  0.20982573  1
  Bi2+  Bi117  1  0.60660667  0.52003164  0.72097925  1
  Bi2+  Bi118  1  0.65156523  0.78321260  0.20274961  1
  Bi2+  Bi119  1  0.56333514  0.75576075  0.76838250  1
  Bi2+  Bi120  1  0.84679799  -0.00600009  0.21298651  1
  Bi2+  Bi121  1  0.93641048  -0.00720736  0.71529859  1
  Bi2+  Bi122  1  0.86807469  0.29157523  0.21486067  1
  Bi2+  Bi123  1  0.87507923  0.22052363  0.71699288  1
  Bi2+  Bi124  1  0.84940112  0.49063816  0.21443470  1
  Bi2+  Bi125  1  0.85539537  0.52305824  0.68863669  1
  Bi2+  Bi126  1  0.86219798  0.72932421  0.20198132  1
  Bi2+  Bi127  1  0.80775653  0.77084673  0.70478164  1
  S2-  S128  1  0.07270669  0.14257103  0.15784420  1
  S2-  S129  1  -0.12233683  0.10908337  0.64150779  1
  S2-  S130  1  0.05096927  0.40927691  0.15731953  1
  S2-  S131  1  -0.00089226  0.46218586  0.64571942  1
  S2-  S132  1  -0.00494749  0.65590456  0.16072484  1
  S2-  S133  1  -0.05295540  0.66451980  0.67752129  1
  S2-  S134  1  0.04689885  0.87619858  0.17552647  1
  S2-  S135  1  -0.10099660  0.86526239  0.64229013  1
  S2-  S136  1  0.23885503  0.09924798  0.22901847  1
  S2-  S137  1  0.31152317  0.12643959  0.63885885  1
  S2-  S138  1  0.24377333  0.27705644  0.16275543  1
  S2-  S139  1  0.24925724  0.38537115  0.64374177  1
  S2-  S140  1  0.26537146  0.48942762  0.14624823  1
  S2-  S141  1  0.15644064  0.62311255  0.64295538  1
  S2-  S142  1  0.27329807  0.94122107  0.15404500  1
  S2-  S143  1  0.14711966  0.86641832  0.63811969  1
  S2-  S144  1  0.41220157  0.12992093  0.15474519  1
  S2-  S145  1  0.48674976  0.14299945  0.72282644  1
  S2-  S146  1  0.46534228  0.34272660  0.19599614  1
  S2-  S147  1  0.48587707  0.30706360  0.64523609  1
  S2-  S148  1  0.52284796  0.53339033  0.14327799  1
  S2-  S149  1  0.49538280  0.55530886  0.64923426  1
  S2-  S150  1  0.54180614  0.97126431  0.13578920  1
  S2-  S151  1  0.47969521  0.96362864  0.64485763  1
  S2-  S152  1  0.84759199  0.10437842  0.13658816  1
  S2-  S153  1  0.65025317  0.12445098  0.65546319  1
  S2-  S154  1  0.67326115  0.37139849  0.14170952  1
  S2-  S155  1  0.74098348  0.36804306  0.65885959  1
  S2-  S156  1  0.76233688  0.60508485  0.14843680  1
  S2-  S157  1  0.72609193  0.63500481  0.65728867  1
  S2-  S158  1  0.84289755  0.85437625  0.13588723  1
  S2-  S159  1  0.69307286  0.87542577  0.67099610  1
  S2-  S160  1  0.20086468  -0.03962157  0.34172582  1
  S2-  S161  1  0.04879643  -0.00749124  0.86346126  1
  S2-  S162  1  0.14657868  0.29439022  0.31945299  1
  S2-  S163  1  0.13214952  0.31418364  0.85723955  1
  S2-  S164  1  0.11993145  0.50823304  0.33507831  1
  S2-  S165  1  0.02953090  0.50250532  0.83720640  1
  S2-  S166  1  0.17291017  0.71586434  0.33574635  1
  S2-  S167  1  0.07217173  0.72894630  0.85314967  1
  S2-  S168  1  0.36813339  0.10144257  0.34260139  1
  S2-  S169  1  0.45508165  -0.00482701  0.85417926  1
  S2-  S170  1  0.34752450  0.31424931  0.32226422  1
  S2-  S171  1  0.37128246  0.24833323  0.85425469  1
  S2-  S172  1  0.37733452  0.51297377  0.33678448  1
  S2-  S173  1  0.25981528  0.50282170  0.85769362  1
  S2-  S174  1  0.38206438  0.84723578  0.35385369  1
  S2-  S175  1  0.34447358  0.77476578  0.85122648  1
  S2-  S176  1  0.74690943  -0.00235125  0.36435335  1
  S2-  S177  1  0.64521252  0.04804108  0.82090694  1
  S2-  S178  1  0.53772318  0.25580906  0.34507981  1
  S2-  S179  1  0.61211654  0.27433867  0.84861628  1
  S2-  S180  1  0.61741773  0.48840359  0.34123657  1
  S2-  S181  1  0.72150257  0.47563245  0.84187463  1
  S2-  S182  1  0.73793698  0.75088599  0.36265867  1
  S2-  S183  1  0.62159107  0.83032500  0.84966024  1
  S2-  S184  1  0.98145232  -0.00087613  0.35364450  1
  S2-  S185  1  0.86110800  0.10951972  0.85264156  1
  S2-  S186  1  0.96130809  0.24768459  0.35945972  1
  S2-  S187  1  0.89167353  0.33057249  0.84575035  1
  S2-  S188  1  0.89636963  0.56785107  0.34929251  1
  S2-  S189  1  0.87196005  0.63194387  0.83693422  1
  S2-  S190  1  0.97823929  0.76915637  0.35576427  1
  S2-  S191  1  0.87058521  0.86221653  0.84895674  1
  S2-  S192  1  -0.00439931  0.12048196  0.46002998  1
  S2-  S193  1  0.00317266  0.11476631  0.96064907  1
  S2-  S194  1  -0.00185242  0.37248571  0.45743672  1
  S2-  S195  1  -0.00206662  0.35562980  0.95599736  1
  S2-  S196  1  -0.00219315  0.61448481  0.45986949  1
  S2-  S197  1  -0.00007900  0.60105561  0.95481709  1
  S2-  S198  1  -0.00560471  0.86518363  0.46181346  1
  S2-  S199  1  0.00462832  0.85808498  0.96472847  1
  S2-  S200  1  0.24120413  0.12152855  0.44210776  1
  S2-  S201  1  0.24735801  0.10952045  0.94596043  1
  S2-  S202  1  0.24858074  0.36675378  0.44049939  1
  S2-  S203  1  0.25445682  0.35499915  0.96252590  1
  S2-  S204  1  0.24848991  0.61950482  0.45078887  1
  S2-  S205  1  0.24952762  0.60943461  0.96137425  1
  S2-  S206  1  0.24122175  0.86295484  0.45165057  1
  S2-  S207  1  0.24479903  0.86008926  0.95945163  1
  S2-  S208  1  0.50420989  0.10727459  0.44166675  1
  S2-  S209  1  0.49765594  0.10800568  0.96029598  1
  S2-  S210  1  0.49611261  0.36892104  0.44903199  1
  S2-  S211  1  0.49837851  0.35891372  0.94965519  1
  S2-  S212  1  0.49815158  0.62189066  0.44731894  1
  S2-  S213  1  0.49905501  0.60990620  0.95103176  1
  S2-  S214  1  0.50437663  0.86648622  0.45298791  1
  S2-  S215  1  0.49536605  0.85587572  0.95471828  1
  S2-  S216  1  0.74993331  0.11984096  0.46304844  1
  S2-  S217  1  0.74551397  0.10626290  0.95057589  1
  S2-  S218  1  0.74695260  0.36787489  0.45143108  1
  S2-  S219  1  0.74973357  0.35775182  0.95011227  1
  S2-  S220  1  0.74581146  0.61213213  0.45521232  1
  S2-  S221  1  0.74815701  0.60731571  0.94270919  1
  S2-  S222  1  0.75433429  0.86467695  0.46510949  1
  S2-  S223  1  0.75177705  0.85549869  0.94785454  1
  S2-  S224  1  0.12229710  -0.01483107  0.05761998  1
  S2-  S225  1  0.12582498  -0.00252452  0.53926995  1
  S2-  S226  1  0.13090630  0.23106760  0.05011760  1
  S2-  S227  1  0.12563897  0.24259595  0.53873286  1
  S2-  S228  1  0.12684921  0.48230153  0.04148875  1
  S2-  S229  1  0.12917930  0.48921005  0.54191194  1
  S2-  S230  1  0.12614424  0.73423059  0.05656918  1
  S2-  S231  1  0.12496993  0.74107111  0.53903661  1
  S2-  S232  1  0.37400090  -0.01357990  0.04628150  1
  S2-  S233  1  0.36704084  -0.00947041  0.53143003  1
  S2-  S234  1  0.39039393  0.24557246  0.05605550  1
  S2-  S235  1  0.37872439  0.23957478  0.53330409  1
  S2-  S236  1  0.38484928  0.48366769  0.04370428  1
  S2-  S237  1  0.37397201  0.49301035  0.54148459  1
  S2-  S238  1  0.37683290  0.73372799  0.05058281  1
  S2-  S239  1  0.37189147  0.74790733  0.54503209  1
  S2-  S240  1  0.63056509  -0.02061679  0.03084624  1
  S2-  S241  1  0.63096878  -0.01131080  0.54603584  1
  S2-  S242  1  0.62434245  0.23004584  0.05156244  1
  S2-  S243  1  0.62073379  0.24626679  0.54411081  1
  S2-  S244  1  0.62374726  0.48285586  0.03392525  1
  S2-  S245  1  0.62194472  0.49262480  0.54652511  1
  S2-  S246  1  0.62621044  0.73477831  0.04258187  1
  S2-  S247  1  0.62340043  0.74642397  0.54958729  1
  S2-  S248  1  0.87425760  -0.02042329  0.03564698  1
  S2-  S249  1  0.88207929  -0.00798124  0.54273344  1
  S2-  S250  1  0.87160383  0.23819196  0.04197841  1
  S2-  S251  1  0.87705694  0.25095144  0.54902643  1
  S2-  S252  1  0.87326097  0.47794931  0.05279943  1
  S2-  S253  1  0.87400911  0.49193264  0.54581222  1
  S2-  S254  1  0.87583307  0.73021251  0.03640179  1
  S2-  S255  1  0.88188026  0.73427941  0.54578652  1
