# generated using pymatgen
data_La12Ce14Pr13Nd13Sm12(BiS2)64
_symmetry_space_group_name_H-M   'P 1'
_cell_length_a   16.07356345
_cell_length_b   16.15938899
_cell_length_c   27.46995696
_cell_angle_alpha   90.17644476
_cell_angle_beta   90.09155644
_cell_angle_gamma   90.11323350
_symmetry_Int_Tables_number   1
_chemical_formula_structural   La12Ce14Pr13Nd13Sm12(BiS2)64
_chemical_formula_sum   'La12 Ce14 Pr13 Nd13 Sm12 Bi64 S128'
_cell_volume   7134.96122129
_cell_formula_units_Z   1
loop_
 _symmetry_equiv_pos_site_id
 _symmetry_equiv_pos_as_xyz
  1  'x, y, z'
loop_
 _atom_type_symbol
 _atom_type_oxidation_number
  La3+  3.0
  Ce3+  3.0
  Pr3+  3.0
  Nd3+  3.0
  Sm3+  3.0
  Bi2+  2.0
  S2-  -2.0
loop_
 _atom_site_type_symbol
 _atom_site_label
 _atom_site_symmetry_multiplicity
 _atom_site_fract_x
 _atom_site_fract_y
 _atom_site_fract_z
 _atom_site_occupancy
  La3+  La0  1  0.35314945  -0.01150312  0.93563669  1
  La3+  La1  1  0.10624095  0.74864730  0.94638860  1
  La3+  La2  1  0.51043121  0.38794954  0.56475769  1
  La3+  La3  1  0.39146948  0.00331103  0.39236824  1
  La3+  La4  1  0.85523061  0.00590988  0.92817541  1
  La3+  La5  1  0.88602239  0.01615595  0.42781287  1
  La3+  La6  1  0.23428231  0.37378552  0.07720040  1
  La3+  La7  1  0.76849511  0.14078337  0.56786263  1
  La3+  La8  1  0.26255023  0.38721037  0.59199172  1
  La3+  La9  1  0.25823022  0.63853256  0.57510627  1
  La3+  La10  1  0.27012951  0.13577735  0.56208318  1
  La3+  La11  1  0.77033167  0.89473209  0.58528764  1
  Ce3+  Ce12  1  0.13674635  0.76175667  0.44247711  1
  Ce3+  Ce13  1  0.01735960  0.14133515  0.55389460  1
  Ce3+  Ce14  1  0.38594654  0.76281548  0.43815289  1
  Ce3+  Ce15  1  0.63666363  0.26113348  0.43656085  1
  Ce3+  Ce16  1  0.38577371  0.51300287  0.44233069  1
  Ce3+  Ce17  1  0.60724118  -0.01112964  0.93446812  1
  Ce3+  Ce18  1  0.35056372  0.49549070  0.93817493  1
  Ce3+  Ce19  1  0.38608074  0.26248172  0.43296926  1
  Ce3+  Ce20  1  0.01102173  0.89087796  0.55443639  1
  Ce3+  Ce21  1  0.48073586  0.62178332  0.05976036  1
  Ce3+  Ce22  1  -0.01991923  0.87419894  0.07271143  1
  Ce3+  Ce23  1  0.60454943  0.24137012  0.94143786  1
  Ce3+  Ce24  1  0.00763565  0.63418783  0.56057837  1
  Ce3+  Ce25  1  0.73259291  0.37597356  0.05162895  1
  Pr3+  Pr26  1  0.59789285  0.49506296  0.92945213  1
  Pr3+  Pr27  1  0.48424699  0.37209659  0.06301684  1
  Pr3+  Pr28  1  0.10598172  0.48889214  0.93448974  1
  Pr3+  Pr29  1  0.10444663  0.24310600  0.94655640  1
  Pr3+  Pr30  1  0.85856579  0.75600325  0.93620768  1
  Pr3+  Pr31  1  0.73085419  0.12091103  0.06986914  1
  Pr3+  Pr32  1  0.85035397  0.49825977  0.92350605  1
  Pr3+  Pr33  1  0.51234548  0.63741146  0.55944419  1
  Pr3+  Pr34  1  0.13820163  0.01398254  0.43368789  1
  Pr3+  Pr35  1  0.50942634  0.13404379  0.54801288  1
  Pr3+  Pr36  1  -0.02254917  0.12853260  0.07826827  1
  Pr3+  Pr37  1  0.47453514  0.87591679  0.07357916  1
  Pr3+  Pr38  1  0.23489421  0.61866076  0.07535496  1
  Nd3+  Nd39  1  0.48092585  0.11857273  0.06402488  1
  Nd3+  Nd40  1  0.64201913  0.00915261  0.43171412  1
  Nd3+  Nd41  1  0.88212301  0.51266255  0.42985426  1
  Nd3+  Nd42  1  0.76350097  0.38490771  0.56036363  1
  Nd3+  Nd43  1  -0.02719852  0.38439848  0.07545222  1
  Nd3+  Nd44  1  0.88492550  0.76284557  0.44355425  1
  Nd3+  Nd45  1  0.01532458  0.38831242  0.55071291  1
  Nd3+  Nd46  1  0.22689980  0.87474468  0.07558447  1
  Nd3+  Nd47  1  0.51289812  0.88816214  0.55532012  1
  Nd3+  Nd48  1  0.63572283  0.51268960  0.44105638  1
  Nd3+  Nd49  1  0.13931174  0.51373049  0.43812821  1
  Nd3+  Nd50  1  0.73204243  0.62130258  0.06002498  1
  Nd3+  Nd51  1  0.22797145  0.12860672  0.08489545  1
  Sm3+  Sm52  1  0.85595436  0.24652156  0.94541832  1
  Sm3+  Sm53  1  0.10620962  0.00095085  0.95392546  1
  Sm3+  Sm54  1  0.64044459  0.76511962  0.45106302  1
  Sm3+  Sm55  1  0.73062315  0.87408775  0.06060696  1
  Sm3+  Sm56  1  0.14140860  0.26450013  0.43724719  1
  Sm3+  Sm57  1  0.35271546  0.24379969  0.94446397  1
  Sm3+  Sm58  1  0.88631991  0.26463449  0.43532452  1
  Sm3+  Sm59  1  0.26307102  0.88835816  0.55367197  1
  Sm3+  Sm60  1  0.35409593  0.74687238  0.94843083  1
  Sm3+  Sm61  1  0.60751153  0.75061582  0.94661254  1
  Sm3+  Sm62  1  0.76680827  0.63487643  0.56266626  1
  Sm3+  Sm63  1  -0.02033934  0.62028947  0.05377648  1
  Bi2+  Bi64  1  0.01244175  0.01286599  0.31763096  1
  Bi2+  Bi65  1  -0.05570535  0.11233678  0.74833929  1
  Bi2+  Bi66  1  -0.10090566  0.35827493  0.29896001  1
  Bi2+  Bi67  1  -0.02482057  0.27740431  0.81332476  1
  Bi2+  Bi68  1  0.01901829  0.66145880  0.21613871  1
  Bi2+  Bi69  1  -0.02870257  0.54352092  0.76638443  1
  Bi2+  Bi70  1  0.02946406  0.82151722  0.30160873  1
  Bi2+  Bi71  1  0.01866767  0.84032077  0.79078276  1
  Bi2+  Bi72  1  0.24740082  0.13808227  0.29806518  1
  Bi2+  Bi73  1  0.21589656  0.15657781  0.81455586  1
  Bi2+  Bi74  1  0.24348336  0.37984731  0.30961820  1
  Bi2+  Bi75  1  0.31698412  0.39942307  0.80406513  1
  Bi2+  Bi76  1  0.23151738  0.61987579  0.28874837  1
  Bi2+  Bi77  1  0.22958647  0.64089288  0.78892946  1
  Bi2+  Bi78  1  0.25897395  0.86625035  0.27792216  1
  Bi2+  Bi79  1  0.24201645  0.90158159  0.81340156  1
  Bi2+  Bi80  1  0.55433852  0.22171141  0.21598107  1
  Bi2+  Bi81  1  0.49536086  0.09419738  0.74796426  1
  Bi2+  Bi82  1  0.52777371  0.43649231  0.25584866  1
  Bi2+  Bi83  1  0.58045317  0.42271897  0.79333178  1
  Bi2+  Bi84  1  0.50255429  0.59564465  0.31782813  1
  Bi2+  Bi85  1  0.43122855  0.64636774  0.79583612  1
  Bi2+  Bi86  1  0.52891899  0.85696972  0.29043239  1
  Bi2+  Bi87  1  0.50868021  0.82086722  0.77488700  1
  Bi2+  Bi88  1  0.65676203  0.10477691  0.28957896  1
  Bi2+  Bi89  1  0.73785047  0.14427180  0.79624424  1
  Bi2+  Bi90  1  0.70405961  0.37757751  0.30517381  1
  Bi2+  Bi91  1  0.82498117  0.40190357  0.79488315  1
  Bi2+  Bi92  1  0.81213853  0.62542174  0.29180567  1
  Bi2+  Bi93  1  0.76568955  0.62331525  0.75961404  1
  Bi2+  Bi94  1  0.76829062  0.87792575  0.29381869  1
  Bi2+  Bi95  1  0.74540620  0.85400428  0.81350113  1
  Bi2+  Bi96  1  0.12567016  -0.01951105  0.22539166  1
  Bi2+  Bi97  1  0.11140864  0.00961269  0.75742795  1
  Bi2+  Bi98  1  0.09501694  0.22805865  0.22715666  1
  Bi2+  Bi99  1  0.08105058  0.24815310  0.68696656  1
  Bi2+  Bi100  1  0.07055671  0.47438703  0.21432953  1
  Bi2+  Bi101  1  0.12854509  0.49904013  0.70517918  1
  Bi2+  Bi102  1  0.19855921  0.73254441  0.19665269  1
  Bi2+  Bi103  1  0.13148095  0.76321479  0.70732802  1
  Bi2+  Bi104  1  0.43117017  -0.01193893  0.20252595  1
  Bi2+  Bi105  1  0.36302418  -0.01843381  0.69723694  1
  Bi2+  Bi106  1  0.36120420  0.24786920  0.21067366  1
  Bi2+  Bi107  1  0.33788171  0.22174729  0.70006764  1
  Bi2+  Bi108  1  0.34207904  0.49867987  0.20875353  1
  Bi2+  Bi109  1  0.41614717  0.49995029  0.70900713  1
  Bi2+  Bi110  1  0.39582485  0.69451831  0.24058406  1
  Bi2+  Bi111  1  0.32665481  0.77035750  0.72269677  1
  Bi2+  Bi112  1  0.67780700  -0.01682266  0.19924467  1
  Bi2+  Bi113  1  0.62266743  -0.04001552  0.70875966  1
  Bi2+  Bi114  1  0.63488939  0.37507986  0.16529189  1
  Bi2+  Bi115  1  0.59809960  0.25597792  0.73649596  1
  Bi2+  Bi116  1  0.60530524  0.57131644  0.17437548  1
  Bi2+  Bi117  1  0.60914097  0.44922578  0.68211117  1
  Bi2+  Bi118  1  0.64272143  0.71056146  0.25406783  1
  Bi2+  Bi119  1  0.58755765  0.66512593  0.71916164  1
  Bi2+  Bi120  1  0.89984943  0.03200718  0.22537770  1
  Bi2+  Bi121  1  0.84474899  -0.05059047  0.71329712  1
  Bi2+  Bi122  1  0.81155090  0.20691213  0.24454094  1
  Bi2+  Bi123  1  0.86221823  0.28687970  0.70638095  1
  Bi2+  Bi124  1  0.79841892  0.48322677  0.21429097  1
  Bi2+  Bi125  1  0.79909347  0.48807102  0.67885150  1
  Bi2+  Bi126  1  0.92177498  0.83190709  0.20504954  1
  Bi2+  Bi127  1  0.92823044  0.71817481  0.72105427  1
  S2-  S128  1  0.09300984  0.10830053  0.15671396  1
  S2-  S129  1  -0.05052316  0.14725946  0.64207063  1
  S2-  S130  1  0.01604975  0.32747592  0.17036636  1
  S2-  S131  1  0.01598127  0.40209681  0.64984421  1
  S2-  S132  1  -0.01927480  0.53971789  0.14047265  1
  S2-  S133  1  0.10975684  0.63646496  0.64105956  1
  S2-  S134  1  0.09712319  0.87340696  0.14768165  1
  S2-  S135  1  -0.06296768  0.89491899  0.64067466  1
  S2-  S136  1  0.37150824  0.11361094  0.14625858  1
  S2-  S137  1  0.19812097  0.14355995  0.65569514  1
  S2-  S138  1  0.22269278  0.25859725  0.15846181  1
  S2-  S139  1  0.21226962  0.34453695  0.69352561  1
  S2-  S140  1  0.19965979  0.49844657  0.14947662  1
  S2-  S141  1  0.27447975  0.52760658  0.65360302  1
  S2-  S142  1  0.34521320  0.88580779  0.14966034  1
  S2-  S143  1  0.24216528  0.89838086  0.65150959  1
  S2-  S144  1  0.60063723  0.11618265  0.14215750  1
  S2-  S145  1  0.41652808  0.12856961  0.63437478  1
  S2-  S146  1  0.38574955  0.37990737  0.14608044  1
  S2-  S147  1  0.41193701  0.35553905  0.64767819  1
  S2-  S148  1  0.38704411  0.62606078  0.14154417  1
  S2-  S149  1  0.45745089  0.64376554  0.65323451  1
  S2-  S150  1  0.55731209  0.88197931  0.16493128  1
  S2-  S151  1  0.49296878  0.89416388  0.65355391  1
  S2-  S152  1  0.84593363  0.13319088  0.15053142  1
  S2-  S153  1  0.73992647  0.03718426  0.64734727  1
  S2-  S154  1  0.81943175  0.38247688  0.13564055  1
  S2-  S155  1  0.74955645  0.27237609  0.63669556  1
  S2-  S156  1  0.76598056  0.62695723  0.15738301  1
  S2-  S157  1  0.88403917  0.62915500  0.63493430  1
  S2-  S158  1  0.77892214  0.86605823  0.15438883  1
  S2-  S159  1  0.73028104  0.83180792  0.67928365  1
  S2-  S160  1  0.22731264  -0.00726778  0.34847020  1
  S2-  S161  1  0.09976791  0.05411278  0.85947198  1
  S2-  S162  1  0.12738614  0.26240229  0.33726632  1
  S2-  S163  1  0.12725679  0.30134851  0.85102857  1
  S2-  S164  1  0.14130549  0.49847402  0.33829570  1
  S2-  S165  1  0.23147225  0.50573266  0.86138411  1
  S2-  S166  1  0.17437807  0.75521620  0.34747469  1
  S2-  S167  1  0.14087316  0.74968355  0.84793315  1
  S2-  S168  1  0.38977897  0.06454019  0.29096824  1
  S2-  S169  1  0.32894875  0.04508633  0.83878038  1
  S2-  S170  1  0.35987451  0.25914399  0.33640741  1
  S2-  S171  1  0.35883119  0.26496108  0.84421904  1
  S2-  S172  1  0.37595079  0.48673195  0.34593839  1
  S2-  S173  1  0.46156381  0.48094435  0.85878243  1
  S2-  S174  1  0.39044679  0.83835275  0.34915470  1
  S2-  S175  1  0.36090239  0.84269141  0.86761054  1
  S2-  S176  1  0.55121545  -0.00509423  0.34579381  1
  S2-  S177  1  0.71346625  0.01458721  0.85555733  1
  S2-  S178  1  0.60359771  0.24998026  0.34112931  1
  S2-  S179  1  0.62225838  0.24041932  0.84405203  1
  S2-  S180  1  0.69145191  0.53822092  0.34930512  1
  S2-  S181  1  0.71332219  0.49483370  0.85248609  1
  S2-  S182  1  0.64803278  0.78122497  0.35345434  1
  S2-  S183  1  0.59380592  0.84588475  0.86439239  1
  S2-  S184  1  0.76456752  0.00339100  0.35474000  1
  S2-  S185  1  0.89413084  -0.11784389  0.85992969  1
  S2-  S186  1  0.87961373  0.20565751  0.34381721  1
  S2-  S187  1  0.87307237  0.15253699  0.86306241  1
  S2-  S188  1  0.92490698  0.52731700  0.33448372  1
  S2-  S189  1  0.98634146  0.49680366  0.85860209  1
  S2-  S190  1  0.87539950  0.76544284  0.34484834  1
  S2-  S191  1  0.78404447  0.70881117  0.84747651  1
  S2-  S192  1  0.01460807  0.14341743  0.44790864  1
  S2-  S193  1  -0.01975403  0.12067614  0.96893584  1
  S2-  S194  1  0.01252564  0.38702061  0.44410104  1
  S2-  S195  1  -0.02370926  0.36783232  0.95952076  1
  S2-  S196  1  0.00991645  0.63566414  0.45129719  1
  S2-  S197  1  -0.02161534  0.62553428  0.95117901  1
  S2-  S198  1  0.01159616  0.88759326  0.44871886  1
  S2-  S199  1  -0.01419773  0.87683249  0.96610079  1
  S2-  S200  1  0.26269842  0.13900160  0.44950011  1
  S2-  S201  1  0.23181020  0.12191471  0.96244326  1
  S2-  S202  1  0.26131749  0.38799415  0.44774283  1
  S2-  S203  1  0.23336397  0.36638849  0.96355001  1
  S2-  S204  1  0.26256261  0.63805709  0.45663588  1
  S2-  S205  1  0.23199371  0.62571725  0.96352392  1
  S2-  S206  1  0.26283470  0.88616409  0.45122168  1
  S2-  S207  1  0.22585390  0.87313616  0.96716850  1
  S2-  S208  1  0.50791760  0.13297490  0.44350225  1
  S2-  S209  1  0.47940771  0.11711769  0.95144448  1
  S2-  S210  1  0.51226773  0.38903953  0.45215128  1
  S2-  S211  1  0.47906751  0.36401893  0.95690602  1
  S2-  S212  1  0.51495750  0.64037132  0.45359128  1
  S2-  S213  1  0.48105828  0.62949620  0.95318316  1
  S2-  S214  1  0.51370467  0.88416604  0.45163831  1
  S2-  S215  1  0.48164223  0.86803797  0.96726009  1
  S2-  S216  1  0.76224725  0.14260310  0.45488278  1
  S2-  S217  1  0.72924724  0.12374536  0.96359452  1
  S2-  S218  1  0.76141494  0.38668532  0.45141165  1
  S2-  S219  1  0.72939621  0.36679348  0.94811285  1
  S2-  S220  1  0.76157181  0.63801074  0.45852795  1
  S2-  S221  1  0.72628895  0.62581724  0.95493031  1
  S2-  S222  1  0.76298160  0.88559977  0.46009613  1
  S2-  S223  1  0.73375828  0.87324257  0.95934271  1
  S2-  S224  1  0.10548787  0.00226153  0.05395256  1
  S2-  S225  1  0.13897080  0.01208424  0.54165613  1
  S2-  S226  1  0.10120925  0.25209002  0.05276700  1
  S2-  S227  1  0.14370137  0.26722848  0.54304366  1
  S2-  S228  1  0.10257992  0.49770538  0.04060014  1
  S2-  S229  1  0.14199841  0.50813082  0.54300863  1
  S2-  S230  1  0.10457885  0.74035981  0.05342295  1
  S2-  S231  1  0.13513416  0.76613340  0.54622444  1
  S2-  S232  1  0.35098668  -0.00072296  0.04408562  1
  S2-  S233  1  0.38634883  0.00483691  0.53853734  1
  S2-  S234  1  0.35833516  0.24404552  0.04667549  1
  S2-  S235  1  0.38438557  0.26704338  0.53799107  1
  S2-  S236  1  0.35915231  0.49849986  0.04216260  1
  S2-  S237  1  0.38562723  0.51222245  0.54675240  1
  S2-  S238  1  0.35292300  0.74950925  0.04899771  1
  S2-  S239  1  0.38479478  0.76288708  0.54629566  1
  S2-  S240  1  0.60627140  -0.00784576  0.04227968  1
  S2-  S241  1  0.63623349  0.01207597  0.54085429  1
  S2-  S242  1  0.60668277  0.24712333  0.04509970  1
  S2-  S243  1  0.63113564  0.26258025  0.54146408  1
  S2-  S244  1  0.60553305  0.49914810  0.03734569  1
  S2-  S245  1  0.64045286  0.51358377  0.54725842  1
  S2-  S246  1  0.60673930  0.74862221  0.05155115  1
  S2-  S247  1  0.64257264  0.76104537  0.55565958  1
  S2-  S248  1  0.85591801  -0.00516045  0.05084069  1
  S2-  S249  1  0.89089171  0.01673960  0.53667229  1
  S2-  S250  1  0.85529929  0.24972462  0.04617629  1
  S2-  S251  1  0.89135674  0.26650435  0.53824734  1
  S2-  S252  1  0.85356154  0.50230793  0.03295586  1
  S2-  S253  1  0.88501064  0.50686491  0.53636974  1
  S2-  S254  1  0.85774391  0.74742423  0.04672990  1
  S2-  S255  1  0.88521514  0.76454329  0.54592197  1
