# generated using pymatgen
data_La12Ce14Pr13Nd13Sm12(BiS2)64
_symmetry_space_group_name_H-M   'P 1'
_cell_length_a   16.16920009
_cell_length_b   16.17574711
_cell_length_c   27.14779535
_cell_angle_alpha   89.77325501
_cell_angle_beta   89.76994373
_cell_angle_gamma   90.04868420
_symmetry_Int_Tables_number   1
_chemical_formula_structural   La12Ce14Pr13Nd13Sm12(BiS2)64
_chemical_formula_sum   'La12 Ce14 Pr13 Nd13 Sm12 Bi64 S128'
_cell_volume   7100.36028469
_cell_formula_units_Z   1
loop_
 _symmetry_equiv_pos_site_id
 _symmetry_equiv_pos_as_xyz
  1  'x, y, z'
loop_
 _atom_type_symbol
 _atom_type_oxidation_number
  La3+  3.0
  Ce3+  3.0
  Pr3+  3.0
  Nd3+  3.0
  Sm3+  3.0
  Bi2+  2.0
  S2-  -2.0
loop_
 _atom_site_type_symbol
 _atom_site_label
 _atom_site_symmetry_multiplicity
 _atom_site_fract_x
 _atom_site_fract_y
 _atom_site_fract_z
 _atom_site_occupancy
  La3+  La0  1  0.74336132  0.63156853  0.08726463  1
  La3+  La1  1  0.63255106  0.51999833  0.92647109  1
  La3+  La2  1  0.10138250  0.50995948  0.41650982  1
  La3+  La3  1  0.22403786  0.12772276  0.57673266  1
  La3+  La4  1  0.13638111  0.25321037  0.39011282  1
  La3+  La5  1  0.60523446  0.75976868  0.41066878  1
  La3+  La6  1  0.49759211  0.14105902  0.06393506  1
  La3+  La7  1  0.37677629  0.26695509  0.92281287  1
  La3+  La8  1  0.22038528  0.38416946  0.56606652  1
  La3+  La9  1  0.22607739  0.86679221  0.58235894  1
  La3+  La10  1  0.12492362  0.23307086  0.88174449  1
  La3+  La11  1  0.49413491  0.89101760  0.07160387  1
  Ce3+  Ce12  1  0.36983091  0.01387504  0.93856182  1
  Ce3+  Ce13  1  -0.00091889  0.38399239  0.05628069  1
  Ce3+  Ce14  1  0.48115251  0.12846339  0.56463798  1
  Ce3+  Ce15  1  0.85146537  0.50694199  0.42672799  1
  Ce3+  Ce16  1  0.12242358  0.75886690  0.93835708  1
  Ce3+  Ce17  1  0.85786857  0.00353449  0.44409704  1
  Ce3+  Ce18  1  0.12075132  0.50067438  0.93003339  1
  Ce3+  Ce19  1  -0.01539283  0.13025010  0.55736553  1
  Ce3+  Ce20  1  0.49915877  0.63524661  0.05558492  1
  Ce3+  Ce21  1  0.12526797  0.00919688  0.94343390  1
  Ce3+  Ce22  1  0.35478782  0.00305709  0.45598762  1
  Ce3+  Ce23  1  -0.01623284  0.87588550  0.55984039  1
  Ce3+  Ce24  1  0.60580062  0.25602765  0.44279907  1
  Ce3+  Ce25  1  0.11000665  0.00490354  0.44290319  1
  Pr3+  Pr26  1  0.60137166  0.49664655  0.42073436  1
  Pr3+  Pr27  1  0.87220172  0.75724003  0.95644088  1
  Pr3+  Pr28  1  0.74927011  0.38441315  0.06087576  1
  Pr3+  Pr29  1  0.62538172  0.76697049  0.94126439  1
  Pr3+  Pr30  1  0.10954574  0.75753459  0.42728485  1
  Pr3+  Pr31  1  0.87517117  0.51353134  0.94328263  1
  Pr3+  Pr32  1  0.87596944  0.25844614  0.93586753  1
  Pr3+  Pr33  1  0.62344575  0.26034279  0.93010731  1
  Pr3+  Pr34  1  0.74158104  0.88620072  0.07961745  1
  Pr3+  Pr35  1  0.37058634  0.76344898  0.93324369  1
  Pr3+  Pr36  1  0.73115398  0.62545541  0.55650619  1
  Pr3+  Pr37  1  0.00037623  0.13520290  0.06381411  1
  Pr3+  Pr38  1  0.48256228  0.62870967  0.56252314  1
  Nd3+  Nd39  1  0.73308196  0.13038116  0.55729979  1
  Nd3+  Nd40  1  0.60367801  0.00486769  0.44006800  1
  Nd3+  Nd41  1  0.01106105  0.63230433  0.07432933  1
  Nd3+  Nd42  1  0.73251063  0.87786063  0.56040693  1
  Nd3+  Nd43  1  0.87464598  0.00848799  0.94882118  1
  Nd3+  Nd44  1  0.86189255  0.25292334  0.43535449  1
  Nd3+  Nd45  1  0.49760065  0.38402473  0.06146043  1
  Nd3+  Nd46  1  0.37864519  0.50746221  0.93481398  1
  Nd3+  Nd47  1  0.62180376  0.00811198  0.93612357  1
  Nd3+  Nd48  1  0.24864342  0.88310305  0.06538695  1
  Nd3+  Nd49  1  0.24690500  0.13906669  0.05716559  1
  Nd3+  Nd50  1  0.48013812  0.37800713  0.56917494  1
  Nd3+  Nd51  1  0.48407642  0.87726293  0.56577838  1
  Sm3+  Sm52  1  0.23147534  0.62890859  0.54575446  1
  Sm3+  Sm53  1  0.85436810  0.75592564  0.44567932  1
  Sm3+  Sm54  1  0.35499290  0.25340982  0.45132650  1
  Sm3+  Sm55  1  -0.01565976  0.38012824  0.54444674  1
  Sm3+  Sm56  1  0.24696221  0.38286707  0.05275493  1
  Sm3+  Sm57  1  -0.01677427  0.62688544  0.55144015  1
  Sm3+  Sm58  1  0.74689211  0.13344368  0.05205989  1
  Sm3+  Sm59  1  0.36239200  0.75661918  0.44023855  1
  Sm3+  Sm60  1  -0.00167461  0.88323995  0.05833977  1
  Sm3+  Sm61  1  0.73372487  0.37978358  0.55479709  1
  Sm3+  Sm62  1  0.24678531  0.63038960  0.04865323  1
  Sm3+  Sm63  1  0.36231801  0.50187131  0.44189388  1
  Bi2+  Bi64  1  -0.00864049  0.09666651  0.29046546  1
  Bi2+  Bi65  1  -0.03146172  0.10220371  0.77833128  1
  Bi2+  Bi66  1  0.02901305  0.41912294  0.28128056  1
  Bi2+  Bi67  1  -0.07513312  0.37812292  0.78177312  1
  Bi2+  Bi68  1  0.05039975  0.67296856  0.25417145  1
  Bi2+  Bi69  1  -0.00461882  0.56021328  0.82036177  1
  Bi2+  Bi70  1  0.07132758  0.85912783  0.30750143  1
  Bi2+  Bi71  1  0.01502733  0.79356079  0.79779574  1
  Bi2+  Bi72  1  0.25609001  0.03594590  0.29130056  1
  Bi2+  Bi73  1  0.24388958  0.09589343  0.77912538  1
  Bi2+  Bi74  1  0.32057962  0.36980507  0.29471586  1
  Bi2+  Bi75  1  0.25257841  0.36439758  0.78535625  1
  Bi2+  Bi76  1  0.25872493  0.61503951  0.29030726  1
  Bi2+  Bi77  1  0.24617345  0.59946704  0.75266834  1
  Bi2+  Bi78  1  0.26339442  0.82664556  0.31197332  1
  Bi2+  Bi79  1  0.28853436  0.85520687  0.78822865  1
  Bi2+  Bi80  1  0.48450518  0.11159892  0.29109608  1
  Bi2+  Bi81  1  0.56832388  0.09496684  0.80845739  1
  Bi2+  Bi82  1  0.52809115  0.37069187  0.26044991  1
  Bi2+  Bi83  1  0.49411642  0.37114934  0.78201031  1
  Bi2+  Bi84  1  0.45983796  0.61184011  0.27856802  1
  Bi2+  Bi85  1  0.53425299  0.63910731  0.78575069  1
  Bi2+  Bi86  1  0.46621802  0.88069904  0.29397554  1
  Bi2+  Bi87  1  0.53088562  0.83810804  0.78712800  1
  Bi2+  Bi88  1  0.67655447  0.13618520  0.30031569  1
  Bi2+  Bi89  1  0.75511416  0.13708388  0.80311181  1
  Bi2+  Bi90  1  0.73616352  0.37191412  0.29330285  1
  Bi2+  Bi91  1  0.74219318  0.33015106  0.82051165  1
  Bi2+  Bi92  1  0.81215990  0.62430964  0.29260301  1
  Bi2+  Bi93  1  0.80735316  0.63995594  0.81500095  1
  Bi2+  Bi94  1  0.75591927  0.87406758  0.30882377  1
  Bi2+  Bi95  1  0.77252182  0.90449314  0.79848245  1
  Bi2+  Bi96  1  0.11002731  -0.00234243  0.21527135  1
  Bi2+  Bi97  1  0.06503826  -0.04891531  0.73230324  1
  Bi2+  Bi98  1  0.13614656  0.25341941  0.18982609  1
  Bi2+  Bi99  1  0.13579149  0.26312293  0.67756290  1
  Bi2+  Bi100  1  0.16568985  0.51400775  0.20698510  1
  Bi2+  Bi101  1  0.08283762  0.50427685  0.71913994  1
  Bi2+  Bi102  1  0.17140046  0.80933500  0.19959214  1
  Bi2+  Bi103  1  0.11712108  0.72432933  0.70686516  1
  Bi2+  Bi104  1  0.35089589  0.00404362  0.19881302  1
  Bi2+  Bi105  1  0.47566478  -0.00441485  0.72712535  1
  Bi2+  Bi106  1  0.39778925  0.23637949  0.21885850  1
  Bi2+  Bi107  1  0.39810430  0.23885363  0.69730244  1
  Bi2+  Bi108  1  0.36954224  0.48632481  0.20442817  1
  Bi2+  Bi109  1  0.38688994  0.49930373  0.70141435  1
  Bi2+  Bi110  1  0.35613100  0.73797347  0.21595186  1
  Bi2+  Bi111  1  0.37027111  0.74725647  0.69272151  1
  Bi2+  Bi112  1  0.61105647  0.01417153  0.21500829  1
  Bi2+  Bi113  1  0.68053508  0.01685335  0.71449705  1
  Bi2+  Bi114  1  0.66209736  0.24642870  0.20111756  1
  Bi2+  Bi115  1  0.68805308  0.27952690  0.71351779  1
  Bi2+  Bi116  1  0.62088803  0.50993616  0.20253246  1
  Bi2+  Bi117  1  0.69920848  0.47799213  0.72304786  1
  Bi2+  Bi118  1  0.64073742  0.75668297  0.21268550  1
  Bi2+  Bi119  1  0.67308476  0.73772904  0.72342999  1
  Bi2+  Bi120  1  0.82962431  0.02161202  0.23950025  1
  Bi2+  Bi121  1  0.88120337  -0.04553032  0.69955457  1
  Bi2+  Bi122  1  0.84591183  0.21924369  0.24106429  1
  Bi2+  Bi123  1  0.88404957  0.23337314  0.70746712  1
  Bi2+  Bi124  1  0.90625291  0.46952084  0.20369747  1
  Bi2+  Bi125  1  0.88639845  0.54704003  0.71609479  1
  Bi2+  Bi126  1  0.91616886  0.82064040  0.23375980  1
  Bi2+  Bi127  1  0.86961181  0.76255947  0.71831468  1
  S2-  S128  1  0.03415088  0.13479188  0.16296355  1
  S2-  S129  1  0.07151768  0.12409266  0.64238947  1
  S2-  S130  1  0.00796208  0.36095801  0.15464050  1
  S2-  S131  1  0.06562294  0.40321146  0.63104100  1
  S2-  S132  1  -0.04946523  0.61639575  0.16942488  1
  S2-  S133  1  0.00376274  0.62708555  0.64951733  1
  S2-  S134  1  0.02387176  0.87663254  0.15465776  1
  S2-  S135  1  0.07864458  0.86151674  0.64196393  1
  S2-  S136  1  0.27110694  0.15322794  0.15678611  1
  S2-  S137  1  0.28541004  0.12846372  0.67559944  1
  S2-  S138  1  0.24862798  0.38242546  0.15314813  1
  S2-  S139  1  0.28225258  0.36714064  0.66298416  1
  S2-  S140  1  0.16203662  0.62895110  0.13428150  1
  S2-  S141  1  0.24025655  0.65392029  0.64281643  1
  S2-  S142  1  0.36201295  0.86498256  0.14161874  1
  S2-  S143  1  0.28245875  0.88141504  0.68087657  1
  S2-  S144  1  0.48811052  0.03831086  0.14546152  1
  S2-  S145  1  0.51384238  0.13488530  0.66049383  1
  S2-  S146  1  0.49611584  0.27030963  0.13779327  1
  S2-  S147  1  0.50663353  0.37752258  0.66891439  1
  S2-  S148  1  0.55665209  0.64485902  0.14812440  1
  S2-  S149  1  0.48554079  0.61384721  0.66415900  1
  S2-  S150  1  0.60598611  0.87640710  0.15039289  1
  S2-  S151  1  0.49219265  0.85800137  0.66515026  1
  S2-  S152  1  0.71688959  0.11060360  0.14739546  1
  S2-  S153  1  0.77202499  0.13983635  0.65422682  1
  S2-  S154  1  0.75012779  0.42967678  0.15796720  1
  S2-  S155  1  0.77649195  0.38420556  0.65023320  1
  S2-  S156  1  0.74526418  0.62341781  0.19303608  1
  S2-  S157  1  0.71392954  0.60744413  0.65717124  1
  S2-  S158  1  0.78937125  0.82271639  0.17342677  1
  S2-  S159  1  0.71431637  0.87430468  0.65919609  1
  S2-  S160  1  0.12872080  0.08526102  0.35597938  1
  S2-  S161  1  0.11908002  0.06008493  0.84931928  1
  S2-  S162  1  0.08247249  0.24875961  0.28532863  1
  S2-  S163  1  0.13490166  0.23301913  0.77131403  1
  S2-  S164  1  0.16653524  0.41209995  0.34210247  1
  S2-  S165  1  0.13537133  0.40403220  0.84848176  1
  S2-  S166  1  0.11234735  0.64644981  0.34796126  1
  S2-  S167  1  0.17521241  0.79384012  0.84712650  1
  S2-  S168  1  0.39156640  0.00405677  0.35937735  1
  S2-  S169  1  0.34137340  -0.01042416  0.84107233  1
  S2-  S170  1  0.30656451  0.23989568  0.35694502  1
  S2-  S171  1  0.29186023  0.21436217  0.83821850  1
  S2-  S172  1  0.45698635  0.51420687  0.35941027  1
  S2-  S173  1  0.36565419  0.41545825  0.84955700  1
  S2-  S174  1  0.45456620  0.75380051  0.35575466  1
  S2-  S175  1  0.40188416  0.73679772  0.83412652  1
  S2-  S176  1  0.60931723  -0.08366249  0.35382246  1
  S2-  S177  1  0.63221040  -0.11176915  0.86320549  1
  S2-  S178  1  0.59955795  0.34509082  0.35937068  1
  S2-  S179  1  0.51272746  0.25062997  0.85048011  1
  S2-  S180  1  0.72951981  0.51935672  0.34926410  1
  S2-  S181  1  0.54649692  0.49288754  0.83679541  1
  S2-  S182  1  0.67303285  0.71973116  0.31599824  1
  S2-  S183  1  0.64794681  0.66787761  0.85847113  1
  S2-  S184  1  0.86486573  0.00515168  0.34613784  1
  S2-  S185  1  0.87225894  0.01635559  0.84915511  1
  S2-  S186  1  0.85953821  0.28365471  0.33681067  1
  S2-  S187  1  0.95902407  0.24329090  0.84717051  1
  S2-  S188  1  0.94306839  0.51902057  0.34255267  1
  S2-  S189  1  0.77292760  0.49655371  0.86080186  1
  S2-  S190  1  0.87265808  0.75797486  0.34733892  1
  S2-  S191  1  0.86575411  0.79479584  0.85764789  1
  S2-  S192  1  -0.01666801  0.12843148  0.45053450  1
  S2-  S193  1  0.00024097  0.13282914  0.95650448  1
  S2-  S194  1  -0.01093292  0.37256223  0.44087808  1
  S2-  S195  1  -0.00577965  0.38450587  0.95099616  1
  S2-  S196  1  -0.02264014  0.63634543  0.44840895  1
  S2-  S197  1  0.00225353  0.63492362  0.95999142  1
  S2-  S198  1  -0.01805428  0.87837637  0.45238331  1
  S2-  S199  1  -0.00065255  0.88505202  0.95349533  1
  S2-  S200  1  0.23330806  0.12902180  0.46407114  1
  S2-  S201  1  0.24368177  0.13782706  0.95127048  1
  S2-  S202  1  0.23896478  0.37988459  0.45620385  1
  S2-  S203  1  0.24959976  0.38586087  0.95155063  1
  S2-  S204  1  0.24417734  0.62958202  0.44290047  1
  S2-  S205  1  0.24838330  0.63007748  0.94323709  1
  S2-  S206  1  0.23399911  0.87628541  0.45627541  1
  S2-  S207  1  0.24779326  0.88550508  0.95808110  1
  S2-  S208  1  0.48139672  0.13027278  0.45724480  1
  S2-  S209  1  0.49871754  0.13205372  0.95407566  1
  S2-  S210  1  0.47906915  0.37551367  0.46189588  1
  S2-  S211  1  0.50566282  0.38983827  0.95600594  1
  S2-  S212  1  0.48802163  0.63155462  0.45670872  1
  S2-  S213  1  0.49521904  0.63730487  0.95030750  1
  S2-  S214  1  0.48389588  0.87934405  0.46044264  1
  S2-  S215  1  0.49168793  0.88784614  0.95761466  1
  S2-  S216  1  0.73135156  0.12934562  0.45029787  1
  S2-  S217  1  0.74803175  0.13225495  0.94767104  1
  S2-  S218  1  0.73593284  0.37617968  0.45259933  1
  S2-  S219  1  0.75004480  0.38112754  0.95659961  1
  S2-  S220  1  0.72713597  0.63507452  0.45063700  1
  S2-  S221  1  0.75046966  0.63546883  0.97164502  1
  S2-  S222  1  0.73077144  0.87859315  0.45500104  1
  S2-  S223  1  0.75221090  0.88766959  0.96868106  1
  S2-  S224  1  0.12433520  0.00718360  0.05149688  1
  S2-  S225  1  0.10770404  -0.00200348  0.54634277  1
  S2-  S226  1  0.12380743  0.26162645  0.05195582  1
  S2-  S227  1  0.10455050  0.25509756  0.54274184  1
  S2-  S228  1  0.12432465  0.50465239  0.03824437  1
  S2-  S229  1  0.10583012  0.51197484  0.52840169  1
  S2-  S230  1  0.12453550  0.76280798  0.04383777  1
  S2-  S231  1  0.10718611  0.74805476  0.53580048  1
  S2-  S232  1  0.36621945  0.01301007  0.04303289  1
  S2-  S233  1  0.35467586  -0.00109489  0.56243475  1
  S2-  S234  1  0.36960599  0.26322234  0.03699939  1
  S2-  S235  1  0.35528285  0.25334833  0.55594011  1
  S2-  S236  1  0.37179751  0.50834626  0.04447286  1
  S2-  S237  1  0.35632598  0.50449333  0.54741404  1
  S2-  S238  1  0.36906052  0.75229555  0.04135197  1
  S2-  S239  1  0.35709162  0.75409838  0.54551875  1
  S2-  S240  1  0.62499746  0.01194017  0.04164819  1
  S2-  S241  1  0.60922809  0.00415101  0.54917545  1
  S2-  S242  1  0.62879073  0.25974441  0.03898587  1
  S2-  S243  1  0.60923572  0.25645865  0.55131582  1
  S2-  S244  1  0.62238226  0.50757313  0.04757543  1
  S2-  S245  1  0.60664093  0.49833924  0.54773307  1
  S2-  S246  1  0.62460533  0.75806483  0.04796832  1
  S2-  S247  1  0.60860375  0.75369463  0.55364320  1
  S2-  S248  1  0.87343043  0.00852053  0.05669985  1
  S2-  S249  1  0.85783842  0.00374108  0.55073600  1
  S2-  S250  1  0.87162930  0.25596497  0.04790352  1
  S2-  S251  1  0.85931185  0.25624743  0.54312669  1
  S2-  S252  1  0.87563040  0.51237042  0.05226590  1
  S2-  S253  1  0.85967923  0.50274923  0.53953283  1
  S2-  S254  1  0.87868327  0.75580431  0.06213408  1
  S2-  S255  1  0.85774320  0.75167917  0.55199158  1
