# generated using pymatgen
data_La12Ce14Pr13Nd13Sm12(BiS2)64
_symmetry_space_group_name_H-M   'P 1'
_cell_length_a   16.19135055
_cell_length_b   16.18460590
_cell_length_c   27.14317356
_cell_angle_alpha   90.14806972
_cell_angle_beta   89.77379881
_cell_angle_gamma   89.93252778
_symmetry_Int_Tables_number   1
_chemical_formula_structural   La12Ce14Pr13Nd13Sm12(BiS2)64
_chemical_formula_sum   'La12 Ce14 Pr13 Nd13 Sm12 Bi64 S128'
_cell_volume   7112.80146393
_cell_formula_units_Z   1
loop_
 _symmetry_equiv_pos_site_id
 _symmetry_equiv_pos_as_xyz
  1  'x, y, z'
loop_
 _atom_type_symbol
 _atom_type_oxidation_number
  La3+  3.0
  Ce3+  3.0
  Pr3+  3.0
  Nd3+  3.0
  Sm3+  3.0
  Bi2+  2.0
  S2-  -2.0
loop_
 _atom_site_type_symbol
 _atom_site_label
 _atom_site_symmetry_multiplicity
 _atom_site_fract_x
 _atom_site_fract_y
 _atom_site_fract_z
 _atom_site_occupancy
  La3+  La0  1  0.50491918  0.12088816  0.08300849  1
  La3+  La1  1  0.24297513  0.37104358  0.58173960  1
  La3+  La2  1  0.49388867  0.36816312  0.57394594  1
  La3+  La3  1  0.74355011  0.37947801  0.07596855  1
  La3+  La4  1  0.61489148  0.00346543  0.92438798  1
  La3+  La5  1  -0.00085200  0.37732084  0.06591104  1
  La3+  La6  1  0.62891438  0.48707571  0.91698741  1
  La3+  La7  1  0.88109106  0.74938511  0.92626261  1
  La3+  La8  1  -0.01760644  0.88376001  0.06258290  1
  La3+  La9  1  0.48987500  0.87181203  0.57868596  1
  La3+  La10  1  0.76614519  0.11792382  0.09217118  1
  La3+  La11  1  0.88190399  0.00595223  0.91201236  1
  Ce3+  Ce12  1  0.11848723  0.24843597  0.44623494  1
  Ce3+  Ce13  1  -0.00093239  0.62820391  0.05543595  1
  Ce3+  Ce14  1  0.74303340  0.61948388  0.56868002  1
  Ce3+  Ce15  1  0.49275158  0.61898229  0.56331529  1
  Ce3+  Ce16  1  0.62495843  0.24825007  0.95163338  1
  Ce3+  Ce17  1  0.11942354  0.49114036  0.44543400  1
  Ce3+  Ce18  1  0.12560011  0.75362736  0.93205666  1
  Ce3+  Ce19  1  0.36735180  0.49197263  0.44828910  1
  Ce3+  Ce20  1  0.12803356  0.00036758  0.93447246  1
  Ce3+  Ce21  1  -0.00311275  0.12614511  0.04803075  1
  Ce3+  Ce22  1  0.50228777  0.87784793  0.06319980  1
  Ce3+  Ce23  1  0.74323673  0.86295470  0.57604775  1
  Ce3+  Ce24  1  0.11745315  0.74599768  0.44608235  1
  Ce3+  Ce25  1  0.74150439  0.11723948  0.55943840  1
  Pr3+  Pr26  1  0.23990632  0.12097765  0.55913844  1
  Pr3+  Pr27  1  -0.01105450  0.12152737  0.55818528  1
  Pr3+  Pr28  1  0.24040142  0.86994317  0.57411415  1
  Pr3+  Pr29  1  0.11694171  -0.00753299  0.44096425  1
  Pr3+  Pr30  1  0.61754481  0.49206250  0.44334543  1
  Pr3+  Pr31  1  0.12487674  0.49991019  0.92579638  1
  Pr3+  Pr32  1  0.61671405  0.24077704  0.43198093  1
  Pr3+  Pr33  1  0.74315223  0.36836813  0.58645477  1
  Pr3+  Pr34  1  0.61740689  0.74563416  0.44552950  1
  Pr3+  Pr35  1  0.74745286  0.62517388  0.05615602  1
  Pr3+  Pr36  1  0.62777454  0.74978235  0.92233127  1
  Pr3+  Pr37  1  0.23702691  0.87613461  0.06881875  1
  Pr3+  Pr38  1  0.24909883  0.37694162  0.05774164  1
  Nd3+  Nd39  1  0.37483882  0.75084417  0.94346537  1
  Nd3+  Nd40  1  0.49844568  0.37125563  0.07100331  1
  Nd3+  Nd41  1  0.24682070  0.62689959  0.05764017  1
  Nd3+  Nd42  1  0.12718235  0.25209646  0.94052748  1
  Nd3+  Nd43  1  0.61848958  -0.00832658  0.44470041  1
  Nd3+  Nd44  1  0.86507705  0.49168141  0.43810568  1
  Nd3+  Nd45  1  0.24732097  0.12337495  0.05991435  1
  Nd3+  Nd46  1  0.87772303  0.49828537  0.93446287  1
  Nd3+  Nd47  1  0.36709934  -0.00866531  0.44151079  1
  Nd3+  Nd48  1  0.50255476  0.62674830  0.05042885  1
  Nd3+  Nd49  1  0.37914111  0.49905290  0.94233866  1
  Nd3+  Nd50  1  0.86881816  0.25292677  0.94019289  1
  Nd3+  Nd51  1  0.49408391  0.12113775  0.55943850  1
  Sm3+  Sm52  1  0.36664163  0.24554773  0.44648543  1
  Sm3+  Sm53  1  -0.01001373  0.61890791  0.55365011  1
  Sm3+  Sm54  1  0.36759290  0.74553945  0.44969096  1
  Sm3+  Sm55  1  -0.01278413  0.37194172  0.56306332  1
  Sm3+  Sm56  1  -0.00992402  0.87045190  0.56079682  1
  Sm3+  Sm57  1  0.37746875  0.24999648  0.94604907  1
  Sm3+  Sm58  1  0.23981686  0.62075367  0.55634549  1
  Sm3+  Sm59  1  0.37241576  -0.00055587  0.94503151  1
  Sm3+  Sm60  1  0.86708007  0.24530390  0.43923427  1
  Sm3+  Sm61  1  0.86742951  -0.00760038  0.44326079  1
  Sm3+  Sm62  1  0.74711929  0.88025623  0.03897711  1
  Sm3+  Sm63  1  0.86621227  0.74455286  0.44321114  1
  Bi2+  Bi64  1  0.04089732  0.11554245  0.24289813  1
  Bi2+  Bi65  1  0.10992710  0.11180693  0.77820044  1
  Bi2+  Bi66  1  -0.00706688  0.37130269  0.30959464  1
  Bi2+  Bi67  1  -0.00557323  0.36295333  0.79643141  1
  Bi2+  Bi68  1  0.00985423  0.63747063  0.24914531  1
  Bi2+  Bi69  1  0.03915545  0.61248327  0.78050233  1
  Bi2+  Bi70  1  0.01392941  0.88802090  0.31620739  1
  Bi2+  Bi71  1  0.04631382  0.86899337  0.78794976  1
  Bi2+  Bi72  1  0.32112349  0.13820315  0.27824873  1
  Bi2+  Bi73  1  0.26542141  0.03145961  0.82442808  1
  Bi2+  Bi74  1  0.22157624  0.36237035  0.31225613  1
  Bi2+  Bi75  1  0.19973559  0.39530957  0.79643419  1
  Bi2+  Bi76  1  0.28686746  0.60574536  0.28381787  1
  Bi2+  Bi77  1  0.20744840  0.63674201  0.82654375  1
  Bi2+  Bi78  1  0.25963121  0.88008215  0.31491098  1
  Bi2+  Bi79  1  0.23933978  0.83589144  0.81583199  1
  Bi2+  Bi80  1  0.52186662  0.14194577  0.29317694  1
  Bi2+  Bi81  1  0.46003650  0.13956189  0.78756216  1
  Bi2+  Bi82  1  0.49619508  0.47524177  0.29148985  1
  Bi2+  Bi83  1  0.49062856  0.38546416  0.80417501  1
  Bi2+  Bi84  1  0.47074081  0.67339552  0.29662549  1
  Bi2+  Bi85  1  0.39392686  0.62679526  0.79069469  1
  Bi2+  Bi86  1  0.57443952  0.88299942  0.30057794  1
  Bi2+  Bi87  1  0.50826658  0.89021801  0.79351142  1
  Bi2+  Bi88  1  0.75617366  0.05672419  0.23601461  1
  Bi2+  Bi89  1  0.78405403  0.17504933  0.75810618  1
  Bi2+  Bi90  1  0.75199973  0.38026849  0.30573889  1
  Bi2+  Bi91  1  0.75190069  0.35278963  0.79292084  1
  Bi2+  Bi92  1  0.72958315  0.64798163  0.27734743  1
  Bi2+  Bi93  1  0.79026558  0.60412991  0.77502366  1
  Bi2+  Bi94  1  0.76874249  0.90971584  0.31205399  1
  Bi2+  Bi95  1  0.74191074  0.86799989  0.77974122  1
  Bi2+  Bi96  1  0.17086686  -0.01535741  0.19716645  1
  Bi2+  Bi97  1  0.16709064  -0.05434120  0.70701739  1
  Bi2+  Bi98  1  0.18077667  0.23442261  0.21057468  1
  Bi2+  Bi99  1  0.14988731  0.27075423  0.69096041  1
  Bi2+  Bi100  1  0.15401496  0.51550389  0.21220866  1
  Bi2+  Bi101  1  0.11367043  0.46206023  0.69892871  1
  Bi2+  Bi102  1  0.17322141  0.74496573  0.24233509  1
  Bi2+  Bi103  1  0.15865508  0.74467862  0.71252835  1
  Bi2+  Bi104  1  0.41556328  -0.08043865  0.23105194  1
  Bi2+  Bi105  1  0.34708643  0.02325418  0.71963265  1
  Bi2+  Bi106  1  0.38259981  0.31196878  0.23465379  1
  Bi2+  Bi107  1  0.33246274  0.26469854  0.72852078  1
  Bi2+  Bi108  1  0.36429578  0.49412447  0.20068305  1
  Bi2+  Bi109  1  0.30576523  0.49548420  0.71601740  1
  Bi2+  Bi110  1  0.49486344  0.75199222  0.19134578  1
  Bi2+  Bi111  1  0.35448655  0.75513603  0.71262508  1
  Bi2+  Bi112  1  0.64012304  -0.08360734  0.19203945  1
  Bi2+  Bi113  1  0.63421626  0.03398619  0.69471191  1
  Bi2+  Bi114  1  0.61606921  0.26743819  0.20676541  1
  Bi2+  Bi115  1  0.59920092  0.23355271  0.72865934  1
  Bi2+  Bi116  1  0.62516071  0.53412085  0.20794030  1
  Bi2+  Bi117  1  0.62053931  0.49012805  0.71533919  1
  Bi2+  Bi118  1  0.69463349  0.73031866  0.17440106  1
  Bi2+  Bi119  1  0.60636036  0.72860555  0.71123582  1
  Bi2+  Bi120  1  0.92233489  -0.02662486  0.20091854  1
  Bi2+  Bi121  1  0.90888281  -0.00930997  0.70976953  1
  Bi2+  Bi122  1  0.90021067  0.24398578  0.21526032  1
  Bi2+  Bi123  1  0.95952107  0.23288800  0.71137511  1
  Bi2+  Bi124  1  0.88448313  0.51238669  0.20631099  1
  Bi2+  Bi125  1  0.88894280  0.48324703  0.70858329  1
  Bi2+  Bi126  1  0.86163178  0.77723075  0.23876046  1
  Bi2+  Bi127  1  0.89000835  0.72598517  0.70948851  1
  S2-  S128  1  -0.06781318  0.11781284  0.13873084  1
  S2-  S129  1  0.00407152  0.08759585  0.65639946  1
  S2-  S130  1  -0.03413233  0.38012640  0.16565929  1
  S2-  S131  1  -0.11011294  0.35260330  0.64401102  1
  S2-  S132  1  -0.04302548  0.64510709  0.15013568  1
  S2-  S133  1  -0.03434711  0.61806367  0.65156210  1
  S2-  S134  1  0.08251277  0.88061604  0.14515153  1
  S2-  S135  1  -0.03659436  0.85718304  0.65777925  1
  S2-  S136  1  0.27527912  0.11050136  0.15756541  1
  S2-  S137  1  0.26497290  0.14351850  0.65786860  1
  S2-  S138  1  0.19169236  0.37611476  0.15238387  1
  S2-  S139  1  0.37385834  0.37226097  0.65311411  1
  S2-  S140  1  0.20503570  0.64555544  0.15374053  1
  S2-  S141  1  0.26026548  0.63524591  0.65347198  1
  S2-  S142  1  0.29456030  0.87460920  0.16548006  1
  S2-  S143  1  0.35585293  0.88795776  0.64952992  1
  S2-  S144  1  0.47118660  0.25283152  0.15188402  1
  S2-  S145  1  0.50719671  0.13358216  0.65798555  1
  S2-  S146  1  0.60645033  0.39663498  0.14826806  1
  S2-  S147  1  0.60754204  0.35773161  0.65223249  1
  S2-  S148  1  0.48474714  0.59031817  0.14857035  1
  S2-  S149  1  0.52037180  0.60693877  0.66122379  1
  S2-  S150  1  0.49043672  0.97773522  0.14496116  1
  S2-  S151  1  0.56525537  0.87281883  0.67320072  1
  S2-  S152  1  0.64033337  0.11233799  0.16247284  1
  S2-  S153  1  0.73932921  0.16250986  0.65352742  1
  S2-  S154  1  0.77181658  0.26912766  0.15853186  1
  S2-  S155  1  0.74436023  0.51292581  0.64916586  1
  S2-  S156  1  0.76351043  0.52286741  0.14048792  1
  S2-  S157  1  0.74239208  0.73164547  0.64676217  1
  S2-  S158  1  0.83050224  0.92063710  0.12255779  1
  S2-  S159  1  0.76325311  0.95048580  0.66142753  1
  S2-  S160  1  0.12847192  -0.00475524  0.34016460  1
  S2-  S161  1  0.03807251  0.01373292  0.85041982  1
  S2-  S162  1  0.11204575  0.25183618  0.34824289  1
  S2-  S163  1  0.12416201  0.25698343  0.84040599  1
  S2-  S164  1  0.11178070  0.48236413  0.34734322  1
  S2-  S165  1  -0.00488397  0.50103504  0.85525202  1
  S2-  S166  1  0.12567740  0.76370665  0.34850190  1
  S2-  S167  1  0.01402613  0.75187818  0.85383428  1
  S2-  S168  1  0.36614931  0.00549600  0.34203528  1
  S2-  S169  1  0.46588974  0.01032630  0.86265315  1
  S2-  S170  1  0.40098699  0.23242349  0.34997561  1
  S2-  S171  1  0.38594641  0.25486507  0.84685170  1
  S2-  S172  1  0.35235839  0.46082488  0.35274096  1
  S2-  S173  1  0.36851343  0.47625978  0.84384950  1
  S2-  S174  1  0.37518754  0.78685995  0.35480399  1
  S2-  S175  1  0.40390438  0.78050286  0.84647732  1
  S2-  S176  1  0.60905228  0.04451937  0.34914107  1
  S2-  S177  1  0.64828357  -0.01883633  0.81943849  1
  S2-  S178  1  0.63104770  0.26570288  0.33045926  1
  S2-  S179  1  0.62139221  0.32279884  0.86292552  1
  S2-  S180  1  0.65523022  0.49166979  0.34405624  1
  S2-  S181  1  0.57301432  0.52315913  0.81796998  1
  S2-  S182  1  0.62466360  0.72957881  0.34462542  1
  S2-  S183  1  0.60210235  0.76517479  0.81990570  1
  S2-  S184  1  0.89676893  0.00625317  0.34616968  1
  S2-  S185  1  0.85357365  -0.03183514  0.81180327  1
  S2-  S186  1  0.86917808  0.26122330  0.34046938  1
  S2-  S187  1  0.87961665  0.24544645  0.83927969  1
  S2-  S188  1  0.88424416  0.48350502  0.33722525  1
  S2-  S189  1  0.77555103  0.48143522  0.85297481  1
  S2-  S190  1  0.88470965  0.77005357  0.34659935  1
  S2-  S191  1  0.79877374  0.73181949  0.83719960  1
  S2-  S192  1  -0.00883886  0.12007293  0.45079482  1
  S2-  S193  1  0.00153426  0.13375217  0.94474129  1
  S2-  S194  1  -0.00988346  0.36899355  0.45716586  1
  S2-  S195  1  0.00175084  0.37246616  0.95561751  1
  S2-  S196  1  -0.00890010  0.61935569  0.44810349  1
  S2-  S197  1  0.00496621  0.62413614  0.95231376  1
  S2-  S198  1  -0.01001855  0.86885735  0.45603121  1
  S2-  S199  1  0.00124337  0.88037729  0.95323971  1
  S2-  S200  1  0.24363072  0.12018989  0.45098768  1
  S2-  S201  1  0.25246007  0.12739351  0.95249245  1
  S2-  S202  1  0.24408657  0.36817734  0.46681090  1
  S2-  S203  1  0.25175287  0.37617404  0.95007094  1
  S2-  S204  1  0.24375792  0.62107956  0.45106236  1
  S2-  S205  1  0.25187050  0.62346897  0.95140182  1
  S2-  S206  1  0.24298989  0.86878117  0.46395589  1
  S2-  S207  1  0.25109775  0.87532052  0.95727969  1
  S2-  S208  1  0.48984731  0.11812540  0.45370292  1
  S2-  S209  1  0.49548794  0.12847988  0.96357956  1
  S2-  S210  1  0.49282886  0.36579901  0.45765509  1
  S2-  S211  1  0.49643128  0.37280306  0.96264015  1
  S2-  S212  1  0.49078754  0.62003789  0.45402864  1
  S2-  S213  1  0.50208379  0.62510869  0.94294511  1
  S2-  S214  1  0.49141516  0.86994494  0.46229681  1
  S2-  S215  1  0.50040896  0.87159545  0.95579972  1
  S2-  S216  1  0.74568450  0.11798900  0.45053552  1
  S2-  S217  1  0.74622627  0.12690315  0.92930416  1
  S2-  S218  1  0.74318595  0.36602085  0.45208072  1
  S2-  S219  1  0.74986345  0.37376328  0.96294249  1
  S2-  S220  1  0.74430076  0.62002149  0.45424403  1
  S2-  S221  1  0.74773276  0.62421185  0.94778510  1
  S2-  S222  1  0.74456819  0.86949898  0.45878215  1
  S2-  S223  1  0.74915210  0.87884238  0.93605951  1
  S2-  S224  1  0.12070660  0.00390282  0.04210198  1
  S2-  S225  1  0.11544411  -0.00688739  0.54953541  1
  S2-  S226  1  0.12420163  0.24942751  0.04789450  1
  S2-  S227  1  0.11347132  0.24921514  0.55339528  1
  S2-  S228  1  0.12419200  0.50224323  0.04114668  1
  S2-  S229  1  0.11531482  0.49504562  0.55299101  1
  S2-  S230  1  0.12088403  0.75094857  0.04094940  1
  S2-  S231  1  0.11398292  0.74441270  0.55384846  1
  S2-  S232  1  0.36939547  -0.00190825  0.04725428  1
  S2-  S233  1  0.36625385  -0.00081843  0.54811718  1
  S2-  S234  1  0.36924488  0.24904181  0.04965817  1
  S2-  S235  1  0.36697165  0.24376431  0.55062638  1
  S2-  S236  1  0.37361744  0.50207748  0.04816208  1
  S2-  S237  1  0.36494326  0.49851704  0.55292251  1
  S2-  S238  1  0.37265629  0.75113914  0.05047595  1
  S2-  S239  1  0.36505900  0.74260060  0.55323851  1
  S2-  S240  1  0.63100531  0.00343276  0.03925523  1
  S2-  S241  1  0.61699289  -0.00718855  0.55148601  1
  S2-  S242  1  0.62990834  0.24191664  0.05347883  1
  S2-  S243  1  0.61929305  0.24304667  0.54156025  1
  S2-  S244  1  0.61936015  0.50215755  0.03712254  1
  S2-  S245  1  0.61657975  0.49471929  0.54817937  1
  S2-  S246  1  0.62598921  0.75311742  0.03503460  1
  S2-  S247  1  0.61209831  0.74498970  0.55074821  1
  S2-  S248  1  0.86841196  0.01285052  0.02211042  1
  S2-  S249  1  0.86783877  -0.00734550  0.54837232  1
  S2-  S250  1  0.87336482  0.25144721  0.04542919  1
  S2-  S251  1  0.86514541  0.24518207  0.54372133  1
  S2-  S252  1  0.87831080  0.50216972  0.04070072  1
  S2-  S253  1  0.86841789  0.49494346  0.54376050  1
  S2-  S254  1  0.86869675  0.75048597  0.03608073  1
  S2-  S255  1  0.87188929  0.74468360  0.54648490  1
