# generated using pymatgen
data_La12Ce14Pr13Nd13Sm12(BiS2)64
_symmetry_space_group_name_H-M   'P 1'
_cell_length_a   16.10445825
_cell_length_b   15.91622640
_cell_length_c   27.56143119
_cell_angle_alpha   89.66769510
_cell_angle_beta   89.75645200
_cell_angle_gamma   89.94195336
_symmetry_Int_Tables_number   1
_chemical_formula_structural   La12Ce14Pr13Nd13Sm12(BiS2)64
_chemical_formula_sum   'La12 Ce14 Pr13 Nd13 Sm12 Bi64 S128'
_cell_volume   7064.42068293
_cell_formula_units_Z   1
loop_
 _symmetry_equiv_pos_site_id
 _symmetry_equiv_pos_as_xyz
  1  'x, y, z'
loop_
 _atom_type_symbol
 _atom_type_oxidation_number
  La3+  3.0
  Ce3+  3.0
  Pr3+  3.0
  Nd3+  3.0
  Sm3+  3.0
  Bi2+  2.0
  S2-  -2.0
loop_
 _atom_site_type_symbol
 _atom_site_label
 _atom_site_symmetry_multiplicity
 _atom_site_fract_x
 _atom_site_fract_y
 _atom_site_fract_z
 _atom_site_occupancy
  La3+  La0  1  0.13604284  0.44882883  0.36892225  1
  La3+  La1  1  0.88412999  0.21701525  0.93172473  1
  La3+  La2  1  0.62995544  0.26229290  0.42295189  1
  La3+  La3  1  0.50983378  0.59262685  0.06997943  1
  La3+  La4  1  0.25920114  0.08889640  0.09613395  1
  La3+  La5  1  0.50956833  0.13787818  0.55947776  1
  La3+  La6  1  0.88750371  0.72005832  0.92381300  1
  La3+  La7  1  0.37970036  0.72036179  0.92774728  1
  La3+  La8  1  0.13769565  0.45744127  0.92231199  1
  La3+  La9  1  0.75779564  0.38538213  0.59837746  1
  La3+  La10  1  0.13284007  -0.03488070  0.94852787  1
  La3+  La11  1  -0.01292504  0.86814428  0.61681050  1
  Ce3+  Ce12  1  0.75399685  0.33841722  0.05570702  1
  Ce3+  Ce13  1  0.88219009  0.46817060  0.93215407  1
  Ce3+  Ce14  1  0.51361624  0.34338047  0.06993275  1
  Ce3+  Ce15  1  0.00852212  0.58772833  0.05728524  1
  Ce3+  Ce16  1  0.38316753  0.46628075  0.94180994  1
  Ce3+  Ce17  1  0.88228620  0.76649253  0.43185078  1
  Ce3+  Ce18  1  0.76330849  0.63393965  0.55589585  1
  Ce3+  Ce19  1  0.25744216  0.82996466  0.07108891  1
  Ce3+  Ce20  1  0.51107352  0.89393453  0.56568523  1
  Ce3+  Ce21  1  0.62995494  0.46914504  0.93243235  1
  Ce3+  Ce22  1  0.88107772  -0.03263793  0.93899089  1
  Ce3+  Ce23  1  0.63193372  0.76214555  0.44688101  1
  Ce3+  Ce24  1  0.00327999  0.12635813  0.55612317  1
  Ce3+  Ce25  1  0.25529194  0.58891992  0.06035097  1
  Pr3+  Pr26  1  0.38684748  0.52693853  0.41384606  1
  Pr3+  Pr27  1  0.50257879  0.83631217  0.06580872  1
  Pr3+  Pr28  1  0.25418534  0.38617854  0.56104872  1
  Pr3+  Pr29  1  0.25140599  0.89234889  0.56525107  1
  Pr3+  Pr30  1  0.62990655  0.21561643  0.93324780  1
  Pr3+  Pr31  1  0.00980701  0.38839662  0.56048265  1
  Pr3+  Pr32  1  0.00579662  0.83543419  0.06933415  1
  Pr3+  Pr33  1  0.25789721  0.34470054  0.06878578  1
  Pr3+  Pr34  1  0.14063108  0.74830396  0.43057468  1
  Pr3+  Pr35  1  0.75652924  0.83960811  0.06382979  1
  Pr3+  Pr36  1  0.89151618  0.27025127  0.42689917  1
  Pr3+  Pr37  1  0.13411859  0.21509252  0.94920104  1
  Pr3+  Pr38  1  0.37623534  0.27295095  0.42368239  1
  Nd3+  Nd39  1  0.75720725  0.58905754  0.05941800  1
  Nd3+  Nd40  1  0.25549609  0.63866054  0.56284923  1
  Nd3+  Nd41  1  0.51257213  0.08182476  0.07877815  1
  Nd3+  Nd42  1  0.62815433  0.01413386  0.42684447  1
  Nd3+  Nd43  1  0.76061522  0.89116773  0.55388514  1
  Nd3+  Nd44  1  0.00802009  0.63745276  0.54907670  1
  Nd3+  Nd45  1  0.50802428  0.38032733  0.56236336  1
  Nd3+  Nd46  1  0.89073468  0.01581102  0.41603842  1
  Nd3+  Nd47  1  0.51054874  0.63181494  0.56780613  1
  Nd3+  Nd48  1  0.00611336  0.08669642  0.07518579  1
  Nd3+  Nd49  1  0.38582576  0.20903586  0.95133230  1
  Nd3+  Nd50  1  0.63212043  -0.03669361  0.93667455  1
  Nd3+  Nd51  1  0.13346880  0.00549908  0.43276878  1
  Sm3+  Sm52  1  0.38377381  0.01534990  0.42981265  1
  Sm3+  Sm53  1  0.63197710  0.71732929  0.93504230  1
  Sm3+  Sm54  1  0.38624105  0.76367021  0.45449144  1
  Sm3+  Sm55  1  0.38360577  -0.02967458  0.94565024  1
  Sm3+  Sm56  1  0.25876576  0.13188434  0.55465064  1
  Sm3+  Sm57  1  0.13556618  0.25854289  0.44911896  1
  Sm3+  Sm58  1  0.88776308  0.51779499  0.42984735  1
  Sm3+  Sm59  1  0.63130483  0.51127575  0.43927321  1
  Sm3+  Sm60  1  0.00717817  0.34797615  0.06291651  1
  Sm3+  Sm61  1  0.76041362  0.14266954  0.54584206  1
  Sm3+  Sm62  1  0.13452550  0.71561925  0.93602728  1
  Sm3+  Sm63  1  0.75463078  0.09251814  0.06231694  1
  Bi2+  Bi64  1  -0.02091068  0.13043645  0.27441111  1
  Bi2+  Bi65  1  0.01833886  0.12382218  0.74085592  1
  Bi2+  Bi66  1  -0.05427411  0.35233064  0.27126602  1
  Bi2+  Bi67  1  0.02004017  0.36978284  0.78934375  1
  Bi2+  Bi68  1  -0.03839031  0.64410691  0.26687017  1
  Bi2+  Bi69  1  -0.02568319  0.63294006  0.78321329  1
  Bi2+  Bi70  1  -0.00822946  0.89045533  0.28927274  1
  Bi2+  Bi71  1  0.00680467  0.90030454  0.81221677  1
  Bi2+  Bi72  1  0.25106758  0.09072165  0.27893328  1
  Bi2+  Bi73  1  0.30775111  0.11807911  0.78199219  1
  Bi2+  Bi74  1  0.18842881  0.28124948  0.25862505  1
  Bi2+  Bi75  1  0.27680048  0.31586978  0.80396130  1
  Bi2+  Bi76  1  0.28580808  0.55071513  0.28257759  1
  Bi2+  Bi77  1  0.29241429  0.59384528  0.78350903  1
  Bi2+  Bi78  1  0.23908747  0.90832317  0.32359137  1
  Bi2+  Bi79  1  0.24641164  0.85783513  0.80752514  1
  Bi2+  Bi80  1  0.50018342  0.12837796  0.30646864  1
  Bi2+  Bi81  1  0.50534154  0.09250829  0.78714166  1
  Bi2+  Bi82  1  0.58161512  0.37047453  0.27522031  1
  Bi2+  Bi83  1  0.47813306  0.35371767  0.78880661  1
  Bi2+  Bi84  1  0.51426118  0.64919366  0.29409739  1
  Bi2+  Bi85  1  0.46633800  0.54704003  0.82690618  1
  Bi2+  Bi86  1  0.58959265  0.88586322  0.28877221  1
  Bi2+  Bi87  1  0.49913357  0.77751615  0.79849587  1
  Bi2+  Bi88  1  0.76210728  0.28701815  0.29964182  1
  Bi2+  Bi89  1  0.69572621  0.20868783  0.80218389  1
  Bi2+  Bi90  1  0.73383253  0.49049645  0.30539808  1
  Bi2+  Bi91  1  0.77696021  0.45673565  0.80277134  1
  Bi2+  Bi92  1  0.76426189  0.68463059  0.28175548  1
  Bi2+  Bi93  1  0.70520772  0.63095144  0.76702719  1
  Bi2+  Bi94  1  0.77557087  0.92044009  0.26599987  1
  Bi2+  Bi95  1  0.73076646  0.89823840  0.78603418  1
  Bi2+  Bi96  1  0.12851511  -0.03882449  0.21267684  1
  Bi2+  Bi97  1  0.15643371  0.00274418  0.70091928  1
  Bi2+  Bi98  1  0.01428566  0.24979776  0.18120881  1
  Bi2+  Bi99  1  0.14157640  0.26464402  0.70695533  1
  Bi2+  Bi100  1  0.12701577  0.57647108  0.18029807  1
  Bi2+  Bi101  1  0.16420204  0.49603644  0.71850134  1
  Bi2+  Bi102  1  0.12928504  0.75024223  0.28427767  1
  Bi2+  Bi103  1  0.11164324  0.73347315  0.71474846  1
  Bi2+  Bi104  1  0.39934674  -0.03260384  0.21634273  1
  Bi2+  Bi105  1  0.39054994  -0.06983782  0.74305355  1
  Bi2+  Bi106  1  0.37226918  0.25003169  0.22344801  1
  Bi2+  Bi107  1  0.32309401  0.20750464  0.67895770  1
  Bi2+  Bi108  1  0.37101104  0.58569266  0.18650222  1
  Bi2+  Bi109  1  0.34693668  0.40355707  0.70634832  1
  Bi2+  Bi110  1  0.38623571  0.79966588  0.27785049  1
  Bi2+  Bi111  1  0.37471291  0.73088578  0.71360108  1
  Bi2+  Bi112  1  0.70265091  0.10683081  0.24483665  1
  Bi2+  Bi113  1  0.64139606  0.02539278  0.71279624  1
  Bi2+  Bi114  1  0.56161155  0.22650841  0.19499524  1
  Bi2+  Bi115  1  0.61073639  0.26580256  0.70027499  1
  Bi2+  Bi116  1  0.63190128  0.51266465  0.20040641  1
  Bi2+  Bi117  1  0.55933943  0.51374960  0.72901360  1
  Bi2+  Bi118  1  0.60474630  0.79015474  0.19012806  1
  Bi2+  Bi119  1  0.55708761  0.84556942  0.69191106  1
  Bi2+  Bi120  1  0.86252565  0.11954709  0.17976602  1
  Bi2+  Bi121  1  0.82921746  0.07313550  0.77462200  1
  Bi2+  Bi122  1  0.81669843  0.32165900  0.18181144  1
  Bi2+  Bi123  1  0.87532714  0.24739332  0.70444724  1
  Bi2+  Bi124  1  0.84576122  0.51638940  0.20787102  1
  Bi2+  Bi125  1  0.91722638  0.54520944  0.69215012  1
  Bi2+  Bi126  1  0.89596509  0.78785150  0.19282768  1
  Bi2+  Bi127  1  0.74490129  0.77470907  0.69441238  1
  S2-  S128  1  0.11321357  0.09575347  0.15514588  1
  S2-  S129  1  0.01130302  0.04302448  0.64338622  1
  S2-  S130  1  0.02216608  0.47368424  0.13529904  1
  S2-  S131  1  -0.08444794  0.38590743  0.64661302  1
  S2-  S132  1  0.01774821  0.69665530  0.13724733  1
  S2-  S133  1  -0.01072449  0.68739384  0.64584992  1
  S2-  S134  1  -0.01533772  0.92551779  0.15681508  1
  S2-  S135  1  -0.01130551  0.85006479  0.72476406  1
  S2-  S136  1  0.25276298  0.25676157  0.15804028  1
  S2-  S137  1  0.27385588  0.03272445  0.63671922  1
  S2-  S138  1  0.25497542  0.47726615  0.14115506  1
  S2-  S139  1  0.13440200  0.39239602  0.63984998  1
  S2-  S140  1  0.25019758  0.69347380  0.14247115  1
  S2-  S141  1  0.22363048  0.62959273  0.66234601  1
  S2-  S142  1  0.26314596  0.92705131  0.15409510  1
  S2-  S143  1  0.15918395  0.85377409  0.65000767  1
  S2-  S144  1  0.40137621  0.10207731  0.15967069  1
  S2-  S145  1  0.48432130  0.24753467  0.63744344  1
  S2-  S146  1  0.48548362  0.46955675  0.14613988  1
  S2-  S147  1  0.60225732  0.41200060  0.64591411  1
  S2-  S148  1  0.47380553  0.71419687  0.14505695  1
  S2-  S149  1  0.49364912  0.63424223  0.66700801  1
  S2-  S150  1  0.52544202  0.92881330  0.15209427  1
  S2-  S151  1  0.52098047  1.01193563  0.63731050  1
  S2-  S152  1  0.65095192  0.10180289  0.14277993  1
  S2-  S153  1  0.74880895  0.20934968  0.63816412  1
  S2-  S154  1  0.65455184  0.34008674  0.13679179  1
  S2-  S155  1  0.75879765  0.36410570  0.72806476  1
  S2-  S156  1  0.67804091  0.63832169  0.14521281  1
  S2-  S157  1  0.77494150  0.55567326  0.64279612  1
  S2-  S158  1  0.75140085  0.87796233  0.16226785  1
  S2-  S159  1  0.81959124  0.90363909  0.64619442  1
  S2-  S160  1  0.03722182  0.02413954  0.34859213  1
  S2-  S161  1  0.15331616  -0.01587214  0.84885813  1
  S2-  S162  1  0.12750609  0.27245693  0.34985771  1
  S2-  S163  1  0.12488821  0.29126051  0.85770985  1
  S2-  S164  1  0.14887347  0.46029994  0.26081111  1
  S2-  S165  1  0.06625294  0.50779550  0.83149889  1
  S2-  S166  1  0.16024224  0.62903836  0.35311536  1
  S2-  S167  1  0.03443749  0.74318009  0.85486061  1
  S2-  S168  1  0.49887393  -0.02507735  0.35690264  1
  S2-  S169  1  0.38904530  -0.13257759  0.86275443  1
  S2-  S170  1  0.34985922  0.13757515  0.35482357  1
  S2-  S171  1  0.39073097  0.10106428  0.87027646  1
  S2-  S172  1  0.31661411  0.42292957  0.34407771  1
  S2-  S173  1  0.28498767  0.46342128  0.85961824  1
  S2-  S174  1  0.39204106  0.69647324  0.36259042  1
  S2-  S175  1  0.24664505  0.70637595  0.85599756  1
  S2-  S176  1  0.64850329  0.12861656  0.34818660  1
  S2-  S177  1  0.62584517  0.08473092  0.86154341  1
  S2-  S178  1  0.50407729  0.28670121  0.35134545  1
  S2-  S179  1  0.63492902  0.34397835  0.85645118  1
  S2-  S180  1  0.53740785  0.52390286  0.35503950  1
  S2-  S181  1  0.62858464  0.59697785  0.85910333  1
  S2-  S182  1  0.63399690  0.74417460  0.34931377  1
  S2-  S183  1  0.62661913  0.83918069  0.85919910  1
  S2-  S184  1  0.85759746  -0.12016047  0.35134281  1
  S2-  S185  1  0.90558520  0.08459949  0.86327419  1
  S2-  S186  1  0.87603325  0.15837061  0.34703224  1
  S2-  S187  1  0.88900174  0.34687402  0.85569754  1
  S2-  S188  1  0.95852710  0.43922828  0.35156855  1
  S2-  S189  1  0.86325368  0.58871044  0.85454115  1
  S2-  S190  1  0.87848895  0.65135298  0.35452573  1
  S2-  S191  1  0.86171057  0.85998113  0.85614060  1
  S2-  S192  1  0.01087215  0.13786696  0.45199120  1
  S2-  S193  1  0.00911927  0.09243857  0.96757616  1
  S2-  S194  1  0.01801887  0.38721310  0.45503612  1
  S2-  S195  1  0.00718337  0.34161402  0.96065737  1
  S2-  S196  1  0.00627176  0.63907507  0.44826157  1
  S2-  S197  1  0.01156895  0.58871232  0.95095673  1
  S2-  S198  1  0.01459006  0.87821512  0.43994773  1
  S2-  S199  1  0.00582594  0.84261098  0.96256598  1
  S2-  S200  1  0.25474385  0.13335872  0.45355284  1
  S2-  S201  1  0.25707868  0.09087514  0.96749392  1
  S2-  S202  1  0.25050579  0.39137015  0.45447913  1
  S2-  S203  1  0.26370244  0.33516130  0.96183613  1
  S2-  S204  1  0.27250495  0.63708673  0.46168234  1
  S2-  S205  1  0.25639584  0.58958247  0.95591081  1
  S2-  S206  1  0.26203475  0.88464676  0.45403936  1
  S2-  S207  1  0.25772325  0.84233684  0.96263202  1
  S2-  S208  1  0.50330645  0.13895558  0.45244785  1
  S2-  S209  1  0.51045952  0.08601981  0.96952383  1
  S2-  S210  1  0.49982507  0.39681661  0.45653915  1
  S2-  S211  1  0.50478160  0.34060153  0.95841881  1
  S2-  S212  1  0.50895640  0.63713755  0.46379726  1
  S2-  S213  1  0.50410924  0.59485163  0.95877111  1
  S2-  S214  1  0.50905758  0.88614929  0.46120957  1
  S2-  S215  1  0.50681271  0.84155650  0.96089216  1
  S2-  S216  1  0.76211082  0.13772471  0.44638793  1
  S2-  S217  1  0.75715117  0.09241681  0.95978269  1
  S2-  S218  1  0.75749730  0.39133636  0.43232922  1
  S2-  S219  1  0.75675523  0.34260654  0.95451862  1
  S2-  S220  1  0.75468882  0.63565821  0.45218397  1
  S2-  S221  1  0.75620065  0.59326937  0.95698141  1
  S2-  S222  1  0.75162799  0.89123057  0.44897660  1
  S2-  S223  1  0.75628414  0.83832731  0.95862499  1
  S2-  S224  1  0.13258546  -0.03828407  0.05457642  1
  S2-  S225  1  0.13188688  0.01243398  0.53650197  1
  S2-  S226  1  0.12834239  0.21928054  0.05260510  1
  S2-  S227  1  0.13210500  0.25090923  0.55021376  1
  S2-  S228  1  0.13216467  0.46274212  0.03386456  1
  S2-  S229  1  0.13336655  0.51766706  0.54749560  1
  S2-  S230  1  0.13209176  0.71507187  0.03786293  1
  S2-  S231  1  0.13298913  0.76139728  0.53925205  1
  S2-  S232  1  0.37958684  -0.03560169  0.05005350  1
  S2-  S233  1  0.38381032  0.00950794  0.53411901  1
  S2-  S234  1  0.38760356  0.21665250  0.05460513  1
  S2-  S235  1  0.37501677  0.26074629  0.53431085  1
  S2-  S236  1  0.38551533  0.46459547  0.04268363  1
  S2-  S237  1  0.38243958  0.51003446  0.56424345  1
  S2-  S238  1  0.37899257  0.71148035  0.03756933  1
  S2-  S239  1  0.38565608  0.76584274  0.55854237  1
  S2-  S240  1  0.63606862  -0.03538610  0.04358424  1
  S2-  S241  1  0.63850270  0.01604624  0.53553789  1
  S2-  S242  1  0.63112330  0.21507241  0.03900037  1
  S2-  S243  1  0.63786244  0.26676916  0.53329470  1
  S2-  S244  1  0.63326071  0.46747862  0.03876656  1
  S2-  S245  1  0.63576840  0.51107389  0.54154780  1
  S2-  S246  1  0.63291079  0.71757037  0.03880024  1
  S2-  S247  1  0.63400144  0.76180571  0.55309221  1
  S2-  S248  1  0.87866367  -0.03111815  0.04716215  1
  S2-  S249  1  0.88007322  0.01332565  0.53257764  1
  S2-  S250  1  0.88321671  0.21674388  0.04699871  1
  S2-  S251  1  0.88471616  0.26233678  0.53594276  1
  S2-  S252  1  0.87760730  0.46385440  0.04144378  1
  S2-  S253  1  0.88174737  0.50883247  0.53532013  1
  S2-  S254  1  0.87880374  0.71302981  0.04197496  1
  S2-  S255  1  0.88360111  0.76630595  0.54127264  1
