# generated using pymatgen
data_La12Ce14Pr13Nd13Sm12(BiS2)64
_symmetry_space_group_name_H-M   'P 1'
_cell_length_a   16.06633148
_cell_length_b   16.10731212
_cell_length_c   27.33914346
_cell_angle_alpha   90.15620529
_cell_angle_beta   89.66249567
_cell_angle_gamma   90.08177982
_symmetry_Int_Tables_number   1
_chemical_formula_structural   La12Ce14Pr13Nd13Sm12(BiS2)64
_chemical_formula_sum   'La12 Ce14 Pr13 Nd13 Sm12 Bi64 S128'
_cell_volume   7074.81552279
_cell_formula_units_Z   1
loop_
 _symmetry_equiv_pos_site_id
 _symmetry_equiv_pos_as_xyz
  1  'x, y, z'
loop_
 _atom_type_symbol
 _atom_type_oxidation_number
  La3+  3.0
  Ce3+  3.0
  Pr3+  3.0
  Nd3+  3.0
  Sm3+  3.0
  Bi2+  2.0
  S2-  -2.0
loop_
 _atom_site_type_symbol
 _atom_site_label
 _atom_site_symmetry_multiplicity
 _atom_site_fract_x
 _atom_site_fract_y
 _atom_site_fract_z
 _atom_site_occupancy
  La3+  La0  1  0.10093347  0.02026814  0.41574642  1
  La3+  La1  1  0.22949494  0.13789263  0.56312859  1
  La3+  La2  1  0.25181057  0.61619032  0.08466362  1
  La3+  La3  1  0.10915546  0.76342610  0.42531249  1
  La3+  La4  1  0.13805122  0.73582326  0.93526653  1
  La3+  La5  1  0.24464482  0.11649990  0.10056609  1
  La3+  La6  1  0.36434751  0.01610822  0.41750741  1
  La3+  La7  1  0.63005143  -0.01613003  0.93695725  1
  La3+  La8  1  0.85465820  0.26851160  0.43636594  1
  La3+  La9  1  0.36771929  0.75469063  0.38275977  1
  La3+  La10  1  0.63146836  0.48359115  0.93349101  1
  La3+  La11  1  0.13708788  0.48648645  0.92960839  1
  Ce3+  Ce12  1  -0.02099014  0.64637376  0.56693299  1
  Ce3+  Ce13  1  0.60415855  0.52010043  0.44957676  1
  Ce3+  Ce14  1  0.47984176  0.38876862  0.55821445  1
  Ce3+  Ce15  1  0.23189612  0.89206435  0.54149933  1
  Ce3+  Ce16  1  0.00470871  0.61150310  0.06151194  1
  Ce3+  Ce17  1  0.88125403  0.23838557  0.92813053  1
  Ce3+  Ce18  1  0.00293587  0.36242923  0.05451911  1
  Ce3+  Ce19  1  -0.02332204  0.39928666  0.57044119  1
  Ce3+  Ce20  1  0.62963319  0.23687316  0.93877037  1
  Ce3+  Ce21  1  0.85703715  0.01372056  0.44672885  1
  Ce3+  Ce22  1  0.89059384  0.72665121  0.91744850  1
  Ce3+  Ce23  1  0.10486937  0.51638779  0.44347894  1
  Ce3+  Ce24  1  0.60804368  0.26560472  0.43395376  1
  Ce3+  Ce25  1  0.47926594  0.64318701  0.55848047  1
  Pr3+  Pr26  1  0.24949538  0.86763232  0.07511296  1
  Pr3+  Pr27  1  0.72014553  0.64834271  0.58833811  1
  Pr3+  Pr28  1  0.50200244  0.86428162  0.05299181  1
  Pr3+  Pr29  1  0.50040066  0.11024245  0.06869313  1
  Pr3+  Pr30  1  0.50562750  0.36038926  0.06719137  1
  Pr3+  Pr31  1  0.25337268  0.36002749  0.06574393  1
  Pr3+  Pr32  1  0.50564849  0.61176602  0.06644003  1
  Pr3+  Pr33  1  0.85776577  0.76643895  0.43981216  1
  Pr3+  Pr34  1  0.22889291  0.64497728  0.56511693  1
  Pr3+  Pr35  1  0.37908637  0.48052971  0.94065799  1
  Pr3+  Pr36  1  0.37287413  -0.00642720  0.93292367  1
  Pr3+  Pr37  1  0.85277924  0.51985619  0.44751359  1
  Pr3+  Pr38  1  0.75402408  0.61450018  0.06388739  1
  Nd3+  Nd39  1  0.72126014  0.89326353  0.57672532  1
  Nd3+  Nd40  1  0.37421460  0.73465183  0.94522206  1
  Nd3+  Nd41  1  0.37981083  0.23444271  0.93891133  1
  Nd3+  Nd42  1  0.88265481  0.48351370  0.93120101  1
  Nd3+  Nd43  1  0.13192534  -0.00961239  0.94180688  1
  Nd3+  Nd44  1  0.75610768  0.85815175  0.04932585  1
  Nd3+  Nd45  1  -0.01740216  0.88932574  0.56486278  1
  Nd3+  Nd46  1  0.61081881  0.01332686  0.43801991  1
  Nd3+  Nd47  1  0.60935463  0.76497135  0.43561177  1
  Nd3+  Nd48  1  0.63217840  0.72777808  0.92595037  1
  Nd3+  Nd49  1  0.47768001  0.14158266  0.56109574  1
  Nd3+  Nd50  1  0.10210345  0.26409445  0.43417769  1
  Nd3+  Nd51  1  0.75755958  0.36049019  0.06003962  1
  Sm3+  Sm52  1  -0.00360485  0.11249409  0.06454210  1
  Sm3+  Sm53  1  0.72944387  0.38940135  0.55918313  1
  Sm3+  Sm54  1  0.35487652  0.51791360  0.44530994  1
  Sm3+  Sm55  1  -0.01681194  0.14361816  0.56445031  1
  Sm3+  Sm56  1  0.22791181  0.38987310  0.55219160  1
  Sm3+  Sm57  1  0.75792008  0.11162097  0.05601438  1
  Sm3+  Sm58  1  0.35676023  0.26230596  0.43246288  1
  Sm3+  Sm59  1  0.00320030  0.86106530  0.04757791  1
  Sm3+  Sm60  1  0.72403612  0.13751786  0.57039782  1
  Sm3+  Sm61  1  0.87959473  -0.01508776  0.93493893  1
  Sm3+  Sm62  1  0.13084492  0.23302372  0.94663842  1
  Sm3+  Sm63  1  0.47873521  0.89061406  0.54920418  1
  Bi2+  Bi64  1  -0.01949976  0.14581931  0.29527663  1
  Bi2+  Bi65  1  0.04729192  0.15837028  0.79160856  1
  Bi2+  Bi66  1  -0.05754758  0.38163214  0.27813199  1
  Bi2+  Bi67  1  -0.03205913  0.33524068  0.75952362  1
  Bi2+  Bi68  1  -0.00653451  0.64547795  0.28508648  1
  Bi2+  Bi69  1  -0.01571283  0.61946746  0.77641314  1
  Bi2+  Bi70  1  -0.09921867  0.87158890  0.28748609  1
  Bi2+  Bi71  1  0.00774911  0.96612937  0.79165239  1
  Bi2+  Bi72  1  0.23448552  0.08077954  0.28790762  1
  Bi2+  Bi73  1  0.27324040  0.13273104  0.80710110  1
  Bi2+  Bi74  1  0.30177751  0.36615991  0.30567622  1
  Bi2+  Bi75  1  0.24888250  0.38942305  0.80275855  1
  Bi2+  Bi76  1  0.23661079  0.60211314  0.28748935  1
  Bi2+  Bi77  1  0.18538657  0.62789670  0.80383463  1
  Bi2+  Bi78  1  0.26456027  0.84850414  0.26134604  1
  Bi2+  Bi79  1  0.25834272  0.86683353  0.78659631  1
  Bi2+  Bi80  1  0.49639124  0.16643278  0.29584265  1
  Bi2+  Bi81  1  0.56652777  0.16574137  0.79765596  1
  Bi2+  Bi82  1  0.49340050  0.35642758  0.33019609  1
  Bi2+  Bi83  1  0.49980612  0.37479499  0.78616184  1
  Bi2+  Bi84  1  0.52221744  0.59511446  0.29839391  1
  Bi2+  Bi85  1  0.46150245  0.58683805  0.77750404  1
  Bi2+  Bi86  1  0.58419351  0.90148699  0.28577071  1
  Bi2+  Bi87  1  0.45155026  0.90412584  0.76075464  1
  Bi2+  Bi88  1  0.75989089  0.12918759  0.28578952  1
  Bi2+  Bi89  1  0.77343524  0.17082577  0.79908782  1
  Bi2+  Bi90  1  0.67474645  0.36986465  0.29229114  1
  Bi2+  Bi91  1  0.75053439  0.37746763  0.79083159  1
  Bi2+  Bi92  1  0.80906046  0.62107302  0.32761358  1
  Bi2+  Bi93  1  0.73643049  0.66535245  0.79670867  1
  Bi2+  Bi94  1  0.74118542  0.89294401  0.35709685  1
  Bi2+  Bi95  1  0.73451203  0.91650220  0.79904543  1
  Bi2+  Bi96  1  0.09353040  -0.01642346  0.21103136  1
  Bi2+  Bi97  1  0.09717698  -0.02595577  0.69025043  1
  Bi2+  Bi98  1  0.09028642  0.25606439  0.21358945  1
  Bi2+  Bi99  1  0.18958446  0.19499080  0.71459908  1
  Bi2+  Bi100  1  0.13539610  0.43397830  0.25969058  1
  Bi2+  Bi101  1  0.11458058  0.46357989  0.69240584  1
  Bi2+  Bi102  1  0.09427486  0.72478307  0.19567744  1
  Bi2+  Bi103  1  0.17168362  0.77782405  0.69207156  1
  Bi2+  Bi104  1  0.45320824  -0.00010893  0.21978447  1
  Bi2+  Bi105  1  0.33239346  0.02976479  0.71009890  1
  Bi2+  Bi106  1  0.35754522  0.24502919  0.22082053  1
  Bi2+  Bi107  1  0.45431978  0.22631652  0.71198081  1
  Bi2+  Bi108  1  0.42745851  0.47414053  0.22527158  1
  Bi2+  Bi109  1  0.35871573  0.45796025  0.71462327  1
  Bi2+  Bi110  1  0.49760918  0.71637291  0.19446969  1
  Bi2+  Bi111  1  0.36390397  0.73488738  0.72591400  1
  Bi2+  Bi112  1  0.64479921  0.02595140  0.19576538  1
  Bi2+  Bi113  1  0.60490879  0.02339764  0.70580816  1
  Bi2+  Bi114  1  0.63379764  0.22162865  0.21317213  1
  Bi2+  Bi115  1  0.70710990  0.25054244  0.70262804  1
  Bi2+  Bi116  1  0.64374343  0.51352440  0.21715247  1
  Bi2+  Bi117  1  0.60094661  0.51531436  0.71014379  1
  Bi2+  Bi118  1  0.72851913  0.76458671  0.26506783  1
  Bi2+  Bi119  1  0.60016755  0.78151735  0.70603519  1
  Bi2+  Bi120  1  0.84115949  0.00596684  0.21199827  1
  Bi2+  Bi121  1  0.89845928  -0.02530788  0.69370382  1
  Bi2+  Bi122  1  0.82856429  0.26494130  0.19258106  1
  Bi2+  Bi123  1  0.89665424  0.17516269  0.70298546  1
  Bi2+  Bi124  1  0.86274070  0.53851185  0.22662430  1
  Bi2+  Bi125  1  0.86171953  0.48864476  0.71900159  1
  Bi2+  Bi126  1  0.86612169  0.77452329  0.18102087  1
  Bi2+  Bi127  1  0.91385066  0.78930401  0.72846543  1
  S2-  S128  1  0.08257197  0.11568937  0.15205830  1
  S2-  S129  1  0.10370677  0.12933750  0.63797156  1
  S2-  S130  1  -0.02507891  0.33877725  0.15068418  1
  S2-  S131  1  0.01024423  0.33316800  0.65906351  1
  S2-  S132  1  0.10551841  0.58735513  0.14401834  1
  S2-  S133  1  -0.02139988  0.53483303  0.64331249  1
  S2-  S134  1  0.01137828  0.86735325  0.14673760  1
  S2-  S135  1  -0.00503516  0.76857731  0.64188040  1
  S2-  S136  1  0.23471866  -0.02891548  0.16148474  1
  S2-  S137  1  0.35709572  0.15009070  0.63679530  1
  S2-  S138  1  0.23575829  0.27487014  0.15380567  1
  S2-  S139  1  0.23533663  0.37726616  0.65080480  1
  S2-  S140  1  0.39719028  0.59756538  0.14917976  1
  S2-  S141  1  0.19185838  0.61541339  0.66385101  1
  S2-  S142  1  0.23894252  0.75459285  0.15482550  1
  S2-  S143  1  0.24403712  0.92101171  0.63933055  1
  S2-  S144  1  0.40088490  0.11432971  0.15308529  1
  S2-  S145  1  0.58783141  0.15427138  0.64022102  1
  S2-  S146  1  0.47041425  0.34792259  0.16622792  1
  S2-  S147  1  0.48519423  0.37513884  0.65564313  1
  S2-  S148  1  0.63027974  0.63008332  0.14093799  1
  S2-  S149  1  0.54794686  0.64529316  0.64808080  1
  S2-  S150  1  0.47023407  0.86339579  0.15261948  1
  S2-  S151  1  0.54331479  0.89744208  0.64157114  1
  S2-  S152  1  0.86366232  0.11711300  0.13417439  1
  S2-  S153  1  0.73813275  0.01921068  0.64784408  1
  S2-  S154  1  0.72736742  0.38935157  0.15642162  1
  S2-  S155  1  0.74085157  0.39703359  0.65698296  1
  S2-  S156  1  0.88087335  0.61419162  0.13605105  1
  S2-  S157  1  0.74234034  0.59884072  0.68977109  1
  S2-  S158  1  0.74014512  0.86505961  0.14846136  1
  S2-  S159  1  0.73952551  0.78786338  0.65560838  1
  S2-  S160  1  0.13755306  -0.04332082  0.31431466  1
  S2-  S161  1  0.23726290  -0.01409603  0.86130086  1
  S2-  S162  1  0.13061007  0.16084256  0.34900972  1
  S2-  S163  1  0.16001319  0.26478836  0.85048126  1
  S2-  S164  1  0.09699807  0.54009929  0.34664786  1
  S2-  S165  1  0.08833228  0.49249644  0.82615086  1
  S2-  S166  1  0.20575002  0.74092609  0.33762005  1
  S2-  S167  1  0.04855206  0.72078726  0.84704511  1
  S2-  S168  1  0.35131522  -0.09116592  0.33189131  1
  S2-  S169  1  0.41034589  0.12093486  0.86077591  1
  S2-  S170  1  0.34719228  0.15445653  0.35361823  1
  S2-  S171  1  0.38221790  0.35334288  0.86142045  1
  S2-  S172  1  0.36169796  0.57768162  0.35341634  1
  S2-  S173  1  0.27405302  0.52790645  0.86364993  1
  S2-  S174  1  0.37477131  0.73085388  0.26326430  1
  S2-  S175  1  0.27244643  0.74609555  0.86375031  1
  S2-  S176  1  0.52665132  0.02676525  0.35110029  1
  S2-  S177  1  0.61366652  0.01759172  0.83928546  1
  S2-  S178  1  0.72983374  0.25173937  0.36057454  1
  S2-  S179  1  0.62678159  0.35103698  0.86116845  1
  S2-  S180  1  0.64897911  0.55403070  0.35846158  1
  S2-  S181  1  0.63105509  0.59400655  0.85387217  1
  S2-  S182  1  0.53406214  0.75378200  0.34542446  1
  S2-  S183  1  0.63347644  0.79755860  0.83109999  1
  S2-  S184  1  0.94227402  0.03139307  0.36051187  1
  S2-  S185  1  0.85657949  0.02930788  0.84097872  1
  S2-  S186  1  0.97414505  0.27824161  0.36035361  1
  S2-  S187  1  0.88528873  0.35832731  0.85587419  1
  S2-  S188  1  0.85841992  0.45590157  0.35274547  1
  S2-  S189  1  0.86401074  0.59004485  0.85067371  1
  S2-  S190  1  0.97383805  0.77142797  0.35733259  1
  S2-  S191  1  0.84608527  0.79841635  0.82812597  1
  S2-  S192  1  -0.02043672  0.14320305  0.46249440  1
  S2-  S193  1  0.00244494  0.11081487  0.94964862  1
  S2-  S194  1  -0.01954904  0.39574215  0.46336547  1
  S2-  S195  1  0.01092907  0.35933944  0.95034617  1
  S2-  S196  1  -0.01850419  0.64008503  0.45894450  1
  S2-  S197  1  0.01009632  0.60504479  0.95298407  1
  S2-  S198  1  -0.01789635  0.89168391  0.45862567  1
  S2-  S199  1  0.00546925  0.86595154  0.94293123  1
  S2-  S200  1  0.23054259  0.14311400  0.45600763  1
  S2-  S201  1  0.25215391  0.11612459  0.96110168  1
  S2-  S202  1  0.23240373  0.39020534  0.44679307  1
  S2-  S203  1  0.25239714  0.35548131  0.96099020  1
  S2-  S204  1  0.23323740  0.63891731  0.45674955  1
  S2-  S205  1  0.25689282  0.61119085  0.97148734  1
  S2-  S206  1  0.23104663  0.89365931  0.43855125  1
  S2-  S207  1  0.25522673  0.86690295  0.96641757  1
  S2-  S208  1  0.48487679  0.14570615  0.45475311  1
  S2-  S209  1  0.50975812  0.11100444  0.96268586  1
  S2-  S210  1  0.47851758  0.39213225  0.45285488  1
  S2-  S211  1  0.50661990  0.35726352  0.96237838  1
  S2-  S212  1  0.47728502  0.64411887  0.45481694  1
  S2-  S213  1  0.49951388  0.61147054  0.95473196  1
  S2-  S214  1  0.48257806  0.88538883  0.44756898  1
  S2-  S215  1  0.49896247  0.86189061  0.94446817  1
  S2-  S216  1  0.73171752  0.13660852  0.46336054  1
  S2-  S217  1  0.75648071  0.11190528  0.95154246  1
  S2-  S218  1  0.72653917  0.39411926  0.45638318  1
  S2-  S219  1  0.75731943  0.35748039  0.95589394  1
  S2-  S220  1  0.72888482  0.64439465  0.46552708  1
  S2-  S221  1  0.75717586  0.61000066  0.95655620  1
  S2-  S222  1  0.73090020  0.89030548  0.46897624  1
  S2-  S223  1  0.75765995  0.85876654  0.94399793  1
  S2-  S224  1  0.12087157  -0.00876426  0.04616760  1
  S2-  S225  1  0.10244550  0.01240234  0.53613716  1
  S2-  S226  1  0.12346114  0.23382900  0.04881462  1
  S2-  S227  1  0.10391037  0.27083194  0.54126206  1
  S2-  S228  1  0.12970869  0.48094169  0.04258579  1
  S2-  S229  1  0.10846630  0.51647287  0.54687987  1
  S2-  S230  1  0.12587140  0.74191392  0.04396334  1
  S2-  S231  1  0.10860181  0.76688798  0.53726072  1
  S2-  S232  1  0.37614664  -0.01068036  0.04599937  1
  S2-  S233  1  0.35978729  0.01406506  0.53357224  1
  S2-  S234  1  0.37888757  0.23626419  0.04835977  1
  S2-  S235  1  0.35377081  0.27062337  0.53715015  1
  S2-  S236  1  0.37963960  0.48167167  0.04876488  1
  S2-  S237  1  0.35348828  0.51506970  0.55096905  1
  S2-  S238  1  0.37913929  0.73960123  0.04889385  1
  S2-  S239  1  0.35685239  0.76798081  0.55756838  1
  S2-  S240  1  0.63253129  -0.01170955  0.04564738  1
  S2-  S241  1  0.60189992  0.01677363  0.54174830  1
  S2-  S242  1  0.63236045  0.23293668  0.05091523  1
  S2-  S243  1  0.60728170  0.26793028  0.54126571  1
  S2-  S244  1  0.63061372  0.48317292  0.04404624  1
  S2-  S245  1  0.60598498  0.51421283  0.55408646  1
  S2-  S246  1  0.62706195  0.74036944  0.03398324  1
  S2-  S247  1  0.60294125  0.76617268  0.54328520  1
  S2-  S248  1  0.87825068  -0.01571625  0.03870554  1
  S2-  S249  1  0.86107817  0.01832912  0.55119418  1
  S2-  S250  1  0.87938579  0.23671051  0.03499550  1
  S2-  S251  1  0.85269109  0.26244162  0.55276305  1
  S2-  S252  1  0.87808110  0.48375898  0.03957559  1
  S2-  S253  1  0.84334133  0.52222976  0.55327642  1
  S2-  S254  1  0.88180796  0.73864505  0.03278362  1
  S2-  S255  1  0.85158888  0.76753447  0.54758798  1
