# generated using pymatgen
data_La12Ce14Pr13Nd13Sm12(BiS2)64
_symmetry_space_group_name_H-M   'P 1'
_cell_length_a   16.16415410
_cell_length_b   16.13208719
_cell_length_c   27.40073872
_cell_angle_alpha   89.96164514
_cell_angle_beta   89.78865233
_cell_angle_gamma   89.95915924
_symmetry_Int_Tables_number   1
_chemical_formula_structural   La12Ce14Pr13Nd13Sm12(BiS2)64
_chemical_formula_sum   'La12 Ce14 Pr13 Nd13 Sm12 Bi64 S128'
_cell_volume   7145.00690559
_cell_formula_units_Z   1
loop_
 _symmetry_equiv_pos_site_id
 _symmetry_equiv_pos_as_xyz
  1  'x, y, z'
loop_
 _atom_type_symbol
 _atom_type_oxidation_number
  La3+  3.0
  Ce3+  3.0
  Pr3+  3.0
  Nd3+  3.0
  Sm3+  3.0
  Bi2+  2.0
  S2-  -2.0
loop_
 _atom_site_type_symbol
 _atom_site_label
 _atom_site_symmetry_multiplicity
 _atom_site_fract_x
 _atom_site_fract_y
 _atom_site_fract_z
 _atom_site_occupancy
  La3+  La0  1  0.49505413  0.61640067  0.07550399  1
  La3+  La1  1  0.87953411  0.74961181  0.94343661  1
  La3+  La2  1  0.13187931  0.75078341  0.94068916  1
  La3+  La3  1  0.24734035  0.62555149  0.07357372  1
  La3+  La4  1  0.37116650  0.49975955  0.92514081  1
  La3+  La5  1  0.12227523  0.23998094  0.90837537  1
  La3+  La6  1  0.38429739  0.00092275  0.91888404  1
  La3+  La7  1  0.73993083  0.37683071  0.59866719  1
  La3+  La8  1  0.00426558  0.62506461  0.56993271  1
  La3+  La9  1  0.86939469  0.23635992  0.92414511  1
  La3+  La10  1  0.13622249  -0.00856021  0.41343535  1
  La3+  La11  1  0.38045457  0.74477187  0.93917712  1
  Ce3+  Ce12  1  -0.00446003  0.12221455  0.07007320  1
  Ce3+  Ce13  1  0.49877412  0.11950092  0.05420714  1
  Ce3+  Ce14  1  0.87748762  -0.00066015  0.44570747  1
  Ce3+  Ce15  1  0.87511734  0.24880869  0.44455791  1
  Ce3+  Ce16  1  0.12669473  0.49712973  0.94127038  1
  Ce3+  Ce17  1  0.50031183  0.86461700  0.55260326  1
  Ce3+  Ce18  1  0.50080047  0.12502597  0.55393345  1
  Ce3+  Ce19  1  0.00501715  0.87584082  0.06005994  1
  Ce3+  Ce20  1  0.74997710  0.86946464  0.06196692  1
  Ce3+  Ce21  1  0.12785858  0.74794428  0.43534776  1
  Ce3+  Ce22  1  0.74582494  0.12591463  0.56050806  1
  Ce3+  Ce23  1  0.50064766  0.37751246  0.05683369  1
  Ce3+  Ce24  1  0.87817265  0.49666674  0.94864813  1
  Ce3+  Ce25  1  0.00596071  0.62337668  0.06550119  1
  Pr3+  Pr26  1  0.25051427  0.12362254  0.56641310  1
  Pr3+  Pr27  1  0.48704733  0.38612920  0.59040307  1
  Pr3+  Pr28  1  0.74907815  0.87177291  0.56381598  1
  Pr3+  Pr29  1  0.38576097  0.73793414  0.41065727  1
  Pr3+  Pr30  1  0.62685072  -0.00351349  0.43457244  1
  Pr3+  Pr31  1  0.38035706  0.25346687  0.92940442  1
  Pr3+  Pr32  1  0.12464876  0.49626294  0.43705548  1
  Pr3+  Pr33  1  0.00282909  0.36531089  0.05759299  1
  Pr3+  Pr34  1  0.37504079  0.24985625  0.44225309  1
  Pr3+  Pr35  1  0.75254884  0.62636253  0.57426615  1
  Pr3+  Pr36  1  0.63522714  0.50427908  0.92454961  1
  Pr3+  Pr37  1  0.75317731  0.61824907  0.07005934  1
  Pr3+  Pr38  1  0.63643470  0.74923829  0.42218961  1
  Nd3+  Nd39  1  0.87525831  0.49738225  0.44855223  1
  Nd3+  Nd40  1  0.00384762  0.87539487  0.55605635  1
  Nd3+  Nd41  1  0.62558388  0.25292574  0.44452877  1
  Nd3+  Nd42  1  0.12855625  0.24713343  0.43552446  1
  Nd3+  Nd43  1  -0.00109907  0.37063049  0.56791145  1
  Nd3+  Nd44  1  0.37627744  0.49961285  0.44123114  1
  Nd3+  Nd45  1  0.75214581  0.37085587  0.06118243  1
  Nd3+  Nd46  1  0.62778425  0.50019922  0.44908076  1
  Nd3+  Nd47  1  0.26377122  0.89051293  0.08065870  1
  Nd3+  Nd48  1  0.25043594  0.36983936  0.05267853  1
  Nd3+  Nd49  1  0.74658819  0.12021337  0.06949253  1
  Nd3+  Nd50  1  0.00290717  0.12207419  0.55336882  1
  Nd3+  Nd51  1  0.24400133  0.37426158  0.56825736  1
  Sm3+  Sm52  1  0.37476208  -0.00284770  0.44271569  1
  Sm3+  Sm53  1  0.24925327  0.62580405  0.55719822  1
  Sm3+  Sm54  1  0.50323775  0.86280759  0.06418204  1
  Sm3+  Sm55  1  0.13016133  0.00126225  0.94080239  1
  Sm3+  Sm56  1  0.87589126  0.74743813  0.44069655  1
  Sm3+  Sm57  1  0.25232409  0.12267598  0.05088612  1
  Sm3+  Sm58  1  0.63024042  0.25329212  0.94417465  1
  Sm3+  Sm59  1  0.62711504  -0.00431149  0.94372612  1
  Sm3+  Sm60  1  0.62954955  0.74425105  0.94426167  1
  Sm3+  Sm61  1  0.87782573  -0.00067255  0.95133921  1
  Sm3+  Sm62  1  0.50085473  0.62839628  0.56296664  1
  Sm3+  Sm63  1  0.25195831  0.87145971  0.55321884  1
  Bi2+  Bi64  1  -0.06923103  0.16326926  0.27769836  1
  Bi2+  Bi65  1  -0.08328747  0.15015989  0.78555733  1
  Bi2+  Bi66  1  -0.03613920  0.44515444  0.23884566  1
  Bi2+  Bi67  1  0.00453946  0.35682396  0.76156288  1
  Bi2+  Bi68  1  0.01290172  0.61396052  0.29395766  1
  Bi2+  Bi69  1  -0.01907272  0.63415256  0.75275768  1
  Bi2+  Bi70  1  0.00658355  0.90234240  0.28985873  1
  Bi2+  Bi71  1  -0.09801998  0.90736502  0.81248601  1
  Bi2+  Bi72  1  0.22610694  0.14523599  0.29883035  1
  Bi2+  Bi73  1  0.25974415  0.10573591  0.79562014  1
  Bi2+  Bi74  1  0.23252215  0.38764050  0.29346034  1
  Bi2+  Bi75  1  0.29983509  0.37194450  0.76421991  1
  Bi2+  Bi76  1  0.25480895  0.64651809  0.29082265  1
  Bi2+  Bi77  1  0.23539035  0.67727736  0.81294531  1
  Bi2+  Bi78  1  0.23757283  0.91240559  0.27936323  1
  Bi2+  Bi79  1  0.17235056  0.85633951  0.78436170  1
  Bi2+  Bi80  1  0.49994737  0.10679576  0.29650307  1
  Bi2+  Bi81  1  0.49384635  0.09192133  0.74457854  1
  Bi2+  Bi82  1  0.51364223  0.38229526  0.29103053  1
  Bi2+  Bi83  1  0.51634275  0.28390758  0.80796224  1
  Bi2+  Bi84  1  0.50926011  0.60283719  0.28736564  1
  Bi2+  Bi85  1  0.49833558  0.67947191  0.78342971  1
  Bi2+  Bi86  1  0.53553862  0.91827263  0.27204532  1
  Bi2+  Bi87  1  0.45024821  0.86424231  0.79819646  1
  Bi2+  Bi88  1  0.69397416  0.15107580  0.29344620  1
  Bi2+  Bi89  1  0.68487884  0.06152834  0.77391272  1
  Bi2+  Bi90  1  0.77391062  0.38154221  0.30608922  1
  Bi2+  Bi91  1  0.75185592  0.37257379  0.79920503  1
  Bi2+  Bi92  1  0.75808304  0.60141890  0.29510683  1
  Bi2+  Bi93  1  0.74463578  0.63460444  0.79771516  1
  Bi2+  Bi94  1  0.75100178  0.95840202  0.28385858  1
  Bi2+  Bi95  1  0.65799663  0.88331877  0.81490902  1
  Bi2+  Bi96  1  0.13006453  -0.00295199  0.19583495  1
  Bi2+  Bi97  1  0.05054809  0.00697880  0.76642627  1
  Bi2+  Bi98  1  0.09020724  0.25115283  0.23733359  1
  Bi2+  Bi99  1  0.13653200  0.23440245  0.69775001  1
  Bi2+  Bi100  1  0.15957858  0.47199974  0.19916743  1
  Bi2+  Bi101  1  0.12823305  0.50425960  0.76258349  1
  Bi2+  Bi102  1  0.11890165  0.72613840  0.22373405  1
  Bi2+  Bi103  1  0.10974175  0.76106764  0.69348322  1
  Bi2+  Bi104  1  0.39210209  0.02480940  0.21180391  1
  Bi2+  Bi105  1  0.49922876  -0.07792783  0.68365221  1
  Bi2+  Bi106  1  0.39130708  0.25342053  0.24222864  1
  Bi2+  Bi107  1  0.38297009  0.23739120  0.70083479  1
  Bi2+  Bi108  1  0.38361981  0.48372279  0.20959514  1
  Bi2+  Bi109  1  0.27385769  0.60399780  0.70634512  1
  Bi2+  Bi110  1  0.38428805  0.76471593  0.20257333  1
  Bi2+  Bi111  1  0.35683096  0.77593975  0.69576266  1
  Bi2+  Bi112  1  0.65362488  0.03974274  0.19530217  1
  Bi2+  Bi113  1  0.68590243  -0.01364663  0.66897785  1
  Bi2+  Bi114  1  0.58500927  0.25597906  0.20809225  1
  Bi2+  Bi115  1  0.65814820  0.24557741  0.73292526  1
  Bi2+  Bi116  1  0.63504805  0.45749711  0.21437124  1
  Bi2+  Bi117  1  0.58336026  0.50098473  0.72024478  1
  Bi2+  Bi118  1  0.63686696  0.76798630  0.21693865  1
  Bi2+  Bi119  1  0.63365819  0.77481168  0.72253244  1
  Bi2+  Bi120  1  0.91007755  0.00930677  0.20933102  1
  Bi2+  Bi121  1  0.86668630  -0.01946048  0.70723524  1
  Bi2+  Bi122  1  0.80776525  0.26885505  0.21203785  1
  Bi2+  Bi123  1  0.90063064  0.23782100  0.69016631  1
  Bi2+  Bi124  1  0.89106399  0.60643143  0.19132887  1
  Bi2+  Bi125  1  0.84095322  0.50307612  0.72727054  1
  Bi2+  Bi126  1  0.88028537  0.75499350  0.26978511  1
  Bi2+  Bi127  1  0.86599527  0.77585981  0.71061808  1
  S2-  S128  1  0.07115828  0.14058760  0.15822022  1
  S2-  S129  1  0.03012053  0.13028563  0.65072906  1
  S2-  S130  1  0.02810006  0.37022905  0.15749622  1
  S2-  S131  1  0.12004516  0.36815168  0.64184741  1
  S2-  S132  1  0.11153264  0.61610638  0.14333013  1
  S2-  S133  1  -0.09023944  0.62953433  0.65544915  1
  S2-  S134  1  0.00477110  0.88463948  0.15715928  1
  S2-  S135  1  -0.01101290  0.86792934  0.65457483  1
  S2-  S136  1  0.26578489  0.04727465  0.13975189  1
  S2-  S137  1  0.25686107  0.12288324  0.66739508  1
  S2-  S138  1  0.27506742  0.37944045  0.15151074  1
  S2-  S139  1  0.34411767  0.37751365  0.65232608  1
  S2-  S140  1  0.35852172  0.61613261  0.15181229  1
  S2-  S141  1  0.14541409  0.61747310  0.63717166  1
  S2-  S142  1  0.23488960  0.79791846  0.16427351  1
  S2-  S143  1  0.23267706  0.86645102  0.65090856  1
  S2-  S144  1  0.51364673  0.11337803  0.15133239  1
  S2-  S145  1  0.50802418  0.14823503  0.64926637  1
  S2-  S146  1  0.51024222  0.47012704  0.14032694  1
  S2-  S147  1  0.59768556  0.36211069  0.66664206  1
  S2-  S148  1  0.52639264  0.74344996  0.14653149  1
  S2-  S149  1  0.48682608  0.53970056  0.65016934  1
  S2-  S150  1  0.40897997  0.90199876  0.14314684  1
  S2-  S151  1  0.49800409  0.75992619  0.63118955  1
  S2-  S152  1  0.85525530  0.13621936  0.14622837  1
  S2-  S153  1  0.74958880  0.21179221  0.64537214  1
  S2-  S154  1  0.76571392  0.41193799  0.15730185  1
  S2-  S155  1  0.89347826  0.39087851  0.65028415  1
  S2-  S156  1  0.72292132  0.64488148  0.16871049  1
  S2-  S157  1  0.71555011  0.52776097  0.65822323  1
  S2-  S158  1  0.71947362  0.88347009  0.15738638  1
  S2-  S159  1  0.73848915  0.75996270  0.64173378  1
  S2-  S160  1  0.09246993  0.07040059  0.32637449  1
  S2-  S161  1  0.11637675  0.08231508  0.85335382  1
  S2-  S162  1  0.11384457  0.30236860  0.34137985  1
  S2-  S163  1  0.21054735  0.26906564  0.81642704  1
  S2-  S164  1  0.14945971  0.53117077  0.33984416  1
  S2-  S165  1  0.20743025  0.51488339  0.85643562  1
  S2-  S166  1  0.12509099  0.84097136  0.35202647  1
  S2-  S167  1  0.08149001  0.74665434  0.84466516  1
  S2-  S168  1  0.29637720  0.01587879  0.35593283  1
  S2-  S169  1  0.30478716  -0.05384490  0.83046055  1
  S2-  S170  1  0.33929152  0.27601802  0.34525555  1
  S2-  S171  1  0.38293278  0.14205371  0.85021038  1
  S2-  S172  1  0.37378402  0.58082956  0.35290235  1
  S2-  S173  1  0.39084973  0.37461280  0.85142988  1
  S2-  S174  1  0.33311343  0.79580599  0.31560634  1
  S2-  S175  1  0.38967597  0.63560031  0.85882845  1
  S2-  S176  1  0.64030175  -0.10296241  0.35319002  1
  S2-  S177  1  0.53662261  -0.01582227  0.86065405  1
  S2-  S178  1  0.63357658  0.29407387  0.34772983  1
  S2-  S179  1  0.72591348  0.24412830  0.86217637  1
  S2-  S180  1  0.62938132  0.53512261  0.35043534  1
  S2-  S181  1  0.59703545  0.43242507  0.82977079  1
  S2-  S182  1  0.52470629  0.72675477  0.34514286  1
  S2-  S183  1  0.61909548  0.64973979  0.86134807  1
  S2-  S184  1  0.88242205  -0.02185461  0.35013661  1
  S2-  S185  1  0.85663931  0.06211593  0.86262374  1
  S2-  S186  1  0.88386121  0.27630873  0.34852145  1
  S2-  S187  1  0.98093529  0.27561173  0.84861670  1
  S2-  S188  1  0.87205989  0.50466942  0.34883843  1
  S2-  S189  1  0.80814437  0.50811822  0.86094351  1
  S2-  S190  1  0.78024467  0.73098551  0.35927884  1
  S2-  S191  1  0.83369623  0.75539220  0.84688012  1
  S2-  S192  1  0.00535932  0.12222483  0.44695514  1
  S2-  S193  1  0.00144059  0.12186969  0.95952040  1
  S2-  S194  1  0.00176645  0.37198401  0.45696315  1
  S2-  S195  1  0.00221337  0.37078329  0.95187559  1
  S2-  S196  1  0.00032044  0.62507786  0.45406267  1
  S2-  S197  1  0.00361204  0.62262552  0.95649313  1
  S2-  S198  1  0.00055987  0.87249671  0.45128707  1
  S2-  S199  1  0.00377441  0.87983745  0.95270181  1
  S2-  S200  1  0.25085765  0.12307041  0.45789143  1
  S2-  S201  1  0.25199809  0.12627406  0.94911689  1
  S2-  S202  1  0.25071762  0.37513488  0.45664161  1
  S2-  S203  1  0.24280308  0.36478569  0.94832002  1
  S2-  S204  1  0.24911322  0.62411783  0.45325899  1
  S2-  S205  1  0.24894402  0.62303595  0.96314138  1
  S2-  S206  1  0.25830533  0.86837932  0.44946909  1
  S2-  S207  1  0.25465947  0.87673466  0.94791387  1
  S2-  S208  1  0.49995076  0.12257995  0.44689571  1
  S2-  S209  1  0.51151399  0.12948413  0.95104275  1
  S2-  S210  1  0.49911248  0.37619107  0.45005152  1
  S2-  S211  1  0.50999852  0.37759333  0.95376887  1
  S2-  S212  1  0.50136845  0.62224137  0.45784143  1
  S2-  S213  1  0.50588739  0.62123323  0.96400779  1
  S2-  S214  1  0.49513035  0.87369768  0.44682283  1
  S2-  S215  1  0.50779710  0.86581452  0.95842729  1
  S2-  S216  1  0.74820891  0.12391914  0.45214648  1
  S2-  S217  1  0.74543908  0.11784584  0.96491985  1
  S2-  S218  1  0.75087724  0.37393636  0.45708111  1
  S2-  S219  1  0.75391675  0.37475884  0.95727548  1
  S2-  S220  1  0.75496860  0.62169336  0.46346952  1
  S2-  S221  1  0.75646335  0.62499055  0.96323140  1
  S2-  S222  1  0.75645077  0.87495143  0.45787625  1
  S2-  S223  1  0.75142065  0.87474555  0.95537817  1
  S2-  S224  1  0.12860889  -0.00070360  0.04414142  1
  S2-  S225  1  0.12980562  -0.00318816  0.54438188  1
  S2-  S226  1  0.12922346  0.24201639  0.04779067  1
  S2-  S227  1  0.12683269  0.24482587  0.54120113  1
  S2-  S228  1  0.12518605  0.49296526  0.04482672  1
  S2-  S229  1  0.12426771  0.49831123  0.54109387  1
  S2-  S230  1  0.12915603  0.75744644  0.04741280  1
  S2-  S231  1  0.12717035  0.75183339  0.54027686  1
  S2-  S232  1  0.38005024  -0.00017995  0.03183700  1
  S2-  S233  1  0.37527769  -0.00352062  0.54735524  1
  S2-  S234  1  0.37682686  0.24679601  0.04315542  1
  S2-  S235  1  0.37425227  0.25076077  0.54788125  1
  S2-  S236  1  0.37123197  0.49412166  0.03817704  1
  S2-  S237  1  0.36904217  0.50343984  0.54536685  1
  S2-  S238  1  0.37098074  0.75351572  0.04592858  1
  S2-  S239  1  0.36887688  0.74573803  0.53735003  1
  S2-  S240  1  0.62366264  -0.00650562  0.04779840  1
  S2-  S241  1  0.62224543  -0.00326056  0.54061185  1
  S2-  S242  1  0.62668013  0.24818772  0.04976264  1
  S2-  S243  1  0.61992740  0.25441467  0.54845006  1
  S2-  S244  1  0.63260856  0.49652855  0.04295628  1
  S2-  S245  1  0.61920145  0.49723183  0.55138110  1
  S2-  S246  1  0.63124902  0.74352023  0.04624340  1
  S2-  S247  1  0.62726023  0.74699305  0.53388302  1
  S2-  S248  1  0.87245957  -0.00555166  0.05321113  1
  S2-  S249  1  0.87522718  0.00042470  0.55161077  1
  S2-  S250  1  0.87297937  0.24616959  0.04226459  1
  S2-  S251  1  0.87690529  0.24587698  0.54726882  1
  S2-  S252  1  0.88122627  0.49582709  0.05318497  1
  S2-  S253  1  0.87537742  0.49888615  0.55120191  1
  S2-  S254  1  0.87924792  0.74759973  0.05284297  1
  S2-  S255  1  0.87982714  0.75153612  0.54400884  1
