# generated using pymatgen
data_La12Ce14Pr13Nd13Sm12(BiS2)64
_symmetry_space_group_name_H-M   'P 1'
_cell_length_a   16.16407051
_cell_length_b   16.10947712
_cell_length_c   27.26548147
_cell_angle_alpha   90.02070867
_cell_angle_beta   90.15987225
_cell_angle_gamma   90.04351449
_symmetry_Int_Tables_number   1
_chemical_formula_structural   La12Ce14Pr13Nd13Sm12(BiS2)64
_chemical_formula_sum   'La12 Ce14 Pr13 Nd13 Sm12 Bi64 S128'
_cell_volume   7099.75737158
_cell_formula_units_Z   1
loop_
 _symmetry_equiv_pos_site_id
 _symmetry_equiv_pos_as_xyz
  1  'x, y, z'
loop_
 _atom_type_symbol
 _atom_type_oxidation_number
  La3+  3.0
  Ce3+  3.0
  Pr3+  3.0
  Nd3+  3.0
  Sm3+  3.0
  Bi2+  2.0
  S2-  -2.0
loop_
 _atom_site_type_symbol
 _atom_site_label
 _atom_site_symmetry_multiplicity
 _atom_site_fract_x
 _atom_site_fract_y
 _atom_site_fract_z
 _atom_site_occupancy
  La3+  La0  1  0.12522107  0.73607127  0.90169951  1
  La3+  La1  1  0.88852669  0.75819103  0.39531463  1
  La3+  La2  1  0.37381533  0.24405781  0.41252042  1
  La3+  La3  1  0.12362831  0.25037584  0.42948262  1
  La3+  La4  1  0.75508358  0.12522443  0.56757488  1
  La3+  La5  1  0.86268899  0.74204750  0.91564144  1
  La3+  La6  1  0.50399600  0.13300079  0.57639073  1
  La3+  La7  1  0.75350980  0.36555335  0.10910018  1
  La3+  La8  1  0.25744699  0.61100926  0.59378088  1
  La3+  La9  1  0.50006285  0.87987946  0.57039863  1
  La3+  La10  1  0.74376703  0.86081988  0.06774523  1
  La3+  La11  1  0.49121330  0.61266503  0.06681377  1
  Ce3+  Ce12  1  -0.00882696  0.36706011  0.05835333  1
  Ce3+  Ce13  1  0.87477651  0.25145230  0.44180847  1
  Ce3+  Ce14  1  0.61705334  -0.00814804  0.94335531  1
  Ce3+  Ce15  1  -0.00271104  0.61703922  0.57295600  1
  Ce3+  Ce16  1  0.62893597  0.75062346  0.43391870  1
  Ce3+  Ce17  1  0.24888385  0.13074263  0.55923501  1
  Ce3+  Ce18  1  0.62308187  0.00306960  0.43641109  1
  Ce3+  Ce19  1  0.12351997  0.50554160  0.44393031  1
  Ce3+  Ce20  1  0.36479677  0.73911005  0.93994130  1
  Ce3+  Ce21  1  0.50297619  0.63089206  0.56648966  1
  Ce3+  Ce22  1  -0.01108569  0.11531890  0.05198579  1
  Ce3+  Ce23  1  0.74776861  0.10978528  0.06878427  1
  Ce3+  Ce24  1  0.49124881  0.86610134  0.05125955  1
  Ce3+  Ce25  1  0.12035839  0.49307453  0.93751110  1
  Pr3+  Pr26  1  0.49536033  0.35860473  0.07340140  1
  Pr3+  Pr27  1  0.61487950  0.73894717  0.93364207  1
  Pr3+  Pr28  1  0.86492855  0.49357028  0.94418313  1
  Pr3+  Pr29  1  0.24359824  0.61450538  0.07112327  1
  Pr3+  Pr30  1  -0.00834136  0.61647110  0.05474207  1
  Pr3+  Pr31  1  0.75452703  0.87390764  0.55726728  1
  Pr3+  Pr32  1  0.24768001  0.87130571  0.56659351  1
  Pr3+  Pr33  1  0.85650944  -0.00916707  0.92764983  1
  Pr3+  Pr34  1  0.49885776  0.37519692  0.54996521  1
  Pr3+  Pr35  1  0.24166758  0.11096526  0.06872055  1
  Pr3+  Pr36  1  0.36499344  0.48814268  0.94452551  1
  Pr3+  Pr37  1  0.86556116  0.24233807  0.93854926  1
  Pr3+  Pr38  1  0.35896454  -0.00529130  0.92561420  1
  Nd3+  Nd39  1  0.75094929  0.62645213  0.55566573  1
  Nd3+  Nd40  1  0.11796066  0.24093693  0.94589946  1
  Nd3+  Nd41  1  0.24685721  0.35900106  0.08069858  1
  Nd3+  Nd42  1  0.87945928  0.50425603  0.43832915  1
  Nd3+  Nd43  1  0.62660056  0.24570065  0.43116578  1
  Nd3+  Nd44  1  0.63210249  0.49581985  0.41895932  1
  Nd3+  Nd45  1  -0.00081798  0.12844694  0.56719430  1
  Nd3+  Nd46  1  0.61714621  0.48641043  0.94465205  1
  Nd3+  Nd47  1  0.37578852  0.74953698  0.44429722  1
  Nd3+  Nd48  1  0.00357022  0.37678122  0.56408605  1
  Nd3+  Nd49  1  -0.00883182  0.86085843  0.04713648  1
  Nd3+  Nd50  1  0.87716584  -0.00111853  0.43902397  1
  Nd3+  Nd51  1  0.49341079  0.11551688  0.05869023  1
  Sm3+  Sm52  1  0.74873803  0.37702779  0.55589202  1
  Sm3+  Sm53  1  0.24127966  0.86765195  0.05730706  1
  Sm3+  Sm54  1  0.37496627  0.00156285  0.44684459  1
  Sm3+  Sm55  1  0.37857246  0.51240270  0.43289605  1
  Sm3+  Sm56  1  0.12351416  0.74913165  0.45156302  1
  Sm3+  Sm57  1  0.73642884  0.61708846  0.06628554  1
  Sm3+  Sm58  1  0.12232962  -0.00228101  0.45603700  1
  Sm3+  Sm59  1  0.25375433  0.37231746  0.55209440  1
  Sm3+  Sm60  1  0.11755738  -0.01107174  0.93818222  1
  Sm3+  Sm61  1  0.00090894  0.86719388  0.56523234  1
  Sm3+  Sm62  1  0.61838760  0.24254971  0.94582459  1
  Sm3+  Sm63  1  0.36607014  0.24239499  0.94561701  1
  Bi2+  Bi64  1  0.02393640  0.11544110  0.28982255  1
  Bi2+  Bi65  1  -0.03209795  0.13051958  0.79985874  1
  Bi2+  Bi66  1  0.01577643  0.34289634  0.30530366  1
  Bi2+  Bi67  1  0.02348196  0.32471639  0.79027255  1
  Bi2+  Bi68  1  0.06947127  0.63478394  0.28077058  1
  Bi2+  Bi69  1  -0.00903779  0.56257722  0.77650789  1
  Bi2+  Bi70  1  0.04243347  0.89630122  0.29595909  1
  Bi2+  Bi71  1  -0.00431109  0.94203841  0.78333727  1
  Bi2+  Bi72  1  0.23259017  0.11515783  0.29489696  1
  Bi2+  Bi73  1  0.24716055  0.13668605  0.78549982  1
  Bi2+  Bi74  1  0.20639376  0.40017009  0.28655690  1
  Bi2+  Bi75  1  0.22119783  0.38420588  0.79836989  1
  Bi2+  Bi76  1  0.26087088  0.64980821  0.29834836  1
  Bi2+  Bi77  1  0.24652416  0.61548933  0.78370818  1
  Bi2+  Bi78  1  0.26352054  0.85283151  0.29069201  1
  Bi2+  Bi79  1  0.26838551  0.88831422  0.79436173  1
  Bi2+  Bi80  1  0.49983242  0.09295417  0.29455930  1
  Bi2+  Bi81  1  0.56809243  0.13729224  0.79180941  1
  Bi2+  Bi82  1  0.49496833  0.41705349  0.29985170  1
  Bi2+  Bi83  1  0.43140431  0.35273938  0.81432797  1
  Bi2+  Bi84  1  0.49735491  0.71987091  0.28179927  1
  Bi2+  Bi85  1  0.49547087  0.67145366  0.80038116  1
  Bi2+  Bi86  1  0.54270013  0.89589179  0.32301893  1
  Bi2+  Bi87  1  0.53369141  0.85804862  0.78002304  1
  Bi2+  Bi88  1  0.74836915  0.10871871  0.24737327  1
  Bi2+  Bi89  1  0.76844018  0.11791794  0.78973550  1
  Bi2+  Bi90  1  0.76749336  0.36206596  0.29166135  1
  Bi2+  Bi91  1  0.71028547  0.36639869  0.79001147  1
  Bi2+  Bi92  1  0.75000924  0.62017158  0.28956903  1
  Bi2+  Bi93  1  0.77901893  0.59950844  0.79863686  1
  Bi2+  Bi94  1  0.73060653  0.94283624  0.30780897  1
  Bi2+  Bi95  1  0.73495059  0.86865065  0.79072745  1
  Bi2+  Bi96  1  0.14771852  -0.00404736  0.21814298  1
  Bi2+  Bi97  1  0.10552977  0.06759326  0.71916080  1
  Bi2+  Bi98  1  0.11946007  0.27311920  0.21317909  1
  Bi2+  Bi99  1  0.09056803  0.24324975  0.66944961  1
  Bi2+  Bi100  1  0.15247753  0.47375815  0.17883495  1
  Bi2+  Bi101  1  0.11551654  0.43087244  0.70591644  1
  Bi2+  Bi102  1  0.19065324  0.73695456  0.20318956  1
  Bi2+  Bi103  1  0.12252484  0.79040203  0.70427184  1
  Bi2+  Bi104  1  0.35199593  -0.01353823  0.22298394  1
  Bi2+  Bi105  1  0.41217915  0.06105783  0.74014925  1
  Bi2+  Bi106  1  0.37065102  0.25811949  0.21308426  1
  Bi2+  Bi107  1  0.36781261  0.26788771  0.71554651  1
  Bi2+  Bi108  1  0.33093831  0.52149911  0.21643722  1
  Bi2+  Bi109  1  0.38744105  0.46423309  0.71171634  1
  Bi2+  Bi110  1  0.38106838  0.79403703  0.19752742  1
  Bi2+  Bi111  1  0.39738707  0.74903453  0.70395617  1
  Bi2+  Bi112  1  0.61523839  -0.03525715  0.21640065  1
  Bi2+  Bi113  1  0.61045483  -0.00511844  0.70444487  1
  Bi2+  Bi114  1  0.60797881  0.23136611  0.21511467  1
  Bi2+  Bi115  1  0.61073307  0.26456128  0.70826419  1
  Bi2+  Bi116  1  0.60370831  0.50367163  0.22117690  1
  Bi2+  Bi117  1  0.57001390  0.50559825  0.74672223  1
  Bi2+  Bi118  1  0.64018612  0.74904192  0.20666890  1
  Bi2+  Bi119  1  0.63428436  0.68620277  0.71679240  1
  Bi2+  Bi120  1  0.90194119  -0.00963048  0.19988686  1
  Bi2+  Bi121  1  0.84296665  -0.00489821  0.71015174  1
  Bi2+  Bi122  1  0.92453639  0.23153465  0.21906580  1
  Bi2+  Bi123  1  0.90318181  0.26234549  0.70476610  1
  Bi2+  Bi124  1  0.97037336  0.48814717  0.21920029  1
  Bi2+  Bi125  1  0.84484536  0.44756421  0.70963997  1
  Bi2+  Bi126  1  0.90489989  0.75723294  0.19972670  1
  Bi2+  Bi127  1  0.87197317  0.75591754  0.69858577  1
  S2-  S128  1  -0.00690208  0.11323879  0.14921746  1
  S2-  S129  1  -0.11878352  0.12398355  0.64276956  1
  S2-  S130  1  -0.07725433  0.36375705  0.14837103  1
  S2-  S131  1  -0.01815667  0.48220663  0.64294079  1
  S2-  S132  1  -0.03429038  0.61989566  0.15552311  1
  S2-  S133  1  0.00152391  0.67896121  0.66825031  1
  S2-  S134  1  -0.00717957  0.86642895  0.14847424  1
  S2-  S135  1  -0.01632457  0.88181795  0.66323365  1
  S2-  S136  1  0.24553305  0.22038862  0.15045172  1
  S2-  S137  1  0.26360304  0.19625759  0.64785211  1
  S2-  S138  1  0.37847161  0.38080321  0.15251390  1
  S2-  S139  1  0.25808769  0.44562030  0.64208721  1
  S2-  S140  1  0.37169192  0.62812368  0.14428922  1
  S2-  S141  1  0.20757407  0.65060905  0.69277932  1
  S2-  S142  1  0.25193125  0.97668125  0.13524093  1
  S2-  S143  1  0.26636316  0.86098566  0.66755441  1
  S2-  S144  1  0.48172362  0.16519904  0.15461569  1
  S2-  S145  1  0.47213916  0.00255140  0.64736917  1
  S2-  S146  1  0.59533881  0.36673739  0.15731499  1
  S2-  S147  1  0.48879049  0.28401875  0.63715453  1
  S2-  S148  1  0.60910408  0.61444185  0.14342146  1
  S2-  S149  1  0.40829912  0.60183931  0.64864951  1
  S2-  S150  1  0.54017643  0.85062271  0.14492009  1
  S2-  S151  1  0.52753330  0.76093158  0.64370749  1
  S2-  S152  1  0.74468161  0.20412858  0.15249125  1
  S2-  S153  1  0.64490724  0.13297839  0.64610367  1
  S2-  S154  1  0.75869811  0.46669045  0.20101844  1
  S2-  S155  1  0.72956613  0.36568210  0.65364295  1
  S2-  S156  1  0.77443738  0.73555058  0.13976743  1
  S2-  S157  1  0.77234583  0.64352656  0.65738680  1
  S2-  S158  1  0.76868147  0.98041918  0.14288355  1
  S2-  S159  1  0.73874418  0.88962550  0.65823733  1
  S2-  S160  1  0.12043589  0.01731798  0.35896873  1
  S2-  S161  1  0.21700194  0.00267338  0.85824193  1
  S2-  S162  1  0.22999465  0.25361550  0.35058971  1
  S2-  S163  1  0.15152780  0.24802454  0.84809792  1
  S2-  S164  1  0.06884240  0.49873938  0.34986822  1
  S2-  S165  1  0.11841206  0.58077349  0.85012852  1
  S2-  S166  1  0.06408347  0.76202561  0.35884116  1
  S2-  S167  1  0.10957224  0.81960297  0.80979637  1
  S2-  S168  1  0.36900367  0.07953203  0.35970421  1
  S2-  S169  1  0.41720969  -0.04516183  0.83156776  1
  S2-  S170  1  0.44406990  0.26189156  0.31367461  1
  S2-  S171  1  0.36802899  0.20268122  0.85022853  1
  S2-  S172  1  0.35187195  0.44736148  0.34245071  1
  S2-  S173  1  0.33558288  0.50004916  0.84502636  1
  S2-  S174  1  0.39607053  0.65778171  0.36015692  1
  S2-  S175  1  0.28741814  0.74359613  0.85157968  1
  S2-  S176  1  0.62101426  0.11658324  0.36154215  1
  S2-  S177  1  0.70183505  -0.00366544  0.85920134  1
  S2-  S178  1  0.63898640  0.35593408  0.35099360  1
  S2-  S179  1  0.58365195  0.28308781  0.85073709  1
  S2-  S180  1  0.59157333  0.56445813  0.32815485  1
  S2-  S181  1  0.64533941  0.50588087  0.84567734  1
  S2-  S182  1  0.72515573  0.74844668  0.35149342  1
  S2-  S183  1  0.71731823  0.73261009  0.85261446  1
  S2-  S184  1  0.89296933  -0.08137076  0.34991285  1
  S2-  S185  1  0.87494768  -0.11594990  0.84860412  1
  S2-  S186  1  0.83292324  0.24241854  0.34777668  1
  S2-  S187  1  0.80706838  0.26116185  0.84266739  1
  S2-  S188  1  0.81481806  0.49629104  0.34566502  1
  S2-  S189  1  0.88651086  0.48695881  0.84347793  1
  S2-  S190  1  0.89688819  0.68937575  0.29723420  1
  S2-  S191  1  0.92233346  0.69026440  0.81739501  1
  S2-  S192  1  0.00048102  0.12470291  0.45756009  1
  S2-  S193  1  -0.00728747  0.11295921  0.94465746  1
  S2-  S194  1  0.00002355  0.37615127  0.45624075  1
  S2-  S195  1  -0.00693548  0.36726429  0.95041047  1
  S2-  S196  1  -0.00366466  0.63099337  0.45724631  1
  S2-  S197  1  -0.00546281  0.61937102  0.94867498  1
  S2-  S198  1  0.00052650  0.87330175  0.46095942  1
  S2-  S199  1  0.00248420  0.86073292  0.94247992  1
  S2-  S200  1  0.24479813  0.12124285  0.45614595  1
  S2-  S201  1  0.24106832  0.11887598  0.96052340  1
  S2-  S202  1  0.24949588  0.38202256  0.44944538  1
  S2-  S203  1  0.24176166  0.36321096  0.95913410  1
  S2-  S204  1  0.24729917  0.62841756  0.45255163  1
  S2-  S205  1  0.24144251  0.61686189  0.96043490  1
  S2-  S206  1  0.24875452  0.87473527  0.45630252  1
  S2-  S207  1  0.23830693  0.86333401  0.95420252  1
  S2-  S208  1  0.49735521  0.12431375  0.46087496  1
  S2-  S209  1  0.49192086  0.11803251  0.95115699  1
  S2-  S210  1  0.49791870  0.37854440  0.44428285  1
  S2-  S211  1  0.49060568  0.36302115  0.96146363  1
  S2-  S212  1  0.50920471  0.62396779  0.45854191  1
  S2-  S213  1  0.49127717  0.61269093  0.95441223  1
  S2-  S214  1  0.49732975  0.87564824  0.45864567  1
  S2-  S215  1  0.49019470  0.86615739  0.94509299  1
  S2-  S216  1  0.75633892  0.12295085  0.45830237  1
  S2-  S217  1  0.74034196  0.12017800  0.95827631  1
  S2-  S218  1  0.75252559  0.37690833  0.45335901  1
  S2-  S219  1  0.74103038  0.36559962  0.95096388  1
  S2-  S220  1  0.74979616  0.62153456  0.45074300  1
  S2-  S221  1  0.73806847  0.61354206  0.95869276  1
  S2-  S222  1  0.75314101  0.87589874  0.45176411  1
  S2-  S223  1  0.73798763  0.86493096  0.95750469  1
  S2-  S224  1  0.11361160  -0.01157641  0.04120042  1
  S2-  S225  1  0.12172958  0.00004928  0.56064642  1
  S2-  S226  1  0.11517294  0.24124239  0.05078799  1
  S2-  S227  1  0.12384070  0.25376550  0.53867333  1
  S2-  S228  1  0.11975039  0.48905229  0.04539353  1
  S2-  S229  1  0.12970632  0.50077980  0.54752292  1
  S2-  S230  1  0.12120366  0.74176521  0.05373627  1
  S2-  S231  1  0.12708167  0.74221018  0.55650136  1
  S2-  S232  1  0.36986673  -0.00933536  0.03634277  1
  S2-  S233  1  0.36634046  0.00144487  0.54858133  1
  S2-  S234  1  0.36682777  0.23817398  0.04752019  1
  S2-  S235  1  0.37157346  0.25061820  0.53340700  1
  S2-  S236  1  0.36436158  0.48500849  0.04901461  1
  S2-  S237  1  0.37509261  0.50031847  0.53843404  1
  S2-  S238  1  0.36458715  0.74490673  0.04432571  1
  S2-  S239  1  0.36982546  0.74758762  0.54908763  1
  S2-  S240  1  0.61628835  -0.00879843  0.04813971  1
  S2-  S241  1  0.62804682  -0.00090439  0.54436101  1
  S2-  S242  1  0.62067968  0.23715568  0.04849641  1
  S2-  S243  1  0.62975889  0.25391670  0.53761418  1
  S2-  S244  1  0.62208264  0.48347229  0.04945523  1
  S2-  S245  1  0.62600268  0.50069000  0.54973021  1
  S2-  S246  1  0.61423960  0.74007750  0.03938587  1
  S2-  S247  1  0.63024954  0.75230163  0.54085737  1
  S2-  S248  1  0.87102810  -0.01174742  0.03487768  1
  S2-  S249  1  0.88417896  -0.00491939  0.54542316  1
  S2-  S250  1  0.86728736  0.24224089  0.04499074  1
  S2-  S251  1  0.87695427  0.25770686  0.54724915  1
  S2-  S252  1  0.86086223  0.49302188  0.05138480  1
  S2-  S253  1  0.87052182  0.49807631  0.54331084  1
  S2-  S254  1  0.86799126  0.73764027  0.03244523  1
  S2-  S255  1  0.87859811  0.74762423  0.55408404  1
