# generated using pymatgen
data_La12Ce14Pr13Nd13Sm12(BiS2)64
_symmetry_space_group_name_H-M   'P 1'
_cell_length_a   16.21004607
_cell_length_b   16.19106948
_cell_length_c   27.23159050
_cell_angle_alpha   89.86841777
_cell_angle_beta   90.07910885
_cell_angle_gamma   90.01708401
_symmetry_Int_Tables_number   1
_chemical_formula_structural   La12Ce14Pr13Nd13Sm12(BiS2)64
_chemical_formula_sum   'La12 Ce14 Pr13 Nd13 Sm12 Bi64 S128'
_cell_volume   7147.12232676
_cell_formula_units_Z   1
loop_
 _symmetry_equiv_pos_site_id
 _symmetry_equiv_pos_as_xyz
  1  'x, y, z'
loop_
 _atom_type_symbol
 _atom_type_oxidation_number
  La3+  3.0
  Ce3+  3.0
  Pr3+  3.0
  Nd3+  3.0
  Sm3+  3.0
  Bi2+  2.0
  S2-  -2.0
loop_
 _atom_site_type_symbol
 _atom_site_label
 _atom_site_symmetry_multiplicity
 _atom_site_fract_x
 _atom_site_fract_y
 _atom_site_fract_z
 _atom_site_occupancy
  La3+  La0  1  0.35871470  0.24473714  0.92908807  1
  La3+  La1  1  0.36556181  0.00112747  0.43407887  1
  La3+  La2  1  0.48389351  0.35787332  0.09328405  1
  La3+  La3  1  0.26501376  0.86704506  0.59139899  1
  La3+  La4  1  0.74165097  0.36113995  0.07306349  1
  La3+  La5  1  0.37102758  0.74595962  0.92719217  1
  La3+  La6  1  0.37568735  0.75126699  0.43130553  1
  La3+  La7  1  0.75056051  0.12825230  0.56701725  1
  La3+  La8  1  0.10563920  -0.01611675  0.91537822  1
  La3+  La9  1  0.23521936  0.35944697  0.07236079  1
  La3+  La10  1  -0.00420289  0.88102829  0.59594655  1
  La3+  La11  1  0.11499213  0.49530426  0.93766816  1
  Ce3+  Ce12  1  0.36281356  0.49298925  0.94681129  1
  Ce3+  Ce13  1  0.73699173  0.11939505  0.05985478  1
  Ce3+  Ce14  1  0.48547473  0.11835538  0.05289709  1
  Ce3+  Ce15  1  0.85688113  0.49542021  0.94057343  1
  Ce3+  Ce16  1  0.48100713  0.61834796  0.07086180  1
  Ce3+  Ce17  1  0.35838609  -0.00749267  0.94539818  1
  Ce3+  Ce18  1  0.61187326  0.24569875  0.94415134  1
  Ce3+  Ce19  1  0.50407753  0.37876775  0.54972444  1
  Ce3+  Ce20  1  0.87720358  0.49986402  0.43941748  1
  Ce3+  Ce21  1  0.75161083  0.37352633  0.56589724  1
  Ce3+  Ce22  1  0.48254552  0.86744057  0.06261978  1
  Ce3+  Ce23  1  0.73441131  0.61367875  0.06403556  1
  Ce3+  Ce24  1  0.23214399  0.12024476  0.04861309  1
  Ce3+  Ce25  1  0.12783871  0.50170747  0.44617727  1
  Pr3+  Pr26  1  0.60882433  0.49071325  0.95120413  1
  Pr3+  Pr27  1  0.10381148  0.24416243  0.92315294  1
  Pr3+  Pr28  1  -0.01681364  0.86748922  0.06565996  1
  Pr3+  Pr29  1  0.00238620  0.38004504  0.57208134  1
  Pr3+  Pr30  1  0.85773643  0.74189739  0.93676826  1
  Pr3+  Pr31  1  0.73719347  0.86756028  0.06777057  1
  Pr3+  Pr32  1  0.75419488  0.62738312  0.55602356  1
  Pr3+  Pr33  1  0.25844851  0.62788641  0.56327864  1
  Pr3+  Pr34  1  0.25646721  0.12682291  0.56828135  1
  Pr3+  Pr35  1  0.23619162  0.62053576  0.06068253  1
  Pr3+  Pr36  1  0.62435324  0.00142864  0.43510828  1
  Pr3+  Pr37  1  0.63696390  0.49682756  0.41910145  1
  Pr3+  Pr38  1  0.00273932  0.62804732  0.55640256  1
  Nd3+  Nd39  1  -0.01352840  0.11707680  0.04935699  1
  Nd3+  Nd40  1  0.01343556  0.13519498  0.58149636  1
  Nd3+  Nd41  1  0.12716737  0.75515442  0.45082736  1
  Nd3+  Nd42  1  0.12687425  0.00128575  0.45514144  1
  Nd3+  Nd43  1  0.86008884  0.24442907  0.92808814  1
  Nd3+  Nd44  1  0.61594773  -0.00605932  0.93871586  1
  Nd3+  Nd45  1  0.49734771  0.12689428  0.55940728  1
  Nd3+  Nd46  1  0.87748027  0.00459832  0.44625163  1
  Nd3+  Nd47  1  0.22874803  0.86952321  0.06518869  1
  Nd3+  Nd48  1  0.87813999  0.75741100  0.44237478  1
  Nd3+  Nd49  1  0.37461361  0.25473342  0.43144467  1
  Nd3+  Nd50  1  0.50736949  0.62677984  0.55544722  1
  Nd3+  Nd51  1  0.87902662  0.25173983  0.44564139  1
  Sm3+  Sm52  1  0.11280099  0.74653554  0.93860655  1
  Sm3+  Sm53  1  -0.01255603  0.61649807  0.05466302  1
  Sm3+  Sm54  1  0.62811770  0.75221093  0.44193718  1
  Sm3+  Sm55  1  0.60963855  0.74211388  0.94755661  1
  Sm3+  Sm56  1  0.25815969  0.37742687  0.56129133  1
  Sm3+  Sm57  1  0.75305336  0.88329431  0.57115522  1
  Sm3+  Sm58  1  0.37488991  0.50187971  0.43546139  1
  Sm3+  Sm59  1  0.62746713  0.25124226  0.43676687  1
  Sm3+  Sm60  1  0.50233528  0.87712087  0.55398920  1
  Sm3+  Sm61  1  0.12695315  0.25351682  0.44853631  1
  Sm3+  Sm62  1  0.85672611  -0.00862229  0.93519663  1
  Sm3+  Sm63  1  -0.01201945  0.36750482  0.04986759  1
  Bi2+  Bi64  1  -0.02397040  0.11004403  0.29859150  1
  Bi2+  Bi65  1  -0.06407577  0.11839728  0.78399332  1
  Bi2+  Bi66  1  -0.02430380  0.40651677  0.29300152  1
  Bi2+  Bi67  1  -0.03421149  0.38586303  0.78196851  1
  Bi2+  Bi68  1  -0.00129271  0.59750453  0.27613269  1
  Bi2+  Bi69  1  -0.04039437  0.61516743  0.77878170  1
  Bi2+  Bi70  1  0.02941809  0.84656767  0.30460186  1
  Bi2+  Bi71  1  -0.00797712  0.86250298  0.78704492  1
  Bi2+  Bi72  1  0.21411025  0.11171699  0.29378773  1
  Bi2+  Bi73  1  0.29459389  0.12766172  0.80706959  1
  Bi2+  Bi74  1  0.24925103  0.35922152  0.31322743  1
  Bi2+  Bi75  1  0.26627089  0.38543781  0.80931638  1
  Bi2+  Bi76  1  0.19190726  0.63357950  0.28201328  1
  Bi2+  Bi77  1  0.22997853  0.59679593  0.79049459  1
  Bi2+  Bi78  1  0.30100165  0.89030282  0.29947199  1
  Bi2+  Bi79  1  0.25497998  0.87763694  0.79438008  1
  Bi2+  Bi80  1  0.52285709  0.10041488  0.23114534  1
  Bi2+  Bi81  1  0.56243227  0.10620746  0.78992027  1
  Bi2+  Bi82  1  0.50099490  0.38069947  0.29499035  1
  Bi2+  Bi83  1  0.56489465  0.38007007  0.78019733  1
  Bi2+  Bi84  1  0.49790991  0.63564872  0.29505251  1
  Bi2+  Bi85  1  0.54223559  0.62536543  0.78810358  1
  Bi2+  Bi86  1  0.55303290  0.90323797  0.29641678  1
  Bi2+  Bi87  1  0.49312092  0.88312170  0.74171425  1
  Bi2+  Bi88  1  0.75295670  0.10322395  0.23458641  1
  Bi2+  Bi89  1  0.75202500  0.15321526  0.80353803  1
  Bi2+  Bi90  1  0.78849681  0.35196342  0.29983025  1
  Bi2+  Bi91  1  0.77080503  0.41100890  0.79806625  1
  Bi2+  Bi92  1  0.79822800  0.64262715  0.28040432  1
  Bi2+  Bi93  1  0.69961065  0.71610771  0.82369276  1
  Bi2+  Bi94  1  0.77426220  0.92533053  0.29728041  1
  Bi2+  Bi95  1  0.69629225  0.89708671  0.78212374  1
  Bi2+  Bi96  1  0.09320296  -0.01286753  0.23451128  1
  Bi2+  Bi97  1  0.11480148  0.01475075  0.71617779  1
  Bi2+  Bi98  1  0.15566462  0.26243869  0.22276112  1
  Bi2+  Bi99  1  0.12878465  0.26621267  0.71400207  1
  Bi2+  Bi100  1  0.12098664  0.45989183  0.21279710  1
  Bi2+  Bi101  1  0.03807179  0.49489586  0.69378909  1
  Bi2+  Bi102  1  0.15228010  0.75070493  0.19171777  1
  Bi2+  Bi103  1  0.11370662  0.69238944  0.71921844  1
  Bi2+  Bi104  1  0.34245668  0.02924835  0.22216066  1
  Bi2+  Bi105  1  0.38427437  0.04535405  0.72246964  1
  Bi2+  Bi106  1  0.34971452  0.23488717  0.20586922  1
  Bi2+  Bi107  1  0.37665194  0.28047827  0.70357292  1
  Bi2+  Bi108  1  0.30863485  0.50283094  0.22790838  1
  Bi2+  Bi109  1  0.39222057  0.52279676  0.74104313  1
  Bi2+  Bi110  1  0.40487966  0.73995804  0.19850018  1
  Bi2+  Bi111  1  0.38819928  0.72095003  0.70599420  1
  Bi2+  Bi112  1  0.64803876  -0.03604199  0.18381931  1
  Bi2+  Bi113  1  0.57187887  0.04498941  0.68019439  1
  Bi2+  Bi114  1  0.63676105  0.25414971  0.21077119  1
  Bi2+  Bi115  1  0.58929606  0.23636690  0.70110520  1
  Bi2+  Bi116  1  0.65475293  0.52548523  0.20747121  1
  Bi2+  Bi117  1  0.66875202  0.49479583  0.71236253  1
  Bi2+  Bi118  1  0.67285497  0.78611407  0.23923740  1
  Bi2+  Bi119  1  0.63121766  0.76857765  0.70135771  1
  Bi2+  Bi120  1  0.90930355  0.00822424  0.19502174  1
  Bi2+  Bi121  1  0.84272402  -0.02075220  0.71702358  1
  Bi2+  Bi122  1  0.95516157  0.25294904  0.22034314  1
  Bi2+  Bi123  1  0.84775548  0.25630901  0.71809947  1
  Bi2+  Bi124  1  0.90154145  0.52333413  0.18224100  1
  Bi2+  Bi125  1  0.84869736  0.44799794  0.67972484  1
  Bi2+  Bi126  1  0.89747215  0.79136744  0.23015835  1
  Bi2+  Bi127  1  0.81730448  0.72014031  0.72621022  1
  S2-  S128  1  -0.00445226  0.13317406  0.14820013  1
  S2-  S129  1  -0.02636979  0.02977559  0.65633102  1
  S2-  S130  1  -0.01060463  0.38125903  0.14755922  1
  S2-  S131  1  0.00675237  0.26673740  0.65168810  1
  S2-  S132  1  0.02861733  0.64294786  0.14877997  1
  S2-  S133  1  -0.01542627  0.65334938  0.65436886  1
  S2-  S134  1  0.10022979  0.88126286  0.14177729  1
  S2-  S135  1  0.06684025  0.84990320  0.68926462  1
  S2-  S136  1  0.22420559  0.20862480  0.13228598  1
  S2-  S137  1  0.16317558  0.14204404  0.65599561  1
  S2-  S138  1  0.34378838  0.38158874  0.15355087  1
  S2-  S139  1  0.24750779  0.36320570  0.66040997  1
  S2-  S140  1  0.30687568  0.61653133  0.15332503  1
  S2-  S141  1  0.25068214  0.71635691  0.64980216  1
  S2-  S142  1  0.29304138  0.83456485  0.15812623  1
  S2-  S143  1  0.25065484  0.94703018  0.68393477  1
  S2-  S144  1  0.48463472  0.19299423  0.14152772  1
  S2-  S145  1  0.38539816  0.14620150  0.63783374  1
  S2-  S146  1  0.54807296  0.39683198  0.19017434  1
  S2-  S147  1  0.48549574  0.35593369  0.64686810  1
  S2-  S148  1  0.52650043  0.62037486  0.16667068  1
  S2-  S149  1  0.45228150  0.59860905  0.64867379  1
  S2-  S150  1  0.50684119  0.86033987  0.15889990  1
  S2-  S151  1  0.42870880  0.85596126  0.64119210  1
  S2-  S152  1  0.75134268  0.21766277  0.13974885  1
  S2-  S153  1  0.73153119  0.01118697  0.64187909  1
  S2-  S154  1  0.76600339  0.42557344  0.16804035  1
  S2-  S155  1  0.73252557  0.25597722  0.64021753  1
  S2-  S156  1  0.76819992  0.63429827  0.15841642  1
  S2-  S157  1  0.71794942  0.63654837  0.65414463  1
  S2-  S158  1  0.85918806  0.86077827  0.14056043  1
  S2-  S159  1  0.84943825  0.84435655  0.65309754  1
  S2-  S160  1  0.21730953  -0.00596121  0.36916691  1
  S2-  S161  1  0.16252866  0.03640434  0.81925005  1
  S2-  S162  1  0.14014805  0.24724461  0.35079512  1
  S2-  S163  1  0.18123222  0.25251207  0.83120407  1
  S2-  S164  1  0.17974040  0.49919593  0.35408089  1
  S2-  S165  1  0.12584075  0.48580285  0.83736695  1
  S2-  S166  1  0.14974749  0.76459852  0.35156864  1
  S2-  S167  1  0.11787776  0.83094343  0.85248295  1
  S2-  S168  1  0.43450133  -0.01783694  0.34133319  1
  S2-  S169  1  0.36367695  -0.04253451  0.85004750  1
  S2-  S170  1  0.39645280  0.26214794  0.33243134  1
  S2-  S171  1  0.38920364  0.27328241  0.82990804  1
  S2-  S172  1  0.40459263  0.50618051  0.33835694  1
  S2-  S173  1  0.36550472  0.51749743  0.84957180  1
  S2-  S174  1  0.37494304  0.75259723  0.33032572  1
  S2-  S175  1  0.30436505  0.74207833  0.83322100  1
  S2-  S176  1  0.66200948  0.02739315  0.33881553  1
  S2-  S177  1  0.73064366  -0.00751490  0.86329592  1
  S2-  S178  1  0.63334744  0.30349025  0.34280248  1
  S2-  S179  1  0.62116217  0.24919123  0.84685177  1
  S2-  S180  1  0.59925575  0.51833080  0.31811975  1
  S2-  S181  1  0.61018628  0.49528453  0.84975265  1
  S2-  S182  1  0.60642169  0.74555060  0.34440800  1
  S2-  S183  1  0.52218925  0.74082186  0.86263720  1
  S2-  S184  1  0.92517045  -0.02535705  0.35160219  1
  S2-  S185  1  0.95776044  -0.01344477  0.85387458  1
  S2-  S186  1  0.86273994  0.22249231  0.34788363  1
  S2-  S187  1  0.97126739  0.25359963  0.84977647  1
  S2-  S188  1  0.78760288  0.49353137  0.35695882  1
  S2-  S189  1  0.85834167  0.53948703  0.84635863  1
  S2-  S190  1  0.87823957  0.73955379  0.34311355  1
  S2-  S191  1  0.90656049  0.76493470  0.84018351  1
  S2-  S192  1  0.00598069  0.12860056  0.46208775  1
  S2-  S193  1  -0.01786760  0.11643564  0.94553746  1
  S2-  S194  1  0.00353871  0.37688738  0.45797322  1
  S2-  S195  1  -0.01669250  0.37500670  0.94676863  1
  S2-  S196  1  0.00170551  0.62827249  0.44845460  1
  S2-  S197  1  -0.01083962  0.62126834  0.94881001  1
  S2-  S198  1  0.00304846  0.87825269  0.46121104  1
  S2-  S199  1  -0.01721111  0.86348785  0.95856578  1
  S2-  S200  1  0.25053858  0.13445131  0.46013818  1
  S2-  S201  1  0.23145519  0.11699189  0.94405195  1
  S2-  S202  1  0.25350547  0.37787841  0.45545634  1
  S2-  S203  1  0.23460484  0.36772436  0.95466714  1
  S2-  S204  1  0.25320712  0.62615712  0.45516045  1
  S2-  S205  1  0.23757481  0.62352148  0.95253795  1
  S2-  S206  1  0.25280631  0.87132111  0.46664886  1
  S2-  S207  1  0.23762846  0.86631869  0.95649972  1
  S2-  S208  1  0.49994396  0.12965962  0.44784296  1
  S2-  S209  1  0.48811779  0.11628288  0.94608144  1
  S2-  S210  1  0.50288609  0.37964046  0.44375074  1
  S2-  S211  1  0.48498577  0.36702462  0.95022086  1
  S2-  S212  1  0.50682384  0.62326005  0.44778884  1
  S2-  S213  1  0.48699175  0.61676793  0.96288760  1
  S2-  S214  1  0.50283082  0.87426356  0.44975454  1
  S2-  S215  1  0.49100652  0.87427077  0.95721358  1
  S2-  S216  1  0.75093355  0.12870172  0.45543184  1
  S2-  S217  1  0.73870740  0.12319025  0.95581601  1
  S2-  S218  1  0.75116893  0.37120062  0.45845287  1
  S2-  S219  1  0.73865947  0.36757047  0.95642364  1
  S2-  S220  1  0.75176256  0.63125278  0.44979346  1
  S2-  S221  1  0.73182449  0.61831222  0.95723113  1
  S2-  S222  1  0.75089590  0.87769911  0.45594289  1
  S2-  S223  1  0.73428197  0.86421421  0.96044767  1
  S2-  S224  1  0.11008321  -0.00481030  0.03596583  1
  S2-  S225  1  0.13173957  -0.00236630  0.55915099  1
  S2-  S226  1  0.10559496  0.24435630  0.03214958  1
  S2-  S227  1  0.13373819  0.26088001  0.55029511  1
  S2-  S228  1  0.11297238  0.49206391  0.04709660  1
  S2-  S229  1  0.13229273  0.50178140  0.55323731  1
  S2-  S230  1  0.10971090  0.74132191  0.04169863  1
  S2-  S231  1  0.12555162  0.75415910  0.55569313  1
  S2-  S232  1  0.35765218  -0.00514074  0.05313853  1
  S2-  S233  1  0.37904844  -0.00141132  0.54340625  1
  S2-  S234  1  0.36299023  0.24237076  0.03779029  1
  S2-  S235  1  0.37810188  0.25800976  0.53789937  1
  S2-  S236  1  0.36186150  0.48919593  0.05071032  1
  S2-  S237  1  0.37763908  0.50167606  0.54150698  1
  S2-  S238  1  0.36121834  0.74506118  0.04267305  1
  S2-  S239  1  0.38424017  0.74695540  0.53961630  1
  S2-  S240  1  0.61221183  -0.00548534  0.04563767  1
  S2-  S241  1  0.62111249  0.00122205  0.54097031  1
  S2-  S242  1  0.60897038  0.24462358  0.04697126  1
  S2-  S243  1  0.62040556  0.24997041  0.54018613  1
  S2-  S244  1  0.60810695  0.48530866  0.05840109  1
  S2-  S245  1  0.63056975  0.50068695  0.54206186  1
  S2-  S246  1  0.61154218  0.74326396  0.05331763  1
  S2-  S247  1  0.62930081  0.75677390  0.54742202  1
  S2-  S248  1  0.85856399  -0.00431205  0.04077771  1
  S2-  S249  1  0.87816717  0.00189821  0.54922405  1
  S2-  S250  1  0.86788618  0.24454905  0.03622747  1
  S2-  S251  1  0.88175677  0.25158727  0.55031748  1
  S2-  S252  1  0.86431082  0.49231683  0.04631327  1
  S2-  S253  1  0.87792997  0.50079578  0.54536260  1
  S2-  S254  1  0.86152312  0.73510401  0.04406540  1
  S2-  S255  1  0.87693341  0.75376043  0.54686161  1
