# generated using pymatgen
data_La12Ce14Pr13Nd13Sm12(BiS2)64
_symmetry_space_group_name_H-M   'P 1'
_cell_length_a   16.04465351
_cell_length_b   16.13046606
_cell_length_c   27.18055679
_cell_angle_alpha   90.18871732
_cell_angle_beta   89.84111323
_cell_angle_gamma   89.88421501
_symmetry_Int_Tables_number   1
_chemical_formula_structural   La12Ce14Pr13Nd13Sm12(BiS2)64
_chemical_formula_sum   'La12 Ce14 Pr13 Nd13 Sm12 Bi64 S128'
_cell_volume   7034.45874476
_cell_formula_units_Z   1
loop_
 _symmetry_equiv_pos_site_id
 _symmetry_equiv_pos_as_xyz
  1  'x, y, z'
loop_
 _atom_type_symbol
 _atom_type_oxidation_number
  La3+  3.0
  Ce3+  3.0
  Pr3+  3.0
  Nd3+  3.0
  Sm3+  3.0
  Bi2+  2.0
  S2-  -2.0
loop_
 _atom_site_type_symbol
 _atom_site_label
 _atom_site_symmetry_multiplicity
 _atom_site_fract_x
 _atom_site_fract_y
 _atom_site_fract_z
 _atom_site_occupancy
  La3+  La0  1  0.38724299  0.76828237  0.89170801  1
  La3+  La1  1  0.63730684  0.01604673  0.40844662  1
  La3+  La2  1  0.13003761  0.51429564  0.42760699  1
  La3+  La3  1  0.76337009  0.14007531  0.07540659  1
  La3+  La4  1  0.75790212  0.88607814  0.57443015  1
  La3+  La5  1  0.75718118  0.13619060  0.57023162  1
  La3+  La6  1  0.49904492  0.63438952  0.07393594  1
  La3+  La7  1  0.64118020  0.26568620  0.42625800  1
  La3+  La8  1  0.50846554  0.88063514  0.10409741  1
  La3+  La9  1  0.76012854  0.38234164  0.58976732  1
  La3+  La10  1  0.76831012  0.38997902  0.07133390  1
  La3+  La11  1  0.39371178  0.75262625  0.40172985  1
  Ce3+  Ce12  1  0.38533294  0.51458490  0.93316118  1
  Ce3+  Ce13  1  0.13324429  0.25697803  0.93894267  1
  Ce3+  Ce14  1  0.13685550  0.00676594  0.94589070  1
  Ce3+  Ce15  1  0.25970741  0.63850179  0.55934941  1
  Ce3+  Ce16  1  0.64304159  0.76213084  0.42604956  1
  Ce3+  Ce17  1  0.38253841  0.26395581  0.43279347  1
  Ce3+  Ce18  1  0.00867983  0.88826131  0.56492594  1
  Ce3+  Ce19  1  0.75912906  0.63559872  0.56627858  1
  Ce3+  Ce20  1  0.00398096  0.88464232  0.06545641  1
  Ce3+  Ce21  1  0.13526461  0.75806597  0.43653724  1
  Ce3+  Ce22  1  0.26161964  0.88563593  0.06413393  1
  Ce3+  Ce23  1  0.38429600  0.25744871  0.93694361  1
  Ce3+  Ce24  1  0.88040130  0.01103079  0.44496743  1
  Ce3+  Ce25  1  0.13921634  0.76212093  0.94379543  1
  Pr3+  Pr26  1  0.88210231  0.75911246  0.93279404  1
  Pr3+  Pr27  1  0.76005927  0.88391779  0.06821975  1
  Pr3+  Pr28  1  0.87980654  0.51021512  0.43811637  1
  Pr3+  Pr29  1  0.51002929  0.88899890  0.54328696  1
  Pr3+  Pr30  1  0.13536681  0.50962933  0.93733498  1
  Pr3+  Pr31  1  0.63098202  0.51028987  0.94352165  1
  Pr3+  Pr32  1  0.75717915  0.63664450  0.06532037  1
  Pr3+  Pr33  1  0.13433857  0.00838807  0.43567271  1
  Pr3+  Pr34  1  0.88301273  0.00585656  0.93231161  1
  Pr3+  Pr35  1  0.51699349  0.13490640  0.07222861  1
  Pr3+  Pr36  1  0.38423987  0.50892314  0.44081652  1
  Pr3+  Pr37  1  0.01244973  0.39871268  0.57599232  1
  Pr3+  Pr38  1  0.39217607  0.00909145  0.94605908  1
  Nd3+  Nd39  1  0.00558689  0.13700177  0.05401701  1
  Nd3+  Nd40  1  0.63769404  0.00592298  0.94071468  1
  Nd3+  Nd41  1  0.12633600  0.26517277  0.43620923  1
  Nd3+  Nd42  1  0.88045511  0.50932153  0.93115386  1
  Nd3+  Nd43  1  0.25824248  0.38685138  0.56577704  1
  Nd3+  Nd44  1  0.50913955  0.13558351  0.54945888  1
  Nd3+  Nd45  1  0.01039631  0.63536674  0.05446634  1
  Nd3+  Nd46  1  0.37698862  0.01795821  0.41791719  1
  Nd3+  Nd47  1  0.26069303  0.88784935  0.55336288  1
  Nd3+  Nd48  1  0.51179515  0.38489608  0.56579825  1
  Nd3+  Nd49  1  0.26398178  0.13562737  0.06610429  1
  Nd3+  Nd50  1  0.51311293  0.63837038  0.55530951  1
  Nd3+  Nd51  1  0.63581697  0.25668839  0.93853592  1
  Sm3+  Sm52  1  0.25949790  0.13838120  0.55207528  1
  Sm3+  Sm53  1  0.00957555  0.38597754  0.05132258  1
  Sm3+  Sm54  1  0.88553694  0.26310783  0.44268978  1
  Sm3+  Sm55  1  0.88087462  0.76472963  0.43993979  1
  Sm3+  Sm56  1  0.63915023  0.50433586  0.43690430  1
  Sm3+  Sm57  1  0.63077324  0.75891417  0.93917350  1
  Sm3+  Sm58  1  0.26157158  0.63759154  0.05893287  1
  Sm3+  Sm59  1  0.00735799  0.63866521  0.55962841  1
  Sm3+  Sm60  1  0.50836220  0.38217613  0.05426322  1
  Sm3+  Sm61  1  0.00942936  0.14072682  0.56272133  1
  Sm3+  Sm62  1  0.87619643  0.25832010  0.92504054  1
  Sm3+  Sm63  1  0.26025399  0.38436624  0.05402685  1
  Bi2+  Bi64  1  0.01644178  0.07751711  0.29644028  1
  Bi2+  Bi65  1  0.00080942  0.03784173  0.79502793  1
  Bi2+  Bi66  1  -0.02477587  0.36733748  0.29207148  1
  Bi2+  Bi67  1  0.03302488  0.37137292  0.80895731  1
  Bi2+  Bi68  1  -0.00131684  0.63688498  0.29188342  1
  Bi2+  Bi69  1  -0.02931858  0.66048737  0.80170525  1
  Bi2+  Bi70  1  -0.01513314  0.82619827  0.32462288  1
  Bi2+  Bi71  1  -0.02663517  0.85145218  0.82429339  1
  Bi2+  Bi72  1  0.20334588  0.14387984  0.29907332  1
  Bi2+  Bi73  1  0.17712478  0.08322023  0.74764780  1
  Bi2+  Bi74  1  0.24014216  0.37359556  0.34169740  1
  Bi2+  Bi75  1  0.31767927  0.34959522  0.80609830  1
  Bi2+  Bi76  1  0.23849708  0.55457892  0.29164110  1
  Bi2+  Bi77  1  0.23457116  0.62895932  0.78945532  1
  Bi2+  Bi78  1  0.17679052  0.84742702  0.30597949  1
  Bi2+  Bi79  1  0.24942250  0.89375024  0.78485184  1
  Bi2+  Bi80  1  0.48149268  0.11764917  0.27940899  1
  Bi2+  Bi81  1  0.43986635  0.13976380  0.75238945  1
  Bi2+  Bi82  1  0.42971260  0.36356764  0.30641674  1
  Bi2+  Bi83  1  0.51370360  0.30075856  0.81371664  1
  Bi2+  Bi84  1  0.50793464  0.59286987  0.28274917  1
  Bi2+  Bi85  1  0.50829716  0.50050706  0.80210364  1
  Bi2+  Bi86  1  0.50689850  0.85300082  0.27565942  1
  Bi2+  Bi87  1  0.51073039  0.90075069  0.79910367  1
  Bi2+  Bi88  1  0.76732950  0.15564212  0.28913890  1
  Bi2+  Bi89  1  0.67809161  0.11346948  0.79770317  1
  Bi2+  Bi90  1  0.71583937  0.39661940  0.29201822  1
  Bi2+  Bi91  1  0.75240982  0.38391874  0.79199500  1
  Bi2+  Bi92  1  0.77974705  0.63260054  0.27946659  1
  Bi2+  Bi93  1  0.77603901  0.66343342  0.77500029  1
  Bi2+  Bi94  1  0.80347496  0.88592557  0.29319162  1
  Bi2+  Bi95  1  0.78421250  0.87459667  0.78994532  1
  Bi2+  Bi96  1  0.07916175  -0.06308645  0.21316208  1
  Bi2+  Bi97  1  0.10162429  -0.06989680  0.69234545  1
  Bi2+  Bi98  1  0.07378606  0.21969701  0.22233573  1
  Bi2+  Bi99  1  0.15847726  0.28011424  0.73326579  1
  Bi2+  Bi100  1  0.14962084  0.40612390  0.23674796  1
  Bi2+  Bi101  1  0.21098970  0.49033564  0.71245599  1
  Bi2+  Bi102  1  0.10981694  0.73938234  0.20653935  1
  Bi2+  Bi103  1  0.09377891  0.74736467  0.72758304  1
  Bi2+  Bi104  1  0.25855364  0.01269519  0.21607793  1
  Bi2+  Bi105  1  0.39296600  0.00826589  0.67220393  1
  Bi2+  Bi106  1  0.31963738  0.25937246  0.21632382  1
  Bi2+  Bi107  1  0.33860042  0.26019437  0.68120136  1
  Bi2+  Bi108  1  0.39593463  0.47316938  0.21494274  1
  Bi2+  Bi109  1  0.39952850  0.43602283  0.70982633  1
  Bi2+  Bi110  1  0.34004601  0.72817493  0.20672529  1
  Bi2+  Bi111  1  0.38494646  0.75740502  0.67712039  1
  Bi2+  Bi112  1  0.64841001  -0.00060200  0.22232520  1
  Bi2+  Bi113  1  0.64128731  -0.07727723  0.71577168  1
  Bi2+  Bi114  1  0.58262649  0.25945612  0.19740610  1
  Bi2+  Bi115  1  0.61422398  0.24500935  0.71555106  1
  Bi2+  Bi116  1  0.63215092  0.51340327  0.21194801  1
  Bi2+  Bi117  1  0.65603491  0.50013097  0.72162568  1
  Bi2+  Bi118  1  0.66053575  0.71301125  0.20503902  1
  Bi2+  Bi119  1  0.61646811  0.72330147  0.71790866  1
  Bi2+  Bi120  1  0.88687772  0.01831687  0.21595249  1
  Bi2+  Bi121  1  0.86994643  0.02508753  0.70953882  1
  Bi2+  Bi122  1  0.86796179  0.26149860  0.20955843  1
  Bi2+  Bi123  1  0.88628774  0.24275752  0.72296773  1
  Bi2+  Bi124  1  0.90110581  0.50681583  0.20589593  1
  Bi2+  Bi125  1  0.91383295  0.51468749  0.71119697  1
  Bi2+  Bi126  1  0.91124911  0.73559051  0.19888866  1
  Bi2+  Bi127  1  0.90134886  0.73372622  0.69075697  1
  S2-  S128  1  -0.09117676  0.13297442  0.13794136  1
  S2-  S129  1  -0.01952217  0.13803644  0.66197807  1
  S2-  S130  1  -0.06611930  0.37929773  0.13889176  1
  S2-  S131  1  -0.08642660  0.36700305  0.66155521  1
  S2-  S132  1  0.02205914  0.60935428  0.15318749  1
  S2-  S133  1  0.02409338  0.55825416  0.64650255  1
  S2-  S134  1  -0.10796184  0.88257064  0.14196660  1
  S2-  S135  1  -0.08858901  0.88769014  0.64787649  1
  S2-  S136  1  0.20039028  0.14138161  0.15920606  1
  S2-  S137  1  0.25183238  0.11214312  0.64908902  1
  S2-  S138  1  0.26878123  0.38418236  0.15230122  1
  S2-  S139  1  0.14825903  0.37771965  0.64425412  1
  S2-  S140  1  0.34311715  0.60355402  0.14452194  1
  S2-  S141  1  0.26533274  0.63950559  0.65899673  1
  S2-  S142  1  0.31123227  0.87302157  0.15843393  1
  S2-  S143  1  0.26835295  0.88498493  0.65463472  1
  S2-  S144  1  0.43502095  0.18772159  0.16141668  1
  S2-  S145  1  0.51614609  0.13097163  0.65111433  1
  S2-  S146  1  0.52304412  0.39853308  0.15291956  1
  S2-  S147  1  0.60437232  0.38438894  0.65166787  1
  S2-  S148  1  0.50245286  0.73272521  0.16225200  1
  S2-  S149  1  0.51141919  0.63836571  0.65747064  1
  S2-  S150  1  0.49326579  0.96872127  0.19546695  1
  S2-  S151  1  0.49988177  0.88523849  0.64664357  1
  S2-  S152  1  0.64030567  0.11263072  0.15041711  1
  S2-  S153  1  0.73413805  0.01475072  0.64760508  1
  S2-  S154  1  0.73508461  0.28397362  0.15001163  1
  S2-  S155  1  0.75810353  0.23706003  0.65700770  1
  S2-  S156  1  0.76914977  0.52429078  0.14309539  1
  S2-  S157  1  0.77256540  0.52976181  0.64808727  1
  S2-  S158  1  0.67036949  0.87021271  0.15698503  1
  S2-  S159  1  0.73793545  0.74931964  0.64404187  1
  S2-  S160  1  0.23452847  -0.00048763  0.35187114  1
  S2-  S161  1  0.15464747  0.01372991  0.84787304  1
  S2-  S162  1  0.00370649  0.25452900  0.36392989  1
  S2-  S163  1  0.16145654  0.26570318  0.84240058  1
  S2-  S164  1  -0.00646850  0.49820750  0.35752601  1
  S2-  S165  1  0.13998769  0.51152401  0.83617402  1
  S2-  S166  1  0.14365715  0.64860232  0.35754666  1
  S2-  S167  1  0.21185020  0.76734332  0.85416700  1
  S2-  S168  1  0.46384924  -0.01822732  0.33182943  1
  S2-  S169  1  0.36561194  -0.06299559  0.85403198  1
  S2-  S170  1  0.38443722  0.16747840  0.34951097  1
  S2-  S171  1  0.37146945  0.19187759  0.84636729  1
  S2-  S172  1  0.37545291  0.59306338  0.35113027  1
  S2-  S173  1  0.37734815  0.60147990  0.84757040  1
  S2-  S174  1  0.34079966  0.79911443  0.30563130  1
  S2-  S175  1  0.38248703  0.78661767  0.77139036  1
  S2-  S176  1  0.64743366  -0.09273737  0.32550357  1
  S2-  S177  1  0.55703608  0.04805141  0.85299092  1
  S2-  S178  1  0.61767210  0.15484097  0.34054993  1
  S2-  S179  1  0.73988961  0.24858651  0.85718838  1
  S2-  S180  1  0.58512151  0.39502527  0.35639611  1
  S2-  S181  1  0.67226168  0.51133531  0.84504823  1
  S2-  S182  1  0.54574878  0.72669944  0.34315701  1
  S2-  S183  1  0.54800697  0.76487279  0.84859821  1
  S2-  S184  1  0.80621419  0.02967987  0.35688236  1
  S2-  S185  1  0.76025609  0.00829805  0.85879696  1
  S2-  S186  1  0.78454127  0.28313067  0.35778085  1
  S2-  S187  1  0.94312893  0.24120668  0.82940592  1
  S2-  S188  1  0.75868229  0.51685057  0.35902907  1
  S2-  S189  1  0.88755903  0.45223114  0.83645491  1
  S2-  S190  1  0.77864156  0.74806113  0.35907716  1
  S2-  S191  1  0.75518427  0.75285982  0.86238770  1
  S2-  S192  1  0.00904438  0.13056189  0.45839684  1
  S2-  S193  1  0.00698999  0.13326427  0.94733558  1
  S2-  S194  1  0.00882970  0.38778748  0.46514289  1
  S2-  S195  1  0.00675737  0.38308133  0.94689138  1
  S2-  S196  1  0.00456274  0.64218535  0.45629229  1
  S2-  S197  1  0.00972088  0.63493984  0.94752915  1
  S2-  S198  1  0.00951899  0.88520627  0.45592932  1
  S2-  S199  1  0.01018916  0.88373099  0.95744783  1
  S2-  S200  1  0.25231614  0.14246495  0.44958978  1
  S2-  S201  1  0.25901981  0.13286064  0.95862380  1
  S2-  S202  1  0.25587632  0.38629498  0.45957454  1
  S2-  S203  1  0.25957045  0.38390001  0.94894462  1
  S2-  S204  1  0.26669679  0.64200664  0.45538949  1
  S2-  S205  1  0.25907668  0.63426478  0.95579257  1
  S2-  S206  1  0.26479080  0.87896283  0.44816147  1
  S2-  S207  1  0.26251664  0.88509933  0.95992386  1
  S2-  S208  1  0.50875811  0.13660778  0.44629121  1
  S2-  S209  1  0.51154002  0.13870651  0.96309370  1
  S2-  S210  1  0.50666374  0.38508090  0.46169464  1
  S2-  S211  1  0.50768660  0.38271521  0.94901934  1
  S2-  S212  1  0.51570469  0.62861237  0.45047062  1
  S2-  S213  1  0.50759831  0.63581344  0.95813271  1
  S2-  S214  1  0.50902968  0.88414420  0.43878893  1
  S2-  S215  1  0.51128956  0.88307129  0.95085950  1
  S2-  S216  1  0.76165843  0.13941523  0.45942596  1
  S2-  S217  1  0.76188588  0.13463348  0.96194447  1
  S2-  S218  1  0.76110351  0.38561176  0.46630199  1
  S2-  S219  1  0.76035881  0.38659696  0.95639438  1
  S2-  S220  1  0.75792601  0.63655777  0.46074496  1
  S2-  S221  1  0.75901610  0.63103527  0.95873682  1
  S2-  S222  1  0.75760652  0.88912944  0.45724318  1
  S2-  S223  1  0.76008293  0.88107635  0.96096842  1
  S2-  S224  1  0.13181505  0.01137797  0.05388897  1
  S2-  S225  1  0.13434300  0.01384032  0.54448123  1
  S2-  S226  1  0.13335228  0.26158696  0.04775774  1
  S2-  S227  1  0.13422543  0.25811041  0.54426785  1
  S2-  S228  1  0.13672572  0.50928960  0.04631255  1
  S2-  S229  1  0.13818382  0.51746672  0.53976057  1
  S2-  S230  1  0.13530123  0.76019838  0.05189790  1
  S2-  S231  1  0.13295590  0.76307894  0.54832666  1
  S2-  S232  1  0.38927609  0.01023151  0.05710934  1
  S2-  S233  1  0.38018273  0.01404439  0.53196239  1
  S2-  S234  1  0.38301812  0.26168814  0.04537708  1
  S2-  S235  1  0.38249048  0.26275350  0.54319661  1
  S2-  S236  1  0.38247363  0.50461478  0.04045344  1
  S2-  S237  1  0.38492044  0.51028209  0.55058859  1
  S2-  S238  1  0.38230894  0.76202520  0.05343734  1
  S2-  S239  1  0.38531485  0.76212295  0.54653420  1
  S2-  S240  1  0.63151398  0.00216986  0.04845702  1
  S2-  S241  1  0.63275433  0.01263851  0.53875513  1
  S2-  S242  1  0.63429302  0.26470017  0.04355974  1
  S2-  S243  1  0.63169991  0.26044413  0.54473689  1
  S2-  S244  1  0.62824596  0.51003462  0.04935116  1
  S2-  S245  1  0.63256834  0.50993805  0.54505018  1
  S2-  S246  1  0.62921883  0.75712606  0.04820532  1
  S2-  S247  1  0.63288987  0.76251218  0.53716503  1
  S2-  S248  1  0.88558700  0.00868536  0.03898386  1
  S2-  S249  1  0.88895566  0.01487247  0.54858093  1
  S2-  S250  1  0.88791038  0.26367569  0.03325003  1
  S2-  S251  1  0.88914710  0.26158899  0.54879253  1
  S2-  S252  1  0.88972983  0.51348033  0.03790018  1
  S2-  S253  1  0.88635956  0.51515606  0.54563795  1
  S2-  S254  1  0.88483148  0.75513831  0.04158752  1
  S2-  S255  1  0.88590133  0.76245783  0.54378183  1
