# generated using pymatgen
data_La12Ce14Pr13Nd13Sm12(BiS2)64
_symmetry_space_group_name_H-M   'P 1'
_cell_length_a   16.14145312
_cell_length_b   16.11132988
_cell_length_c   27.37146181
_cell_angle_alpha   89.69853433
_cell_angle_beta   90.36254316
_cell_angle_gamma   90.10596760
_symmetry_Int_Tables_number   1
_chemical_formula_structural   La12Ce14Pr13Nd13Sm12(BiS2)64
_chemical_formula_sum   'La12 Ce14 Pr13 Nd13 Sm12 Bi64 S128'
_cell_volume   7117.97714363
_cell_formula_units_Z   1
loop_
 _symmetry_equiv_pos_site_id
 _symmetry_equiv_pos_as_xyz
  1  'x, y, z'
loop_
 _atom_type_symbol
 _atom_type_oxidation_number
  La3+  3.0
  Ce3+  3.0
  Pr3+  3.0
  Nd3+  3.0
  Sm3+  3.0
  Bi2+  2.0
  S2-  -2.0
loop_
 _atom_site_type_symbol
 _atom_site_label
 _atom_site_symmetry_multiplicity
 _atom_site_fract_x
 _atom_site_fract_y
 _atom_site_fract_z
 _atom_site_occupancy
  La3+  La0  1  0.51622264  0.90747120  0.06878554  1
  La3+  La1  1  0.24297860  0.60150698  0.56502662  1
  La3+  La2  1  0.86288927  0.48420765  0.42729258  1
  La3+  La3  1  0.51570997  0.65550350  0.05499797  1
  La3+  La4  1  0.25375159  0.39006191  0.11039446  1
  La3+  La5  1  0.12460913  0.22082882  0.39426347  1
  La3+  La6  1  0.64210807  0.29045512  0.93497620  1
  La3+  La7  1  0.13762836  0.78512740  0.93589978  1
  La3+  La8  1  0.49196447  0.84246718  0.60212453  1
  La3+  La9  1  0.63570815  0.78676864  0.92565918  1
  La3+  La10  1  0.75765738  0.60104456  0.58190258  1
  La3+  La11  1  0.85628181  0.22571707  0.40438904  1
  Ce3+  Ce12  1  0.49789059  0.60334480  0.56045082  1
  Ce3+  Ce13  1  0.76529453  0.40721024  0.06236242  1
  Ce3+  Ce14  1  0.51319556  0.15864708  0.05456343  1
  Ce3+  Ce15  1  0.86861447  -0.01401911  0.43929929  1
  Ce3+  Ce16  1  0.50617358  0.40370686  0.05701685  1
  Ce3+  Ce17  1  0.63593808  0.53716339  0.93252268  1
  Ce3+  Ce18  1  0.26923709  0.90192420  0.07133927  1
  Ce3+  Ce19  1  -0.00296492  0.60131908  0.55520253  1
  Ce3+  Ce20  1  0.26329853  0.15595416  0.05600316  1
  Ce3+  Ce21  1  0.88887027  0.28260789  0.94010531  1
  Ce3+  Ce22  1  0.37239948  0.73181306  0.44416532  1
  Ce3+  Ce23  1  0.76412459  0.65415252  0.05403284  1
  Ce3+  Ce24  1  0.63712455  0.03038771  0.93576701  1
  Ce3+  Ce25  1  0.88642270  0.02778963  0.93137707  1
  Pr3+  Pr26  1  0.11267605  0.48340053  0.42010642  1
  Pr3+  Pr27  1  0.38537401  0.78880196  0.92999295  1
  Pr3+  Pr28  1  0.75165281  0.10773078  0.57192578  1
  Pr3+  Pr29  1  0.76614181  0.15805911  0.05676060  1
  Pr3+  Pr30  1  0.13593877  0.28473437  0.93656498  1
  Pr3+  Pr31  1  0.38678683  0.03483710  0.93475555  1
  Pr3+  Pr32  1  0.26334380  0.65503187  0.06128453  1
  Pr3+  Pr33  1  0.13642068  0.02822700  0.93700591  1
  Pr3+  Pr34  1  -0.00323332  0.35044989  0.54087824  1
  Pr3+  Pr35  1  0.61767412  0.22703890  0.44108810  1
  Pr3+  Pr36  1  0.88614910  0.53764927  0.92340822  1
  Pr3+  Pr37  1  0.49403651  0.10349692  0.56459658  1
  Pr3+  Pr38  1  0.01637462  0.65325406  0.06064852  1
  Nd3+  Nd39  1  0.49805967  0.35256604  0.55361398  1
  Nd3+  Nd40  1  0.12019298  0.73128176  0.43066135  1
  Nd3+  Nd41  1  0.00967726  0.90750584  0.06688034  1
  Nd3+  Nd42  1  0.13946031  0.53689045  0.92625181  1
  Nd3+  Nd43  1  0.88656462  0.78328783  0.93501655  1
  Nd3+  Nd44  1  0.61919868  0.73166078  0.45371555  1
  Nd3+  Nd45  1  0.12251221  -0.01905834  0.44444388  1
  Nd3+  Nd46  1  0.24159638  0.35241883  0.56220248  1
  Nd3+  Nd47  1  0.38579299  0.27996720  0.93010171  1
  Nd3+  Nd48  1  0.61806973  -0.02020776  0.45907797  1
  Nd3+  Nd49  1  0.74889604  0.85337274  0.56569951  1
  Nd3+  Nd50  1  0.36682361  0.23032606  0.43751606  1
  Nd3+  Nd51  1  0.75187150  0.35391584  0.56399295  1
  Sm3+  Sm52  1  0.36874014  -0.02223190  0.45169505  1
  Sm3+  Sm53  1  -0.00254193  0.85502512  0.55362002  1
  Sm3+  Sm54  1  0.86634123  0.73228350  0.44457472  1
  Sm3+  Sm55  1  0.36670635  0.48019745  0.44450423  1
  Sm3+  Sm56  1  0.01634416  0.15768749  0.05279187  1
  Sm3+  Sm57  1  0.38484443  0.53202326  0.93934113  1
  Sm3+  Sm58  1  0.76602224  0.90648378  0.06452864  1
  Sm3+  Sm59  1  0.62340031  0.48121572  0.44260375  1
  Sm3+  Sm60  1  0.24413545  0.10743094  0.56423380  1
  Sm3+  Sm61  1  -0.00263902  0.10562089  0.55001835  1
  Sm3+  Sm62  1  0.01669101  0.40889498  0.05059770  1
  Sm3+  Sm63  1  0.24431810  0.84479018  0.57045955  1
  Bi2+  Bi64  1  0.00007776  0.04455057  0.28196347  1
  Bi2+  Bi65  1  0.03295242  0.06299398  0.81741228  1
  Bi2+  Bi66  1  0.00593883  0.38218601  0.28176290  1
  Bi2+  Bi67  1  0.00740115  0.26493237  0.78946214  1
  Bi2+  Bi68  1  -0.00476849  0.64191836  0.29609633  1
  Bi2+  Bi69  1  0.00932375  0.60616358  0.79688888  1
  Bi2+  Bi70  1  -0.01623098  0.84390333  0.30021453  1
  Bi2+  Bi71  1  -0.02392243  0.87243562  0.76967504  1
  Bi2+  Bi72  1  0.22087949  0.12462770  0.26944570  1
  Bi2+  Bi73  1  0.23038889  0.11146331  0.80537266  1
  Bi2+  Bi74  1  0.30314228  0.36535688  0.30164277  1
  Bi2+  Bi75  1  0.31427486  0.37230146  0.80949976  1
  Bi2+  Bi76  1  0.21519540  0.68558045  0.26677163  1
  Bi2+  Bi77  1  0.25779644  0.60298016  0.80310130  1
  Bi2+  Bi78  1  0.17561624  0.85799079  0.31368064  1
  Bi2+  Bi79  1  0.23909262  0.88256853  0.78575582  1
  Bi2+  Bi80  1  0.50507347  0.07598578  0.30098177  1
  Bi2+  Bi81  1  0.44974159  0.09987955  0.76843144  1
  Bi2+  Bi82  1  0.51475070  0.45829655  0.30622134  1
  Bi2+  Bi83  1  0.50064429  0.31182127  0.79433615  1
  Bi2+  Bi84  1  0.51317088  0.65497244  0.28881928  1
  Bi2+  Bi85  1  0.49315485  0.58102452  0.74024686  1
  Bi2+  Bi86  1  0.50511535  0.86201361  0.32677175  1
  Bi2+  Bi87  1  0.47763222  0.84964453  0.79450525  1
  Bi2+  Bi88  1  0.71914057  0.09285551  0.29271348  1
  Bi2+  Bi89  1  0.83738614  0.10050721  0.80585593  1
  Bi2+  Bi90  1  0.70103364  0.36280664  0.28328129  1
  Bi2+  Bi91  1  0.72671621  0.33495722  0.78560337  1
  Bi2+  Bi92  1  0.71167403  0.61297763  0.29462155  1
  Bi2+  Bi93  1  0.75858422  0.58957270  0.80151376  1
  Bi2+  Bi94  1  0.72004659  0.89295084  0.26361673  1
  Bi2+  Bi95  1  0.77982062  0.90096211  0.77567392  1
  Bi2+  Bi96  1  0.13573645  -0.01800753  0.20125058  1
  Bi2+  Bi97  1  0.10114724  0.03710869  0.71110462  1
  Bi2+  Bi98  1  0.11473484  0.24669820  0.19759818  1
  Bi2+  Bi99  1  0.15050728  0.25125560  0.71458813  1
  Bi2+  Bi100  1  0.12936119  0.53259143  0.20164475  1
  Bi2+  Bi101  1  0.10376933  0.44004373  0.71535764  1
  Bi2+  Bi102  1  0.09277098  0.78883706  0.19670970  1
  Bi2+  Bi103  1  0.11781816  0.76656069  0.72302849  1
  Bi2+  Bi104  1  0.31661531  -0.03927569  0.25105758  1
  Bi2+  Bi105  1  0.29587336  0.02103349  0.70912545  1
  Bi2+  Bi106  1  0.48611637  0.26654892  0.28917215  1
  Bi2+  Bi107  1  0.36735645  0.29243296  0.70995479  1
  Bi2+  Bi108  1  0.41447717  0.53396092  0.20209407  1
  Bi2+  Bi109  1  0.32351247  0.49367748  0.71255402  1
  Bi2+  Bi110  1  0.36595630  0.78966930  0.20790480  1
  Bi2+  Bi111  1  0.34512619  0.74015939  0.70979617  1
  Bi2+  Bi112  1  0.57227354  -0.00633151  0.20731068  1
  Bi2+  Bi113  1  0.64192079  0.06647783  0.79470083  1
  Bi2+  Bi114  1  0.61247356  0.25766712  0.19991275  1
  Bi2+  Bi115  1  0.60288131  0.22015733  0.70204095  1
  Bi2+  Bi116  1  0.59105759  0.45272736  0.18034395  1
  Bi2+  Bi117  1  0.61907027  0.44403104  0.71656992  1
  Bi2+  Bi118  1  0.61050571  0.75327525  0.20223020  1
  Bi2+  Bi119  1  0.61268573  0.73973473  0.74193075  1
  Bi2+  Bi120  1  0.85126520  0.00902803  0.20949733  1
  Bi2+  Bi121  1  0.85258062  0.02574152  0.69632214  1
  Bi2+  Bi122  1  0.86333021  0.23910779  0.20582703  1
  Bi2+  Bi123  1  0.87287233  0.22030203  0.70989322  1
  Bi2+  Bi124  1  0.77349571  0.51067600  0.20241179  1
  Bi2+  Bi125  1  0.89418430  0.46572350  0.70455925  1
  Bi2+  Bi126  1  0.84123078  0.73953396  0.24704634  1
  Bi2+  Bi127  1  0.86948738  0.74464148  0.69540579  1
  S2-  S128  1  -0.00709333  0.16369200  0.15079067  1
  S2-  S129  1  -0.01117526  0.12016230  0.64834619  1
  S2-  S130  1  0.07703895  0.40373314  0.14237181  1
  S2-  S131  1  -0.01062541  0.38207459  0.64447631  1
  S2-  S132  1  0.01028738  0.64419709  0.16150259  1
  S2-  S133  1  -0.07151948  0.60356350  0.64570791  1
  S2-  S134  1  -0.11313288  0.90160973  0.13866579  1
  S2-  S135  1  0.00902584  0.83522529  0.65057504  1
  S2-  S136  1  0.25837207  0.21893754  0.14581880  1
  S2-  S137  1  0.25445830  0.22801666  0.63705142  1
  S2-  S138  1  0.23014057  0.38977297  0.21834782  1
  S2-  S139  1  0.20943814  0.47335541  0.63507659  1
  S2-  S140  1  0.26645037  0.55683157  0.14687756  1
  S2-  S141  1  0.21816336  0.71440326  0.64244144  1
  S2-  S142  1  0.24272758  0.77322089  0.13894044  1
  S2-  S143  1  0.34247041  0.87488609  0.65267802  1
  S2-  S144  1  0.51681966  0.13707547  0.15199627  1
  S2-  S145  1  0.49849669  0.10610317  0.66448601  1
  S2-  S146  1  0.42362985  0.39578999  0.14499372  1
  S2-  S147  1  0.50992520  0.35212025  0.65220879  1
  S2-  S148  1  0.47813113  0.68056368  0.15190097  1
  S2-  S149  1  0.47699070  0.67183577  0.64919212  1
  S2-  S150  1  0.39564664  0.91789163  0.14317378  1
  S2-  S151  1  0.55065977  0.87162907  0.69684090  1
  S2-  S152  1  0.75997669  0.14619042  0.15784066  1
  S2-  S153  1  0.74691717  0.23418328  0.64244231  1
  S2-  S154  1  0.84586119  0.38329030  0.14971755  1
  S2-  S155  1  0.75571346  0.45937169  0.64565475  1
  S2-  S156  1  0.71866363  0.65954389  0.14792069  1
  S2-  S157  1  0.72609554  0.68061396  0.67219765  1
  S2-  S158  1  0.64706087  0.89841929  0.13914247  1
  S2-  S159  1  0.77533207  0.88472100  0.66169270  1
  S2-  S160  1  0.13500685  0.04606851  0.35310859  1
  S2-  S161  1  0.13689592  -0.09145634  0.86083994  1
  S2-  S162  1  0.05216160  0.21491638  0.29709856  1
  S2-  S163  1  0.16852161  0.26763795  0.83858253  1
  S2-  S164  1  0.14819048  0.37903648  0.34286708  1
  S2-  S165  1  0.12933368  0.48844783  0.82562181  1
  S2-  S166  1  0.13965226  0.62325862  0.35315033  1
  S2-  S167  1  0.13547573  0.67545455  0.85597033  1
  S2-  S168  1  0.38439777  -0.01385138  0.35380082  1
  S2-  S169  1  0.37721883  -0.07735547  0.85594981  1
  S2-  S170  1  0.28476865  0.20883587  0.35084268  1
  S2-  S171  1  0.37965702  0.15563042  0.85655882  1
  S2-  S172  1  0.35887438  0.50540583  0.34762723  1
  S2-  S173  1  0.40063065  0.50874170  0.84171641  1
  S2-  S174  1  0.39144658  0.75199571  0.34733999  1
  S2-  S175  1  0.38424240  0.72390214  0.83326439  1
  S2-  S176  1  0.62957753  -0.01567888  0.36048290  1
  S2-  S177  1  0.62456863  -0.07801103  0.85742768  1
  S2-  S178  1  0.69676123  0.22723399  0.35322777  1
  S2-  S179  1  0.62963858  0.21784631  0.84394280  1
  S2-  S180  1  0.72304307  0.48104211  0.36226243  1
  S2-  S181  1  0.66923124  0.45818245  0.84886328  1
  S2-  S182  1  0.62433356  0.73854135  0.35464944  1
  S2-  S183  1  0.64262928  0.67228676  0.84548983  1
  S2-  S184  1  0.86124860  0.07156758  0.35334675  1
  S2-  S185  1  0.87923230  -0.09712790  0.85990831  1
  S2-  S186  1  0.86976504  0.30705177  0.30762659  1
  S2-  S187  1  0.85752954  0.27942675  0.84525775  1
  S2-  S188  1  0.96715450  0.49482294  0.34603377  1
  S2-  S189  1  0.90299624  0.48992818  0.82220578  1
  S2-  S190  1  0.84846277  0.68254472  0.35181624  1
  S2-  S191  1  0.88475942  0.67873805  0.85194564  1
  S2-  S192  1  -0.00199612  0.10780424  0.44717880  1
  S2-  S193  1  0.01202912  0.15563039  0.94813678  1
  S2-  S194  1  -0.01141273  0.34158127  0.43630379  1
  S2-  S195  1  0.01198512  0.41147002  0.94397354  1
  S2-  S196  1  -0.00826007  0.61333103  0.45146200  1
  S2-  S197  1  0.01001887  0.65598303  0.95460451  1
  S2-  S198  1  -0.00668500  0.85646696  0.44826344  1
  S2-  S199  1  0.00868526  0.90791047  0.96178559  1
  S2-  S200  1  0.24739568  0.10336453  0.46114238  1
  S2-  S201  1  0.25644446  0.15737134  0.95286976  1
  S2-  S202  1  0.24742740  0.35504316  0.45506290  1
  S2-  S203  1  0.26300366  0.40787556  0.93989047  1
  S2-  S204  1  0.24931984  0.60731194  0.45658527  1
  S2-  S205  1  0.26697262  0.65743680  0.95334173  1
  S2-  S206  1  0.24479790  0.85451124  0.45911755  1
  S2-  S207  1  0.26276259  0.90966582  0.96352554  1
  S2-  S208  1  0.49098008  0.10384126  0.45734550  1
  S2-  S209  1  0.51700946  0.15996158  0.95060262  1
  S2-  S210  1  0.49563233  0.35760794  0.44792690  1
  S2-  S211  1  0.50900406  0.40721701  0.94882363  1
  S2-  S212  1  0.49699097  0.60176192  0.45346577  1
  S2-  S213  1  0.50827571  0.65818592  0.94744900  1
  S2-  S214  1  0.49443355  0.85695947  0.46542639  1
  S2-  S215  1  0.51189674  0.90997681  0.96018644  1
  S2-  S216  1  0.74318674  0.10449024  0.46374677  1
  S2-  S217  1  0.76459351  0.15591488  0.95032921  1
  S2-  S218  1  0.74350147  0.35046389  0.45659100  1
  S2-  S219  1  0.76941902  0.41124476  0.95494954  1
  S2-  S220  1  0.74321948  0.61002915  0.46536972  1
  S2-  S221  1  0.76117840  0.65725920  0.95138902  1
  S2-  S222  1  0.74564077  0.85719942  0.45808958  1
  S2-  S223  1  0.76197887  0.90825731  0.96014243  1
  S2-  S224  1  0.13630802  0.02966217  0.04877292  1
  S2-  S225  1  0.12411568  -0.02136123  0.55207921  1
  S2-  S226  1  0.13835453  0.28321156  0.04190918  1
  S2-  S227  1  0.11948501  0.22508728  0.54389049  1
  S2-  S228  1  0.13794642  0.53000672  0.03624940  1
  S2-  S229  1  0.11584126  0.47966522  0.52869890  1
  S2-  S230  1  0.13149529  0.78492434  0.04261244  1
  S2-  S231  1  0.11649768  0.73143988  0.53734052  1
  S2-  S232  1  0.38834253  0.03573565  0.04129242  1
  S2-  S233  1  0.36592085  -0.01937183  0.55402372  1
  S2-  S234  1  0.38571540  0.27893180  0.03673634  1
  S2-  S235  1  0.37315206  0.22904225  0.54243923  1
  S2-  S236  1  0.38938304  0.53054873  0.04203403  1
  S2-  S237  1  0.37458214  0.47693549  0.54931678  1
  S2-  S238  1  0.39008781  0.78037201  0.03934108  1
  S2-  S239  1  0.37184419  0.72982645  0.54784955  1
  S2-  S240  1  0.64213491  0.03513619  0.04276424  1
  S2-  S241  1  0.62130867  -0.02170431  0.56520706  1
  S2-  S242  1  0.64000466  0.28361229  0.04513245  1
  S2-  S243  1  0.62019130  0.22768288  0.54639090  1
  S2-  S244  1  0.63895648  0.52744455  0.04060982  1
  S2-  S245  1  0.62145661  0.47917855  0.54675093  1
  S2-  S246  1  0.64214165  0.77973415  0.03692118  1
  S2-  S247  1  0.62227642  0.73186751  0.55862406  1
  S2-  S248  1  0.89080097  0.03623624  0.04053702  1
  S2-  S249  1  0.87358213  -0.02031951  0.54617273  1
  S2-  S250  1  0.89425564  0.28216036  0.04349789  1
  S2-  S251  1  0.87327921  0.22587788  0.54125252  1
  S2-  S252  1  0.89044459  0.52980889  0.04282002  1
  S2-  S253  1  0.87361194  0.47872700  0.53594232  1
  S2-  S254  1  0.88831075  0.77705196  0.04226660  1
  S2-  S255  1  0.87380907  0.73344038  0.54758737  1
