# generated using pymatgen
data_La12Ce14Pr13Nd13Sm12(BiS2)64
_symmetry_space_group_name_H-M   'P 1'
_cell_length_a   16.13221182
_cell_length_b   16.13694743
_cell_length_c   27.30550502
_cell_angle_alpha   89.81558376
_cell_angle_beta   89.85487388
_cell_angle_gamma   90.02863789
_symmetry_Int_Tables_number   1
_chemical_formula_structural   La12Ce14Pr13Nd13Sm12(BiS2)64
_chemical_formula_sum   'La12 Ce14 Pr13 Nd13 Sm12 Bi64 S128'
_cell_volume   7108.23560679
_cell_formula_units_Z   1
loop_
 _symmetry_equiv_pos_site_id
 _symmetry_equiv_pos_as_xyz
  1  'x, y, z'
loop_
 _atom_type_symbol
 _atom_type_oxidation_number
  La3+  3.0
  Ce3+  3.0
  Pr3+  3.0
  Nd3+  3.0
  Sm3+  3.0
  Bi2+  2.0
  S2-  -2.0
loop_
 _atom_site_type_symbol
 _atom_site_label
 _atom_site_symmetry_multiplicity
 _atom_site_fract_x
 _atom_site_fract_y
 _atom_site_fract_z
 _atom_site_occupancy
  La3+  La0  1  -0.02418127  0.61674654  0.06358864  1
  La3+  La1  1  0.22881181  0.61932313  0.07069403  1
  La3+  La2  1  0.85201853  -0.00098899  0.92802156  1
  La3+  La3  1  -0.00260528  0.61296310  0.58814479  1
  La3+  La4  1  0.10729074  0.24347295  0.41139946  1
  La3+  La5  1  0.85912307  0.74852531  0.89146296  1
  La3+  La6  1  0.63058857  0.50646132  0.41319636  1
  La3+  La7  1  0.24758287  0.86816249  0.56610998  1
  La3+  La8  1  0.24297957  0.13553082  0.11610114  1
  La3+  La9  1  0.34900035  0.24330628  0.93046618  1
  La3+  La10  1  0.35135293  -0.01522898  0.92016928  1
  La3+  La11  1  0.37758660  0.48385605  0.38951242  1
  Ce3+  Ce12  1  0.73072748  0.11871216  0.06437795  1
  Ce3+  Ce13  1  0.61091718  0.73542510  0.94033693  1
  Ce3+  Ce14  1  0.22948940  0.87736279  0.05734497  1
  Ce3+  Ce15  1  0.37193904  0.00325074  0.44043791  1
  Ce3+  Ce16  1  0.37153082  0.74842620  0.43087993  1
  Ce3+  Ce17  1  0.74664663  0.63007044  0.56838258  1
  Ce3+  Ce18  1  0.72810322  0.36597435  0.06102096  1
  Ce3+  Ce19  1  0.74673821  0.37556725  0.55913783  1
  Ce3+  Ce20  1  -0.00242164  0.86931207  0.56830025  1
  Ce3+  Ce21  1  0.47430471  0.11389455  0.04904881  1
  Ce3+  Ce22  1  0.62613964  -0.00092608  0.43685746  1
  Ce3+  Ce23  1  0.36983639  0.25011321  0.43946854  1
  Ce3+  Ce24  1  0.12417510  0.49850865  0.43370734  1
  Ce3+  Ce25  1  0.12256908  0.75235759  0.43789936  1
  Pr3+  Pr26  1  0.10264195  0.73894705  0.93911240  1
  Pr3+  Pr27  1  0.49656528  0.37612583  0.55727963  1
  Pr3+  Pr28  1  0.74428053  0.87269432  0.57255472  1
  Pr3+  Pr29  1  0.49769922  0.87156738  0.55620055  1
  Pr3+  Pr30  1  0.87327951  0.74995067  0.44467682  1
  Pr3+  Pr31  1  -0.00531166  0.37339609  0.55927364  1
  Pr3+  Pr32  1  0.48093797  0.86496382  0.06258255  1
  Pr3+  Pr33  1  -0.01996769  0.36138271  0.05607714  1
  Pr3+  Pr34  1  0.35575089  0.73826488  0.93630116  1
  Pr3+  Pr35  1  0.60700889  -0.00994497  0.93920623  1
  Pr3+  Pr36  1  0.24639536  0.12592153  0.56269163  1
  Pr3+  Pr37  1  -0.02105743  0.11725102  0.06441214  1
  Pr3+  Pr38  1  0.49710279  0.62043887  0.54464927  1
  Nd3+  Nd39  1  0.84646254  0.24333441  0.92929230  1
  Nd3+  Nd40  1  -0.00507433  0.12406162  0.56838564  1
  Nd3+  Nd41  1  0.10828114  0.24151223  0.93502561  1
  Nd3+  Nd42  1  0.87145521  0.00112272  0.45178438  1
  Nd3+  Nd43  1  0.48037237  0.62137350  0.07761126  1
  Nd3+  Nd44  1  0.87458748  0.50126882  0.43678824  1
  Nd3+  Nd45  1  0.59499645  0.24891799  0.93311748  1
  Nd3+  Nd46  1  0.62447601  0.75379691  0.42881993  1
  Nd3+  Nd47  1  0.12114855  -0.00413343  0.43880154  1
  Nd3+  Nd48  1  0.84984584  0.49329709  0.93414684  1
  Nd3+  Nd49  1  0.74442534  0.11789289  0.58140857  1
  Nd3+  Nd50  1  0.72920695  0.60983442  0.07291317  1
  Nd3+  Nd51  1  -0.02642118  0.86693565  0.05214152  1
  Sm3+  Sm52  1  0.10327991  -0.00747471  0.94094975  1
  Sm3+  Sm53  1  0.35578494  0.49476261  0.95579771  1
  Sm3+  Sm54  1  0.86090224  0.24767290  0.44001552  1
  Sm3+  Sm55  1  0.24569086  0.37410331  0.55133824  1
  Sm3+  Sm56  1  0.22809131  0.36292814  0.06027395  1
  Sm3+  Sm57  1  0.60333319  0.49547480  0.95178366  1
  Sm3+  Sm58  1  0.10118323  0.49476973  0.94818773  1
  Sm3+  Sm59  1  0.47595677  0.36163544  0.06701505  1
  Sm3+  Sm60  1  0.49519585  0.12406632  0.55872244  1
  Sm3+  Sm61  1  0.24823615  0.62004361  0.54936540  1
  Sm3+  Sm62  1  0.73063970  0.86399981  0.05290584  1
  Sm3+  Sm63  1  0.62273036  0.25076617  0.44642610  1
  Bi2+  Bi64  1  -0.03005244  0.11056233  0.29604636  1
  Bi2+  Bi65  1  0.01776841  0.18537335  0.80795163  1
  Bi2+  Bi66  1  0.00210441  0.48662433  0.31907889  1
  Bi2+  Bi67  1  0.05521078  0.37783531  0.81891917  1
  Bi2+  Bi68  1  0.02592055  0.67420761  0.29193068  1
  Bi2+  Bi69  1  0.02672189  0.62289767  0.79168762  1
  Bi2+  Bi70  1  -0.03317818  0.86168730  0.30516122  1
  Bi2+  Bi71  1  0.01971860  0.88017107  0.79718967  1
  Bi2+  Bi72  1  0.26516447  0.15795379  0.31661442  1
  Bi2+  Bi73  1  0.26356843  0.17277676  0.77910570  1
  Bi2+  Bi74  1  0.26509349  0.39128942  0.27782934  1
  Bi2+  Bi75  1  0.30954136  0.43636546  0.77616497  1
  Bi2+  Bi76  1  0.20973088  0.74960583  0.30901411  1
  Bi2+  Bi77  1  0.31366164  0.63631854  0.74991756  1
  Bi2+  Bi78  1  0.28118686  0.89840277  0.23949577  1
  Bi2+  Bi79  1  0.28275323  0.93146507  0.78297366  1
  Bi2+  Bi80  1  0.48117686  0.06642477  0.31060163  1
  Bi2+  Bi81  1  0.53841606  0.19955060  0.78911898  1
  Bi2+  Bi82  1  0.60395464  0.29817107  0.29794037  1
  Bi2+  Bi83  1  0.50221691  0.45454522  0.79979058  1
  Bi2+  Bi84  1  0.52637914  0.59203908  0.27173052  1
  Bi2+  Bi85  1  0.46762141  0.68024187  0.81771802  1
  Bi2+  Bi86  1  0.51504547  0.87190913  0.29157735  1
  Bi2+  Bi87  1  0.51920032  0.84919740  0.76382724  1
  Bi2+  Bi88  1  0.67660947  0.09925107  0.31174047  1
  Bi2+  Bi89  1  0.78830917  0.18160355  0.77411019  1
  Bi2+  Bi90  1  0.85675721  0.36283162  0.29348498  1
  Bi2+  Bi91  1  0.86224838  0.36776182  0.81222201  1
  Bi2+  Bi92  1  0.77019367  0.63030701  0.28814823  1
  Bi2+  Bi93  1  0.73366414  0.58557069  0.79805809  1
  Bi2+  Bi94  1  0.74521277  0.92338414  0.27836364  1
  Bi2+  Bi95  1  0.71311779  0.87806731  0.78916113  1
  Bi2+  Bi96  1  0.12496084  0.01504472  0.22219270  1
  Bi2+  Bi97  1  0.09086789  0.04260250  0.74152747  1
  Bi2+  Bi98  1  0.09205063  0.26740917  0.21107178  1
  Bi2+  Bi99  1  0.12755811  0.22110707  0.69850443  1
  Bi2+  Bi100  1  0.10320397  0.52048782  0.22268193  1
  Bi2+  Bi101  1  0.13950275  0.43179203  0.71947151  1
  Bi2+  Bi102  1  0.11200986  0.80033295  0.21355868  1
  Bi2+  Bi103  1  0.17154733  0.76242075  0.71230980  1
  Bi2+  Bi104  1  0.49660610  -0.02697034  0.19172835  1
  Bi2+  Bi105  1  0.42786580  0.03318110  0.70150969  1
  Bi2+  Bi106  1  0.49616999  0.19889278  0.22050714  1
  Bi2+  Bi107  1  0.35247768  0.29013594  0.70167822  1
  Bi2+  Bi108  1  0.36698486  0.48080388  0.18969876  1
  Bi2+  Bi109  1  0.46598989  0.50572947  0.69018989  1
  Bi2+  Bi110  1  0.37551353  0.73487867  0.22980038  1
  Bi2+  Bi111  1  0.38631903  0.77780199  0.68035905  1
  Bi2+  Bi112  1  0.66262498  0.07206392  0.19247777  1
  Bi2+  Bi113  1  0.64323194  0.05610425  0.73590260  1
  Bi2+  Bi114  1  0.67561747  0.26444088  0.17233045  1
  Bi2+  Bi115  1  0.64927850  0.29536229  0.71327347  1
  Bi2+  Bi116  1  0.69280399  0.42975447  0.23154675  1
  Bi2+  Bi117  1  0.66252580  0.48900463  0.70765044  1
  Bi2+  Bi118  1  0.61947563  0.80781958  0.19979710  1
  Bi2+  Bi119  1  0.60345518  0.67916795  0.73027573  1
  Bi2+  Bi120  1  0.89637691  -0.01093864  0.21402576  1
  Bi2+  Bi121  1  0.86994609  0.00924646  0.71224730  1
  Bi2+  Bi122  1  0.83269079  0.19207188  0.22982454  1
  Bi2+  Bi123  1  0.93740080  0.27051525  0.70790703  1
  Bi2+  Bi124  1  0.91265302  0.47283928  0.20357346  1
  Bi2+  Bi125  1  0.88534387  0.47226253  0.71403307  1
  Bi2+  Bi126  1  0.85859495  0.76101564  0.18437774  1
  Bi2+  Bi127  1  0.86975841  0.75398564  0.69068212  1
  S2-  S128  1  0.07489187  0.12647231  0.15116522  1
  S2-  S129  1  -0.11552088  0.13724874  0.64690752  1
  S2-  S130  1  -0.02902757  0.32865515  0.15515175  1
  S2-  S131  1  0.01727126  0.46288248  0.64562743  1
  S2-  S132  1  -0.03858158  0.62946875  0.16337648  1
  S2-  S133  1  0.03895902  0.69009438  0.67810564  1
  S2-  S134  1  -0.01355251  0.87486102  0.15224245  1
  S2-  S135  1  -0.03340887  0.89985387  0.66401803  1
  S2-  S136  1  0.24986496  0.13331958  0.22498935  1
  S2-  S137  1  0.32766026  0.12592207  0.65306425  1
  S2-  S138  1  0.21679187  0.30646906  0.15257565  1
  S2-  S139  1  0.26155462  0.40673930  0.64811601  1
  S2-  S140  1  0.22961721  0.59446203  0.17032532  1
  S2-  S141  1  0.25758844  0.65720944  0.64590148  1
  S2-  S142  1  0.23859832  0.95954705  0.14199770  1
  S2-  S143  1  0.25214781  0.89913816  0.66567066  1
  S2-  S144  1  0.41633114  0.11039508  0.14121634  1
  S2-  S145  1  0.54656830  0.11399271  0.65218410  1
  S2-  S146  1  0.44610411  0.34414629  0.16397372  1
  S2-  S147  1  0.49935796  0.33579235  0.65609580  1
  S2-  S148  1  0.50980330  0.54993538  0.16984922  1
  S2-  S149  1  0.50118096  0.65651690  0.64351817  1
  S2-  S150  1  0.46705867  0.75677032  0.14583138  1
  S2-  S151  1  0.50794521  0.89186572  0.65657427  1
  S2-  S152  1  0.85156043  0.10739385  0.13664372  1
  S2-  S153  1  0.73426017  -0.01174627  0.65180880  1
  S2-  S154  1  0.75202267  0.46928869  0.14001543  1
  S2-  S155  1  0.77846967  0.35065740  0.65445793  1
  S2-  S156  1  0.72244270  0.67665200  0.16877547  1
  S2-  S157  1  0.84756636  0.59770554  0.64948954  1
  S2-  S158  1  0.75180731  0.88469031  0.14983093  1
  S2-  S159  1  0.72253356  0.75514899  0.64603092  1
  S2-  S160  1  0.11491405  0.09261123  0.35526109  1
  S2-  S161  1  0.14051656  -0.01719466  0.84252187  1
  S2-  S162  1  0.14832391  0.29172694  0.31164130  1
  S2-  S163  1  0.22319534  0.26172431  0.85604383  1
  S2-  S164  1  0.20966198  0.49522310  0.35001069  1
  S2-  S165  1  0.12006006  0.53039680  0.85239619  1
  S2-  S166  1  0.11206130  0.87038352  0.36405997  1
  S2-  S167  1  0.10891955  0.74910716  0.83764162  1
  S2-  S168  1  0.32849538  0.00219850  0.34593800  1
  S2-  S169  1  0.37340400  0.05572798  0.82468699  1
  S2-  S170  1  0.36478276  0.31297112  0.34789740  1
  S2-  S171  1  0.46821040  0.28445608  0.85815030  1
  S2-  S172  1  0.37350525  0.54522725  0.28912460  1
  S2-  S173  1  0.36919886  0.52831731  0.86069387  1
  S2-  S174  1  0.41320272  0.75275398  0.33476469  1
  S2-  S175  1  0.34424645  0.84288885  0.85386774  1
  S2-  S176  1  0.65195299  -0.11554129  0.36081634  1
  S2-  S177  1  0.64829997  -0.00159147  0.84061084  1
  S2-  S178  1  0.72548166  0.23884439  0.36727981  1
  S2-  S179  1  0.68002633  0.24198388  0.84619335  1
  S2-  S180  1  0.53568274  0.45704554  0.33390200  1
  S2-  S181  1  0.63846485  0.48105486  0.85506242  1
  S2-  S182  1  0.63722982  0.65521679  0.34480798  1
  S2-  S183  1  0.69635604  0.73476624  0.85352304  1
  S2-  S184  1  0.87846128  -0.01323337  0.35255266  1
  S2-  S185  1  0.86582264  -0.09014415  0.84124801  1
  S2-  S186  1  0.95020954  0.24438934  0.35624745  1
  S2-  S187  1  0.87393326  0.12558925  0.85705533  1
  S2-  S188  1  0.77873483  0.49537840  0.35229717  1
  S2-  S189  1  0.88626343  0.58473554  0.85166588  1
  S2-  S190  1  0.84842048  0.73400282  0.34378557  1
  S2-  S191  1  0.91015564  0.74716361  0.78704733  1
  S2-  S192  1  -0.00566318  0.12473097  0.46312471  1
  S2-  S193  1  -0.01478128  0.11979939  0.95628533  1
  S2-  S194  1  -0.00597054  0.37283085  0.45291991  1
  S2-  S195  1  -0.02067302  0.36728252  0.94894942  1
  S2-  S196  1  -0.00028223  0.62504373  0.44616048  1
  S2-  S197  1  -0.02195942  0.61864781  0.95683557  1
  S2-  S198  1  -0.00513815  0.87580224  0.46362716  1
  S2-  S199  1  -0.02229264  0.86344164  0.94664345  1
  S2-  S200  1  0.24270217  0.12704390  0.45652574  1
  S2-  S201  1  0.22704771  0.11038116  0.94392301  1
  S2-  S202  1  0.23797008  0.36526585  0.44898339  1
  S2-  S203  1  0.22859586  0.37732785  0.95713732  1
  S2-  S204  1  0.24911136  0.62536573  0.44547530  1
  S2-  S205  1  0.22857724  0.61570222  0.96154063  1
  S2-  S206  1  0.25087183  0.87508214  0.45792520  1
  S2-  S207  1  0.22409756  0.86444967  0.95318272  1
  S2-  S208  1  0.50023423  0.12710461  0.45182797  1
  S2-  S209  1  0.47909887  0.11368377  0.94381459  1
  S2-  S210  1  0.50069156  0.37414319  0.45039249  1
  S2-  S211  1  0.47715396  0.37465835  0.96299671  1
  S2-  S212  1  0.49101273  0.61783789  0.43907032  1
  S2-  S213  1  0.47993010  0.61745013  0.96661156  1
  S2-  S214  1  0.49435663  0.87657511  0.44961363  1
  S2-  S215  1  0.48654342  0.86012589  0.95222330  1
  S2-  S216  1  0.74607082  0.12191078  0.46839744  1
  S2-  S217  1  0.72337892  0.12250951  0.95591372  1
  S2-  S218  1  0.74476660  0.37785623  0.45567630  1
  S2-  S219  1  0.72581368  0.36904201  0.95506257  1
  S2-  S220  1  0.74714251  0.62687848  0.45770159  1
  S2-  S221  1  0.73049035  0.61256648  0.96250800  1
  S2-  S222  1  0.75060241  0.87452918  0.46436999  1
  S2-  S223  1  0.73383914  0.86311171  0.94977444  1
  S2-  S224  1  0.09751899  -0.01035495  0.04354327  1
  S2-  S225  1  0.12131548  -0.00031908  0.55397351  1
  S2-  S226  1  0.10916520  0.24101073  0.04031637  1
  S2-  S227  1  0.12072233  0.25018226  0.55469035  1
  S2-  S228  1  0.10450569  0.48941741  0.05485007  1
  S2-  S229  1  0.12421939  0.49935566  0.54099224  1
  S2-  S230  1  0.10370575  0.74507167  0.05030385  1
  S2-  S231  1  0.12057890  0.74251259  0.54684511  1
  S2-  S232  1  0.36144416  -0.01549968  0.03215650  1
  S2-  S233  1  0.37294019  -0.00066509  0.54721099  1
  S2-  S234  1  0.35034219  0.24194250  0.04333190  1
  S2-  S235  1  0.37213364  0.25009221  0.54516180  1
  S2-  S236  1  0.35409377  0.49006450  0.05972506  1
  S2-  S237  1  0.36870254  0.49737249  0.54357093  1
  S2-  S238  1  0.34978806  0.74350393  0.04484933  1
  S2-  S239  1  0.37151688  0.74655071  0.53820678  1
  S2-  S240  1  0.60620767  -0.01027612  0.04670186  1
  S2-  S241  1  0.61828935  0.00090804  0.54430075  1
  S2-  S242  1  0.59844303  0.24129380  0.04350851  1
  S2-  S243  1  0.62312841  0.24598335  0.55023171  1
  S2-  S244  1  0.59687107  0.48890063  0.05468563  1
  S2-  S245  1  0.62393747  0.49936653  0.55079609  1
  S2-  S246  1  0.60832894  0.73896271  0.04733590  1
  S2-  S247  1  0.61995509  0.74821243  0.53582333  1
  S2-  S248  1  0.85041926  -0.01074730  0.03679611  1
  S2-  S249  1  0.87381290  -0.00401737  0.55432175  1
  S2-  S250  1  0.85079542  0.24417529  0.03798616  1
  S2-  S251  1  0.86953575  0.24871830  0.54499828  1
  S2-  S252  1  0.85786897  0.48877511  0.04030224  1
  S2-  S253  1  0.87260449  0.49934952  0.54179626  1
  S2-  S254  1  0.84998285  0.73944083  0.05298940  1
  S2-  S255  1  0.87892541  0.74494623  0.55068522  1
