# generated using pymatgen
data_La12Ce14Pr13Nd13Sm12(BiS2)64
_symmetry_space_group_name_H-M   'P 1'
_cell_length_a   16.10984023
_cell_length_b   16.13901564
_cell_length_c   27.21064799
_cell_angle_alpha   89.99656757
_cell_angle_beta   90.02835936
_cell_angle_gamma   89.85847214
_symmetry_Int_Tables_number   1
_chemical_formula_structural   La12Ce14Pr13Nd13Sm12(BiS2)64
_chemical_formula_sum   'La12 Ce14 Pr13 Nd13 Sm12 Bi64 S128'
_cell_volume   7074.66338579
_cell_formula_units_Z   1
loop_
 _symmetry_equiv_pos_site_id
 _symmetry_equiv_pos_as_xyz
  1  'x, y, z'
loop_
 _atom_type_symbol
 _atom_type_oxidation_number
  La3+  3.0
  Ce3+  3.0
  Pr3+  3.0
  Nd3+  3.0
  Sm3+  3.0
  Bi2+  2.0
  S2-  -2.0
loop_
 _atom_site_type_symbol
 _atom_site_label
 _atom_site_symmetry_multiplicity
 _atom_site_fract_x
 _atom_site_fract_y
 _atom_site_fract_z
 _atom_site_occupancy
  La3+  La0  1  0.00268191  0.62954338  0.55857360  1
  La3+  La1  1  0.50435214  0.11172106  0.10382857  1
  La3+  La2  1  0.64150996  0.49822673  0.93353220  1
  La3+  La3  1  0.64243819  0.24395488  0.93167376  1
  La3+  La4  1  0.39354712  0.01545201  0.88532008  1
  La3+  La5  1  0.75673381  0.62311992  0.59001365  1
  La3+  La6  1  0.36936856  0.25507136  0.42619573  1
  La3+  La7  1  0.64320978  0.74896629  0.92763375  1
  La3+  La8  1  0.13546222  0.50930071  0.40238094  1
  La3+  La9  1  0.75220831  0.37752213  0.07701507  1
  La3+  La10  1  0.37449584  0.00167722  0.42244263  1
  La3+  La11  1  0.38026924  0.74954008  0.92394614  1
  Ce3+  Ce12  1  0.50867289  0.62645170  0.05878177  1
  Ce3+  Ce13  1  -0.00107967  0.87886496  0.54763495  1
  Ce3+  Ce14  1  0.76223300  0.62307460  0.06378110  1
  Ce3+  Ce15  1  0.01161555  0.37631530  0.06067835  1
  Ce3+  Ce16  1  0.14182446  -0.00231116  0.94030193  1
  Ce3+  Ce17  1  0.25119194  0.37426971  0.56480337  1
  Ce3+  Ce18  1  0.88745936  0.24908850  0.94174970  1
  Ce3+  Ce19  1  0.26668411  0.12433610  0.05868432  1
  Ce3+  Ce20  1  0.13936728  0.24763395  0.94322374  1
  Ce3+  Ce21  1  0.02178592  0.62786274  0.08161653  1
  Ce3+  Ce22  1  0.26635729  0.37053112  0.05924437  1
  Ce3+  Ce23  1  0.49852434  0.13117474  0.55137291  1
  Ce3+  Ce24  1  0.87149419  0.74733249  0.43375111  1
  Ce3+  Ce25  1  0.87750485  0.26308907  0.43465574  1
  Pr3+  Pr26  1  0.01018329  0.12457064  0.06468525  1
  Pr3+  Pr27  1  0.24990082  0.12111562  0.56294687  1
  Pr3+  Pr28  1  0.37502048  0.50716127  0.44574687  1
  Pr3+  Pr29  1  0.00996904  0.37818399  0.56379391  1
  Pr3+  Pr30  1  0.01471428  0.87468503  0.06071057  1
  Pr3+  Pr31  1  0.12871931  0.75837884  0.43266952  1
  Pr3+  Pr32  1  0.62285161  0.26184490  0.42106548  1
  Pr3+  Pr33  1  0.26939887  0.61996993  0.07246898  1
  Pr3+  Pr34  1  0.75112327  0.88090841  0.56581770  1
  Pr3+  Pr35  1  0.64170438  -0.00008648  0.93340523  1
  Pr3+  Pr36  1  0.27160537  0.87934863  0.06002110  1
  Pr3+  Pr37  1  0.74921511  0.13289737  0.55759899  1
  Pr3+  Pr38  1  0.25592560  0.87336819  0.57602003  1
  Nd3+  Nd39  1  0.76170957  0.87509150  0.05872210  1
  Nd3+  Nd40  1  0.37733231  0.75588838  0.44589488  1
  Nd3+  Nd41  1  0.62365261  0.00346860  0.43015976  1
  Nd3+  Nd42  1  0.76045333  0.37474139  0.57572129  1
  Nd3+  Nd43  1  0.39211671  0.24686301  0.93904373  1
  Nd3+  Nd44  1  0.89054795  -0.00216039  0.93223759  1
  Nd3+  Nd45  1  0.63217002  0.50356087  0.44272828  1
  Nd3+  Nd46  1  0.50650194  0.88697228  0.57302992  1
  Nd3+  Nd47  1  0.86897919  0.01470851  0.42303272  1
  Nd3+  Nd48  1  0.76500819  0.12433887  0.06768569  1
  Nd3+  Nd49  1  0.87625360  0.50320284  0.43796828  1
  Nd3+  Nd50  1  0.12419190  0.25540847  0.43754553  1
  Nd3+  Nd51  1  0.38629836  0.50155319  0.93406070  1
  Sm3+  Sm52  1  0.50423986  0.62810785  0.56058742  1
  Sm3+  Sm53  1  0.00126907  0.12664544  0.55281484  1
  Sm3+  Sm54  1  0.13994798  0.74520595  0.94629808  1
  Sm3+  Sm55  1  0.50344109  0.37788364  0.55818085  1
  Sm3+  Sm56  1  0.89033605  0.50021235  0.94761435  1
  Sm3+  Sm57  1  0.51397322  0.87933733  0.04813307  1
  Sm3+  Sm58  1  0.51609565  0.36967463  0.05384164  1
  Sm3+  Sm59  1  0.12709962  0.00253137  0.43543772  1
  Sm3+  Sm60  1  0.89162306  0.74539449  0.94846707  1
  Sm3+  Sm61  1  0.62935223  0.75536686  0.45260435  1
  Sm3+  Sm62  1  0.13882750  0.49817861  0.94823646  1
  Sm3+  Sm63  1  0.25362887  0.63162302  0.56413469  1
  Bi2+  Bi64  1  0.04772517  0.06783690  0.30932699  1
  Bi2+  Bi65  1  -0.05982770  0.11898081  0.80125580  1
  Bi2+  Bi66  1  0.01998516  0.32513613  0.29990918  1
  Bi2+  Bi67  1  0.03554460  0.38516995  0.73943587  1
  Bi2+  Bi68  1  -0.06627225  0.69874197  0.28384760  1
  Bi2+  Bi69  1  -0.01121173  0.59098178  0.80104511  1
  Bi2+  Bi70  1  -0.02255510  0.88464785  0.31352518  1
  Bi2+  Bi71  1  0.01985393  0.94178850  0.82706781  1
  Bi2+  Bi72  1  0.22702291  0.13700487  0.27394597  1
  Bi2+  Bi73  1  0.13692929  0.10222074  0.78327998  1
  Bi2+  Bi74  1  0.28016068  0.37953600  0.28027017  1
  Bi2+  Bi75  1  0.20304166  0.36844173  0.80118894  1
  Bi2+  Bi76  1  0.28509622  0.64128161  0.29448383  1
  Bi2+  Bi77  1  0.24850828  0.61023671  0.79436787  1
  Bi2+  Bi78  1  0.19688737  0.84029058  0.30505324  1
  Bi2+  Bi79  1  0.26958180  0.87155259  0.78351077  1
  Bi2+  Bi80  1  0.48890513  0.13041725  0.29634809  1
  Bi2+  Bi81  1  0.49412692  0.17680755  0.78577030  1
  Bi2+  Bi82  1  0.51979437  0.41056582  0.29122812  1
  Bi2+  Bi83  1  0.39379079  0.39544518  0.81698549  1
  Bi2+  Bi84  1  0.49844842  0.60528382  0.29651744  1
  Bi2+  Bi85  1  0.48827656  0.55083776  0.77587292  1
  Bi2+  Bi86  1  0.53497452  0.85361646  0.28334366  1
  Bi2+  Bi87  1  0.52529599  0.90658926  0.77365629  1
  Bi2+  Bi88  1  0.77735449  0.05676917  0.26902420  1
  Bi2+  Bi89  1  0.71531102  0.12417184  0.80198946  1
  Bi2+  Bi90  1  0.76663927  0.29388536  0.30848969  1
  Bi2+  Bi91  1  0.85967286  0.35460346  0.79070764  1
  Bi2+  Bi92  1  0.70765569  0.61849982  0.29609517  1
  Bi2+  Bi93  1  0.73487589  0.66196318  0.79384561  1
  Bi2+  Bi94  1  0.78295782  0.82671818  0.31189685  1
  Bi2+  Bi95  1  0.84078749  0.88226388  0.78573983  1
  Bi2+  Bi96  1  0.12284624  -0.00723357  0.21069327  1
  Bi2+  Bi97  1  0.08123572  -0.04159453  0.70942104  1
  Bi2+  Bi98  1  0.10091349  0.18086918  0.18435914  1
  Bi2+  Bi99  1  0.16957217  0.22369167  0.69444027  1
  Bi2+  Bi100  1  0.10762454  0.50357359  0.20638583  1
  Bi2+  Bi101  1  0.10768637  0.56828422  0.71072163  1
  Bi2+  Bi102  1  0.09873346  0.74998273  0.22472450  1
  Bi2+  Bi103  1  0.09255254  0.77181651  0.77549587  1
  Bi2+  Bi104  1  0.37156026  -0.03346166  0.21038823  1
  Bi2+  Bi105  1  0.37370694  0.03512910  0.67730778  1
  Bi2+  Bi106  1  0.27521335  0.26951435  0.18881300  1
  Bi2+  Bi107  1  0.39245958  0.32754784  0.70900656  1
  Bi2+  Bi108  1  0.38835173  0.50488578  0.21581199  1
  Bi2+  Bi109  1  0.29281029  0.49669673  0.70326266  1
  Bi2+  Bi110  1  0.39672496  0.76893011  0.21395492  1
  Bi2+  Bi111  1  0.35024121  0.72036495  0.70157927  1
  Bi2+  Bi112  1  0.63122100  -0.02784522  0.21407205  1
  Bi2+  Bi113  1  0.67270012  0.03180964  0.70270905  1
  Bi2+  Bi114  1  0.64411842  0.24793712  0.20746185  1
  Bi2+  Bi115  1  0.64490881  0.24522165  0.72004931  1
  Bi2+  Bi116  1  0.62586315  0.50515580  0.20987236  1
  Bi2+  Bi117  1  0.63069135  0.43735598  0.73645243  1
  Bi2+  Bi118  1  0.58581856  0.70727649  0.19833642  1
  Bi2+  Bi119  1  0.57854670  0.75731188  0.70694351  1
  Bi2+  Bi120  1  0.91475481  -0.03872140  0.20028765  1
  Bi2+  Bi121  1  0.86788855  0.01736197  0.70237589  1
  Bi2+  Bi122  1  0.92072744  0.17942167  0.23743098  1
  Bi2+  Bi123  1  0.89770955  0.21831253  0.70293986  1
  Bi2+  Bi124  1  0.87525280  0.43825977  0.20432782  1
  Bi2+  Bi125  1  0.85998378  0.49803492  0.71211171  1
  Bi2+  Bi126  1  0.78104609  0.73379996  0.20837177  1
  Bi2+  Bi127  1  0.92432018  0.75278088  0.71525639  1
  S2-  S128  1  -0.10639251  0.10317928  0.14097828  1
  S2-  S129  1  0.03349826  0.15068346  0.64936859  1
  S2-  S130  1  0.01944456  0.37678680  0.16021148  1
  S2-  S131  1  -0.09361538  0.37985425  0.64583399  1
  S2-  S132  1  -0.03473916  0.58074696  0.17243311  1
  S2-  S133  1  -0.08531361  0.62793565  0.64683695  1
  S2-  S134  1  0.01305610  0.82754761  0.15740598  1
  S2-  S135  1  0.00328668  0.85141305  0.64459869  1
  S2-  S136  1  0.33387749  0.08982607  0.14755785  1
  S2-  S137  1  0.32565741  0.19690438  0.64592947  1
  S2-  S138  1  0.25871937  0.43561661  0.15022082  1
  S2-  S139  1  0.13963660  0.35876515  0.64160102  1
  S2-  S140  1  0.15998788  0.63695565  0.15226347  1
  S2-  S141  1  0.22484670  0.73556178  0.64299699  1
  S2-  S142  1  0.27532403  0.85153738  0.16122636  1
  S2-  S143  1  0.21722342  1.00227595  0.64322709  1
  S2-  S144  1  0.49258792  0.19354160  0.20115744  1
  S2-  S145  1  0.53024387  0.07777515  0.64383668  1
  S2-  S146  1  0.59049735  0.37312731  0.14269843  1
  S2-  S147  1  0.53121170  0.36778388  0.65670902  1
  S2-  S148  1  0.40455312  0.62578559  0.13952778  1
  S2-  S149  1  0.49359315  0.63135084  0.65971389  1
  S2-  S150  1  0.50956662  0.94305867  0.14340963  1
  S2-  S151  1  0.39785953  0.86855565  0.65273951  1
  S2-  S152  1  0.66370584  0.11489627  0.14978598  1
  S2-  S153  1  0.74824897  0.23511945  0.64102386  1
  S2-  S154  1  0.80222752  0.30941166  0.16845879  1
  S2-  S155  1  0.72022644  0.48488732  0.65444180  1
  S2-  S156  1  0.76043567  0.52226093  0.14422228  1
  S2-  S157  1  0.72144910  0.69128847  0.68860692  1
  S2-  S158  1  0.76279905  0.89290547  0.15834573  1
  S2-  S159  1  0.64173341  0.88506422  0.64588073  1
  S2-  S160  1  0.23146718  -0.03273390  0.35994712  1
  S2-  S161  1  0.22160621  -0.00600399  0.85254335  1
  S2-  S162  1  0.17498723  0.28380569  0.34260845  1
  S2-  S163  1  0.11066653  0.24360778  0.84686911  1
  S2-  S164  1  0.06787591  0.47787950  0.30628922  1
  S2-  S165  1  0.12870798  0.51328508  0.85001210  1
  S2-  S166  1  0.14255992  0.66317562  0.34806955  1
  S2-  S167  1  0.21494141  0.74780102  0.85697565  1
  S2-  S168  1  0.35178639  0.13269249  0.34728503  1
  S2-  S169  1  0.38003430  0.00567196  0.77174148  1
  S2-  S170  1  0.47638986  0.28366995  0.34688114  1
  S2-  S171  1  0.36550131  0.18138092  0.84750412  1
  S2-  S172  1  0.29648761  0.49369534  0.35471417  1
  S2-  S173  1  0.39632718  0.61256772  0.85462847  1
  S2-  S174  1  0.34905393  0.77334142  0.34755816  1
  S2-  S175  1  0.40741907  0.84792617  0.84069429  1
  S2-  S176  1  0.50722026  -0.01904639  0.35183669  1
  S2-  S177  1  0.55706220  0.01932810  0.84103977  1
  S2-  S178  1  0.65290897  0.17997007  0.32871778  1
  S2-  S179  1  0.56720480  0.28545715  0.83926823  1
  S2-  S180  1  0.65988478  0.40715096  0.35851488  1
  S2-  S181  1  0.63618195  0.53353427  0.83405507  1
  S2-  S182  1  0.63323831  0.75543731  0.35344964  1
  S2-  S183  1  0.62475110  0.77144600  0.82587212  1
  S2-  S184  1  0.74171680  -0.02008649  0.35585465  1
  S2-  S185  1  0.77002242  -0.00784350  0.85801336  1
  S2-  S186  1  0.87247540  0.15779367  0.35596160  1
  S2-  S187  1  0.78267718  0.25594878  0.86239208  1
  S2-  S188  1  0.88639779  0.38506673  0.35947928  1
  S2-  S189  1  0.86535720  0.50512978  0.84925968  1
  S2-  S190  1  0.85454319  0.62017981  0.36111684  1
  S2-  S191  1  0.84303313  0.74125992  0.85291908  1
  S2-  S192  1  0.00461315  0.12717573  0.44927423  1
  S2-  S193  1  0.01314507  0.12276398  0.95514125  1
  S2-  S194  1  0.01492271  0.38969917  0.45496842  1
  S2-  S195  1  0.01316404  0.37579798  0.95211826  1
  S2-  S196  1  0.00693182  0.62693786  0.45062551  1
  S2-  S197  1  0.01578974  0.62305460  0.96060041  1
  S2-  S198  1  -0.00492941  0.88165662  0.44252197  1
  S2-  S199  1  0.01488796  0.86853073  0.95376675  1
  S2-  S200  1  0.24501368  0.12777825  0.45473042  1
  S2-  S201  1  0.26311370  0.12502412  0.95467063  1
  S2-  S202  1  0.24660099  0.38348198  0.45662411  1
  S2-  S203  1  0.26374707  0.37388955  0.95212879  1
  S2-  S204  1  0.25131887  0.63160788  0.45954311  1
  S2-  S205  1  0.26040383  0.61955204  0.96224446  1
  S2-  S206  1  0.25249007  0.87567856  0.46456843  1
  S2-  S207  1  0.25926376  0.87210120  0.95563937  1
  S2-  S208  1  0.50117590  0.13251223  0.44773039  1
  S2-  S209  1  0.51305019  0.12444091  0.94336359  1
  S2-  S210  1  0.50033203  0.38590883  0.45452088  1
  S2-  S211  1  0.51308713  0.37625166  0.95040919  1
  S2-  S212  1  0.50498611  0.62991513  0.45433036  1
  S2-  S213  1  0.51675788  0.62548774  0.95210212  1
  S2-  S214  1  0.50410296  0.87520167  0.46133026  1
  S2-  S215  1  0.51820495  0.87297833  0.94592047  1
  S2-  S216  1  0.74627380  0.13489931  0.45279982  1
  S2-  S217  1  0.77041131  0.12122778  0.96057481  1
  S2-  S218  1  0.75244701  0.37977928  0.46638453  1
  S2-  S219  1  0.76608353  0.37940501  0.96187441  1
  S2-  S220  1  0.74764493  0.62923400  0.46502428  1
  S2-  S221  1  0.76645310  0.62398512  0.95700640  1
  S2-  S222  1  0.75280110  0.87718128  0.45952217  1
  S2-  S223  1  0.76868402  0.86856108  0.95446500  1
  S2-  S224  1  0.13856054  0.00099338  0.05053023  1
  S2-  S225  1  0.12028376  0.00081150  0.53837946  1
  S2-  S226  1  0.13767182  0.24982609  0.04942153  1
  S2-  S227  1  0.12764787  0.24642942  0.54114024  1
  S2-  S228  1  0.13855064  0.49689243  0.05092142  1
  S2-  S229  1  0.13337969  0.51038262  0.55506436  1
  S2-  S230  1  0.14338506  0.75230755  0.04924133  1
  S2-  S231  1  0.12487521  0.75495235  0.53949225  1
  S2-  S232  1  0.39336531  0.00172513  0.04263763  1
  S2-  S233  1  0.37931208  0.00192911  0.54036623  1
  S2-  S234  1  0.39581949  0.24581021  0.04938494  1
  S2-  S235  1  0.37776363  0.25927011  0.53642041  1
  S2-  S236  1  0.39182749  0.49282280  0.04102626  1
  S2-  S237  1  0.37727587  0.50500536  0.55325518  1
  S2-  S238  1  0.39188468  0.75385382  0.03825133  1
  S2-  S239  1  0.38383467  0.74975110  0.54964655  1
  S2-  S240  1  0.63955139  -0.00103926  0.04171029  1
  S2-  S241  1  0.62849229  0.00629115  0.53786220  1
  S2-  S242  1  0.63751814  0.24580872  0.04230902  1
  S2-  S243  1  0.62083419  0.25575552  0.54048638  1
  S2-  S244  1  0.63160066  0.50359216  0.04189142  1
  S2-  S245  1  0.62275365  0.50341014  0.54844145  1
  S2-  S246  1  0.63730009  0.75073139  0.04458703  1
  S2-  S247  1  0.62863782  0.74799385  0.55563576  1
  S2-  S248  1  0.88917538  -0.00571172  0.03912045  1
  S2-  S249  1  0.87448782  0.00662212  0.54166111  1
  S2-  S250  1  0.88759934  0.25385263  0.04725523  1
  S2-  S251  1  0.88427456  0.25082773  0.54110700  1
  S2-  S252  1  0.89320384  0.50424195  0.05047479  1
  S2-  S253  1  0.87680279  0.50335391  0.54436358  1
  S2-  S254  1  0.88876501  0.74740535  0.05378824  1
  S2-  S255  1  0.87225184  0.75479784  0.54392357  1
