# generated using pymatgen
data_La12Ce14Pr13Nd13Sm12(BiS2)64
_symmetry_space_group_name_H-M   'P 1'
_cell_length_a   16.12571887
_cell_length_b   16.08266944
_cell_length_c   27.29124428
_cell_angle_alpha   90.21051999
_cell_angle_beta   90.13534556
_cell_angle_gamma   90.12787356
_symmetry_Int_Tables_number   1
_chemical_formula_structural   La12Ce14Pr13Nd13Sm12(BiS2)64
_chemical_formula_sum   'La12 Ce14 Pr13 Nd13 Sm12 Bi64 S128'
_cell_volume   7077.75170673
_cell_formula_units_Z   1
loop_
 _symmetry_equiv_pos_site_id
 _symmetry_equiv_pos_as_xyz
  1  'x, y, z'
loop_
 _atom_type_symbol
 _atom_type_oxidation_number
  La3+  3.0
  Ce3+  3.0
  Pr3+  3.0
  Nd3+  3.0
  Sm3+  3.0
  Bi2+  2.0
  S2-  -2.0
loop_
 _atom_site_type_symbol
 _atom_site_label
 _atom_site_symmetry_multiplicity
 _atom_site_fract_x
 _atom_site_fract_y
 _atom_site_fract_z
 _atom_site_occupancy
  La3+  La0  1  0.26219165  0.62521640  0.59879444  1
  La3+  La1  1  0.74997302  0.61618204  0.58102340  1
  La3+  La2  1  0.12498102  0.50415206  0.90619649  1
  La3+  La3  1  0.87815370  0.49792767  0.43070685  1
  La3+  La4  1  0.23857059  0.14258543  0.10528913  1
  La3+  La5  1  0.85814431  0.76612706  0.91041846  1
  La3+  La6  1  -0.00509247  0.40185564  0.05831108  1
  La3+  La7  1  0.85327994  0.50599777  0.90816287  1
  La3+  La8  1  0.62830806  0.49549976  0.40748254  1
  La3+  La9  1  0.75043469  0.64143047  0.08743194  1
  La3+  La10  1  0.13420710  0.49742564  0.39410742  1
  La3+  La11  1  0.23512143  0.88543565  0.06534674  1
  Ce3+  Ce12  1  0.62736844  0.24430306  0.43113079  1
  Ce3+  Ce13  1  0.12781488  -0.00328594  0.43781174  1
  Ce3+  Ce14  1  0.49292633  0.39298547  0.06028086  1
  Ce3+  Ce15  1  0.50261053  0.86965899  0.55396556  1
  Ce3+  Ce16  1  0.00780607  0.37711458  0.55489821  1
  Ce3+  Ce17  1  0.50078476  0.62061465  0.55564874  1
  Ce3+  Ce18  1  0.12561751  0.73842979  0.44984289  1
  Ce3+  Ce19  1  0.61943655  0.52047067  0.94920020  1
  Ce3+  Ce20  1  0.25062340  0.86948013  0.56353396  1
  Ce3+  Ce21  1  0.75046944  0.87973314  0.57075747  1
  Ce3+  Ce22  1  0.49289507  0.13375064  0.06528421  1
  Ce3+  Ce23  1  0.24932588  0.12018073  0.56536282  1
  Ce3+  Ce24  1  -0.00568175  0.88734734  0.05445737  1
  Ce3+  Ce25  1  0.87709063  0.24682827  0.44271915  1
  Pr3+  Pr26  1  0.50108248  0.11983491  0.55142016  1
  Pr3+  Pr27  1  0.36520496  0.26136108  0.95244051  1
  Pr3+  Pr28  1  0.37239207  0.51974560  0.92990017  1
  Pr3+  Pr29  1  0.11380325  0.26186582  0.93785353  1
  Pr3+  Pr30  1  0.61735413  0.00974224  0.94275885  1
  Pr3+  Pr31  1  0.23996879  0.39377734  0.06193496  1
  Pr3+  Pr32  1  0.00213924  0.61863090  0.57209167  1
  Pr3+  Pr33  1  0.48927336  0.89220557  0.07057077  1
  Pr3+  Pr34  1  0.62959329  0.74447509  0.43668715  1
  Pr3+  Pr35  1  0.13087785  0.24082422  0.42711001  1
  Pr3+  Pr36  1  0.50221796  0.37137130  0.55610710  1
  Pr3+  Pr37  1  0.11066666  0.01280497  0.93532981  1
  Pr3+  Pr38  1  0.87471192  0.74188677  0.45016940  1
  Nd3+  Nd39  1  0.37255788  0.49374950  0.44280371  1
  Nd3+  Nd40  1  0.37044752  0.73866722  0.43921560  1
  Nd3+  Nd41  1  0.25105005  0.37266260  0.56313017  1
  Nd3+  Nd42  1  0.61776915  0.76079825  0.94722962  1
  Nd3+  Nd43  1  0.61596470  0.26184897  0.94382140  1
  Nd3+  Nd44  1  0.36445700  0.00860929  0.93886822  1
  Nd3+  Nd45  1  0.49158387  0.64106868  0.08117952  1
  Nd3+  Nd46  1  0.37336076  -0.00657998  0.44163226  1
  Nd3+  Nd47  1  0.74682485  0.88690987  0.06580965  1
  Nd3+  Nd48  1  0.00355797  0.12267162  0.55961730  1
  Nd3+  Nd49  1  0.74983945  0.12136430  0.56121774  1
  Nd3+  Nd50  1  0.75159718  0.37176077  0.55843842  1
  Nd3+  Nd51  1  0.74751749  0.14042987  0.06600368  1
  Sm3+  Sm52  1  0.74405152  0.39021378  0.05896565  1
  Sm3+  Sm53  1  0.00185096  0.86974192  0.55832308  1
  Sm3+  Sm54  1  0.36764082  0.76129054  0.93756538  1
  Sm3+  Sm55  1  0.37426114  0.24538930  0.44187731  1
  Sm3+  Sm56  1  -0.01029796  0.14123371  0.06909074  1
  Sm3+  Sm57  1  0.23823840  0.63281662  0.04924598  1
  Sm3+  Sm58  1  0.62863629  -0.00951741  0.43169873  1
  Sm3+  Sm59  1  -0.01143153  0.63419882  0.03147679  1
  Sm3+  Sm60  1  0.11499715  0.76834739  0.92448420  1
  Sm3+  Sm61  1  0.85997836  0.01420060  0.93452800  1
  Sm3+  Sm62  1  0.86778330  0.26362983  0.94187591  1
  Sm3+  Sm63  1  0.87579190  -0.00603231  0.44536996  1
  Bi2+  Bi64  1  -0.01248809  0.05660770  0.28703007  1
  Bi2+  Bi65  1  -0.02675872  0.13202255  0.84113078  1
  Bi2+  Bi66  1  -0.02992211  0.37101226  0.29101528  1
  Bi2+  Bi67  1  -0.03922214  0.29823363  0.77931177  1
  Bi2+  Bi68  1  -0.00897994  0.66184816  0.28653529  1
  Bi2+  Bi69  1  0.06711953  0.69453150  0.76894700  1
  Bi2+  Bi70  1  0.06912721  0.85707734  0.29383839  1
  Bi2+  Bi71  1  -0.00895824  0.96019802  0.78354997  1
  Bi2+  Bi72  1  0.24691043  0.12417972  0.29256004  1
  Bi2+  Bi73  1  0.16492971  0.10966019  0.80530963  1
  Bi2+  Bi74  1  0.25148122  0.37015758  0.28291170  1
  Bi2+  Bi75  1  0.23107804  0.30893787  0.79767009  1
  Bi2+  Bi76  1  0.25667008  0.63796952  0.29553909  1
  Bi2+  Bi77  1  0.31431280  0.61672145  0.79633951  1
  Bi2+  Bi78  1  0.27006377  0.85575357  0.29467446  1
  Bi2+  Bi79  1  0.23951744  0.88424134  0.79349911  1
  Bi2+  Bi80  1  0.50848355  0.16904761  0.29593001  1
  Bi2+  Bi81  1  0.47933857  0.05255439  0.80011684  1
  Bi2+  Bi82  1  0.49344452  0.46286257  0.29299949  1
  Bi2+  Bi83  1  0.49339585  0.34984631  0.78896552  1
  Bi2+  Bi84  1  0.50599846  0.65925320  0.27589655  1
  Bi2+  Bi85  1  0.51468186  0.60829054  0.73730026  1
  Bi2+  Bi86  1  0.54010212  0.96232347  0.29793903  1
  Bi2+  Bi87  1  0.51965348  0.86183910  0.81456582  1
  Bi2+  Bi88  1  0.68926845  0.09825134  0.31890935  1
  Bi2+  Bi89  1  0.76081591  0.15238658  0.78951344  1
  Bi2+  Bi90  1  0.68917589  0.27996302  0.26810070  1
  Bi2+  Bi91  1  0.72417009  0.39352002  0.79597005  1
  Bi2+  Bi92  1  0.75703394  0.61436843  0.28520072  1
  Bi2+  Bi93  1  0.75827301  0.63952388  0.79022432  1
  Bi2+  Bi94  1  0.78662004  0.85738815  0.29763383  1
  Bi2+  Bi95  1  0.72012856  0.90474311  0.79791022  1
  Bi2+  Bi96  1  0.13968413  -0.02849056  0.20999314  1
  Bi2+  Bi97  1  0.18763841  0.04192046  0.68860924  1
  Bi2+  Bi98  1  0.08693244  0.24397466  0.21359597  1
  Bi2+  Bi99  1  0.10414805  0.22219942  0.71628350  1
  Bi2+  Bi100  1  0.10465351  0.46460634  0.17607083  1
  Bi2+  Bi101  1  0.11717067  0.47873762  0.71380173  1
  Bi2+  Bi102  1  0.12115081  0.72994679  0.20281312  1
  Bi2+  Bi103  1  0.12602460  0.85667183  0.69746895  1
  Bi2+  Bi104  1  0.40045636  0.00909896  0.21883918  1
  Bi2+  Bi105  1  0.37596822  -0.01638921  0.71036191  1
  Bi2+  Bi106  1  0.42723644  0.31003980  0.22701341  1
  Bi2+  Bi107  1  0.37951847  0.20190472  0.74967359  1
  Bi2+  Bi108  1  0.36593377  0.57789845  0.20648257  1
  Bi2+  Bi109  1  0.36646470  0.46298193  0.70103645  1
  Bi2+  Bi110  1  0.31200795  0.76623334  0.19273252  1
  Bi2+  Bi111  1  0.38599687  0.79200970  0.73245001  1
  Bi2+  Bi112  1  0.68842010  -0.02005680  0.21943254  1
  Bi2+  Bi113  1  0.60548379  0.02096035  0.70554376  1
  Bi2+  Bi114  1  0.57110226  0.19999007  0.18763531  1
  Bi2+  Bi115  1  0.63163473  0.23712117  0.71190007  1
  Bi2+  Bi116  1  0.60957231  0.48550231  0.20333476  1
  Bi2+  Bi117  1  0.60692114  0.44225322  0.70540504  1
  Bi2+  Bi118  1  0.62030233  0.78438507  0.20705325  1
  Bi2+  Bi119  1  0.59244950  0.78176967  0.71695603  1
  Bi2+  Bi120  1  0.88135988  -0.00896911  0.19297457  1
  Bi2+  Bi121  1  0.86584333  0.05517907  0.71166410  1
  Bi2+  Bi122  1  0.85737605  0.18409666  0.24748508  1
  Bi2+  Bi123  1  0.82250714  0.25093175  0.69538750  1
  Bi2+  Bi124  1  0.85902326  0.43804865  0.20875326  1
  Bi2+  Bi125  1  0.88965431  0.50461335  0.70053889  1
  Bi2+  Bi126  1  0.91205121  0.80079357  0.21514868  1
  Bi2+  Bi127  1  0.86921461  0.78631883  0.71371206  1
  S2-  S128  1  0.08453333  0.11521058  0.15228350  1
  S2-  S129  1  0.00516958  0.12096019  0.65934195  1
  S2-  S130  1  -0.02084034  0.33842074  0.15442942  1
  S2-  S131  1  -0.00477279  0.39003990  0.65275079  1
  S2-  S132  1  0.01674076  0.56197677  0.12256234  1
  S2-  S133  1  0.01515654  0.62233445  0.67416373  1
  S2-  S134  1  0.09409249  0.86149013  0.13408999  1
  S2-  S135  1  -0.03303948  0.88031027  0.65396012  1
  S2-  S136  1  0.32345336  0.15617098  0.19950758  1
  S2-  S137  1  0.29575770  0.16482443  0.65586975  1
  S2-  S138  1  0.20387070  0.30946677  0.15231767  1
  S2-  S139  1  0.23796535  0.38205867  0.66374780  1
  S2-  S140  1  0.24319254  0.53256706  0.13142316  1
  S2-  S141  1  0.23238581  0.58883245  0.69927272  1
  S2-  S142  1  0.27391303  0.97947914  0.14942259  1
  S2-  S143  1  0.26759023  0.78560377  0.64898702  1
  S2-  S144  1  0.50125677  0.02632303  0.14285899  1
  S2-  S145  1  0.53781126  0.13781813  0.64921468  1
  S2-  S146  1  0.47233601  0.48791509  0.14105809  1
  S2-  S147  1  0.46754682  0.36279233  0.65458927  1
  S2-  S148  1  0.61626730  0.63261071  0.15579392  1
  S2-  S149  1  0.43063127  0.61259875  0.64552297  1
  S2-  S150  1  0.47305856  0.78547584  0.15078372  1
  S2-  S151  1  0.50950632  0.89807617  0.65035075  1
  S2-  S152  1  0.85834183  0.14243898  0.14277946  1
  S2-  S153  1  0.74053379  0.01763403  0.64038949  1
  S2-  S154  1  0.72624670  0.37305363  0.15720990  1
  S2-  S155  1  0.74988903  0.46172223  0.64388864  1
  S2-  S156  1  0.81409355  0.58394259  0.18412463  1
  S2-  S157  1  0.79878636  0.63925003  0.68229051  1
  S2-  S158  1  0.76327134  0.79252329  0.15017680  1
  S2-  S159  1  0.73470083  0.81612832  0.66182301  1
  S2-  S160  1  0.11922512  0.10010352  0.35822468  1
  S2-  S161  1  0.09965994  -0.09701387  0.85492239  1
  S2-  S162  1  0.11381982  0.33923111  0.34436465  1
  S2-  S163  1  0.09738566  0.34801805  0.84879920  1
  S2-  S164  1  0.15469973  0.50224895  0.26994899  1
  S2-  S165  1  0.08365828  0.54712142  0.80477624  1
  S2-  S166  1  0.12406732  0.67224981  0.35863185  1
  S2-  S167  1  0.19391463  0.72735973  0.83755973  1
  S2-  S168  1  0.32364580  -0.00454737  0.34598038  1
  S2-  S169  1  0.36518325  -0.11521088  0.86570840  1
  S2-  S170  1  0.30674306  0.24096847  0.35141011  1
  S2-  S171  1  0.38046778  0.26238434  0.85175373  1
  S2-  S172  1  0.30125739  0.48965378  0.35211726  1
  S2-  S173  1  0.27718590  0.48287378  0.84614865  1
  S2-  S174  1  0.38919989  0.74228611  0.33995150  1
  S2-  S175  1  0.42404332  0.65186100  0.86510635  1
  S2-  S176  1  0.64412676  -0.13188093  0.36099423  1
  S2-  S177  1  0.70643989  0.04023627  0.85776872  1
  S2-  S178  1  0.61066127  0.34435260  0.34967509  1
  S2-  S179  1  0.61896382  0.27887129  0.84480668  1
  S2-  S180  1  0.77047467  0.49503375  0.34583769  1
  S2-  S181  1  0.68140596  0.52650337  0.85710397  1
  S2-  S182  1  0.62956235  0.64773391  0.34897666  1
  S2-  S183  1  0.69866701  0.76192932  0.85661148  1
  S2-  S184  1  0.87333455  -0.02207420  0.34751568  1
  S2-  S185  1  0.86576817  -0.08360402  0.85144560  1
  S2-  S186  1  0.87512434  0.26164748  0.34546242  1
  S2-  S187  1  0.85109248  0.34350452  0.85476035  1
  S2-  S188  1  0.98043048  0.51573015  0.34708815  1
  S2-  S189  1  0.86896455  0.52387967  0.80250233  1
  S2-  S190  1  0.85921617  0.71637857  0.35007182  1
  S2-  S191  1  0.91238707  0.72481348  0.81082281  1
  S2-  S192  1  -0.00202842  0.11983360  0.45474696  1
  S2-  S193  1  -0.01384589  0.13746707  0.96025252  1
  S2-  S194  1  0.00557909  0.36951312  0.45102587  1
  S2-  S195  1  -0.01478907  0.39209707  0.95003498  1
  S2-  S196  1  0.00147303  0.61952202  0.46389389  1
  S2-  S197  1  -0.01054323  0.63605454  0.92879572  1
  S2-  S198  1  0.00137214  0.87062839  0.45276391  1
  S2-  S199  1  -0.01655595  0.88557918  0.95233541  1
  S2-  S200  1  0.25326390  0.11974428  0.45962927  1
  S2-  S201  1  0.24160069  0.13487112  0.94211311  1
  S2-  S202  1  0.24995974  0.36808481  0.45634379  1
  S2-  S203  1  0.24414653  0.38446163  0.95447554  1
  S2-  S204  1  0.24856074  0.61510932  0.45608899  1
  S2-  S205  1  0.24119642  0.64092292  0.94664314  1
  S2-  S206  1  0.24967373  0.86790265  0.45490533  1
  S2-  S207  1  0.23661333  0.88626834  0.95785604  1
  S2-  S208  1  0.49999132  0.11818781  0.44420301  1
  S2-  S209  1  0.49188658  0.13413023  0.95557376  1
  S2-  S210  1  0.49812628  0.36927590  0.45005142  1
  S2-  S211  1  0.49450881  0.38994513  0.95290184  1
  S2-  S212  1  0.49966225  0.61703970  0.44949965  1
  S2-  S213  1  0.49851749  0.64191250  0.97150422  1
  S2-  S214  1  0.49616530  0.86790592  0.44916215  1
  S2-  S215  1  0.49406839  0.88685173  0.96307049  1
  S2-  S216  1  0.75188983  0.11716798  0.45445422  1
  S2-  S217  1  0.74432435  0.14170773  0.96021456  1
  S2-  S218  1  0.74969960  0.36935286  0.45338586  1
  S2-  S219  1  0.73848117  0.38646963  0.95600975  1
  S2-  S220  1  0.74895950  0.61837676  0.46301619  1
  S2-  S221  1  0.74744504  0.64025798  0.95736058  1
  S2-  S222  1  0.75462968  0.87254515  0.46231574  1
  S2-  S223  1  0.74302869  0.88843679  0.96068013  1
  S2-  S224  1  0.11539250  0.01837080  0.04216631  1
  S2-  S225  1  0.12428134  -0.00621898  0.54669317  1
  S2-  S226  1  0.11498455  0.26058179  0.04389900  1
  S2-  S227  1  0.12757466  0.24639293  0.54767709  1
  S2-  S228  1  0.11998802  0.51487320  0.02069382  1
  S2-  S229  1  0.13474637  0.50277740  0.56394274  1
  S2-  S230  1  0.11399104  0.75306301  0.03055789  1
  S2-  S231  1  0.12587317  0.74408857  0.55509045  1
  S2-  S232  1  0.36298225  0.01880728  0.04309179  1
  S2-  S233  1  0.37495433  -0.00534994  0.54878431  1
  S2-  S234  1  0.36792248  0.26146058  0.05958188  1
  S2-  S235  1  0.37540253  0.24584330  0.54500753  1
  S2-  S236  1  0.36906644  0.51471804  0.03596921  1
  S2-  S237  1  0.37359815  0.49636492  0.54739412  1
  S2-  S238  1  0.36131998  0.76005691  0.04369375  1
  S2-  S239  1  0.37617196  0.74543233  0.54456423  1
  S2-  S240  1  0.62629780  0.01319536  0.04861671  1
  S2-  S241  1  0.62446695  -0.00349051  0.53613163  1
  S2-  S242  1  0.61926087  0.26239028  0.04984542  1
  S2-  S243  1  0.62786952  0.24553964  0.54136644  1
  S2-  S244  1  0.62332088  0.51345713  0.05150860  1
  S2-  S245  1  0.62336262  0.49659221  0.54655814  1
  S2-  S246  1  0.61910415  0.76718770  0.05164750  1
  S2-  S247  1  0.62653992  0.74426265  0.54954155  1
  S2-  S248  1  0.86898420  0.01233259  0.04260601  1
  S2-  S249  1  0.88130170  -0.00248371  0.54836763  1
  S2-  S250  1  0.86790292  0.26881813  0.04449722  1
  S2-  S251  1  0.87708603  0.24653167  0.54965909  1
  S2-  S252  1  0.85867927  0.51528118  0.04277192  1
  S2-  S253  1  0.87735095  0.49618454  0.54437899  1
  S2-  S254  1  0.87337583  0.75999962  0.04489830  1
  S2-  S255  1  0.87552095  0.74558012  0.55645913  1
