# generated using pymatgen
data_La12Ce14Pr13Nd13Sm12(BiS2)64
_symmetry_space_group_name_H-M   'P 1'
_cell_length_a   16.05252605
_cell_length_b   16.14160869
_cell_length_c   27.28267824
_cell_angle_alpha   89.76290966
_cell_angle_beta   90.06328343
_cell_angle_gamma   90.05008719
_symmetry_Int_Tables_number   1
_chemical_formula_structural   La12Ce14Pr13Nd13Sm12(BiS2)64
_chemical_formula_sum   'La12 Ce14 Pr13 Nd13 Sm12 Bi64 S128'
_cell_volume   7069.24530164
_cell_formula_units_Z   1
loop_
 _symmetry_equiv_pos_site_id
 _symmetry_equiv_pos_as_xyz
  1  'x, y, z'
loop_
 _atom_type_symbol
 _atom_type_oxidation_number
  La3+  3.0
  Ce3+  3.0
  Pr3+  3.0
  Nd3+  3.0
  Sm3+  3.0
  Bi2+  2.0
  S2-  -2.0
loop_
 _atom_site_type_symbol
 _atom_site_label
 _atom_site_symmetry_multiplicity
 _atom_site_fract_x
 _atom_site_fract_y
 _atom_site_fract_z
 _atom_site_occupancy
  La3+  La0  1  0.90300949  0.51694460  0.40387368  1
  La3+  La1  1  0.24934430  0.62243793  0.07407521  1
  La3+  La2  1  0.63146968  0.48938993  0.92783544  1
  La3+  La3  1  0.90175689  0.26428776  0.43475070  1
  La3+  La4  1  0.37259796  0.49167722  0.93584208  1
  La3+  La5  1  0.51989182  0.13935208  0.55846261  1
  La3+  La6  1  0.89463378  0.76557755  0.43106831  1
  La3+  La7  1  0.27577301  0.39166917  0.58779359  1
  La3+  La8  1  0.64750959  0.02337373  0.41115456  1
  La3+  La9  1  0.39188730  0.26660947  0.43795170  1
  La3+  La10  1  0.36681751  0.00144703  0.88955686  1
  La3+  La11  1  0.11326658  0.25448205  0.90349361  1
  Ce3+  Ce12  1  0.24986344  0.11731801  0.04983223  1
  Ce3+  Ce13  1  0.24850802  0.36452434  0.05834032  1
  Ce3+  Ce14  1  0.49831405  0.36869461  0.06226742  1
  Ce3+  Ce15  1  0.64305720  0.76327401  0.43365858  1
  Ce3+  Ce16  1  0.74798325  0.11918158  0.06235396  1
  Ce3+  Ce17  1  0.87287921  0.24525811  0.94523214  1
  Ce3+  Ce18  1  0.87846938  -0.00499469  0.93790726  1
  Ce3+  Ce19  1  0.14494370  0.76285448  0.44524423  1
  Ce3+  Ce20  1  0.02241000  0.88664426  0.56886589  1
  Ce3+  Ce21  1  0.12150025  0.49310748  0.94878039  1
  Ce3+  Ce22  1  0.76389010  0.13982503  0.55689035  1
  Ce3+  Ce23  1  0.01766766  0.63857135  0.55779897  1
  Ce3+  Ce24  1  0.39359570  0.51050766  0.43721773  1
  Ce3+  Ce25  1  0.11966406  -0.00379807  0.93375723  1
  Pr3+  Pr26  1  0.38438328  0.02204599  0.41775805  1
  Pr3+  Pr27  1  0.36879494  0.74635894  0.92587022  1
  Pr3+  Pr28  1  0.64409348  0.51238702  0.42486648  1
  Pr3+  Pr29  1  0.62041266  -0.00788527  0.94282250  1
  Pr3+  Pr30  1  0.02163563  0.14031037  0.57564623  1
  Pr3+  Pr31  1  0.14267248  0.01444682  0.44338478  1
  Pr3+  Pr32  1  0.12378609  0.74413840  0.93623722  1
  Pr3+  Pr33  1  0.65057257  0.26753194  0.42097705  1
  Pr3+  Pr34  1  0.89726036  0.01399033  0.44004241  1
  Pr3+  Pr35  1  0.14213175  0.26710509  0.45209618  1
  Pr3+  Pr36  1  -0.00148275  0.86854460  0.06370846  1
  Pr3+  Pr37  1  0.61867949  0.23925540  0.94328050  1
  Pr3+  Pr38  1  0.28018396  0.88583525  0.56132657  1
  Nd3+  Nd39  1  -0.00179032  0.36503892  0.06948090  1
  Nd3+  Nd40  1  0.49567992  0.61888226  0.06016904  1
  Nd3+  Nd41  1  0.62393392  0.74298383  0.94511653  1
  Nd3+  Nd42  1  0.75216102  0.61622219  0.07261986  1
  Nd3+  Nd43  1  0.28284072  0.63567059  0.56757379  1
  Nd3+  Nd44  1  0.53054272  0.63797567  0.55733106  1
  Nd3+  Nd45  1  0.25014999  0.87011758  0.05265156  1
  Nd3+  Nd46  1  0.52551113  0.38791759  0.56260262  1
  Nd3+  Nd47  1  0.52393478  0.89217134  0.54502935  1
  Nd3+  Nd48  1  0.74482453  0.36987850  0.07254051  1
  Nd3+  Nd49  1  0.49328388  0.11786958  0.07283640  1
  Nd3+  Nd50  1  0.39303064  0.76366214  0.43090319  1
  Nd3+  Nd51  1  0.87529804  0.49331005  0.94555159  1
  Sm3+  Sm52  1  0.01495504  0.39183650  0.56565120  1
  Sm3+  Sm53  1  0.00117509  0.61772680  0.07353675  1
  Sm3+  Sm54  1  0.14406276  0.51654365  0.44466672  1
  Sm3+  Sm55  1  -0.00148050  0.11835435  0.05884427  1
  Sm3+  Sm56  1  0.76653792  0.38872634  0.55138378  1
  Sm3+  Sm57  1  0.76771110  0.63768543  0.55410897  1
  Sm3+  Sm58  1  0.77174849  0.89087664  0.55437459  1
  Sm3+  Sm59  1  0.49552890  0.86832634  0.05776486  1
  Sm3+  Sm60  1  0.37374093  0.24199909  0.94184537  1
  Sm3+  Sm61  1  0.87812835  0.74185603  0.93979708  1
  Sm3+  Sm62  1  0.27476252  0.13094395  0.57444524  1
  Sm3+  Sm63  1  0.74874263  0.86899747  0.05857033  1
  Bi2+  Bi64  1  0.01895021  0.08546859  0.32716180  1
  Bi2+  Bi65  1  -0.05151593  0.08373533  0.77430717  1
  Bi2+  Bi66  1  -0.00912598  0.35922682  0.29623349  1
  Bi2+  Bi67  1  -0.06687513  0.40100156  0.81520599  1
  Bi2+  Bi68  1  0.01841268  0.69439005  0.28778688  1
  Bi2+  Bi69  1  -0.07772339  0.60349757  0.81560755  1
  Bi2+  Bi70  1  0.02990126  0.88886906  0.35138078  1
  Bi2+  Bi71  1  0.00337534  0.86423404  0.79068347  1
  Bi2+  Bi72  1  0.26309142  0.17042355  0.28688224  1
  Bi2+  Bi73  1  0.20044599  0.06776391  0.76028629  1
  Bi2+  Bi74  1  0.24217885  0.38856783  0.29335601  1
  Bi2+  Bi75  1  0.23856975  0.37782187  0.79437084  1
  Bi2+  Bi76  1  0.26653566  0.61395254  0.29264591  1
  Bi2+  Bi77  1  0.25969224  0.63017022  0.76381030  1
  Bi2+  Bi78  1  0.19059374  0.91144808  0.28696098  1
  Bi2+  Bi79  1  0.25890141  0.83700600  0.78909929  1
  Bi2+  Bi80  1  0.50357074  0.09054470  0.28914798  1
  Bi2+  Bi81  1  0.51503425  0.17798057  0.80733908  1
  Bi2+  Bi82  1  0.46689364  0.37680041  0.27508477  1
  Bi2+  Bi83  1  0.48459165  0.39852829  0.80408204  1
  Bi2+  Bi84  1  0.46718845  0.57317277  0.30793497  1
  Bi2+  Bi85  1  0.49625197  0.71717996  0.76391608  1
  Bi2+  Bi86  1  0.51644432  0.83907411  0.28574689  1
  Bi2+  Bi87  1  0.60167316  0.90745541  0.78637435  1
  Bi2+  Bi88  1  0.85351116  0.13436971  0.28007595  1
  Bi2+  Bi89  1  0.76356276  0.14256311  0.79385902  1
  Bi2+  Bi90  1  0.72460352  0.34128900  0.27919054  1
  Bi2+  Bi91  1  0.74862599  0.42305640  0.76450601  1
  Bi2+  Bi92  1  0.66412703  0.59349866  0.29717275  1
  Bi2+  Bi93  1  0.77123467  0.73464947  0.82095637  1
  Bi2+  Bi94  1  0.84662020  0.86751432  0.30724290  1
  Bi2+  Bi95  1  0.79277858  0.93622560  0.81993060  1
  Bi2+  Bi96  1  0.11616578  0.05778520  0.22366598  1
  Bi2+  Bi97  1  0.10828770  -0.08987051  0.69578942  1
  Bi2+  Bi98  1  0.13034042  0.26880503  0.22535825  1
  Bi2+  Bi99  1  0.07871638  0.25954162  0.71234768  1
  Bi2+  Bi100  1  0.10081942  0.51955512  0.25824355  1
  Bi2+  Bi101  1  0.01795769  0.50507047  0.73210433  1
  Bi2+  Bi102  1  0.13796291  0.76565076  0.20808084  1
  Bi2+  Bi103  1  0.10089077  0.72258386  0.72209723  1
  Bi2+  Bi104  1  0.37632061  -0.01410614  0.18912350  1
  Bi2+  Bi105  1  0.40668880  -0.01680452  0.70062168  1
  Bi2+  Bi106  1  0.38773455  0.24369804  0.20032921  1
  Bi2+  Bi107  1  0.34564588  0.24096720  0.70182989  1
  Bi2+  Bi108  1  0.34848762  0.49536529  0.20952937  1
  Bi2+  Bi109  1  0.38566596  0.51173086  0.70536126  1
  Bi2+  Bi110  1  0.37881481  0.75544771  0.20720824  1
  Bi2+  Bi111  1  0.34581327  0.75581171  0.68924974  1
  Bi2+  Bi112  1  0.72093902  -0.04362902  0.22735524  1
  Bi2+  Bi113  1  0.61421091  0.07422671  0.72572115  1
  Bi2+  Bi114  1  0.64426271  0.19589046  0.19969332  1
  Bi2+  Bi115  1  0.59757629  0.28038454  0.69477892  1
  Bi2+  Bi116  1  0.56750314  0.52698814  0.20289037  1
  Bi2+  Bi117  1  0.62821151  0.57868911  0.74019959  1
  Bi2+  Bi118  1  0.64562694  0.70485895  0.20342744  1
  Bi2+  Bi119  1  0.65320172  0.77701630  0.70150494  1
  Bi2+  Bi120  1  0.94090989  -0.03975317  0.21875532  1
  Bi2+  Bi121  1  0.81974105  -0.01176946  0.70809120  1
  Bi2+  Bi122  1  0.93445430  0.25935296  0.20104926  1
  Bi2+  Bi123  1  0.79026746  0.26541840  0.70620981  1
  Bi2+  Bi124  1  0.85061944  0.50246308  0.20703032  1
  Bi2+  Bi125  1  0.82101985  0.57463165  0.70204477  1
  Bi2+  Bi126  1  0.83560403  0.72737156  0.22725686  1
  Bi2+  Bi127  1  0.86715969  0.76144449  0.71992164  1
  S2-  S128  1  -0.02302297  0.10454544  0.15595069  1
  S2-  S129  1  -0.02393360  0.14155019  0.67293404  1
  S2-  S130  1  -0.02702285  0.42693970  0.16198998  1
  S2-  S131  1  -0.00821829  0.37176193  0.66313942  1
  S2-  S132  1  -0.11853739  0.63356565  0.14584623  1
  S2-  S133  1  0.02125371  0.62247371  0.65481295  1
  S2-  S134  1  0.00162450  0.83393020  0.16218002  1
  S2-  S135  1  -0.05659352  0.88875200  0.65546583  1
  S2-  S136  1  0.30463077  0.11267573  0.14414389  1
  S2-  S137  1  0.19995677  0.16233842  0.66402986  1
  S2-  S138  1  0.28703437  0.36461119  0.15391608  1
  S2-  S139  1  0.22078243  0.35531045  0.68984430  1
  S2-  S140  1  0.12408813  0.63012839  0.14638025  1
  S2-  S141  1  0.25499662  0.53717580  0.64773445  1
  S2-  S142  1  0.26337974  0.85816056  0.15294720  1
  S2-  S143  1  0.26619957  0.96682480  0.65046461  1
  S2-  S144  1  0.51360035  0.07279542  0.17185035  1
  S2-  S145  1  0.41142589  0.13053110  0.64205136  1
  S2-  S146  1  0.52595422  0.30455428  0.15294592  1
  S2-  S147  1  0.42994697  0.37222166  0.64930661  1
  S2-  S148  1  0.38776352  0.63644420  0.14164533  1
  S2-  S149  1  0.43749088  0.63226552  0.64133433  1
  S2-  S150  1  0.48738027  0.85645567  0.15753818  1
  S2-  S151  1  0.46464468  0.87534862  0.63937859  1
  S2-  S152  1  0.73936051  0.07036443  0.15685762  1
  S2-  S153  1  0.65000302  0.14461432  0.63213500  1
  S2-  S154  1  0.76494121  0.28267846  0.16164893  1
  S2-  S155  1  0.66004253  0.38977087  0.63121663  1
  S2-  S156  1  0.71808073  0.49267803  0.14471366  1
  S2-  S157  1  0.66788443  0.63204291  0.63581953  1
  S2-  S158  1  0.74396586  0.83942217  0.15588185  1
  S2-  S159  1  0.70673500  0.90887858  0.64513028  1
  S2-  S160  1  0.23072724  0.03165963  0.35578049  1
  S2-  S161  1  0.20306879  -0.01977629  0.84565314  1
  S2-  S162  1  0.04722625  0.25186025  0.36612292  1
  S2-  S163  1  0.16236757  0.21583594  0.80754553  1
  S2-  S164  1  0.06322787  0.49316847  0.35673270  1
  S2-  S165  1  0.11772379  0.42385151  0.85750897  1
  S2-  S166  1  0.16367591  0.70418560  0.35377854  1
  S2-  S167  1  0.23415425  0.70855248  0.85724945  1
  S2-  S168  1  0.41491762  -0.04915990  0.32119767  1
  S2-  S169  1  0.35739136  0.07516144  0.78835606  1
  S2-  S170  1  0.39209820  0.16794659  0.35218670  1
  S2-  S171  1  0.37984304  0.27246130  0.84460530  1
  S2-  S172  1  0.37548766  0.39485857  0.36180692  1
  S2-  S173  1  0.34043452  0.48741164  0.83595699  1
  S2-  S174  1  0.39760757  0.73131065  0.33269053  1
  S2-  S175  1  0.39457384  0.84900220  0.84218817  1
  S2-  S176  1  0.61627520  -0.03832648  0.31207338  1
  S2-  S177  1  0.53816623  0.02318697  0.85552026  1
  S2-  S178  1  0.61657531  0.16068293  0.34069493  1
  S2-  S179  1  0.61276087  0.30162630  0.84878138  1
  S2-  S180  1  0.62187028  0.39343484  0.34793557  1
  S2-  S181  1  0.55373810  0.52794944  0.83989043  1
  S2-  S182  1  0.64664082  0.75054253  0.33693585  1
  S2-  S183  1  0.60086244  0.75302951  0.84635908  1
  S2-  S184  1  0.80443886  0.02401976  0.35322523  1
  S2-  S185  1  0.99153888  0.00239429  0.86070360  1
  S2-  S186  1  0.80233745  0.25754957  0.34871654  1
  S2-  S187  1  0.94938625  0.25013969  0.85665133  1
  S2-  S188  1  0.84280997  0.45962950  0.31026681  1
  S2-  S189  1  0.78044239  0.47892773  0.86223080  1
  S2-  S190  1  0.89026298  0.66412567  0.34726801  1
  S2-  S191  1  0.99684542  0.74286729  0.86393050  1
  S2-  S192  1  0.01868463  0.13725345  0.46839660  1
  S2-  S193  1  0.00341852  0.12781393  0.95662898  1
  S2-  S194  1  0.01533808  0.39652574  0.46165446  1
  S2-  S195  1  -0.00108022  0.36748182  0.96339573  1
  S2-  S196  1  0.01774436  0.63779294  0.45410765  1
  S2-  S197  1  -0.00222538  0.61656966  0.96581150  1
  S2-  S198  1  0.01956574  0.88642128  0.46535897  1
  S2-  S199  1  -0.00318127  0.86971861  0.95877116  1
  S2-  S200  1  0.26366786  0.14146933  0.46507374  1
  S2-  S201  1  0.24559225  0.12509524  0.94261596  1
  S2-  S202  1  0.26176815  0.39391215  0.46344829  1
  S2-  S203  1  0.24504892  0.36168967  0.95346827  1
  S2-  S204  1  0.27146307  0.63680856  0.45860933  1
  S2-  S205  1  0.24728993  0.61345040  0.96295389  1
  S2-  S206  1  0.26982608  0.88603874  0.45252017  1
  S2-  S207  1  0.24981756  0.87548927  0.94909398  1
  S2-  S208  1  0.51878217  0.13726886  0.45085638  1
  S2-  S209  1  0.49136732  0.11763376  0.96132714  1
  S2-  S210  1  0.52038743  0.39019873  0.45591465  1
  S2-  S211  1  0.49712654  0.36788180  0.95548836  1
  S2-  S212  1  0.51927023  0.63817322  0.44813890  1
  S2-  S213  1  0.49583053  0.62174495  0.95353709  1
  S2-  S214  1  0.51755761  0.88993621  0.43904568  1
  S2-  S215  1  0.49864365  0.86680837  0.95384206  1
  S2-  S216  1  0.77287260  0.14119355  0.45391283  1
  S2-  S217  1  0.74849671  0.11705622  0.95291162  1
  S2-  S218  1  0.78020099  0.39955113  0.44823366  1
  S2-  S219  1  0.74768828  0.36333839  0.96430095  1
  S2-  S220  1  0.76959932  0.63579886  0.44928927  1
  S2-  S221  1  0.75176532  0.62163872  0.96077686  1
  S2-  S222  1  0.76766167  0.88803221  0.44933229  1
  S2-  S223  1  0.75095656  0.86722671  0.95460399  1
  S2-  S224  1  0.12239241  -0.00528059  0.04752717  1
  S2-  S225  1  0.14435366  0.01372713  0.55165870  1
  S2-  S226  1  0.12294329  0.23978610  0.06226792  1
  S2-  S227  1  0.14119389  0.27014701  0.55783035  1
  S2-  S228  1  0.12334705  0.48913084  0.05379992  1
  S2-  S229  1  0.13977496  0.51241084  0.54871931  1
  S2-  S230  1  0.12265931  0.74679062  0.04343453  1
  S2-  S231  1  0.14947398  0.76070582  0.55450929  1
  S2-  S232  1  0.37643495  -0.00861966  0.04849227  1
  S2-  S233  1  0.39499188  0.01197516  0.53376552  1
  S2-  S234  1  0.37560352  0.24270795  0.04616318  1
  S2-  S235  1  0.38886066  0.26511143  0.54556842  1
  S2-  S236  1  0.37345319  0.49092862  0.04519648  1
  S2-  S237  1  0.40078660  0.51146791  0.54170120  1
  S2-  S238  1  0.37382854  0.74755246  0.03743385  1
  S2-  S239  1  0.40194086  0.76125255  0.53648285  1
  S2-  S240  1  0.62158703  -0.00930251  0.04965954  1
  S2-  S241  1  0.64792522  0.01134420  0.53116329  1
  S2-  S242  1  0.62167349  0.23960623  0.04934375  1
  S2-  S243  1  0.64691452  0.26526572  0.52900411  1
  S2-  S244  1  0.61869687  0.49553966  0.04004371  1
  S2-  S245  1  0.64749742  0.51401789  0.53116317  1
  S2-  S246  1  0.62293140  0.74386020  0.05150393  1
  S2-  S247  1  0.64834996  0.76741400  0.53862255  1
  S2-  S248  1  0.87303373  -0.00679899  0.04667091  1
  S2-  S249  1  0.89359487  0.01592973  0.54983568  1
  S2-  S250  1  0.87384599  0.24249769  0.05112401  1
  S2-  S251  1  0.89179544  0.26581035  0.54999024  1
  S2-  S252  1  0.87425395  0.49048318  0.04929617  1
  S2-  S253  1  0.88827007  0.51341561  0.55615136  1
  S2-  S254  1  0.87250984  0.74567404  0.04470620  1
  S2-  S255  1  0.89023842  0.76236606  0.54534540  1
