# generated using pymatgen
data_La12Ce14Pr13Nd13Sm12(BiS2)64
_symmetry_space_group_name_H-M   'P 1'
_cell_length_a   16.16496793
_cell_length_b   16.17155737
_cell_length_c   27.26042757
_cell_angle_alpha   89.92432445
_cell_angle_beta   89.98504784
_cell_angle_gamma   90.00852504
_symmetry_Int_Tables_number   1
_chemical_formula_structural   La12Ce14Pr13Nd13Sm12(BiS2)64
_chemical_formula_sum   'La12 Ce14 Pr13 Nd13 Sm12 Bi64 S128'
_cell_volume   7126.21560707
_cell_formula_units_Z   1
loop_
 _symmetry_equiv_pos_site_id
 _symmetry_equiv_pos_as_xyz
  1  'x, y, z'
loop_
 _atom_type_symbol
 _atom_type_oxidation_number
  La3+  3.0
  Ce3+  3.0
  Pr3+  3.0
  Nd3+  3.0
  Sm3+  3.0
  Bi2+  2.0
  S2-  -2.0
loop_
 _atom_site_type_symbol
 _atom_site_label
 _atom_site_symmetry_multiplicity
 _atom_site_fract_x
 _atom_site_fract_y
 _atom_site_fract_z
 _atom_site_occupancy
  La3+  La0  1  0.63062403  0.26283841  0.43455794  1
  La3+  La1  1  0.38379638  0.76078550  0.42846864  1
  La3+  La2  1  0.37881893  0.26215683  0.43409921  1
  La3+  La3  1  0.12277937  0.49837685  0.39733820  1
  La3+  La4  1  0.49911741  0.38866337  0.59553787  1
  La3+  La5  1  0.49880313  0.13831961  0.10592650  1
  La3+  La6  1  -0.00066486  0.64043428  0.07557195  1
  La3+  La7  1  0.87618959  0.76282846  0.90511987  1
  La3+  La8  1  0.26205579  0.62426413  0.08568675  1
  La3+  La9  1  0.88147483  0.25970332  0.44614232  1
  La3+  La10  1  0.62289187  0.25063785  0.92727183  1
  La3+  La11  1  0.25829777  0.87844653  0.57051824  1
  Ce3+  Ce12  1  0.75860496  0.63263890  0.05152157  1
  Ce3+  Ce13  1  0.25551848  0.38619279  0.55771563  1
  Ce3+  Ce14  1  0.00654592  0.13039283  0.55870209  1
  Ce3+  Ce15  1  0.25534092  0.87881821  0.06428883  1
  Ce3+  Ce16  1  0.75264790  0.38763000  0.56093096  1
  Ce3+  Ce17  1  0.88073391  0.76145696  0.44421598  1
  Ce3+  Ce18  1  0.88450224  0.50673509  0.93783292  1
  Ce3+  Ce19  1  0.13101156  0.00487580  0.44533550  1
  Ce3+  Ce20  1  0.62885659  0.50648570  0.43188496  1
  Ce3+  Ce21  1  0.00808615  0.38645118  0.56475314  1
  Ce3+  Ce22  1  0.87865481  0.25516776  0.93176225  1
  Ce3+  Ce23  1  0.50274645  0.63027485  0.05522050  1
  Ce3+  Ce24  1  0.13075684  0.51046308  0.95102685  1
  Ce3+  Ce25  1  0.12549800  0.75358716  0.93945740  1
  Pr3+  Pr26  1  0.00772334  0.63495729  0.55790374  1
  Pr3+  Pr27  1  0.87358093  0.01336260  0.93169285  1
  Pr3+  Pr28  1  0.25819144  0.37625280  0.06982350  1
  Pr3+  Pr29  1  0.62481031  0.75782823  0.94499257  1
  Pr3+  Pr30  1  0.50266824  0.88183968  0.55880941  1
  Pr3+  Pr31  1  0.75153597  0.13587616  0.57004733  1
  Pr3+  Pr32  1  0.37398276  0.25637301  0.93083156  1
  Pr3+  Pr33  1  0.50431247  0.13561451  0.55604404  1
  Pr3+  Pr34  1  0.88251016  0.51171931  0.43894767  1
  Pr3+  Pr35  1  0.75381293  0.37833394  0.05369696  1
  Pr3+  Pr36  1  0.75319445  0.88332405  0.05730131  1
  Pr3+  Pr37  1  0.00697800  0.87259260  0.59557640  1
  Pr3+  Pr38  1  0.37984656  0.00622952  0.94684297  1
  Nd3+  Nd39  1  0.38172272  0.00911432  0.43597723  1
  Nd3+  Nd40  1  0.25153800  0.12743519  0.06350305  1
  Nd3+  Nd41  1  0.00136374  0.13011993  0.05645418  1
  Nd3+  Nd42  1  0.37163224  0.75551609  0.94038777  1
  Nd3+  Nd43  1  0.63108553  0.75917012  0.44183030  1
  Nd3+  Nd44  1  0.75466639  0.13815279  0.07191623  1
  Nd3+  Nd45  1  0.64264846  0.01427954  0.40747937  1
  Nd3+  Nd46  1  0.49795829  0.88068613  0.07833745  1
  Nd3+  Nd47  1  0.37563676  0.50566219  0.93933826  1
  Nd3+  Nd48  1  0.75272788  0.88331361  0.56403743  1
  Nd3+  Nd49  1  0.63087538  0.50686046  0.93804481  1
  Nd3+  Nd50  1  0.87992530  0.00690961  0.44860734  1
  Nd3+  Nd51  1  0.12953994  0.00444392  0.93300064  1
  Sm3+  Sm52  1  0.00248346  0.88005968  0.05357807  1
  Sm3+  Sm53  1  0.25364471  0.63329190  0.54384357  1
  Sm3+  Sm54  1  0.00500097  0.38079160  0.05715536  1
  Sm3+  Sm55  1  0.12961930  0.26038611  0.44524630  1
  Sm3+  Sm56  1  0.12992555  0.75990226  0.43312935  1
  Sm3+  Sm57  1  0.37894637  0.50921281  0.43813688  1
  Sm3+  Sm58  1  0.50560271  0.37325142  0.05492230  1
  Sm3+  Sm59  1  0.62483419  0.00715512  0.95112208  1
  Sm3+  Sm60  1  0.25531183  0.13516733  0.55470264  1
  Sm3+  Sm61  1  0.75306720  0.63241535  0.55757684  1
  Sm3+  Sm62  1  0.13300124  0.25782414  0.94247316  1
  Sm3+  Sm63  1  0.50421100  0.62884868  0.55368025  1
  Bi2+  Bi64  1  0.01624156  0.12156267  0.27580756  1
  Bi2+  Bi65  1  0.03560497  0.16241395  0.79705205  1
  Bi2+  Bi66  1  -0.04377308  0.35775069  0.30147535  1
  Bi2+  Bi67  1  -0.03628582  0.34494268  0.81668716  1
  Bi2+  Bi68  1  -0.11509112  0.61768615  0.27810984  1
  Bi2+  Bi69  1  0.07903396  0.60667877  0.78368924  1
  Bi2+  Bi70  1  -0.00344442  0.92266106  0.29738510  1
  Bi2+  Bi71  1  0.01136534  0.86028048  0.78893989  1
  Bi2+  Bi72  1  0.21082925  0.11479541  0.29945395  1
  Bi2+  Bi73  1  0.22012597  0.09550259  0.80332300  1
  Bi2+  Bi74  1  0.25963640  0.30059944  0.30616838  1
  Bi2+  Bi75  1  0.23684801  0.37592111  0.79319959  1
  Bi2+  Bi76  1  0.24356039  0.64640552  0.27916046  1
  Bi2+  Bi77  1  0.28826577  0.60781555  0.81207344  1
  Bi2+  Bi78  1  0.17357712  0.86176267  0.26608748  1
  Bi2+  Bi79  1  0.28702505  0.82631362  0.77297613  1
  Bi2+  Bi80  1  0.49652538  0.10184252  0.29125319  1
  Bi2+  Bi81  1  0.44770218  0.10077871  0.77839005  1
  Bi2+  Bi82  1  0.52884769  0.37063746  0.27567672  1
  Bi2+  Bi83  1  0.51427612  0.37437419  0.80203232  1
  Bi2+  Bi84  1  0.50660653  0.58544194  0.29505248  1
  Bi2+  Bi85  1  0.47704126  0.63436419  0.77657802  1
  Bi2+  Bi86  1  0.48659156  0.84729358  0.29920194  1
  Bi2+  Bi87  1  0.46464120  0.81415932  0.82517364  1
  Bi2+  Bi88  1  0.76353121  0.13137467  0.28824310  1
  Bi2+  Bi89  1  0.72036742  0.13149271  0.79458171  1
  Bi2+  Bi90  1  0.76378166  0.40731954  0.29177675  1
  Bi2+  Bi91  1  0.76272557  0.41110751  0.78936106  1
  Bi2+  Bi92  1  0.69989192  0.60794727  0.31600768  1
  Bi2+  Bi93  1  0.67620872  0.64516407  0.77647695  1
  Bi2+  Bi94  1  0.80958978  0.86578183  0.29457732  1
  Bi2+  Bi95  1  0.73824925  0.88559122  0.79481011  1
  Bi2+  Bi96  1  0.09630502  0.05802248  0.16624518  1
  Bi2+  Bi97  1  0.11928277  0.03041060  0.71493529  1
  Bi2+  Bi98  1  0.14777076  0.24112696  0.20856387  1
  Bi2+  Bi99  1  0.11073159  0.29742209  0.72326406  1
  Bi2+  Bi100  1  0.12060892  0.44310164  0.20574966  1
  Bi2+  Bi101  1  0.11468231  0.48301828  0.68926552  1
  Bi2+  Bi102  1  0.05931051  0.72642701  0.21644496  1
  Bi2+  Bi103  1  0.14288732  0.74596247  0.71024381  1
  Bi2+  Bi104  1  0.26658964  0.00647775  0.20778505  1
  Bi2+  Bi105  1  0.32456170  -0.00796374  0.71229489  1
  Bi2+  Bi106  1  0.34578931  0.29143631  0.20122653  1
  Bi2+  Bi107  1  0.36981239  0.23286122  0.70234965  1
  Bi2+  Bi108  1  0.38079938  0.47732736  0.23247285  1
  Bi2+  Bi109  1  0.30220074  0.52208382  0.70963869  1
  Bi2+  Bi110  1  0.38979098  0.75466043  0.19877534  1
  Bi2+  Bi111  1  0.39885907  0.73251449  0.68652413  1
  Bi2+  Bi112  1  0.63577186  -0.03221614  0.20642841  1
  Bi2+  Bi113  1  0.55121211  -0.06385691  0.75321240  1
  Bi2+  Bi114  1  0.65767251  0.25098016  0.22021962  1
  Bi2+  Bi115  1  0.63344599  0.22874544  0.70156897  1
  Bi2+  Bi116  1  0.65259306  0.47199649  0.19869600  1
  Bi2+  Bi117  1  0.65365797  0.50611680  0.69328771  1
  Bi2+  Bi118  1  0.62329220  0.66390319  0.20992020  1
  Bi2+  Bi119  1  0.58839281  0.76553871  0.69778652  1
  Bi2+  Bi120  1  0.91990054  -0.01407807  0.20041379  1
  Bi2+  Bi121  1  0.88081263  0.05404089  0.71745564  1
  Bi2+  Bi122  1  0.88734414  0.24467782  0.20673704  1
  Bi2+  Bi123  1  0.86676015  0.24016749  0.73971744  1
  Bi2+  Bi124  1  0.85037054  0.48480817  0.19758193  1
  Bi2+  Bi125  1  0.92787999  0.50137473  0.74365650  1
  Bi2+  Bi126  1  0.79812275  0.75197889  0.20471590  1
  Bi2+  Bi127  1  0.85430586  0.74376806  0.69835251  1
  S2-  S128  1  -0.10730502  0.12710564  0.13674670  1
  S2-  S129  1  0.01275592  0.12163041  0.65577116  1
  S2-  S130  1  -0.01612607  0.36939121  0.15466258  1
  S2-  S131  1  -0.03083619  0.39345778  0.65949004  1
  S2-  S132  1  0.06580894  0.58074078  0.16557892  1
  S2-  S133  1  0.00254461  0.71584301  0.64689993  1
  S2-  S134  1  -0.00168197  0.79659246  0.14085510  1
  S2-  S135  1  -0.06788558  0.90079455  0.68808585  1
  S2-  S136  1  0.33400551  0.14201198  0.15090833  1
  S2-  S137  1  0.26822967  0.13772573  0.65376434  1
  S2-  S138  1  0.26360475  0.47893429  0.15250927  1
  S2-  S139  1  0.33830064  0.38315388  0.64427528  1
  S2-  S140  1  0.23438219  0.71876853  0.17121051  1
  S2-  S141  1  0.25529628  0.66527900  0.64080920  1
  S2-  S142  1  0.35669033  0.89107242  0.14419004  1
  S2-  S143  1  0.15215988  0.88836818  0.65149974  1
  S2-  S144  1  0.49274764  0.04213133  0.19789465  1
  S2-  S145  1  0.49945110  0.15093826  0.65641235  1
  S2-  S146  1  0.49309397  0.30364360  0.14491984  1
  S2-  S147  1  0.52430314  0.34954941  0.69966099  1
  S2-  S148  1  0.42609929  0.62830789  0.14217559  1
  S2-  S149  1  0.52036349  0.54637691  0.64033193  1
  S2-  S150  1  0.56019258  0.82773068  0.16950588  1
  S2-  S151  1  0.39388398  0.89158758  0.63847639  1
  S2-  S152  1  0.65731230  0.11608750  0.15560906  1
  S2-  S153  1  0.73875075  0.09226686  0.66734242  1
  S2-  S154  1  0.75960222  0.29192963  0.14128342  1
  S2-  S155  1  0.72630538  0.35577139  0.65592974  1
  S2-  S156  1  0.84474392  0.62989455  0.13681905  1
  S2-  S157  1  0.77690109  0.60211219  0.65374976  1
  S2-  S158  1  0.78182734  0.91095837  0.15507224  1
  S2-  S159  1  0.73275356  0.84080431  0.66042840  1
  S2-  S160  1  0.15383294  -0.03272824  0.35102259  1
  S2-  S161  1  0.11827121  -0.06182841  0.83963004  1
  S2-  S162  1  0.10332767  0.32774188  0.35661694  1
  S2-  S163  1  0.23781261  0.25506782  0.86225046  1
  S2-  S164  1  0.16459222  0.51302000  0.29722741  1
  S2-  S165  1  0.14585514  0.49652179  0.85302413  1
  S2-  S166  1  0.13250557  0.72148184  0.33536098  1
  S2-  S167  1  0.02639317  0.73244903  0.85571962  1
  S2-  S168  1  0.39952068  -0.01081535  0.33773555  1
  S2-  S169  1  0.35090505  0.01595293  0.84714898  1
  S2-  S170  1  0.41582788  0.24073195  0.33642620  1
  S2-  S171  1  0.47801722  0.23695612  0.84781236  1
  S2-  S172  1  0.37445643  0.50822866  0.33963143  1
  S2-  S173  1  0.38288979  0.43953670  0.84665090  1
  S2-  S174  1  0.36056886  0.75655483  0.32908955  1
  S2-  S175  1  0.25037277  0.74566747  0.86686212  1
  S2-  S176  1  0.60479199  -0.03182534  0.31071357  1
  S2-  S177  1  0.64510492  0.01000205  0.85160275  1
  S2-  S178  1  0.63269736  0.16037845  0.35124903  1
  S2-  S179  1  0.67243318  0.29134592  0.83033978  1
  S2-  S180  1  0.62717282  0.38782003  0.35800840  1
  S2-  S181  1  0.62018845  0.50328991  0.83889595  1
  S2-  S182  1  0.60932772  0.75926705  0.34360780  1
  S2-  S183  1  0.63922935  0.77208358  0.84569439  1
  S2-  S184  1  0.80163390  0.01140568  0.35916522  1
  S2-  S185  1  0.87997194  -0.08209824  0.84626988  1
  S2-  S186  1  0.84165030  0.25044599  0.34899792  1
  S2-  S187  1  0.84702678  0.14148232  0.86073635  1
  S2-  S188  1  0.96571152  0.50847406  0.35013435  1
  S2-  S189  1  0.86494218  0.52733246  0.84172429  1
  S2-  S190  1  0.89896181  0.75399238  0.34752822  1
  S2-  S191  1  0.82828908  0.73925521  0.79955390  1
  S2-  S192  1  0.00744525  0.13297298  0.45035863  1
  S2-  S193  1  0.00985472  0.13335217  0.95022078  1
  S2-  S194  1  0.00717845  0.38665098  0.45912921  1
  S2-  S195  1  0.00891228  0.37953384  0.95226382  1
  S2-  S196  1  0.01128733  0.63537749  0.45064512  1
  S2-  S197  1  0.00239477  0.62875931  0.96155183  1
  S2-  S198  1  0.00574315  0.88265984  0.45019445  1
  S2-  S199  1  0.00209742  0.88323620  0.95113217  1
  S2-  S200  1  0.25281987  0.13472479  0.44926008  1
  S2-  S201  1  0.25040529  0.12824983  0.95844569  1
  S2-  S202  1  0.25045588  0.38912119  0.44996271  1
  S2-  S203  1  0.25260269  0.38259487  0.96232537  1
  S2-  S204  1  0.24971190  0.63031402  0.43951519  1
  S2-  S205  1  0.25663238  0.62756638  0.96841908  1
  S2-  S206  1  0.25797822  0.88052324  0.45437590  1
  S2-  S207  1  0.25168393  0.88393078  0.95806302  1
  S2-  S208  1  0.50698175  0.12965174  0.45030307  1
  S2-  S209  1  0.50310320  0.12734577  0.94988074  1
  S2-  S210  1  0.49838105  0.38817361  0.45105648  1
  S2-  S211  1  0.50534728  0.38282051  0.95107329  1
  S2-  S212  1  0.50497631  0.63186143  0.44806952  1
  S2-  S213  1  0.50066407  0.62986192  0.94752267  1
  S2-  S214  1  0.51162446  0.88990679  0.45086073  1
  S2-  S215  1  0.50171959  0.88092428  0.96318142  1
  S2-  S216  1  0.75389801  0.13119939  0.46313874  1
  S2-  S217  1  0.74609780  0.13146263  0.96352266  1
  S2-  S218  1  0.75963409  0.38772135  0.45531339  1
  S2-  S219  1  0.75480559  0.38135603  0.94680564  1
  S2-  S220  1  0.75548632  0.63464343  0.45261188  1
  S2-  S221  1  0.75566048  0.63404495  0.94494584  1
  S2-  S222  1  0.75133064  0.88495585  0.45659030  1
  S2-  S223  1  0.75009433  0.88258505  0.95117048  1
  S2-  S224  1  0.12833327  0.00251669  0.04123313  1
  S2-  S225  1  0.13220298  0.00904775  0.55041530  1
  S2-  S226  1  0.12844002  0.25545060  0.04850123  1
  S2-  S227  1  0.13107567  0.25856288  0.55050161  1
  S2-  S228  1  0.12912486  0.50207569  0.05392526  1
  S2-  S229  1  0.13183315  0.51083552  0.55091995  1
  S2-  S230  1  0.13274212  0.75757648  0.04771273  1
  S2-  S231  1  0.13112239  0.75979342  0.53889741  1
  S2-  S232  1  0.38343445  0.01251033  0.05130552  1
  S2-  S233  1  0.37728082  0.01298798  0.54230277  1
  S2-  S234  1  0.37862841  0.25380252  0.04077871  1
  S2-  S235  1  0.37865943  0.25971278  0.54250991  1
  S2-  S236  1  0.38466264  0.49744089  0.04524956  1
  S2-  S237  1  0.37783719  0.51150030  0.54240888  1
  S2-  S238  1  0.38049634  0.75639848  0.04471899  1
  S2-  S239  1  0.38251204  0.75205754  0.53598465  1
  S2-  S240  1  0.62070909  0.00476186  0.05442880  1
  S2-  S241  1  0.62737654  0.00587885  0.55862767  1
  S2-  S242  1  0.62465261  0.25319569  0.04099220  1
  S2-  S243  1  0.62400331  0.26561065  0.54814227  1
  S2-  S244  1  0.62859905  0.50425758  0.04540396  1
  S2-  S245  1  0.63076007  0.50893356  0.53938098  1
  S2-  S246  1  0.62930153  0.75394882  0.05085235  1
  S2-  S247  1  0.62748503  0.75429597  0.54794227  1
  S2-  S248  1  0.88185584  0.00351670  0.03870735  1
  S2-  S249  1  0.88165154  0.00339486  0.55568513  1
  S2-  S250  1  0.88470795  0.25902847  0.03692471  1
  S2-  S251  1  0.88024250  0.25815144  0.55442406  1
  S2-  S252  1  0.88155097  0.50059796  0.04352457  1
  S2-  S253  1  0.88081013  0.51184129  0.54688731  1
  S2-  S254  1  0.87601810  0.76130737  0.03595096  1
  S2-  S255  1  0.87690325  0.75927808  0.54935941  1
