# generated using pymatgen
data_La12Ce14Pr13Nd13Sm12(BiS2)64
_symmetry_space_group_name_H-M   'P 1'
_cell_length_a   16.10868847
_cell_length_b   15.98077057
_cell_length_c   27.32840754
_cell_angle_alpha   90.81891610
_cell_angle_beta   89.95540044
_cell_angle_gamma   89.99342430
_symmetry_Int_Tables_number   1
_chemical_formula_structural   La12Ce14Pr13Nd13Sm12(BiS2)64
_chemical_formula_sum   'La12 Ce14 Pr13 Nd13 Sm12 Bi64 S128'
_cell_volume   7034.41082623
_cell_formula_units_Z   1
loop_
 _symmetry_equiv_pos_site_id
 _symmetry_equiv_pos_as_xyz
  1  'x, y, z'
loop_
 _atom_type_symbol
 _atom_type_oxidation_number
  La3+  3.0
  Ce3+  3.0
  Pr3+  3.0
  Nd3+  3.0
  Sm3+  3.0
  Bi2+  2.0
  S2-  -2.0
loop_
 _atom_site_type_symbol
 _atom_site_label
 _atom_site_symmetry_multiplicity
 _atom_site_fract_x
 _atom_site_fract_y
 _atom_site_fract_z
 _atom_site_occupancy
  La3+  La0  1  0.77050825  0.87936405  0.08430005  1
  La3+  La1  1  0.00442545  0.88948095  0.55614873  1
  La3+  La2  1  0.75405822  0.13659912  0.57370761  1
  La3+  La3  1  0.14557304  -0.00755131  0.92819944  1
  La3+  La4  1  0.87760664  0.00865303  0.40001728  1
  La3+  La5  1  0.13342065  0.24573689  0.89415902  1
  La3+  La6  1  0.76967397  0.37838712  0.09743520  1
  La3+  La7  1  0.24561244  0.64085777  0.57027853  1
  La3+  La8  1  0.26399351  0.88223627  0.09852638  1
  La3+  La9  1  0.38290808  0.25471314  0.42410116  1
  La3+  La10  1  0.13142290  0.76432967  0.41848098  1
  La3+  La11  1  0.49789103  0.62433370  0.58038496  1
  Ce3+  Ce12  1  0.38800428  0.49619792  0.94620458  1
  Ce3+  Ce13  1  0.76499069  0.62876862  0.07500698  1
  Ce3+  Ce14  1  0.75465055  0.88489404  0.56256846  1
  Ce3+  Ce15  1  0.26408552  0.37072673  0.06250531  1
  Ce3+  Ce16  1  0.13047823  0.01248756  0.43223912  1
  Ce3+  Ce17  1  0.64367798  0.24712429  0.93214366  1
  Ce3+  Ce18  1  0.88416820  0.24541693  0.92740917  1
  Ce3+  Ce19  1  0.50918978  0.87391693  0.06754236  1
  Ce3+  Ce20  1  0.88267694  0.51114099  0.44383523  1
  Ce3+  Ce21  1  0.62697087  0.75615323  0.44152386  1
  Ce3+  Ce22  1  0.38552449  -0.00396595  0.94395949  1
  Ce3+  Ce23  1  0.76458095  0.12687297  0.06370198  1
  Ce3+  Ce24  1  0.87830447  0.25750167  0.44417978  1
  Ce3+  Ce25  1  0.01173899  0.37195034  0.05182066  1
  Pr3+  Pr26  1  0.62707615  0.50937209  0.43306393  1
  Pr3+  Pr27  1  0.50309765  0.88050673  0.57353840  1
  Pr3+  Pr28  1  0.26460557  0.62388613  0.07233311  1
  Pr3+  Pr29  1  0.26424497  0.13083859  0.06264821  1
  Pr3+  Pr30  1  0.00849572  0.37980810  0.57427828  1
  Pr3+  Pr31  1  0.39034027  0.24828978  0.92591735  1
  Pr3+  Pr32  1  0.26228895  0.14504908  0.57795005  1
  Pr3+  Pr33  1  0.12582400  0.50800859  0.43607418  1
  Pr3+  Pr34  1  0.00599234  0.13084837  0.56484893  1
  Pr3+  Pr35  1  0.01726938  0.88098964  0.07711995  1
  Pr3+  Pr36  1  0.88843312  0.50009425  0.94113926  1
  Pr3+  Pr37  1  0.12448088  0.25246131  0.43321595  1
  Pr3+  Pr38  1  0.38073991  0.00577111  0.43575023  1
  Nd3+  Nd39  1  0.87609517  0.75244116  0.42956677  1
  Nd3+  Nd40  1  0.51908726  0.37147878  0.06390111  1
  Nd3+  Nd41  1  0.01390781  0.12590372  0.04865218  1
  Nd3+  Nd42  1  0.25862036  0.89039005  0.56445525  1
  Nd3+  Nd43  1  0.64150070  -0.00752549  0.94521674  1
  Nd3+  Nd44  1  0.63240903  0.00422204  0.44207607  1
  Nd3+  Nd45  1  0.63529508  0.25776097  0.43972678  1
  Nd3+  Nd46  1  0.00702124  0.64443692  0.56649252  1
  Nd3+  Nd47  1  0.01436254  0.62529170  0.06821261  1
  Nd3+  Nd48  1  0.14011834  0.75033547  0.94793691  1
  Nd3+  Nd49  1  0.37708646  0.75740518  0.43992714  1
  Nd3+  Nd50  1  0.75548771  0.63894708  0.56573099  1
  Nd3+  Nd51  1  0.89104698  -0.01292425  0.93461568  1
  Sm3+  Sm52  1  0.75479997  0.39245482  0.56742283  1
  Sm3+  Sm53  1  0.51589723  0.12787354  0.05374106  1
  Sm3+  Sm54  1  0.25422668  0.38340750  0.54855106  1
  Sm3+  Sm55  1  0.63938080  0.74760077  0.94850970  1
  Sm3+  Sm56  1  0.14163336  0.49377960  0.94127622  1
  Sm3+  Sm57  1  0.50256139  0.38703896  0.54966829  1
  Sm3+  Sm58  1  0.36704259  0.51204997  0.42953615  1
  Sm3+  Sm59  1  0.50199482  0.13846600  0.55435644  1
  Sm3+  Sm60  1  0.38649770  0.74722756  0.94789953  1
  Sm3+  Sm61  1  0.64084220  0.49971166  0.94711444  1
  Sm3+  Sm62  1  0.88816266  0.74411354  0.94404268  1
  Sm3+  Sm63  1  0.51619693  0.62454074  0.05908328  1
  Bi2+  Bi64  1  -0.00618917  0.24517441  0.26409503  1
  Bi2+  Bi65  1  -0.13226968  0.19251999  0.78556432  1
  Bi2+  Bi66  1  -0.00361200  0.37370124  0.35462856  1
  Bi2+  Bi67  1  -0.07672649  0.48313503  0.80042609  1
  Bi2+  Bi68  1  0.02717530  0.55729114  0.31330826  1
  Bi2+  Bi69  1  0.06055878  0.63377702  0.81744668  1
  Bi2+  Bi70  1  0.00388549  0.87059553  0.27949233  1
  Bi2+  Bi71  1  0.00577990  0.93784309  0.80606224  1
  Bi2+  Bi72  1  0.23147336  0.13543614  0.28542697  1
  Bi2+  Bi73  1  0.24636305  0.09095187  0.78748769  1
  Bi2+  Bi74  1  0.16211313  0.34467245  0.28177953  1
  Bi2+  Bi75  1  0.19718846  0.40247557  0.74791042  1
  Bi2+  Bi76  1  0.31889600  0.59179887  0.28854711  1
  Bi2+  Bi77  1  0.23953958  0.55818371  0.81476905  1
  Bi2+  Bi78  1  0.25947526  0.86649594  0.28821945  1
  Bi2+  Bi79  1  0.25077244  0.84152699  0.79624323  1
  Bi2+  Bi80  1  0.49144700  0.15393803  0.29268293  1
  Bi2+  Bi81  1  0.50328216  0.09625258  0.80226589  1
  Bi2+  Bi82  1  0.51576960  0.39442876  0.28090578  1
  Bi2+  Bi83  1  0.49002501  0.36233113  0.78180858  1
  Bi2+  Bi84  1  0.50660177  0.76472071  0.32200924  1
  Bi2+  Bi85  1  0.48972518  0.57981076  0.79168914  1
  Bi2+  Bi86  1  0.49584459  0.96208798  0.32054536  1
  Bi2+  Bi87  1  0.51640992  0.78057336  0.80579089  1
  Bi2+  Bi88  1  0.71805152  0.14440015  0.29968375  1
  Bi2+  Bi89  1  0.66760462  0.15015091  0.74388604  1
  Bi2+  Bi90  1  0.81906629  0.44830832  0.31803900  1
  Bi2+  Bi91  1  0.68365129  0.35619968  0.73842920  1
  Bi2+  Bi92  1  0.62815633  0.62944193  0.27301821  1
  Bi2+  Bi93  1  0.73289720  0.61492849  0.80036905  1
  Bi2+  Bi94  1  0.74516044  0.87130713  0.28394342  1
  Bi2+  Bi95  1  0.74061788  0.95429309  0.77881023  1
  Bi2+  Bi96  1  0.12632023  0.03219405  0.21089759  1
  Bi2+  Bi97  1  0.11830479  -0.06717485  0.69225353  1
  Bi2+  Bi98  1  0.10204061  0.29431833  0.17349718  1
  Bi2+  Bi99  1  0.14359322  0.22939109  0.70019684  1
  Bi2+  Bi100  1  0.12466725  0.49452151  0.20405740  1
  Bi2+  Bi101  1  0.03436382  0.47640262  0.69648988  1
  Bi2+  Bi102  1  0.13184769  0.69385944  0.21785200  1
  Bi2+  Bi103  1  0.17058074  0.68917773  0.72868912  1
  Bi2+  Bi104  1  0.40601232  0.03381553  0.21110312  1
  Bi2+  Bi105  1  0.43397530  -0.06089558  0.74297114  1
  Bi2+  Bi106  1  0.35622313  0.32135081  0.22370007  1
  Bi2+  Bi107  1  0.38104332  0.20878310  0.73857272  1
  Bi2+  Bi108  1  0.31763644  0.49541410  0.17887075  1
  Bi2+  Bi109  1  0.37259952  0.47899191  0.71272219  1
  Bi2+  Bi110  1  0.38941901  0.76440866  0.22714156  1
  Bi2+  Bi111  1  0.37445737  0.76337747  0.69642612  1
  Bi2+  Bi112  1  0.61762649  -0.00251962  0.22495322  1
  Bi2+  Bi113  1  0.61069563  -0.02442045  0.69308404  1
  Bi2+  Bi114  1  0.61066223  0.22809278  0.19526134  1
  Bi2+  Bi115  1  0.54116444  0.25177926  0.67669188  1
  Bi2+  Bi116  1  0.51292684  0.52408542  0.19611042  1
  Bi2+  Bi117  1  0.61450635  0.53710401  0.70655268  1
  Bi2+  Bi118  1  0.61251968  0.79915685  0.21046922  1
  Bi2+  Bi119  1  0.65344519  0.78059182  0.72089044  1
  Bi2+  Bi120  1  0.87722983  0.03810264  0.20322203  1
  Bi2+  Bi121  1  0.87748674  -0.11832951  0.68337391  1
  Bi2+  Bi122  1  0.80504676  0.29162716  0.24436091  1
  Bi2+  Bi123  1  0.87501937  0.35825962  0.70771206  1
  Bi2+  Bi124  1  0.91589908  0.48161343  0.21670386  1
  Bi2+  Bi125  1  0.86982513  0.59151979  0.70886734  1
  Bi2+  Bi126  1  0.84269802  0.65919949  0.21791924  1
  Bi2+  Bi127  1  0.93390269  0.76281904  0.76747125  1
  S2-  S128  1  0.00646146  0.11271863  0.15016196  1
  S2-  S129  1  -0.00044109  0.00568497  0.64349596  1
  S2-  S130  1  -0.05850473  0.36362752  0.14071665  1
  S2-  S131  1  0.00921492  0.24809706  0.64613091  1
  S2-  S132  1  -0.00359435  0.68129682  0.16404804  1
  S2-  S133  1  0.12030658  0.60253833  0.64437351  1
  S2-  S134  1  -0.09477444  0.89925202  0.15786416  1
  S2-  S135  1  -0.01362126  0.78004843  0.63882597  1
  S2-  S136  1  0.26637381  0.04299563  0.15238625  1
  S2-  S137  1  0.20296249  0.06472537  0.66709559  1
  S2-  S138  1  0.26802320  0.26357630  0.14080308  1
  S2-  S139  1  0.24791172  0.30512042  0.63595342  1
  S2-  S140  1  0.26455299  0.72633990  0.15680282  1
  S2-  S141  1  0.35631317  0.61160387  0.64838891  1
  S2-  S142  1  0.12181562  0.88933109  0.16324659  1
  S2-  S143  1  0.21416274  0.79889590  0.64784064  1
  S2-  S144  1  0.48381377  0.16135647  0.14952755  1
  S2-  S145  1  0.41394194  0.14949285  0.63931814  1
  S2-  S146  1  0.60522257  0.37943926  0.15118520  1
  S2-  S147  1  0.50314024  0.46434885  0.63930329  1
  S2-  S148  1  0.51300347  0.67960451  0.15260859  1
  S2-  S149  1  0.52680382  0.75320978  0.65074890  1
  S2-  S150  1  0.42025786  0.89240288  0.15298397  1
  S2-  S151  1  0.38026372  0.91526219  0.64494162  1
  S2-  S152  1  0.73675417  0.02112941  0.14827374  1
  S2-  S153  1  0.76292936  0.00448388  0.64279734  1
  S2-  S154  1  0.77131098  0.22632859  0.14779236  1
  S2-  S155  1  0.75880549  0.27865584  0.64436267  1
  S2-  S156  1  0.77329440  0.53118212  0.15762426  1
  S2-  S157  1  0.74728874  0.52066216  0.64111699  1
  S2-  S158  1  0.75598940  0.74604289  0.15337829  1
  S2-  S159  1  0.75843411  0.76820336  0.63994421  1
  S2-  S160  1  0.12623759  -0.09303773  0.34942316  1
  S2-  S161  1  0.11129786  0.08167617  0.83892179  1
  S2-  S162  1  0.12367725  0.13358871  0.35611674  1
  S2-  S163  1  -0.02074316  0.26110791  0.84186111  1
  S2-  S164  1  0.23230487  0.51269338  0.35249510  1
  S2-  S165  1  0.15129621  0.41565698  0.85201720  1
  S2-  S166  1  0.06988212  0.71458963  0.32079871  1
  S2-  S167  1  0.13012491  0.84564663  0.86234338  1
  S2-  S168  1  0.32107766  0.00770897  0.33933798  1
  S2-  S169  1  0.30722809  -0.02109148  0.85755071  1
  S2-  S170  1  0.34980204  0.25708075  0.32527725  1
  S2-  S171  1  0.28495655  0.22835544  0.84189271  1
  S2-  S172  1  0.43891270  0.50146144  0.33894709  1
  S2-  S173  1  0.39084010  0.46605444  0.85045913  1
  S2-  S174  1  0.28305619  0.74729069  0.35360660  1
  S2-  S175  1  0.35897884  0.74075302  0.85016932  1
  S2-  S176  1  0.71690135  -0.00135317  0.35390908  1
  S2-  S177  1  0.62219149  -0.01186589  0.84518980  1
  S2-  S178  1  0.59453018  0.26465051  0.34224775  1
  S2-  S179  1  0.52599595  0.24997653  0.85707642  1
  S2-  S180  1  0.65298803  0.49197244  0.33294818  1
  S2-  S181  1  0.63301885  0.51236892  0.84783066  1
  S2-  S182  1  0.68797187  0.74414493  0.34887061  1
  S2-  S183  1  0.67058500  0.75302619  0.85138105  1
  S2-  S184  1  0.94852370  0.01778051  0.29762028  1
  S2-  S185  1  0.87148433  0.03969877  0.83596193  1
  S2-  S186  1  0.84642177  0.17781413  0.35896399  1
  S2-  S187  1  0.75835712  0.24225992  0.85575963  1
  S2-  S188  1  0.87721826  0.60756895  0.36101461  1
  S2-  S189  1  0.87082589  0.62056073  0.86890607  1
  S2-  S190  1  0.88202665  0.84786418  0.34443759  1
  S2-  S191  1  0.90128534  0.84649221  0.86362815  1
  S2-  S192  1  -0.00350825  0.12912839  0.45553858  1
  S2-  S193  1  0.01329521  0.12023641  0.94514725  1
  S2-  S194  1  0.00377054  0.38203457  0.46629751  1
  S2-  S195  1  0.01443069  0.37459912  0.94834102  1
  S2-  S196  1  0.00830051  0.63604249  0.45757486  1
  S2-  S197  1  0.02046980  0.62123665  0.96127731  1
  S2-  S198  1  -0.00073284  0.88790589  0.44743192  1
  S2-  S199  1  0.01463673  0.87003703  0.96773277  1
  S2-  S200  1  0.26012040  0.13560687  0.45282440  1
  S2-  S201  1  0.26416449  0.12531374  0.95363986  1
  S2-  S202  1  0.25328318  0.37708099  0.44534517  1
  S2-  S203  1  0.26458966  0.37178118  0.95582486  1
  S2-  S204  1  0.25108063  0.63422531  0.45821775  1
  S2-  S205  1  0.26280468  0.62137795  0.96121985  1
  S2-  S206  1  0.25639923  0.88590256  0.45638244  1
  S2-  S207  1  0.26792610  0.86895704  0.96476109  1
  S2-  S208  1  0.50918291  0.13282386  0.44897477  1
  S2-  S209  1  0.51477688  0.11790131  0.95111641  1
  S2-  S210  1  0.50253633  0.38408612  0.44616114  1
  S2-  S211  1  0.51773198  0.37734968  0.95738834  1
  S2-  S212  1  0.49848779  0.62970144  0.44911869  1
  S2-  S213  1  0.51383094  0.62450286  0.95405336  1
  S2-  S214  1  0.50411621  0.88132593  0.45882558  1
  S2-  S215  1  0.51195122  0.86943819  0.95720368  1
  S2-  S216  1  0.74967537  0.13253373  0.46313912  1
  S2-  S217  1  0.76437005  0.11453231  0.95576328  1
  S2-  S218  1  0.75458018  0.38572164  0.45772753  1
  S2-  S219  1  0.76230612  0.37977740  0.94883515  1
  S2-  S220  1  0.75096170  0.63047857  0.45925135  1
  S2-  S221  1  0.75891409  0.62534800  0.96757151  1
  S2-  S222  1  0.75354982  0.87982132  0.45561462  1
  S2-  S223  1  0.76360672  0.86769188  0.96344401  1
  S2-  S224  1  0.14122757  0.00196034  0.04516799  1
  S2-  S225  1  0.13887749  0.01583122  0.54116207  1
  S2-  S226  1  0.13699317  0.25169010  0.04115905  1
  S2-  S227  1  0.13103533  0.25647959  0.53869342  1
  S2-  S228  1  0.13943102  0.49817405  0.04922682  1
  S2-  S229  1  0.12944428  0.50236581  0.54206422  1
  S2-  S230  1  0.14004840  0.74906303  0.05298736  1
  S2-  S231  1  0.12961166  0.76450202  0.53466167  1
  S2-  S232  1  0.39160329  0.00363879  0.04744888  1
  S2-  S233  1  0.38111116  0.01605869  0.54083127  1
  S2-  S234  1  0.39459975  0.25188066  0.03722948  1
  S2-  S235  1  0.38284627  0.26384677  0.53324952  1
  S2-  S236  1  0.39335425  0.49885354  0.05141561  1
  S2-  S237  1  0.37453670  0.50621423  0.53596618  1
  S2-  S238  1  0.38893167  0.74662216  0.05094401  1
  S2-  S239  1  0.37999143  0.75687834  0.54445701  1
  S2-  S240  1  0.63233689  -0.00210815  0.04933455  1
  S2-  S241  1  0.62090366  0.01102768  0.54775571  1
  S2-  S242  1  0.64082430  0.24978627  0.04099285  1
  S2-  S243  1  0.62633923  0.26493694  0.54456943  1
  S2-  S244  1  0.64059810  0.50150828  0.05099441  1
  S2-  S245  1  0.62737087  0.50961463  0.53971127  1
  S2-  S246  1  0.63559611  0.75259112  0.05146816  1
  S2-  S247  1  0.62441920  0.75428455  0.54407770  1
  S2-  S248  1  0.88902732  0.00102170  0.04309850  1
  S2-  S249  1  0.87507058  0.01256540  0.54207797  1
  S2-  S250  1  0.88627093  0.25025738  0.03622085  1
  S2-  S251  1  0.87852017  0.26312714  0.54692261  1
  S2-  S252  1  0.88874161  0.50168440  0.04706908  1
  S2-  S253  1  0.88770959  0.50984232  0.55125960  1
  S2-  S254  1  0.89286132  0.74917477  0.04923328  1
  S2-  S255  1  0.87771204  0.75792537  0.53545996  1
