# generated using pymatgen
data_La12Ce14Pr13Nd13Sm12(BiS2)64
_symmetry_space_group_name_H-M   'P 1'
_cell_length_a   16.20309267
_cell_length_b   16.19720086
_cell_length_c   27.10190613
_cell_angle_alpha   90.10252379
_cell_angle_beta   89.97601699
_cell_angle_gamma   90.03991694
_symmetry_Int_Tables_number   1
_chemical_formula_structural   La12Ce14Pr13Nd13Sm12(BiS2)64
_chemical_formula_sum   'La12 Ce14 Pr13 Nd13 Sm12 Bi64 S128'
_cell_volume   7112.73915480
_cell_formula_units_Z   1
loop_
 _symmetry_equiv_pos_site_id
 _symmetry_equiv_pos_as_xyz
  1  'x, y, z'
loop_
 _atom_type_symbol
 _atom_type_oxidation_number
  La3+  3.0
  Ce3+  3.0
  Pr3+  3.0
  Nd3+  3.0
  Sm3+  3.0
  Bi2+  2.0
  S2-  -2.0
loop_
 _atom_site_type_symbol
 _atom_site_label
 _atom_site_symmetry_multiplicity
 _atom_site_fract_x
 _atom_site_fract_y
 _atom_site_fract_z
 _atom_site_occupancy
  La3+  La0  1  0.00744362  0.86616765  0.56115099  1
  La3+  La1  1  0.62983895  0.23759113  0.41960476  1
  La3+  La2  1  0.12080817  0.72840870  0.39559689  1
  La3+  La3  1  0.25916369  0.86085050  0.09233038  1
  La3+  La4  1  0.24451709  0.38021922  0.61128214  1
  La3+  La5  1  0.11915423  0.50127601  0.92109528  1
  La3+  La6  1  0.63887120  0.23277588  0.91232942  1
  La3+  La7  1  0.25415006  0.12998062  0.07953667  1
  La3+  La8  1  0.36720104  -0.00690127  0.93314193  1
  La3+  La9  1  0.75175924  0.61534688  0.56869981  1
  La3+  La10  1  0.75003050  0.86210238  0.07324801  1
  La3+  La11  1  0.38751118  0.50256710  0.90049596  1
  Ce3+  Ce12  1  0.62874015  -0.00623148  0.43855920  1
  Ce3+  Ce13  1  0.13255163  -0.00661028  0.95401817  1
  Ce3+  Ce14  1  0.62724528  -0.00616052  0.94619587  1
  Ce3+  Ce15  1  0.75212474  0.62226863  0.05379572  1
  Ce3+  Ce16  1  0.87820023  0.74750304  0.93759602  1
  Ce3+  Ce17  1  0.25484467  0.87359945  0.56728627  1
  Ce3+  Ce18  1  0.87485097  0.49467604  0.93542594  1
  Ce3+  Ce19  1  0.00362910  0.11921720  0.06115273  1
  Ce3+  Ce20  1  0.74643362  0.36087663  0.56895865  1
  Ce3+  Ce21  1  0.88024514  -0.01238357  0.44563091  1
  Ce3+  Ce22  1  0.50423886  0.11952429  0.55994201  1
  Ce3+  Ce23  1  0.87576681  0.24150140  0.94432233  1
  Ce3+  Ce24  1  0.00510603  0.12028626  0.55015116  1
  Ce3+  Ce25  1  0.12603215  0.49216022  0.44232550  1
  Pr3+  Pr26  1  0.37932378  0.23815472  0.92676610  1
  Pr3+  Pr27  1  0.62432696  0.74684828  0.93452645  1
  Pr3+  Pr28  1  0.49644848  0.87009039  0.06140485  1
  Pr3+  Pr29  1  0.62609357  0.74198432  0.43698813  1
  Pr3+  Pr30  1  0.74974515  0.37055634  0.06195202  1
  Pr3+  Pr31  1  0.25458491  0.37239802  0.04825476  1
  Pr3+  Pr32  1  0.50261731  0.36948207  0.04467878  1
  Pr3+  Pr33  1  0.12915675  0.24354602  0.43298109  1
  Pr3+  Pr34  1  0.87192711  0.74235261  0.43712192  1
  Pr3+  Pr35  1  0.37599616  0.49194491  0.44002608  1
  Pr3+  Pr36  1  0.87628997  0.24387960  0.43563406  1
  Pr3+  Pr37  1  0.00656487  0.61468335  0.56886379  1
  Pr3+  Pr38  1  0.37203612  0.74478734  0.43944699  1
  Nd3+  Nd39  1  0.00208910  0.37176459  0.05141419  1
  Nd3+  Nd40  1  0.75118301  0.86672033  0.56588680  1
  Nd3+  Nd41  1  0.75218293  0.11816530  0.55941707  1
  Nd3+  Nd42  1  0.87621106  0.49352326  0.44752929  1
  Nd3+  Nd43  1  0.37703559  0.24274652  0.44008158  1
  Nd3+  Nd44  1  0.50291505  0.12259819  0.06197662  1
  Nd3+  Nd45  1  0.00252560  0.86976955  0.06545102  1
  Nd3+  Nd46  1  0.75066264  0.12215509  0.06785417  1
  Nd3+  Nd47  1  0.49837304  0.61734023  0.55814115  1
  Nd3+  Nd48  1  0.13066371  -0.00839983  0.43104127  1
  Nd3+  Nd49  1  0.25335438  0.12002134  0.56452871  1
  Nd3+  Nd50  1  0.00287129  0.61873317  0.06147938  1
  Nd3+  Nd51  1  0.12837939  0.24295345  0.93894845  1
  Sm3+  Sm52  1  0.87740944  -0.00651114  0.94966970  1
  Sm3+  Sm53  1  0.50099890  0.61709661  0.05300691  1
  Sm3+  Sm54  1  0.62941247  0.49332801  0.93561318  1
  Sm3+  Sm55  1  0.50264169  0.86835325  0.55354019  1
  Sm3+  Sm56  1  0.12861952  0.74741055  0.94885584  1
  Sm3+  Sm57  1  0.49895065  0.36408037  0.56553316  1
  Sm3+  Sm58  1  0.00401520  0.36400126  0.55778445  1
  Sm3+  Sm59  1  0.25421038  0.61785635  0.05428868  1
  Sm3+  Sm60  1  0.62674267  0.48910938  0.44694286  1
  Sm3+  Sm61  1  0.37544219  -0.00724489  0.44059004  1
  Sm3+  Sm62  1  0.37267609  0.74614045  0.94020216  1
  Sm3+  Sm63  1  0.25312659  0.61751436  0.55824001  1
  Bi2+  Bi64  1  -0.06766499  0.17212473  0.29278802  1
  Bi2+  Bi65  1  0.00579752  0.12590968  0.78737551  1
  Bi2+  Bi66  1  0.06391975  0.31786738  0.30828624  1
  Bi2+  Bi67  1  -0.05860671  0.38246042  0.78278261  1
  Bi2+  Bi68  1  -0.01519227  0.56249683  0.29464894  1
  Bi2+  Bi69  1  -0.00002359  0.66121675  0.79823298  1
  Bi2+  Bi70  1  -0.02021855  0.86722802  0.30145245  1
  Bi2+  Bi71  1  -0.02788712  0.93278273  0.76617364  1
  Bi2+  Bi72  1  0.27535960  0.12529602  0.28460273  1
  Bi2+  Bi73  1  0.26087887  0.09864131  0.79677483  1
  Bi2+  Bi74  1  0.24663611  0.38789584  0.28121812  1
  Bi2+  Bi75  1  0.22648633  0.35873406  0.81591225  1
  Bi2+  Bi76  1  0.26829938  0.57786983  0.25186103  1
  Bi2+  Bi77  1  0.23943629  0.69514426  0.78525818  1
  Bi2+  Bi78  1  0.24670949  0.87946878  0.29902766  1
  Bi2+  Bi79  1  0.32945977  0.86654728  0.81703415  1
  Bi2+  Bi80  1  0.51042044  0.16043820  0.28800520  1
  Bi2+  Bi81  1  0.52844179  0.11067660  0.78521786  1
  Bi2+  Bi82  1  0.48973147  0.44114652  0.27979610  1
  Bi2+  Bi83  1  0.49394823  0.39596417  0.77853244  1
  Bi2+  Bi84  1  0.50191615  0.65942858  0.29885752  1
  Bi2+  Bi85  1  0.51764253  0.65908328  0.79405453  1
  Bi2+  Bi86  1  0.54406737  0.84736809  0.30966669  1
  Bi2+  Bi87  1  0.51721687  0.89123767  0.80489604  1
  Bi2+  Bi88  1  0.73677390  0.12764488  0.28136961  1
  Bi2+  Bi89  1  0.78959800  0.09639659  0.80073164  1
  Bi2+  Bi90  1  0.73996739  0.39448322  0.30056943  1
  Bi2+  Bi91  1  0.76638544  0.43766793  0.82096314  1
  Bi2+  Bi92  1  0.76291002  0.64356966  0.28743125  1
  Bi2+  Bi93  1  0.75905234  0.61308108  0.77708028  1
  Bi2+  Bi94  1  0.73416859  0.89000659  0.29188712  1
  Bi2+  Bi95  1  0.70478336  0.86643874  0.77110848  1
  Bi2+  Bi96  1  0.11062997  0.01533228  0.20657573  1
  Bi2+  Bi97  1  0.14420766  -0.00371825  0.72605342  1
  Bi2+  Bi98  1  0.12521973  0.27080370  0.20187343  1
  Bi2+  Bi99  1  0.09677552  0.23553897  0.70586803  1
  Bi2+  Bi100  1  0.12270604  0.47555897  0.20736463  1
  Bi2+  Bi101  1  0.11616770  0.50056773  0.71953858  1
  Bi2+  Bi102  1  0.11205215  0.74508858  0.19525339  1
  Bi2+  Bi103  1  0.12201960  0.80135691  0.71461071  1
  Bi2+  Bi104  1  0.44581731  -0.03329089  0.23883086  1
  Bi2+  Bi105  1  0.35904001  -0.02733739  0.71822575  1
  Bi2+  Bi106  1  0.38621307  0.29757467  0.20301655  1
  Bi2+  Bi107  1  0.37526398  0.23620341  0.70934842  1
  Bi2+  Bi108  1  0.38476814  0.48835226  0.17796806  1
  Bi2+  Bi109  1  0.38831723  0.54298868  0.69909875  1
  Bi2+  Bi110  1  0.38599707  0.73104434  0.21371793  1
  Bi2+  Bi111  1  0.31512599  0.78440738  0.69412548  1
  Bi2+  Bi112  1  0.62523416  -0.01803024  0.21222560  1
  Bi2+  Bi113  1  0.61722031  0.00341898  0.70887701  1
  Bi2+  Bi114  1  0.61053559  0.25911873  0.18923440  1
  Bi2+  Bi115  1  0.68044360  0.26224372  0.71862192  1
  Bi2+  Bi116  1  0.64492553  0.52282212  0.22730521  1
  Bi2+  Bi117  1  0.67173638  0.46152280  0.71839091  1
  Bi2+  Bi118  1  0.60364574  0.72842412  0.21066234  1
  Bi2+  Bi119  1  0.54891307  0.77274240  0.70926577  1
  Bi2+  Bi120  1  0.87369806  0.01881124  0.23121219  1
  Bi2+  Bi121  1  0.87930816  0.10098515  0.69805152  1
  Bi2+  Bi122  1  0.89011353  0.32618417  0.22521432  1
  Bi2+  Bi123  1  0.86468483  0.30049490  0.68614525  1
  Bi2+  Bi124  1  0.84519657  0.51808759  0.21296427  1
  Bi2+  Bi125  1  0.86931718  0.50340124  0.70090325  1
  Bi2+  Bi126  1  0.85646069  0.74541445  0.20365243  1
  Bi2+  Bi127  1  0.85011027  0.76996128  0.70689633  1
  S2-  S128  1  0.02696108  0.14101186  0.15730358  1
  S2-  S129  1  0.03337555  0.11151952  0.64649895  1
  S2-  S130  1  0.00855045  0.38220725  0.15071051  1
  S2-  S131  1  0.07157350  0.37766435  0.64829250  1
  S2-  S132  1  -0.01684522  0.64409949  0.15979786  1
  S2-  S133  1  0.00304261  0.60478471  0.67140443  1
  S2-  S134  1  0.02293795  0.87755056  0.16461495  1
  S2-  S135  1  -0.01852149  0.86333650  0.66187683  1
  S2-  S136  1  0.24882526  0.08248919  0.17951726  1
  S2-  S137  1  0.24184895  0.21308762  0.64998994  1
  S2-  S138  1  0.25697446  0.28593890  0.13611556  1
  S2-  S139  1  0.22821266  0.37117650  0.72057310  1
  S2-  S140  1  0.25557741  0.69532245  0.14275612  1
  S2-  S141  1  0.23609711  0.55084462  0.64985402  1
  S2-  S142  1  0.21440346  0.88530335  0.19308059  1
  S2-  S143  1  0.24911349  0.99378823  0.63873331  1
  S2-  S144  1  0.46527855  0.16527028  0.15788801  1
  S2-  S145  1  0.46614337  0.14462010  0.65550199  1
  S2-  S146  1  0.52385862  0.38675031  0.14486296  1
  S2-  S147  1  0.40969366  0.38058030  0.65296487  1
  S2-  S148  1  0.48762189  0.62928664  0.15145125  1
  S2-  S149  1  0.51352742  0.61362692  0.65795889  1
  S2-  S150  1  0.41428030  0.87215108  0.15063939  1
  S2-  S151  1  0.50409320  0.90259860  0.64988955  1
  S2-  S152  1  0.69471544  0.11599570  0.16262586  1
  S2-  S153  1  0.69939902  0.12053880  0.65527133  1
  S2-  S154  1  0.75004747  0.32362724  0.15934524  1
  S2-  S155  1  0.62252174  0.34852514  0.63887996  1
  S2-  S156  1  0.73389252  0.71163736  0.13794781  1
  S2-  S157  1  0.75268445  0.65844649  0.66653461  1
  S2-  S158  1  0.81386828  0.89867330  0.16625556  1
  S2-  S159  1  0.75006622  0.88380385  0.66544865  1
  S2-  S160  1  0.10186454  -0.03653573  0.33230455  1
  S2-  S161  1  0.21393104  -0.02123315  0.86827769  1
  S2-  S162  1  0.15678903  0.16972466  0.34179153  1
  S2-  S163  1  0.13966166  0.21154093  0.84062076  1
  S2-  S164  1  0.11965393  0.56516083  0.35379734  1
  S2-  S165  1  0.16613440  0.52032468  0.82262135  1
  S2-  S166  1  0.11606223  0.76795294  0.29089420  1
  S2-  S167  1  0.11365109  0.74558875  0.84999538  1
  S2-  S168  1  0.35657493  -0.00123508  0.34152213  1
  S2-  S169  1  0.39454327  0.10419353  0.85479124  1
  S2-  S170  1  0.37406127  0.22173044  0.33834969  1
  S2-  S171  1  0.37950621  0.29969137  0.82963660  1
  S2-  S172  1  0.36638316  0.49712878  0.33848544  1
  S2-  S173  1  0.36125700  0.48383906  0.79667449  1
  S2-  S174  1  0.28829579  0.75145474  0.35148775  1
  S2-  S175  1  0.37970555  0.66594718  0.85237427  1
  S2-  S176  1  0.62046036  0.08423837  0.35452564  1
  S2-  S177  1  0.64316965  0.07008296  0.85862687  1
  S2-  S178  1  0.56785694  0.29919611  0.32730940  1
  S2-  S179  1  0.58777291  0.26087029  0.81487214  1
  S2-  S180  1  0.65247855  0.51093036  0.35066350  1
  S2-  S181  1  0.54669075  0.51144357  0.84955141  1
  S2-  S182  1  0.74068410  0.75440252  0.36169798  1
  S2-  S183  1  0.66586334  0.71910409  0.83731272  1
  S2-  S184  1  0.85678488  -0.03534336  0.34988881  1
  S2-  S185  1  0.87928194  -0.02146229  0.85131034  1
  S2-  S186  1  0.77076892  0.25062472  0.35585313  1
  S2-  S187  1  0.79806744  0.23502462  0.85733085  1
  S2-  S188  1  0.88322306  0.45957697  0.34923770  1
  S2-  S189  1  0.97018496  0.51582191  0.85414516  1
  S2-  S190  1  0.95691006  0.71456345  0.35044016  1
  S2-  S191  1  0.88773063  0.74877391  0.83868421  1
  S2-  S192  1  0.00207463  0.11648448  0.44346820  1
  S2-  S193  1  0.00283540  0.11679578  0.95277525  1
  S2-  S194  1  0.00105689  0.36770949  0.45245307  1
  S2-  S195  1  0.00082959  0.36626976  0.94538407  1
  S2-  S196  1  0.00131190  0.61718065  0.46131908  1
  S2-  S197  1  0.00182539  0.62611356  0.95573806  1
  S2-  S198  1  0.00814937  0.86148861  0.45129759  1
  S2-  S199  1  0.00410025  0.87171877  0.95698143  1
  S2-  S200  1  0.25471668  0.11588685  0.45484852  1
  S2-  S201  1  0.25003004  0.12383519  0.96337373  1
  S2-  S202  1  0.25252313  0.36794160  0.43970329  1
  S2-  S203  1  0.25232661  0.37524552  0.94046173  1
  S2-  S204  1  0.25023660  0.61904343  0.45440195  1
  S2-  S205  1  0.24929060  0.62152626  0.94926820  1
  S2-  S206  1  0.25192177  0.87150044  0.45774985  1
  S2-  S207  1  0.25266347  0.86346950  0.96998113  1
  S2-  S208  1  0.49784096  0.11560265  0.45227728  1
  S2-  S209  1  0.50680310  0.11841484  0.95574602  1
  S2-  S210  1  0.50263652  0.36842784  0.45360346  1
  S2-  S211  1  0.50845251  0.36545269  0.93891598  1
  S2-  S212  1  0.50192935  0.61701458  0.45103196  1
  S2-  S213  1  0.50281069  0.62115881  0.95057487  1
  S2-  S214  1  0.50063863  0.86895828  0.44854930  1
  S2-  S215  1  0.49746971  0.86987113  0.95247184  1
  S2-  S216  1  0.75828401  0.11225890  0.45406593  1
  S2-  S217  1  0.75605047  0.11451374  0.96206341  1
  S2-  S218  1  0.75088145  0.37052963  0.46055058  1
  S2-  S219  1  0.75009500  0.36943915  0.95453979  1
  S2-  S220  1  0.74949509  0.61438033  0.46026881  1
  S2-  S221  1  0.75103261  0.62024261  0.94759908  1
  S2-  S222  1  0.74999206  0.87003508  0.46041020  1
  S2-  S223  1  0.75250265  0.86983718  0.95781970  1
  S2-  S224  1  0.13132127  -0.00640749  0.05942562  1
  S2-  S225  1  0.12657407  -0.00539043  0.53923020  1
  S2-  S226  1  0.12388418  0.24767742  0.04388810  1
  S2-  S227  1  0.12679219  0.24528327  0.54059721  1
  S2-  S228  1  0.12808909  0.49663137  0.03937388  1
  S2-  S229  1  0.12960202  0.49014915  0.54692086  1
  S2-  S230  1  0.12650719  0.74357719  0.05211285  1
  S2-  S231  1  0.13262802  0.74042879  0.56162655  1
  S2-  S232  1  0.37528913  0.00001042  0.04967297  1
  S2-  S233  1  0.38244028  -0.00691562  0.54461808  1
  S2-  S234  1  0.38027040  0.24603559  0.03615242  1
  S2-  S235  1  0.37848331  0.24417850  0.54482900  1
  S2-  S236  1  0.37749987  0.49747860  0.03563048  1
  S2-  S237  1  0.37570881  0.49249211  0.54628415  1
  S2-  S238  1  0.37937666  0.73890602  0.04343693  1
  S2-  S239  1  0.37731729  0.74421847  0.54800604  1
  S2-  S240  1  0.62641955  -0.00696772  0.05372011  1
  S2-  S241  1  0.62793135  -0.00891269  0.54610382  1
  S2-  S242  1  0.62886866  0.24376274  0.04265466  1
  S2-  S243  1  0.62635337  0.23822133  0.53604147  1
  S2-  S244  1  0.62768140  0.49816487  0.04230650  1
  S2-  S245  1  0.62301044  0.49395873  0.55149866  1
  S2-  S246  1  0.61873990  0.74485977  0.04139211  1
  S2-  S247  1  0.62494569  0.74320131  0.54769669  1
  S2-  S248  1  0.87627341  -0.00430670  0.05517472  1
  S2-  S249  1  0.87700189  -0.00798402  0.55306699  1
  S2-  S250  1  0.87703219  0.24544210  0.05198007  1
  S2-  S251  1  0.87772923  0.24245543  0.54480141  1
  S2-  S252  1  0.87629300  0.49594491  0.04571214  1
  S2-  S253  1  0.87801847  0.48717679  0.55537830  1
  S2-  S254  1  0.88083275  0.74485566  0.04564814  1
  S2-  S255  1  0.87791418  0.74111201  0.55044197  1
