# generated using pymatgen
data_La12Ce14Pr13Nd13Sm12(BiS2)64
_symmetry_space_group_name_H-M   'P 1'
_cell_length_a   16.16628217
_cell_length_b   16.14276444
_cell_length_c   27.18948602
_cell_angle_alpha   89.87508767
_cell_angle_beta   90.06985969
_cell_angle_gamma   90.01311765
_symmetry_Int_Tables_number   1
_chemical_formula_structural   La12Ce14Pr13Nd13Sm12(BiS2)64
_chemical_formula_sum   'La12 Ce14 Pr13 Nd13 Sm12 Bi64 S128'
_cell_volume   7095.57665390
_cell_formula_units_Z   1
loop_
 _symmetry_equiv_pos_site_id
 _symmetry_equiv_pos_as_xyz
  1  'x, y, z'
loop_
 _atom_type_symbol
 _atom_type_oxidation_number
  La3+  3.0
  Ce3+  3.0
  Pr3+  3.0
  Nd3+  3.0
  Sm3+  3.0
  Bi2+  2.0
  S2-  -2.0
loop_
 _atom_site_type_symbol
 _atom_site_label
 _atom_site_symmetry_multiplicity
 _atom_site_fract_x
 _atom_site_fract_y
 _atom_site_fract_z
 _atom_site_occupancy
  La3+  La0  1  0.12786238  0.27468302  0.87575119  1
  La3+  La1  1  0.75295470  0.86707966  0.07171881  1
  La3+  La2  1  0.14010693  0.49575624  0.43043559  1
  La3+  La3  1  0.25887549  0.59825319  0.11068232  1
  La3+  La4  1  0.76130924  0.36529858  0.07387309  1
  La3+  La5  1  0.00252094  0.61569271  0.06898496  1
  La3+  La6  1  0.00141434  0.11816802  0.05269022  1
  La3+  La7  1  0.37609877  0.49939265  0.92911896  1
  La3+  La8  1  0.88793167  0.24988915  0.43318195  1
  La3+  La9  1  0.50034672  0.10900994  0.07345593  1
  La3+  La10  1  0.38850062  0.49717602  0.43471767  1
  La3+  La11  1  0.14590486  -0.00012863  0.42945076  1
  Ce3+  Ce12  1  0.37117465  0.24032127  0.93896919  1
  Ce3+  Ce13  1  0.00019478  0.36536189  0.04737579  1
  Ce3+  Ce14  1  0.62953753  0.24089244  0.94520052  1
  Ce3+  Ce15  1  0.63478707  0.50546820  0.42573384  1
  Ce3+  Ce16  1  0.25095772  0.36650366  0.05170982  1
  Ce3+  Ce17  1  0.25187883  0.86548223  0.06154671  1
  Ce3+  Ce18  1  0.63833575  0.00238620  0.43461767  1
  Ce3+  Ce19  1  0.63823662  0.74549127  0.43625794  1
  Ce3+  Ce20  1  0.88812332  0.74636856  0.44461736  1
  Ce3+  Ce21  1  0.51828368  0.87258768  0.55744585  1
  Ce3+  Ce22  1  0.50088144  0.86199729  0.06257376  1
  Ce3+  Ce23  1  0.01646068  0.37203926  0.56588809  1
  Ce3+  Ce24  1  0.01771979  0.87392901  0.55374377  1
  Ce3+  Ce25  1  0.87326136  0.74132697  0.93551598  1
  Pr3+  Pr26  1  0.87600789  0.49503507  0.92973489  1
  Pr3+  Pr27  1  0.50317663  0.61523953  0.06974181  1
  Pr3+  Pr28  1  0.76396547  0.37122964  0.56067718  1
  Pr3+  Pr29  1  0.13661702  0.74459634  0.43557871  1
  Pr3+  Pr30  1  0.63854102  0.25488015  0.39555327  1
  Pr3+  Pr31  1  0.87165997  0.23696034  0.91755521  1
  Pr3+  Pr32  1  0.27129734  0.12429018  0.57470028  1
  Pr3+  Pr33  1  0.52242764  0.62116041  0.57079634  1
  Pr3+  Pr34  1  0.39060209  0.24403897  0.43243406  1
  Pr3+  Pr35  1  0.49938697  0.36806232  0.05838778  1
  Pr3+  Pr36  1  0.25013323  0.11397825  0.06253566  1
  Pr3+  Pr37  1  0.13031057  -0.00017564  0.92481413  1
  Pr3+  Pr38  1  0.01898653  0.62280466  0.56612206  1
  Nd3+  Nd39  1  0.12490614  0.49671039  0.94039005  1
  Nd3+  Nd40  1  0.62891009  0.49227486  0.94412788  1
  Nd3+  Nd41  1  0.75536830  0.61121100  0.07268444  1
  Nd3+  Nd42  1  0.13550457  0.24606203  0.43925199  1
  Nd3+  Nd43  1  0.38869323  0.74650458  0.44472924  1
  Nd3+  Nd44  1  0.12669089  0.74283608  0.94709640  1
  Nd3+  Nd45  1  0.75167663  0.11681268  0.06764161  1
  Nd3+  Nd46  1  0.38929601  -0.00137271  0.44172962  1
  Nd3+  Nd47  1  0.37605885  -0.00949240  0.93439463  1
  Nd3+  Nd48  1  0.51645324  0.12308096  0.56282566  1
  Nd3+  Nd49  1  0.00242331  0.86668166  0.05104380  1
  Nd3+  Nd50  1  0.26420530  0.87265341  0.56526285  1
  Nd3+  Nd51  1  0.62298842  -0.01099173  0.94170062  1
  Sm3+  Sm52  1  0.37544844  0.73619087  0.95079329  1
  Sm3+  Sm53  1  0.88821002  0.00057523  0.44357609  1
  Sm3+  Sm54  1  0.76442774  0.12406350  0.55697938  1
  Sm3+  Sm55  1  0.26780755  0.61995293  0.55942411  1
  Sm3+  Sm56  1  0.76647729  0.62141232  0.56358246  1
  Sm3+  Sm57  1  0.76520970  0.87445293  0.55111562  1
  Sm3+  Sm58  1  0.26713800  0.37174285  0.55601418  1
  Sm3+  Sm59  1  0.88607762  0.49732722  0.44539479  1
  Sm3+  Sm60  1  0.51724235  0.37288429  0.55420170  1
  Sm3+  Sm61  1  0.87209032  -0.00768183  0.93655854  1
  Sm3+  Sm62  1  0.62795284  0.74130466  0.94411901  1
  Sm3+  Sm63  1  0.01612852  0.12139024  0.56175810  1
  Bi2+  Bi64  1  -0.02418500  0.13142136  0.29773142  1
  Bi2+  Bi65  1  -0.02421179  0.11983316  0.77565431  1
  Bi2+  Bi66  1  0.00829671  0.41076427  0.30395877  1
  Bi2+  Bi67  1  -0.02347225  0.39717495  0.77162035  1
  Bi2+  Bi68  1  0.01057221  0.67971605  0.28675274  1
  Bi2+  Bi69  1  -0.00946667  0.68721471  0.78381626  1
  Bi2+  Bi70  1  -0.05012260  0.86121093  0.25739941  1
  Bi2+  Bi71  1  -0.02903287  0.89932286  0.78709886  1
  Bi2+  Bi72  1  0.22361648  0.14620910  0.33114059  1
  Bi2+  Bi73  1  0.25039328  0.10616549  0.78751844  1
  Bi2+  Bi74  1  0.23696204  0.35815356  0.29985276  1
  Bi2+  Bi75  1  0.23697766  0.44595377  0.78105535  1
  Bi2+  Bi76  1  0.23842564  0.64325909  0.29969041  1
  Bi2+  Bi77  1  0.25040140  0.64071923  0.78887084  1
  Bi2+  Bi78  1  0.31133363  0.91841322  0.24304345  1
  Bi2+  Bi79  1  0.22007122  0.84651835  0.79066587  1
  Bi2+  Bi80  1  0.42446378  0.03618202  0.30968213  1
  Bi2+  Bi81  1  0.46569923  0.12036683  0.79503160  1
  Bi2+  Bi82  1  0.52458060  0.39450327  0.27997931  1
  Bi2+  Bi83  1  0.53683591  0.29761337  0.77231717  1
  Bi2+  Bi84  1  0.49788716  0.64611331  0.29194396  1
  Bi2+  Bi85  1  0.47677353  0.54484888  0.79387633  1
  Bi2+  Bi86  1  0.56370497  0.89417069  0.31623949  1
  Bi2+  Bi87  1  0.48810255  0.93085151  0.81854957  1
  Bi2+  Bi88  1  0.75288686  0.10803607  0.28485069  1
  Bi2+  Bi89  1  0.73288885  0.11399018  0.79283448  1
  Bi2+  Bi90  1  0.78366881  0.37136626  0.27673189  1
  Bi2+  Bi91  1  0.71669121  0.37528126  0.78799283  1
  Bi2+  Bi92  1  0.76072290  0.64357334  0.28069687  1
  Bi2+  Bi93  1  0.73583105  0.62940433  0.79679179  1
  Bi2+  Bi94  1  0.74561025  0.87198878  0.28107665  1
  Bi2+  Bi95  1  0.79077294  0.85914392  0.82095193  1
  Bi2+  Bi96  1  0.16830212  0.05394467  0.23421531  1
  Bi2+  Bi97  1  0.11952598  -0.01388154  0.69127203  1
  Bi2+  Bi98  1  0.09630515  0.28063081  0.23041979  1
  Bi2+  Bi99  1  0.11325989  0.25419823  0.68123963  1
  Bi2+  Bi100  1  0.12372428  0.47170541  0.21606992  1
  Bi2+  Bi101  1  0.08365533  0.56160533  0.70895422  1
  Bi2+  Bi102  1  0.12171401  0.77404420  0.19206891  1
  Bi2+  Bi103  1  0.12555845  0.75315071  0.70321064  1
  Bi2+  Bi104  1  0.38039963  0.07954818  0.19026517  1
  Bi2+  Bi105  1  0.40791770  -0.02992582  0.71200726  1
  Bi2+  Bi106  1  0.36895458  0.22464825  0.26806372  1
  Bi2+  Bi107  1  0.39151562  0.25645066  0.70301492  1
  Bi2+  Bi108  1  0.37835226  0.45654352  0.21344946  1
  Bi2+  Bi109  1  0.35044603  0.49480502  0.68778112  1
  Bi2+  Bi110  1  0.47308129  0.80720502  0.22614447  1
  Bi2+  Bi111  1  0.39862893  0.76900443  0.77779307  1
  Bi2+  Bi112  1  0.62162835  -0.00995045  0.21398037  1
  Bi2+  Bi113  1  0.62047407  -0.04619204  0.70103099  1
  Bi2+  Bi114  1  0.63037060  0.27762860  0.20969264  1
  Bi2+  Bi115  1  0.61614144  0.15515393  0.70177866  1
  Bi2+  Bi116  1  0.62217999  0.57453353  0.21085438  1
  Bi2+  Bi117  1  0.58024594  0.52046993  0.70019660  1
  Bi2+  Bi118  1  0.61793162  0.74895520  0.15601897  1
  Bi2+  Bi119  1  0.61397289  0.78099798  0.75617193  1
  Bi2+  Bi120  1  0.89491778  0.01237444  0.19974306  1
  Bi2+  Bi121  1  0.83651763  -0.02898714  0.71501741  1
  Bi2+  Bi122  1  0.90254409  0.25182675  0.20184031  1
  Bi2+  Bi123  1  0.79617685  0.25264310  0.71291522  1
  Bi2+  Bi124  1  0.86849732  0.50007472  0.20807246  1
  Bi2+  Bi125  1  0.79886665  0.54655092  0.70274168  1
  Bi2+  Bi126  1  0.80634433  0.76731249  0.19134806  1
  Bi2+  Bi127  1  0.83729169  0.76159691  0.72239318  1
  S2-  S128  1  -0.00549590  0.11789284  0.15468464  1
  S2-  S129  1  0.00967039  0.11306088  0.66189605  1
  S2-  S130  1  -0.07210808  0.38156095  0.13686518  1
  S2-  S131  1  -0.00913384  0.36531769  0.66435595  1
  S2-  S132  1  0.09739266  0.60786291  0.15693649  1
  S2-  S133  1  -0.06043409  0.60504073  0.65511544  1
  S2-  S134  1  -0.01560635  0.86902771  0.15066403  1
  S2-  S135  1  0.01946896  0.85610213  0.65044570  1
  S2-  S136  1  0.23374322  0.15353660  0.16259735  1
  S2-  S137  1  0.21644985  0.11187350  0.67363508  1
  S2-  S138  1  0.25247693  0.42703343  0.14503132  1
  S2-  S139  1  0.25506898  0.34957208  0.65342178  1
  S2-  S140  1  0.25940405  0.69339548  0.20391728  1
  S2-  S141  1  0.23201101  0.61230399  0.65552673  1
  S2-  S142  1  0.21206509  0.90783984  0.15422350  1
  S2-  S143  1  0.26702721  0.90146991  0.66330310  1
  S2-  S144  1  0.56393524  0.14550183  0.17016559  1
  S2-  S145  1  0.41219855  0.13046089  0.64312036  1
  S2-  S146  1  0.49908625  0.36093302  0.16025748  1
  S2-  S147  1  0.49052288  0.38465930  0.65285275  1
  S2-  S148  1  0.41838606  0.57946090  0.15606275  1
  S2-  S149  1  0.44881136  0.61836391  0.66478503  1
  S2-  S150  1  0.48877436  0.95794450  0.14289609  1
  S2-  S151  1  0.49587493  0.86083439  0.65465190  1
  S2-  S152  1  0.76063081  0.23381073  0.14513491  1
  S2-  S153  1  0.78573076  0.11276962  0.65453528  1
  S2-  S154  1  0.72916482  0.48652475  0.14892674  1
  S2-  S155  1  0.74404288  0.39973663  0.66024339  1
  S2-  S156  1  0.88218163  0.63048235  0.14394625  1
  S2-  S157  1  0.66120054  0.62931058  0.64198098  1
  S2-  S158  1  0.74973025  0.99631736  0.14450670  1
  S2-  S159  1  0.74980353  0.86297741  0.64858492  1
  S2-  S160  1  0.08182930  0.02601416  0.33386056  1
  S2-  S161  1  0.10784043  0.10406943  0.83929182  1
  S2-  S162  1  0.01976432  0.26068035  0.36320278  1
  S2-  S163  1  0.15647497  0.29516277  0.76963919  1
  S2-  S164  1  0.07948504  0.56428493  0.34216051  1
  S2-  S165  1  0.09824811  0.45405631  0.84331102  1
  S2-  S166  1  0.14433877  0.76947462  0.33472316  1
  S2-  S167  1  0.13122907  0.72158982  0.84800581  1
  S2-  S168  1  0.28708504  -0.02215710  0.36143819  1
  S2-  S169  1  0.26579358  -0.02415149  0.85448926  1
  S2-  S170  1  0.48196665  0.25784588  0.34562694  1
  S2-  S171  1  0.29629864  0.21859053  0.85086056  1
  S2-  S172  1  0.27061605  0.49633356  0.35585518  1
  S2-  S173  1  0.38554423  0.42374335  0.83647478  1
  S2-  S174  1  0.37146182  0.71956585  0.34624344  1
  S2-  S175  1  0.38780533  0.65263211  0.86333400  1
  S2-  S176  1  0.63319244  0.09434853  0.35045610  1
  S2-  S177  1  0.66434779  -0.02383690  0.84456812  1
  S2-  S178  1  0.65860156  0.40687904  0.34419172  1
  S2-  S179  1  0.71814760  0.24531544  0.86096364  1
  S2-  S180  1  0.48689646  0.50781329  0.35226755  1
  S2-  S181  1  0.61904119  0.49070504  0.84365090  1
  S2-  S182  1  0.64523552  0.64407172  0.35665176  1
  S2-  S183  1  0.61302239  0.71734255  0.84663101  1
  S2-  S184  1  0.86639558  0.02408705  0.34697955  1
  S2-  S185  1  0.87063798  0.08616299  0.85231526  1
  S2-  S186  1  0.79480926  0.24242388  0.34468243  1
  S2-  S187  1  0.96765223  0.26111495  0.82843465  1
  S2-  S188  1  0.87313097  0.47340459  0.34782426  1
  S2-  S189  1  0.85803198  0.42685878  0.83398426  1
  S2-  S190  1  0.87964526  0.71602219  0.34935602  1
  S2-  S191  1  0.87821150  0.63319218  0.85853873  1
  S2-  S192  1  0.01412481  0.11837259  0.45715529  1
  S2-  S193  1  -0.00275121  0.11268867  0.94771663  1
  S2-  S194  1  0.01373094  0.37811516  0.46040826  1
  S2-  S195  1  0.00244928  0.36408073  0.94379882  1
  S2-  S196  1  0.01109660  0.62122286  0.45879542  1
  S2-  S197  1  0.00298736  0.61971192  0.95762783  1
  S2-  S198  1  0.01295755  0.87545089  0.44641819  1
  S2-  S199  1  0.00105305  0.87047209  0.94361858  1
  S2-  S200  1  0.26629853  0.12546103  0.46289066  1
  S2-  S201  1  0.25544493  0.11267108  0.95703219  1
  S2-  S202  1  0.26350625  0.36494463  0.45235501  1
  S2-  S203  1  0.24677688  0.36767732  0.94548642  1
  S2-  S204  1  0.26209779  0.62484561  0.45613954  1
  S2-  S205  1  0.24730660  0.61871230  0.95335183  1
  S2-  S206  1  0.26276982  0.86680926  0.45916042  1
  S2-  S207  1  0.25476654  0.86152708  0.95534793  1
  S2-  S208  1  0.51437014  0.12272063  0.45639888  1
  S2-  S209  1  0.50015772  0.11563127  0.95361928  1
  S2-  S210  1  0.51869760  0.36701516  0.45185155  1
  S2-  S211  1  0.50178993  0.36581596  0.95030277  1
  S2-  S212  1  0.51286830  0.62669615  0.46226324  1
  S2-  S213  1  0.50644745  0.61842967  0.96191855  1
  S2-  S214  1  0.51294459  0.87268814  0.45109647  1
  S2-  S215  1  0.49899047  0.86035227  0.95481542  1
  S2-  S216  1  0.76325981  0.12406199  0.45421561  1
  S2-  S217  1  0.74706272  0.11006941  0.95993191  1
  S2-  S218  1  0.76255113  0.37352564  0.45421170  1
  S2-  S219  1  0.75141494  0.36956114  0.95852915  1
  S2-  S220  1  0.76607253  0.62130015  0.45934967  1
  S2-  S221  1  0.74813184  0.61847384  0.95890499  1
  S2-  S222  1  0.76415649  0.87428905  0.44579440  1
  S2-  S223  1  0.74906552  0.86610411  0.95856774  1
  S2-  S224  1  0.12673786  -0.01025012  0.03817209  1
  S2-  S225  1  0.14216891  0.00042021  0.54575809  1
  S2-  S226  1  0.12695007  0.24370160  0.05354035  1
  S2-  S227  1  0.14067003  0.24555764  0.54718656  1
  S2-  S228  1  0.12734559  0.49040051  0.04570852  1
  S2-  S229  1  0.14304562  0.49607179  0.54620512  1
  S2-  S230  1  0.12883170  0.74231680  0.05265582  1
  S2-  S231  1  0.14299277  0.74551322  0.54584483  1
  S2-  S232  1  0.37400616  -0.01160004  0.04119084  1
  S2-  S233  1  0.38996191  -0.00538142  0.54701196  1
  S2-  S234  1  0.37694706  0.23920803  0.04892301  1
  S2-  S235  1  0.39194309  0.25203603  0.54159605  1
  S2-  S236  1  0.37507679  0.49268263  0.04071667  1
  S2-  S237  1  0.38897566  0.49560229  0.54479459  1
  S2-  S238  1  0.37256446  0.73628525  0.05673391  1
  S2-  S239  1  0.38830400  0.74605560  0.55238876  1
  S2-  S240  1  0.62399303  -0.01234034  0.04614270  1
  S2-  S241  1  0.64174666  -0.00056833  0.54523978  1
  S2-  S242  1  0.62263019  0.24013907  0.04892466  1
  S2-  S243  1  0.63874319  0.24672388  0.55918722  1
  S2-  S244  1  0.62593851  0.49081321  0.04877260  1
  S2-  S245  1  0.64036228  0.49562165  0.54214836  1
  S2-  S246  1  0.63033712  0.73855202  0.04620246  1
  S2-  S247  1  0.64382499  0.75084617  0.54216106  1
  S2-  S248  1  0.87723054  -0.01012202  0.04107407  1
  S2-  S249  1  0.88959209  -0.00092616  0.54910169  1
  S2-  S250  1  0.87620396  0.23961929  0.03520776  1
  S2-  S251  1  0.89159931  0.24454150  0.54782651  1
  S2-  S252  1  0.87778633  0.49436577  0.03735772  1
  S2-  S253  1  0.88934816  0.49740878  0.55034368  1
  S2-  S254  1  0.87597152  0.74512687  0.04143376  1
  S2-  S255  1  0.88743769  0.74819859  0.55062325  1
