# generated using pymatgen
data_La12Ce14Pr13Nd13Sm12(BiS2)64
_symmetry_space_group_name_H-M   'P 1'
_cell_length_a   16.08748950
_cell_length_b   16.07191899
_cell_length_c   27.16860181
_cell_angle_alpha   89.82025855
_cell_angle_beta   90.23468792
_cell_angle_gamma   90.07254208
_symmetry_Int_Tables_number   1
_chemical_formula_structural   La12Ce14Pr13Nd13Sm12(BiS2)64
_chemical_formula_sum   'La12 Ce14 Pr13 Nd13 Sm12 Bi64 S128'
_cell_volume   7024.52849681
_cell_formula_units_Z   1
loop_
 _symmetry_equiv_pos_site_id
 _symmetry_equiv_pos_as_xyz
  1  'x, y, z'
loop_
 _atom_type_symbol
 _atom_type_oxidation_number
  La3+  3.0
  Ce3+  3.0
  Pr3+  3.0
  Nd3+  3.0
  Sm3+  3.0
  Bi2+  2.0
  S2-  -2.0
loop_
 _atom_site_type_symbol
 _atom_site_label
 _atom_site_symmetry_multiplicity
 _atom_site_fract_x
 _atom_site_fract_y
 _atom_site_fract_z
 _atom_site_occupancy
  La3+  La0  1  0.63540419  0.51751956  0.42791032  1
  La3+  La1  1  0.13285592  -0.03499078  0.92700393  1
  La3+  La2  1  0.24046574  0.08914129  0.07461794  1
  La3+  La3  1  0.50024276  0.08414141  0.08089724  1
  La3+  La4  1  0.01329960  0.38273987  0.60928924  1
  La3+  La5  1  0.87865289  -0.03637471  0.91904035  1
  La3+  La6  1  0.24776371  0.58973122  0.06584449  1
  La3+  La7  1  0.62415230  0.02195976  0.42061638  1
  La3+  La8  1  0.88931042  0.76645541  0.40747404  1
  La3+  La9  1  0.86769120  0.46432608  0.91356022  1
  La3+  La10  1  0.51465163  0.88718579  0.57316654  1
  La3+  La11  1  -0.00028486  0.63638452  0.57411046  1
  Ce3+  Ce12  1  0.37148816  0.21319010  0.95008323  1
  Ce3+  Ce13  1  0.75543373  0.13708799  0.56273920  1
  Ce3+  Ce14  1  0.38097240  0.01357404  0.43826428  1
  Ce3+  Ce15  1  0.62437448  0.26364954  0.44188452  1
  Ce3+  Ce16  1  0.12808621  0.75820022  0.44428335  1
  Ce3+  Ce17  1  0.75185602  0.34706183  0.06081221  1
  Ce3+  Ce18  1  0.75539964  0.89039562  0.54777274  1
  Ce3+  Ce19  1  0.50208115  0.58982234  0.06140954  1
  Ce3+  Ce20  1  0.11643711  0.47216946  0.92796880  1
  Ce3+  Ce21  1  0.36964977  0.26648678  0.42626291  1
  Ce3+  Ce22  1  0.12977375  0.26709299  0.44363463  1
  Ce3+  Ce23  1  0.49833363  0.83827261  0.06913439  1
  Ce3+  Ce24  1  0.25607658  0.13995138  0.56247826  1
  Ce3+  Ce25  1  0.25797216  0.88539806  0.55430057  1
  Pr3+  Pr26  1  0.88105834  0.01849946  0.43222631  1
  Pr3+  Pr27  1  0.25163973  0.34081202  0.07171883  1
  Pr3+  Pr28  1  0.62641816  0.71911849  0.94852010  1
  Pr3+  Pr29  1  0.75726806  0.63736671  0.56223562  1
  Pr3+  Pr30  1  0.50152522  0.13831370  0.56569818  1
  Pr3+  Pr31  1  0.24961437  0.84023948  0.07007949  1
  Pr3+  Pr32  1  0.36610341  0.46836350  0.93286860  1
  Pr3+  Pr33  1  0.75464747  0.08825310  0.06602151  1
  Pr3+  Pr34  1  0.88468584  0.26124516  0.44501660  1
  Pr3+  Pr35  1  0.85210412  0.21583661  0.90684174  1
  Pr3+  Pr36  1  0.62242910  0.46368977  0.93223523  1
  Pr3+  Pr37  1  0.75184277  0.58580770  0.06577977  1
  Pr3+  Pr38  1  0.13010869  0.01212759  0.44162752  1
  Nd3+  Nd39  1  0.62867886  0.76329395  0.43481801  1
  Nd3+  Nd40  1  0.62455248  -0.03217771  0.95217354  1
  Nd3+  Nd41  1  0.01370415  0.13298078  0.57925117  1
  Nd3+  Nd42  1  -0.00174523  0.83730662  0.06572208  1
  Nd3+  Nd43  1  0.37509503  0.71738952  0.93700748  1
  Nd3+  Nd44  1  -0.00316909  0.58815529  0.05706299  1
  Nd3+  Nd45  1  0.75576820  0.38491729  0.56296044  1
  Nd3+  Nd46  1  0.37630443  0.51990839  0.39056228  1
  Nd3+  Nd47  1  0.50293266  0.39185758  0.54701016  1
  Nd3+  Nd48  1  0.75901859  0.83432684  0.09335916  1
  Nd3+  Nd49  1  0.12126897  0.22025452  0.93686537  1
  Nd3+  Nd50  1  0.25588861  0.63646306  0.55934327  1
  Nd3+  Nd51  1  -0.00557295  0.08965275  0.04898332  1
  Sm3+  Sm52  1  0.49611595  0.34224072  0.06529631  1
  Sm3+  Sm53  1  0.25553880  0.38972915  0.56074180  1
  Sm3+  Sm54  1  0.51086844  0.63856550  0.56425735  1
  Sm3+  Sm55  1  0.88032024  0.51129603  0.44494587  1
  Sm3+  Sm56  1  0.00447114  0.88999359  0.56254925  1
  Sm3+  Sm57  1  0.87322770  0.72117394  0.94072939  1
  Sm3+  Sm58  1  0.38169052  0.75979688  0.43862199  1
  Sm3+  Sm59  1  0.61995350  0.21482790  0.95450597  1
  Sm3+  Sm60  1  -0.00304399  0.34821217  0.05063889  1
  Sm3+  Sm61  1  0.37552139  -0.03752965  0.93784726  1
  Sm3+  Sm62  1  0.12412648  0.72031181  0.93868629  1
  Sm3+  Sm63  1  0.12978683  0.51210253  0.44432094  1
  Bi2+  Bi64  1  0.03318106  0.20774922  0.31724779  1
  Bi2+  Bi65  1  -0.02319559  0.12290177  0.78702814  1
  Bi2+  Bi66  1  -0.00055831  0.39189354  0.35656901  1
  Bi2+  Bi67  1  0.04587053  0.37851181  0.80528305  1
  Bi2+  Bi68  1  0.00560461  0.55332616  0.28825893  1
  Bi2+  Bi69  1  0.08893319  0.68270047  0.79285826  1
  Bi2+  Bi70  1  -0.01313343  0.97553828  0.27290866  1
  Bi2+  Bi71  1  -0.00337154  0.86542648  0.78958732  1
  Bi2+  Bi72  1  0.26542851  0.06228021  0.30631681  1
  Bi2+  Bi73  1  0.28729320  0.14566786  0.78830074  1
  Bi2+  Bi74  1  0.17717027  0.36501102  0.28519290  1
  Bi2+  Bi75  1  0.34696396  0.35509634  0.75115481  1
  Bi2+  Bi76  1  0.17339514  0.65856611  0.29934687  1
  Bi2+  Bi77  1  0.27579756  0.63465564  0.78539165  1
  Bi2+  Bi78  1  0.27181333  0.86727624  0.29704453  1
  Bi2+  Bi79  1  0.26207830  0.88849066  0.79059285  1
  Bi2+  Bi80  1  0.51261837  0.14940722  0.28720583  1
  Bi2+  Bi81  1  0.49820403  0.11353401  0.80387248  1
  Bi2+  Bi82  1  0.51914489  0.40340995  0.27102284  1
  Bi2+  Bi83  1  0.47561009  0.44546423  0.82017638  1
  Bi2+  Bi84  1  0.49343742  0.67219118  0.28835436  1
  Bi2+  Bi85  1  0.48497091  0.60360027  0.75088866  1
  Bi2+  Bi86  1  0.47018182  0.88285048  0.28764136  1
  Bi2+  Bi87  1  0.51194656  0.84832658  0.80087596  1
  Bi2+  Bi88  1  0.76535595  0.13228702  0.29036223  1
  Bi2+  Bi89  1  0.73872118  0.10810383  0.75106564  1
  Bi2+  Bi90  1  0.80566172  0.36854468  0.30026337  1
  Bi2+  Bi91  1  0.63419451  0.34098877  0.80352626  1
  Bi2+  Bi92  1  0.72025080  0.60939063  0.28607812  1
  Bi2+  Bi93  1  0.68646057  0.61503007  0.78525098  1
  Bi2+  Bi94  1  0.76086084  0.85880718  0.28459025  1
  Bi2+  Bi95  1  0.75031273  0.87140668  0.78545657  1
  Bi2+  Bi96  1  0.15113256  0.09708229  0.21500455  1
  Bi2+  Bi97  1  0.13774164  -0.03804819  0.70637284  1
  Bi2+  Bi98  1  0.04309493  0.29336563  0.21526629  1
  Bi2+  Bi99  1  0.12836207  0.22925145  0.71483795  1
  Bi2+  Bi100  1  0.10014933  0.56505813  0.19032860  1
  Bi2+  Bi101  1  0.19453373  0.50074694  0.71514283  1
  Bi2+  Bi102  1  0.09490452  0.81914990  0.25395686  1
  Bi2+  Bi103  1  0.06459656  0.78083340  0.69075442  1
  Bi2+  Bi104  1  0.35595884  0.03410046  0.20395284  1
  Bi2+  Bi105  1  0.38732596  0.02212013  0.72157025  1
  Bi2+  Bi106  1  0.33232595  0.28451936  0.22110770  1
  Bi2+  Bi107  1  0.38630445  0.20688679  0.67716540  1
  Bi2+  Bi108  1  0.31957290  0.54836520  0.20939916  1
  Bi2+  Bi109  1  0.39227259  0.48935721  0.67104733  1
  Bi2+  Bi110  1  0.36737972  0.78545162  0.20361929  1
  Bi2+  Bi111  1  0.35253524  0.76623771  0.71037630  1
  Bi2+  Bi112  1  0.59714634  0.00070560  0.21468313  1
  Bi2+  Bi113  1  0.61308626  -0.03709897  0.71804930  1
  Bi2+  Bi114  1  0.66351476  0.29632879  0.23420454  1
  Bi2+  Bi115  1  0.57135850  0.22067619  0.71720144  1
  Bi2+  Bi116  1  0.63585564  0.55479399  0.19140978  1
  Bi2+  Bi117  1  0.63588503  0.47889297  0.70780539  1
  Bi2+  Bi118  1  0.56108444  0.73808658  0.18775673  1
  Bi2+  Bi119  1  0.63121999  0.74263647  0.69815361  1
  Bi2+  Bi120  1  0.87946600  0.04200420  0.19131511  1
  Bi2+  Bi121  1  0.86275044  -0.02747405  0.70894715  1
  Bi2+  Bi122  1  0.85254452  0.24815461  0.20457108  1
  Bi2+  Bi123  1  0.83889932  0.29657345  0.72575314  1
  Bi2+  Bi124  1  0.88712448  0.46631187  0.21187624  1
  Bi2+  Bi125  1  0.94121668  0.56822199  0.73162413  1
  Bi2+  Bi126  1  0.90857782  0.73246035  0.20930699  1
  Bi2+  Bi127  1  0.86226533  0.77022713  0.71008164  1
  S2-  S128  1  0.03492427  0.08149557  0.14787776  1
  S2-  S129  1  -0.01391576  0.22905135  0.66354383  1
  S2-  S130  1  -0.00529953  0.45709511  0.13043962  1
  S2-  S131  1  -0.04412934  0.40687206  0.71091798  1
  S2-  S132  1  0.01983762  0.69571187  0.13936677  1
  S2-  S133  1  0.05304915  0.54673874  0.65762901  1
  S2-  S134  1  -0.09808473  0.87846797  0.14862054  1
  S2-  S135  1  -0.00492367  0.99157261  0.64438076  1
  S2-  S136  1  0.24266633  0.21881914  0.15031698  1
  S2-  S137  1  0.17171505  0.12085381  0.64859667  1
  S2-  S138  1  0.23083893  0.46547510  0.14435001  1
  S2-  S139  1  0.17832145  0.36759216  0.65143790  1
  S2-  S140  1  0.25525633  0.70978263  0.14452618  1
  S2-  S141  1  0.26515207  0.63841631  0.65947070  1
  S2-  S142  1  0.23626146  0.96184430  0.14807253  1
  S2-  S143  1  0.27151702  0.89320683  0.65208856  1
  S2-  S144  1  0.49047947  0.14419844  0.17955232  1
  S2-  S145  1  0.50418828  0.01795767  0.64314654  1
  S2-  S146  1  0.42467952  0.35375232  0.15603961  1
  S2-  S147  1  0.52620656  0.38853008  0.64693853  1
  S2-  S148  1  0.46774194  0.56975017  0.15764708  1
  S2-  S149  1  0.63686058  0.61422986  0.63680419  1
  S2-  S150  1  0.47578585  0.94323044  0.14601979  1
  S2-  S151  1  0.48519042  0.75615694  0.64214775  1
  S2-  S152  1  0.70959398  0.08161115  0.16461894  1
  S2-  S153  1  0.74210693  0.17896733  0.65908811  1
  S2-  S154  1  0.75561941  0.45479551  0.13775988  1
  S2-  S155  1  0.76763058  0.40541099  0.66265708  1
  S2-  S156  1  0.78708828  0.68247576  0.15202882  1
  S2-  S157  1  0.86111986  0.63307085  0.64799516  1
  S2-  S158  1  0.68641809  0.85874569  0.18749545  1
  S2-  S159  1  0.68008991  0.88300850  0.63571870  1
  S2-  S160  1  0.09946996  0.04274228  0.34388158  1
  S2-  S161  1  0.03196152  0.00234635  0.84470032  1
  S2-  S162  1  0.22458609  0.26417905  0.36021885  1
  S2-  S163  1  0.10250406  0.21558388  0.83482970  1
  S2-  S164  1  0.20691734  0.51738534  0.35447256  1
  S2-  S165  1  0.19225241  0.43470238  0.84434719  1
  S2-  S166  1  0.05671002  0.76262818  0.35547605  1
  S2-  S167  1  0.14426129  0.81528223  0.85633164  1
  S2-  S168  1  0.47717862  0.01246971  0.35481881  1
  S2-  S169  1  0.26841741  0.01190227  0.86009154  1
  S2-  S170  1  0.43648268  0.26856312  0.33111626  1
  S2-  S171  1  0.39230244  0.22871014  0.85241957  1
  S2-  S172  1  0.36822788  0.46150487  0.28880848  1
  S2-  S173  1  0.38023113  0.59800553  0.86073695  1
  S2-  S174  1  0.36957025  0.68031605  0.35030920  1
  S2-  S175  1  0.38439560  0.83801748  0.86216129  1
  S2-  S176  1  0.69490674  -0.01327853  0.32577911  1
  S2-  S177  1  0.56761307  -0.01996540  0.85684018  1
  S2-  S178  1  0.63734827  0.17973030  0.35714428  1
  S2-  S179  1  0.67823186  0.21504598  0.86222747  1
  S2-  S180  1  0.53899953  0.52246773  0.34228906  1
  S2-  S181  1  0.72671614  0.48085115  0.85002805  1
  S2-  S182  1  0.64434957  0.75343366  0.33434310  1
  S2-  S183  1  0.59969749  0.72058140  0.84829185  1
  S2-  S184  1  0.88951472  -0.08590990  0.34828655  1
  S2-  S185  1  0.84445844  0.07874687  0.84092261  1
  S2-  S186  1  0.88549540  0.15211689  0.36176268  1
  S2-  S187  1  0.88147291  0.32322681  0.82797805  1
  S2-  S188  1  0.77439854  0.51341987  0.36044338  1
  S2-  S189  1  0.98214630  0.51679350  0.84040232  1
  S2-  S190  1  0.84956665  0.70929265  0.31124713  1
  S2-  S191  1  0.86597274  0.81237809  0.85469630  1
  S2-  S192  1  0.01149260  0.13829904  0.46584643  1
  S2-  S193  1  -0.00992035  0.10273785  0.94677445  1
  S2-  S194  1  0.00608902  0.39061713  0.46542330  1
  S2-  S195  1  -0.00739377  0.34021583  0.94616292  1
  S2-  S196  1  0.00187974  0.63439470  0.45718804  1
  S2-  S197  1  -0.00359972  0.60101576  0.95055051  1
  S2-  S198  1  0.00417287  0.88789359  0.45804763  1
  S2-  S199  1  0.00005197  0.84162465  0.95576268  1
  S2-  S200  1  0.25551560  0.13538252  0.45681402  1
  S2-  S201  1  0.24445110  0.09702113  0.96474297  1
  S2-  S202  1  0.25969747  0.39749433  0.45661245  1
  S2-  S203  1  0.24860580  0.34028412  0.95763867  1
  S2-  S204  1  0.25562693  0.63703173  0.45466796  1
  S2-  S205  1  0.24264767  0.59469559  0.95423704  1
  S2-  S206  1  0.25614271  0.88369414  0.44609939  1
  S2-  S207  1  0.25225674  0.83950695  0.96249900  1
  S2-  S208  1  0.49591105  0.14475401  0.45715702  1
  S2-  S209  1  0.49792666  0.09031869  0.96670741  1
  S2-  S210  1  0.49853753  0.39225882  0.44135959  1
  S2-  S211  1  0.49729125  0.33997646  0.95796787  1
  S2-  S212  1  0.50337618  0.63716640  0.45366684  1
  S2-  S213  1  0.50301332  0.58961537  0.95670459  1
  S2-  S214  1  0.50400436  0.88428717  0.45465121  1
  S2-  S215  1  0.50107530  0.84232010  0.96414603  1
  S2-  S216  1  0.75266665  0.14044849  0.45836339  1
  S2-  S217  1  0.74765525  0.09315859  0.96014601  1
  S2-  S218  1  0.75539222  0.38214290  0.45608535  1
  S2-  S219  1  0.74639065  0.33810301  0.95640024  1
  S2-  S220  1  0.76430008  0.64688664  0.45339243  1
  S2-  S221  1  0.75095960  0.59564110  0.95392527  1
  S2-  S222  1  0.75430484  0.88795071  0.44395943  1
  S2-  S223  1  0.74844281  0.84545085  0.95292138  1
  S2-  S224  1  0.11767823  -0.03693485  0.04064063  1
  S2-  S225  1  0.13436896  0.00779041  0.54630906  1
  S2-  S226  1  0.11652273  0.22183097  0.04508731  1
  S2-  S227  1  0.13082964  0.26489927  0.54933300  1
  S2-  S228  1  0.12399850  0.46489338  0.03402451  1
  S2-  S229  1  0.13257527  0.51154695  0.54832164  1
  S2-  S230  1  0.12315582  0.71661603  0.04007053  1
  S2-  S231  1  0.12809481  0.76220446  0.55093957  1
  S2-  S232  1  0.37172324  -0.03462212  0.04306960  1
  S2-  S233  1  0.37802842  0.01200324  0.54405326  1
  S2-  S234  1  0.37790569  0.21338322  0.05426289  1
  S2-  S235  1  0.37773376  0.26690227  0.54085373  1
  S2-  S236  1  0.37626350  0.46518598  0.04119651  1
  S2-  S237  1  0.38139731  0.51592370  0.55219418  1
  S2-  S238  1  0.37974460  0.71440049  0.04477558  1
  S2-  S239  1  0.38063003  0.76012086  0.54158923  1
  S2-  S240  1  0.63364975  -0.04235863  0.05749184  1
  S2-  S241  1  0.63001997  0.01873570  0.53619387  1
  S2-  S242  1  0.62374889  0.21887787  0.06033893  1
  S2-  S243  1  0.62669596  0.26276933  0.54819349  1
  S2-  S244  1  0.61985104  0.46291590  0.04132703  1
  S2-  S245  1  0.63218416  0.50959339  0.53574289  1
  S2-  S246  1  0.62866757  0.71761256  0.05549741  1
  S2-  S247  1  0.63203830  0.76061452  0.53821896  1
  S2-  S248  1  0.87254544  -0.03657925  0.03916600  1
  S2-  S249  1  0.87940541  0.01528773  0.54266754  1
  S2-  S250  1  0.87545995  0.22144103  0.05761013  1
  S2-  S251  1  0.88270498  0.26215950  0.55349356  1
  S2-  S252  1  0.87266230  0.46645670  0.02820888  1
  S2-  S253  1  0.88329304  0.50363193  0.54943248  1
  S2-  S254  1  0.87153113  0.71814184  0.04244471  1
  S2-  S255  1  0.88130702  0.77030134  0.54988825  1
