# generated using pymatgen
data_La12Ce14Pr13Nd13Sm12(BiS2)64
_symmetry_space_group_name_H-M   'P 1'
_cell_length_a   16.12280778
_cell_length_b   16.02012710
_cell_length_c   27.34484391
_cell_angle_alpha   90.63012391
_cell_angle_beta   89.94351173
_cell_angle_gamma   90.31140338
_symmetry_Int_Tables_number   1
_chemical_formula_structural   La12Ce14Pr13Nd13Sm12(BiS2)64
_chemical_formula_sum   'La12 Ce14 Pr13 Nd13 Sm12 Bi64 S128'
_cell_volume   7062.34967926
_cell_formula_units_Z   1
loop_
 _symmetry_equiv_pos_site_id
 _symmetry_equiv_pos_as_xyz
  1  'x, y, z'
loop_
 _atom_type_symbol
 _atom_type_oxidation_number
  La3+  3.0
  Ce3+  3.0
  Pr3+  3.0
  Nd3+  3.0
  Sm3+  3.0
  Bi2+  2.0
  S2-  -2.0
loop_
 _atom_site_type_symbol
 _atom_site_label
 _atom_site_symmetry_multiplicity
 _atom_site_fract_x
 _atom_site_fract_y
 _atom_site_fract_z
 _atom_site_occupancy
  La3+  La0  1  0.49218874  0.41433789  0.09908595  1
  La3+  La1  1  0.87031237  0.03834688  0.92625960  1
  La3+  La2  1  0.74760563  0.40973717  0.07939106  1
  La3+  La3  1  0.24583569  0.15938459  0.06116021  1
  La3+  La4  1  -0.01359161  0.34754213  0.57526764  1
  La3+  La5  1  -0.01428691  0.60563739  0.57109225  1
  La3+  La6  1  0.74172364  0.90941771  0.07711765  1
  La3+  La7  1  0.61394926  -0.03294771  0.42649981  1
  La3+  La8  1  0.24224446  0.84499107  0.59414065  1
  La3+  La9  1  -0.01589481  0.85521827  0.58006805  1
  La3+  La10  1  0.24307108  0.40967074  0.07653565  1
  La3+  La11  1  0.25258680  0.11361539  0.58579867  1
  Ce3+  Ce12  1  0.11945160  0.52634495  0.93406225  1
  Ce3+  Ce13  1  0.61301286  0.72670283  0.44475599  1
  Ce3+  Ce14  1  0.12414189  0.02339957  0.89795169  1
  Ce3+  Ce15  1  0.86272625  0.47570910  0.43519135  1
  Ce3+  Ce16  1  -0.00204213  0.65936807  0.06837797  1
  Ce3+  Ce17  1  0.74629915  0.65815304  0.06947793  1
  Ce3+  Ce18  1  0.00219022  0.41459434  0.06997808  1
  Ce3+  Ce19  1  -0.02001287  0.10244996  0.57633741  1
  Ce3+  Ce20  1  0.35156404  0.48562369  0.41200195  1
  Ce3+  Ce21  1  0.36528213  0.72755598  0.43997137  1
  Ce3+  Ce22  1  0.48564156  0.10283677  0.54738324  1
  Ce3+  Ce23  1  0.36757904  0.02948170  0.93809978  1
  Ce3+  Ce24  1  0.11499262  -0.02358711  0.46046950  1
  Ce3+  Ce25  1  0.73671339  0.10423147  0.55318423  1
  Pr3+  Pr26  1  0.37002430  0.28076807  0.94019140  1
  Pr3+  Pr27  1  0.49580565  0.15846301  0.05908468  1
  Pr3+  Pr28  1  0.48908400  0.84975896  0.57537933  1
  Pr3+  Pr29  1  0.73610412  0.35036245  0.56313371  1
  Pr3+  Pr30  1  0.23625574  0.35823086  0.55970394  1
  Pr3+  Pr31  1  0.11843949  0.77583268  0.93173992  1
  Pr3+  Pr32  1  0.86448133  0.22199587  0.42838400  1
  Pr3+  Pr33  1  0.73675568  0.85553812  0.56781647  1
  Pr3+  Pr34  1  0.36123020  -0.02579061  0.44060524  1
  Pr3+  Pr35  1  0.48451097  0.59792924  0.56145388  1
  Pr3+  Pr36  1  0.10941944  0.73052015  0.43911631  1
  Pr3+  Pr37  1  0.37067546  0.77897658  0.93695964  1
  Pr3+  Pr38  1  -0.00405785  0.15233839  0.06199848  1
  Nd3+  Nd39  1  0.49624854  0.65368620  0.05608873  1
  Nd3+  Nd40  1  0.74673221  0.15721068  0.06948284  1
  Nd3+  Nd41  1  0.73998031  0.60031382  0.56477626  1
  Nd3+  Nd42  1  0.23843593  0.60323559  0.55413218  1
  Nd3+  Nd43  1  0.86732891  -0.02871176  0.43620630  1
  Nd3+  Nd44  1  0.62529941  0.78050948  0.94198425  1
  Nd3+  Nd45  1  0.87235043  0.78449970  0.94379941  1
  Nd3+  Nd46  1  0.12040678  0.27849960  0.93148114  1
  Nd3+  Nd47  1  -0.00416657  0.90922878  0.06496981  1
  Nd3+  Nd48  1  0.62081381  0.28311478  0.94739649  1
  Nd3+  Nd49  1  0.24537800  0.65624508  0.06072200  1
  Nd3+  Nd50  1  0.61157722  0.47450238  0.43509068  1
  Nd3+  Nd51  1  0.35073336  0.22022106  0.42089690  1
  Sm3+  Sm52  1  0.62661931  0.03163863  0.93964682  1
  Sm3+  Sm53  1  0.10992651  0.47424986  0.43651549  1
  Sm3+  Sm54  1  0.11245076  0.22293721  0.44759402  1
  Sm3+  Sm55  1  0.24539177  0.90474644  0.05638638  1
  Sm3+  Sm56  1  0.37027613  0.52667876  0.94388641  1
  Sm3+  Sm57  1  0.60952783  0.22802280  0.43400753  1
  Sm3+  Sm58  1  0.87372658  0.28177813  0.94911451  1
  Sm3+  Sm59  1  0.62307590  0.52796327  0.94317455  1
  Sm3+  Sm60  1  0.49538191  0.90675349  0.05483881  1
  Sm3+  Sm61  1  0.48077081  0.35761065  0.54742006  1
  Sm3+  Sm62  1  0.87179649  0.53029008  0.94353050  1
  Sm3+  Sm63  1  0.86253878  0.72354028  0.43864169  1
  Bi2+  Bi64  1  0.03375938  0.21511083  0.31444118  1
  Bi2+  Bi65  1  -0.03420422  0.15778371  0.78827552  1
  Bi2+  Bi66  1  0.00426103  0.40917960  0.30325346  1
  Bi2+  Bi67  1  -0.00242577  0.37200077  0.79126715  1
  Bi2+  Bi68  1  -0.01773629  0.60575985  0.28696792  1
  Bi2+  Bi69  1  -0.00111338  0.57647291  0.79266409  1
  Bi2+  Bi70  1  0.02100585  0.97839324  0.26793796  1
  Bi2+  Bi71  1  -0.02880230  0.84749729  0.79333046  1
  Bi2+  Bi72  1  0.21002574  0.07948977  0.29445146  1
  Bi2+  Bi73  1  0.25228007  0.14859176  0.78569974  1
  Bi2+  Bi74  1  0.26115667  0.35079668  0.29479938  1
  Bi2+  Bi75  1  0.26638151  0.39540947  0.79087743  1
  Bi2+  Bi76  1  0.26681681  0.67566072  0.27176124  1
  Bi2+  Bi77  1  0.26589925  0.63800223  0.80080224  1
  Bi2+  Bi78  1  0.18455218  0.84451334  0.30774374  1
  Bi2+  Bi79  1  0.26495928  0.88354403  0.78619798  1
  Bi2+  Bi80  1  0.52697126  0.14093323  0.28736441  1
  Bi2+  Bi81  1  0.51799185  0.15184003  0.78840367  1
  Bi2+  Bi82  1  0.53251372  0.38057587  0.29177984  1
  Bi2+  Bi83  1  0.54351126  0.35320705  0.78255625  1
  Bi2+  Bi84  1  0.50698133  0.69485903  0.28039697  1
  Bi2+  Bi85  1  0.52174391  0.55224141  0.77280086  1
  Bi2+  Bi86  1  0.46050073  0.85452992  0.34076719  1
  Bi2+  Bi87  1  0.55113367  0.87990734  0.78277422  1
  Bi2+  Bi88  1  0.83926413  0.18305104  0.28052069  1
  Bi2+  Bi89  1  0.71276817  0.11971666  0.77917265  1
  Bi2+  Bi90  1  0.77774995  0.47827990  0.29929768  1
  Bi2+  Bi91  1  0.75257358  0.46670001  0.77574411  1
  Bi2+  Bi92  1  0.78341726  0.66648208  0.23459652  1
  Bi2+  Bi93  1  0.65805537  0.54466068  0.68665210  1
  Bi2+  Bi94  1  0.76262232  0.92675570  0.30250869  1
  Bi2+  Bi95  1  0.75853794  0.86273492  0.80500118  1
  Bi2+  Bi96  1  0.14163192  -0.11372643  0.19405480  1
  Bi2+  Bi97  1  0.07790192  -0.00203435  0.73106818  1
  Bi2+  Bi98  1  0.13961039  0.23273270  0.21439744  1
  Bi2+  Bi99  1  0.13733235  0.25556385  0.69695809  1
  Bi2+  Bi100  1  0.10638980  0.49758726  0.21043134  1
  Bi2+  Bi101  1  0.15071598  0.50726668  0.71924337  1
  Bi2+  Bi102  1  0.13718170  0.69143060  0.18174188  1
  Bi2+  Bi103  1  0.13713095  0.71313865  0.72216127  1
  Bi2+  Bi104  1  0.36204665  -0.04511756  0.26654933  1
  Bi2+  Bi105  1  0.45141289  0.00593471  0.71891550  1
  Bi2+  Bi106  1  0.37428301  0.21935011  0.21216021  1
  Bi2+  Bi107  1  0.42054336  0.24975594  0.70385082  1
  Bi2+  Bi108  1  0.36259711  0.51814889  0.21380868  1
  Bi2+  Bi109  1  0.35913992  0.50822775  0.71159027  1
  Bi2+  Bi110  1  0.38778005  0.78323774  0.20737994  1
  Bi2+  Bi111  1  0.38555811  0.73277701  0.70957861  1
  Bi2+  Bi112  1  0.60271191  0.02488641  0.20734147  1
  Bi2+  Bi113  1  0.62545871  -0.07398959  0.67716398  1
  Bi2+  Bi114  1  0.68054272  0.26629569  0.23350924  1
  Bi2+  Bi115  1  0.67096608  0.18190919  0.67362455  1
  Bi2+  Bi116  1  0.61809499  0.55889140  0.21177620  1
  Bi2+  Bi117  1  0.58168602  0.35447775  0.66659009  1
  Bi2+  Bi118  1  0.64503961  0.80418444  0.22357484  1
  Bi2+  Bi119  1  0.63623843  0.73790272  0.71264692  1
  Bi2+  Bi120  1  0.85686433  -0.05045730  0.20270852  1
  Bi2+  Bi121  1  0.81124259  -0.02193449  0.71363372  1
  Bi2+  Bi122  1  0.95502644  0.19652035  0.19009164  1
  Bi2+  Bi123  1  0.80923088  0.28901112  0.73505651  1
  Bi2+  Bi124  1  0.86917822  0.37191642  0.21612438  1
  Bi2+  Bi125  1  0.93436790  0.47456508  0.69986996  1
  Bi2+  Bi126  1  0.92363083  0.79779062  0.26711440  1
  Bi2+  Bi127  1  0.88688448  0.72471798  0.71415482  1
  S2-  S128  1  -0.02630181  0.03414137  0.14110680  1
  S2-  S129  1  0.00433857  0.21719036  0.65001630  1
  S2-  S130  1  0.11386960  0.36653413  0.14477031  1
  S2-  S131  1  0.12211100  0.39889946  0.64143946  1
  S2-  S132  1  -0.01120109  0.54189186  0.14220253  1
  S2-  S133  1  0.01965990  0.72467239  0.64990401  1
  S2-  S134  1  0.01017374  0.78725471  0.14035212  1
  S2-  S135  1  -0.00828348  0.98643327  0.65260306  1
  S2-  S136  1  0.25739447  0.13829755  0.16152996  1
  S2-  S137  1  0.20224611  0.09183729  0.68757327  1
  S2-  S138  1  0.35479776  0.37244785  0.16018908  1
  S2-  S139  1  0.28584802  0.27169474  0.64379633  1
  S2-  S140  1  0.24762759  0.55752977  0.14397911  1
  S2-  S141  1  0.25404509  0.68074190  0.64534192  1
  S2-  S142  1  0.29941487  0.89868862  0.14995211  1
  S2-  S143  1  0.17633887  0.87606848  0.69257843  1
  S2-  S144  1  0.50013415  0.15131036  0.16042868  1
  S2-  S145  1  0.42140421  0.11249942  0.63816716  1
  S2-  S146  1  0.58067166  0.39261963  0.18768655  1
  S2-  S147  1  0.44535033  0.46470119  0.62832039  1
  S2-  S148  1  0.48433654  0.58231702  0.14713341  1
  S2-  S149  1  0.50076325  0.70733317  0.64448537  1
  S2-  S150  1  0.55242907  0.90392305  0.14759404  1
  S2-  S151  1  0.38040702  0.87751099  0.65669361  1
  S2-  S152  1  0.73570527  0.04386258  0.14811785  1
  S2-  S153  1  0.81765000  0.10388021  0.63977045  1
  S2-  S154  1  0.75433233  0.27551696  0.14715045  1
  S2-  S155  1  0.84574966  0.35878547  0.64393362  1
  S2-  S156  1  0.74538176  0.54728951  0.14745805  1
  S2-  S157  1  0.85088624  0.59867451  0.64463036  1
  S2-  S158  1  0.75344814  0.77638515  0.14693713  1
  S2-  S159  1  0.83954684  0.83931500  0.65077005  1
  S2-  S160  1  0.09653000  -0.03116623  0.36122649  1
  S2-  S161  1  0.13405234  -0.13148551  0.84409708  1
  S2-  S162  1  0.19824800  0.22092344  0.35953142  1
  S2-  S163  1  0.12534721  0.17321115  0.84492325  1
  S2-  S164  1  0.20142692  0.46634768  0.35168271  1
  S2-  S165  1  0.12558317  0.40375514  0.85863372  1
  S2-  S166  1  0.09892970  0.69553414  0.33953003  1
  S2-  S167  1  0.11544195  0.64239950  0.85933639  1
  S2-  S168  1  0.33934960  0.06269515  0.35298888  1
  S2-  S169  1  0.29387400  0.02189004  0.84828379  1
  S2-  S170  1  0.41221317  0.26037478  0.32627605  1
  S2-  S171  1  0.33926531  0.26989032  0.84042118  1
  S2-  S172  1  0.39681823  0.46073632  0.31178296  1
  S2-  S173  1  0.35950358  0.52050735  0.84564681  1
  S2-  S174  1  0.36898390  0.64692895  0.35355605  1
  S2-  S175  1  0.36390992  0.77924538  0.83642638  1
  S2-  S176  1  0.62201174  0.03427889  0.33051090  1
  S2-  S177  1  0.72980481  0.01626618  0.86123268  1
  S2-  S178  1  0.63856183  0.26593889  0.33963638  1
  S2-  S179  1  0.62970770  0.25569479  0.84857020  1
  S2-  S180  1  0.62190676  0.51181761  0.33755177  1
  S2-  S181  1  0.64233347  0.52878889  0.84565096  1
  S2-  S182  1  0.63011929  0.81561693  0.36166703  1
  S2-  S183  1  0.63211956  0.76679050  0.84319358  1
  S2-  S184  1  0.85993048  0.08462012  0.35813368  1
  S2-  S185  1  0.97284606  0.01144286  0.84331378  1
  S2-  S186  1  0.85704227  0.35818233  0.36021502  1
  S2-  S187  1  0.87317779  0.20735388  0.85959269  1
  S2-  S188  1  0.85703414  0.60088840  0.36326475  1
  S2-  S189  1  0.88238292  0.47457731  0.84947226  1
  S2-  S190  1  0.86687391  0.84206561  0.36343368  1
  S2-  S191  1  0.87274453  0.74286778  0.84483848  1
  S2-  S192  1  -0.00969780  0.10075407  0.46190569  1
  S2-  S193  1  -0.00070785  0.15540933  0.95677434  1
  S2-  S194  1  -0.00686172  0.34849926  0.45716659  1
  S2-  S195  1  -0.00731552  0.40547609  0.96019878  1
  S2-  S196  1  -0.00986863  0.60102766  0.45864224  1
  S2-  S197  1  -0.00927240  0.65477200  0.95901913  1
  S2-  S198  1  -0.01245821  0.85065896  0.46662968  1
  S2-  S199  1  -0.00121172  0.90690235  0.95520769  1
  S2-  S200  1  0.23752009  0.10048479  0.46490599  1
  S2-  S201  1  0.24531134  0.15255948  0.95351992  1
  S2-  S202  1  0.23483097  0.35194397  0.45333593  1
  S2-  S203  1  0.24842540  0.40464977  0.95999896  1
  S2-  S204  1  0.23219650  0.60524057  0.45031898  1
  S2-  S205  1  0.25068774  0.65273630  0.95571993  1
  S2-  S206  1  0.23923067  0.84990461  0.44962860  1
  S2-  S207  1  0.24603894  0.90405914  0.95284413  1
  S2-  S208  1  0.48929984  0.10196957  0.44282687  1
  S2-  S209  1  0.49765465  0.15259959  0.95082811  1
  S2-  S210  1  0.48340404  0.35252461  0.44299888  1
  S2-  S211  1  0.49692410  0.40727415  0.94308789  1
  S2-  S212  1  0.49026156  0.60068758  0.45259223  1
  S2-  S213  1  0.49731653  0.65217784  0.94888783  1
  S2-  S214  1  0.48865528  0.85026922  0.46492645  1
  S2-  S215  1  0.49921829  0.90711977  0.94785662  1
  S2-  S216  1  0.72948501  0.10275459  0.44949123  1
  S2-  S217  1  0.74267648  0.16060936  0.96305771  1
  S2-  S218  1  0.73205590  0.34950638  0.45595654  1
  S2-  S219  1  0.74786591  0.40499636  0.95829818  1
  S2-  S220  1  0.73384046  0.60145319  0.45895504  1
  S2-  S221  1  0.74636190  0.65346218  0.95613368  1
  S2-  S222  1  0.74004698  0.84964982  0.46266966  1
  S2-  S223  1  0.74441754  0.90459164  0.96202599  1
  S2-  S224  1  0.12756561  0.02787931  0.05417615  1
  S2-  S225  1  0.12687544  -0.02324561  0.56283333  1
  S2-  S226  1  0.11999215  0.27882536  0.03954735  1
  S2-  S227  1  0.11787144  0.22323100  0.54891996  1
  S2-  S228  1  0.12192500  0.53507767  0.04079716  1
  S2-  S229  1  0.10985129  0.48456210  0.53944940  1
  S2-  S230  1  0.12664407  0.78153249  0.03949320  1
  S2-  S231  1  0.11856548  0.73177698  0.54558089  1
  S2-  S232  1  0.37260118  0.02873794  0.04536716  1
  S2-  S233  1  0.36146163  -0.02605805  0.54692670  1
  S2-  S234  1  0.37530189  0.28593769  0.04686494  1
  S2-  S235  1  0.36649182  0.23186172  0.53140251  1
  S2-  S236  1  0.37401366  0.52738065  0.04544751  1
  S2-  S237  1  0.35691599  0.48004392  0.52562741  1
  S2-  S238  1  0.37365876  0.78036857  0.04424654  1
  S2-  S239  1  0.36345848  0.72846327  0.54369274  1
  S2-  S240  1  0.61710577  0.03225203  0.04244903  1
  S2-  S241  1  0.61058152  -0.02121977  0.54275642  1
  S2-  S242  1  0.61409078  0.28954265  0.05301156  1
  S2-  S243  1  0.60571377  0.23130376  0.53902491  1
  S2-  S244  1  0.61667571  0.52642042  0.04689160  1
  S2-  S245  1  0.61372174  0.47663602  0.54152184  1
  S2-  S246  1  0.61695372  0.78018875  0.04644636  1
  S2-  S247  1  0.61730415  0.72471225  0.54858731  1
  S2-  S248  1  0.86576094  0.03251626  0.03900860  1
  S2-  S249  1  0.85946078  -0.02188686  0.54194911  1
  S2-  S250  1  0.87659180  0.28423389  0.05126749  1
  S2-  S251  1  0.85982192  0.22713266  0.53694071  1
  S2-  S252  1  0.86905826  0.53297768  0.04497505  1
  S2-  S253  1  0.86312122  0.47583290  0.54095625  1
  S2-  S254  1  0.86975238  0.78293323  0.04660331  1
  S2-  S255  1  0.86022348  0.72695105  0.54290532  1
