# generated using pymatgen
data_La12Ce14Pr13Nd13Sm12(BiS2)64
_symmetry_space_group_name_H-M   'P 1'
_cell_length_a   16.14252327
_cell_length_b   16.06620141
_cell_length_c   27.25056274
_cell_angle_alpha   90.24171368
_cell_angle_beta   89.54654512
_cell_angle_gamma   89.85722260
_symmetry_Int_Tables_number   1
_chemical_formula_structural   La12Ce14Pr13Nd13Sm12(BiS2)64
_chemical_formula_sum   'La12 Ce14 Pr13 Nd13 Sm12 Bi64 S128'
_cell_volume   7067.10025614
_cell_formula_units_Z   1
loop_
 _symmetry_equiv_pos_site_id
 _symmetry_equiv_pos_as_xyz
  1  'x, y, z'
loop_
 _atom_type_symbol
 _atom_type_oxidation_number
  La3+  3.0
  Ce3+  3.0
  Pr3+  3.0
  Nd3+  3.0
  Sm3+  3.0
  Bi2+  2.0
  S2-  -2.0
loop_
 _atom_site_type_symbol
 _atom_site_label
 _atom_site_symmetry_multiplicity
 _atom_site_fract_x
 _atom_site_fract_y
 _atom_site_fract_z
 _atom_site_occupancy
  La3+  La0  1  -0.00803828  0.63100163  0.07434683  1
  La3+  La1  1  0.12582918  0.49762844  0.41050053  1
  La3+  La2  1  0.13298293  -0.00023116  0.89581857  1
  La3+  La3  1  0.11665099  0.23611518  0.40610978  1
  La3+  La4  1  0.62561262  0.48694735  0.42449613  1
  La3+  La5  1  0.12885260  -0.01597580  0.43078849  1
  La3+  La6  1  0.62448715  0.74236295  0.43215065  1
  La3+  La7  1  0.74658376  0.87678828  0.07247234  1
  La3+  La8  1  0.74100735  0.60557604  0.57060540  1
  La3+  La9  1  0.74497500  0.12300365  0.07080257  1
  La3+  La10  1  0.74031137  0.61901062  0.07603010  1
  La3+  La11  1  -0.00601026  0.86500642  0.61861709  1
  Ce3+  Ce12  1  0.24542882  0.12116475  0.05970796  1
  Ce3+  Ce13  1  0.75000636  0.85797215  0.56297938  1
  Ce3+  Ce14  1  0.49856179  0.86689096  0.56554328  1
  Ce3+  Ce15  1  0.62363855  0.23472979  0.43526990  1
  Ce3+  Ce16  1  0.00032490  0.36496369  0.56081651  1
  Ce3+  Ce17  1  0.74523521  0.35965348  0.55579102  1
  Ce3+  Ce18  1  0.00221741  0.12164811  0.05970267  1
  Ce3+  Ce19  1  0.00000292  0.87003056  0.05146683  1
  Ce3+  Ce20  1  0.24631029  0.37998398  0.07218024  1
  Ce3+  Ce21  1  0.87327710  0.50138176  0.93790605  1
  Ce3+  Ce22  1  0.62739095  0.73997677  0.93255606  1
  Ce3+  Ce23  1  0.74882110  0.11142227  0.55740446  1
  Ce3+  Ce24  1  0.00056315  0.37575519  0.05906417  1
  Ce3+  Ce25  1  0.24367111  0.36436380  0.54910903  1
  Pr3+  Pr26  1  0.37565333  0.73683141  0.44856071  1
  Pr3+  Pr27  1  0.37117425  0.24712711  0.94602757  1
  Pr3+  Pr28  1  0.24383118  0.11176478  0.56111876  1
  Pr3+  Pr29  1  0.87913160  0.23665096  0.43841250  1
  Pr3+  Pr30  1  0.62301792  0.24575699  0.92757268  1
  Pr3+  Pr31  1  0.24625448  0.86242340  0.56888194  1
  Pr3+  Pr32  1  0.87804484  0.24519436  0.94231309  1
  Pr3+  Pr33  1  -0.00702552  0.60599029  0.57461580  1
  Pr3+  Pr34  1  0.12452841  0.73517970  0.44996473  1
  Pr3+  Pr35  1  -0.00037022  0.11129136  0.56662232  1
  Pr3+  Pr36  1  0.37507330  0.48569928  0.43207049  1
  Pr3+  Pr37  1  0.49842261  0.37383690  0.05560525  1
  Pr3+  Pr38  1  0.49669795  0.11329525  0.57126741  1
  Nd3+  Nd39  1  0.24609410  0.60650461  0.56651678  1
  Nd3+  Nd40  1  0.74596539  0.37384923  0.05548643  1
  Nd3+  Nd41  1  0.49768313  0.36099086  0.56761801  1
  Nd3+  Nd42  1  0.63206905  0.49303946  0.91436840  1
  Nd3+  Nd43  1  0.87633062  0.73435714  0.44473993  1
  Nd3+  Nd44  1  0.37399832  -0.00105182  0.43405466  1
  Nd3+  Nd45  1  0.49667763  0.11984457  0.06455374  1
  Nd3+  Nd46  1  0.37205834  -0.00462143  0.93612338  1
  Nd3+  Nd47  1  0.86779132  0.74661170  0.93551487  1
  Nd3+  Nd48  1  0.62563536  -0.00146141  0.93266107  1
  Nd3+  Nd49  1  0.50091986  0.62274622  0.06012817  1
  Nd3+  Nd50  1  0.87605077  -0.00259126  0.94210320  1
  Nd3+  Nd51  1  0.24194077  0.62599445  0.07627826  1
  Sm3+  Sm52  1  0.50098354  0.60552554  0.56665608  1
  Sm3+  Sm53  1  0.49963220  0.87244749  0.04768490  1
  Sm3+  Sm54  1  0.62596814  -0.01165345  0.43513940  1
  Sm3+  Sm55  1  0.37168729  0.74454485  0.94384229  1
  Sm3+  Sm56  1  0.12702555  0.24978975  0.94146307  1
  Sm3+  Sm57  1  0.37317929  0.23725646  0.44297651  1
  Sm3+  Sm58  1  0.12446643  0.74050395  0.93293200  1
  Sm3+  Sm59  1  0.12506006  0.50221239  0.94167625  1
  Sm3+  Sm60  1  0.88054070  -0.01552219  0.45063668  1
  Sm3+  Sm61  1  0.24800949  0.86935290  0.05881917  1
  Sm3+  Sm62  1  0.87711000  0.48821683  0.44232013  1
  Sm3+  Sm63  1  0.37156604  0.49801276  0.94222633  1
  Bi2+  Bi64  1  -0.04918087  0.11764447  0.29801249  1
  Bi2+  Bi65  1  -0.03025576  0.13517688  0.79716742  1
  Bi2+  Bi66  1  -0.07247471  0.31863502  0.24948449  1
  Bi2+  Bi67  1  0.01203116  0.36828699  0.78804063  1
  Bi2+  Bi68  1  -0.01985367  0.60316887  0.30395211  1
  Bi2+  Bi69  1  0.01385400  0.57007169  0.79005090  1
  Bi2+  Bi70  1  0.11135081  0.87621049  0.29278728  1
  Bi2+  Bi71  1  -0.03373025  0.86792374  0.82029948  1
  Bi2+  Bi72  1  0.25750318  0.09547170  0.30390544  1
  Bi2+  Bi73  1  0.25102892  0.20541121  0.79518424  1
  Bi2+  Bi74  1  0.32660000  0.36087985  0.28464625  1
  Bi2+  Bi75  1  0.19698632  0.39423088  0.82907619  1
  Bi2+  Bi76  1  0.24887930  0.63272639  0.29200639  1
  Bi2+  Bi77  1  0.28083245  0.58099311  0.80300730  1
  Bi2+  Bi78  1  0.28164131  0.88428124  0.22687561  1
  Bi2+  Bi79  1  0.27343653  0.86003217  0.78768205  1
  Bi2+  Bi80  1  0.50663365  0.11346859  0.28319617  1
  Bi2+  Bi81  1  0.51134265  0.12330978  0.78549077  1
  Bi2+  Bi82  1  0.48848885  0.45306883  0.31333562  1
  Bi2+  Bi83  1  0.38115768  0.36780846  0.77793633  1
  Bi2+  Bi84  1  0.48400039  0.65376229  0.30065838  1
  Bi2+  Bi85  1  0.49999693  0.72666406  0.78741192  1
  Bi2+  Bi86  1  0.45494942  0.92400920  0.27963126  1
  Bi2+  Bi87  1  0.53612429  0.92656177  0.80946672  1
  Bi2+  Bi88  1  0.73919357  0.14236649  0.28797687  1
  Bi2+  Bi89  1  0.73167709  0.23895048  0.79826323  1
  Bi2+  Bi90  1  0.73671223  0.34635431  0.27960092  1
  Bi2+  Bi91  1  0.76865658  0.30659633  0.69144750  1
  Bi2+  Bi92  1  0.76639847  0.65237947  0.29311243  1
  Bi2+  Bi93  1  0.75460570  0.63503803  0.80497222  1
  Bi2+  Bi94  1  0.72888242  0.92904646  0.29150795  1
  Bi2+  Bi95  1  0.72730267  0.88715850  0.77973771  1
  Bi2+  Bi96  1  0.10213986  -0.00420145  0.20284629  1
  Bi2+  Bi97  1  0.14511576  0.02920274  0.70402049  1
  Bi2+  Bi98  1  0.13780916  0.20598942  0.21846279  1
  Bi2+  Bi99  1  0.14690835  0.24461658  0.70118734  1
  Bi2+  Bi100  1  0.12540243  0.46292312  0.20857960  1
  Bi2+  Bi101  1  0.15633222  0.47163264  0.71009683  1
  Bi2+  Bi102  1  0.10281435  0.74579738  0.20982009  1
  Bi2+  Bi103  1  0.13154582  0.74172130  0.72418829  1
  Bi2+  Bi104  1  0.39482817  0.04383335  0.19033356  1
  Bi2+  Bi105  1  0.39466954  -0.01620559  0.72899301  1
  Bi2+  Bi106  1  0.41254041  0.24028627  0.20957316  1
  Bi2+  Bi107  1  0.34888912  0.24452471  0.68604064  1
  Bi2+  Bi108  1  0.40349775  0.50864641  0.21003142  1
  Bi2+  Bi109  1  0.39395169  0.60721521  0.70635205  1
  Bi2+  Bi110  1  0.37349971  0.70502360  0.20463013  1
  Bi2+  Bi111  1  0.41108045  0.79988022  0.68707674  1
  Bi2+  Bi112  1  0.64114308  -0.01395410  0.19524538  1
  Bi2+  Bi113  1  0.63183113  0.01948305  0.70757707  1
  Bi2+  Bi114  1  0.60841197  0.26172214  0.21020981  1
  Bi2+  Bi115  1  0.56757417  0.30922818  0.75052230  1
  Bi2+  Bi116  1  0.61060387  0.50818592  0.21224451  1
  Bi2+  Bi117  1  0.59313626  0.51565064  0.70857642  1
  Bi2+  Bi118  1  0.55498765  0.78589324  0.22027328  1
  Bi2+  Bi119  1  0.61396404  0.79099360  0.70329047  1
  Bi2+  Bi120  1  0.93004496  -0.06632410  0.25379580  1
  Bi2+  Bi121  1  0.81413732  0.05549891  0.74208962  1
  Bi2+  Bi122  1  0.83944733  0.17229133  0.19196040  1
  Bi2+  Bi123  1  0.95921792  0.26582945  0.68363416  1
  Bi2+  Bi124  1  0.85519235  0.48773627  0.21036255  1
  Bi2+  Bi125  1  0.89577100  0.47175949  0.71707061  1
  Bi2+  Bi126  1  0.85593365  0.75937245  0.21297305  1
  Bi2+  Bi127  1  0.86984472  0.72475448  0.71291860  1
  S2-  S128  1  0.00309328  0.13913597  0.15820416  1
  S2-  S129  1  0.00586043  0.03316010  0.65703129  1
  S2-  S130  1  -0.01134316  0.39860151  0.15714926  1
  S2-  S131  1  0.01975171  0.46610294  0.64264890  1
  S2-  S132  1  0.08967090  0.60144153  0.15947985  1
  S2-  S133  1  0.01985541  0.69974169  0.65958743  1
  S2-  S134  1  -0.00870603  0.80199755  0.14096866  1
  S2-  S135  1  -0.00908819  0.84910361  0.72820655  1
  S2-  S136  1  0.23312546  0.09273080  0.15721616  1
  S2-  S137  1  0.29656906  0.07791130  0.65615479  1
  S2-  S138  1  0.19702869  0.31948275  0.16167539  1
  S2-  S139  1  0.25712190  0.39012512  0.64761959  1
  S2-  S140  1  0.26379262  0.50409491  0.14870165  1
  S2-  S141  1  0.22998560  0.62662817  0.66701678  1
  S2-  S142  1  0.24005910  0.76845048  0.14016080  1
  S2-  S143  1  0.16629081  0.87184958  0.65961529  1
  S2-  S144  1  0.60649764  0.13281920  0.14144592  1
  S2-  S145  1  0.50092410  0.24135867  0.64530011  1
  S2-  S146  1  0.51135706  0.38588798  0.15603965  1
  S2-  S147  1  0.47665389  0.48418568  0.64218877  1
  S2-  S148  1  0.59853394  0.61983984  0.14356746  1
  S2-  S149  1  0.61534412  0.64269526  0.64430307  1
  S2-  S150  1  0.50946005  0.89348956  0.14533653  1
  S2-  S151  1  0.50360967  0.98421969  0.64137086  1
  S2-  S152  1  0.78123709  0.00799394  0.14787027  1
  S2-  S153  1  0.74146356  0.13356760  0.65510805  1
  S2-  S154  1  0.73639455  0.44838771  0.14642982  1
  S2-  S155  1  0.70332171  0.44173880  0.63934264  1
  S2-  S156  1  0.86438304  0.61965500  0.14860556  1
  S2-  S157  1  0.84621825  0.60130330  0.65234974  1
  S2-  S158  1  0.72506701  0.79340822  0.16191438  1
  S2-  S159  1  0.81994034  0.85071759  0.65261757  1
  S2-  S160  1  0.09792996  0.08767107  0.34885386  1
  S2-  S161  1  0.06867497  0.00284153  0.79573360  1
  S2-  S162  1  0.19257078  0.26782892  0.31319597  1
  S2-  S163  1  0.11055047  0.16808010  0.85504523  1
  S2-  S164  1  0.06714288  0.46793767  0.31072732  1
  S2-  S165  1  0.13515939  0.60951284  0.86323076  1
  S2-  S166  1  0.11715803  0.66020854  0.35782914  1
  S2-  S167  1  0.13152457  0.83331686  0.84833148  1
  S2-  S168  1  0.26515963  -0.03828657  0.35819740  1
  S2-  S169  1  0.29160681  -0.00831045  0.84806170  1
  S2-  S170  1  0.38608133  0.14015434  0.36145151  1
  S2-  S171  1  0.40165668  0.21771385  0.84858970  1
  S2-  S172  1  0.27288752  0.50177441  0.34868088  1
  S2-  S173  1  0.40861635  0.49762012  0.84465599  1
  S2-  S174  1  0.35399586  0.73380513  0.34786330  1
  S2-  S175  1  0.34677696  0.73047493  0.84660917  1
  S2-  S176  1  0.62178749  0.11233654  0.36327358  1
  S2-  S177  1  0.63943581  0.11528794  0.85777651  1
  S2-  S178  1  0.61551630  0.34891922  0.35645866  1
  S2-  S179  1  0.61737247  0.35820503  0.84801791  1
  S2-  S180  1  0.63547189  0.62450241  0.35603342  1
  S2-  S181  1  0.60431320  0.62777546  0.85131453  1
  S2-  S182  1  0.62612648  0.87299185  0.35880858  1
  S2-  S183  1  0.74468557  0.78164146  0.86082754  1
  S2-  S184  1  0.86638557  -0.01384287  0.35196711  1
  S2-  S185  1  0.86132468  0.01143291  0.84258631  1
  S2-  S186  1  0.96280044  0.26329004  0.35032854  1
  S2-  S187  1  0.87979009  0.27284202  0.84284759  1
  S2-  S188  1  0.84886305  0.52015229  0.34523707  1
  S2-  S189  1  0.78324369  0.50066500  0.85323619  1
  S2-  S190  1  0.87875558  0.74197847  0.34244171  1
  S2-  S191  1  0.92788768  0.69431627  0.83972524  1
  S2-  S192  1  0.00031982  0.11175573  0.45876836  1
  S2-  S193  1  0.00430288  0.11855221  0.95416639  1
  S2-  S194  1  0.00537122  0.36779457  0.45200247  1
  S2-  S195  1  0.00334537  0.37432244  0.95018925  1
  S2-  S196  1  -0.00259610  0.60846416  0.45931211  1
  S2-  S197  1  -0.00273193  0.62286962  0.96026332  1
  S2-  S198  1  0.00087369  0.86054879  0.44366169  1
  S2-  S199  1  0.00094352  0.87183013  0.94636262  1
  S2-  S200  1  0.24241377  0.12149038  0.45523147  1
  S2-  S201  1  0.24649049  0.11998921  0.95389176  1
  S2-  S202  1  0.24528575  0.35784036  0.44293218  1
  S2-  S203  1  0.24745362  0.37533550  0.96204514  1
  S2-  S204  1  0.25184040  0.61069410  0.45926513  1
  S2-  S205  1  0.25224273  0.62217042  0.96381306  1
  S2-  S206  1  0.25095966  0.85912472  0.46192882  1
  S2-  S207  1  0.24907904  0.86986722  0.95538920  1
  S2-  S208  1  0.49919031  0.11389028  0.46450843  1
  S2-  S209  1  0.49555972  0.11907623  0.95791258  1
  S2-  S210  1  0.49403964  0.35859528  0.45791000  1
  S2-  S211  1  0.49439491  0.37361379  0.95006666  1
  S2-  S212  1  0.49760230  0.61003734  0.45742759  1
  S2-  S213  1  0.49301322  0.62069041  0.95473389  1
  S2-  S214  1  0.49380983  0.87023617  0.45644405  1
  S2-  S215  1  0.49813789  0.86953528  0.94382348  1
  S2-  S216  1  0.75664533  0.10997005  0.45349443  1
  S2-  S217  1  0.75303319  0.12209498  0.95976180  1
  S2-  S218  1  0.75533478  0.36208362  0.44959474  1
  S2-  S219  1  0.75169549  0.36871383  0.95166998  1
  S2-  S220  1  0.75271999  0.61093964  0.45942377  1
  S2-  S221  1  0.74830692  0.61970123  0.95897635  1
  S2-  S222  1  0.75453537  0.86509173  0.45701574  1
  S2-  S223  1  0.74762003  0.88057232  0.96072861  1
  S2-  S224  1  0.12558926  -0.00777537  0.05351401  1
  S2-  S225  1  0.12190230  -0.01557196  0.54516298  1
  S2-  S226  1  0.12400600  0.24863930  0.04627745  1
  S2-  S227  1  0.12148184  0.23940390  0.55258775  1
  S2-  S228  1  0.12170755  0.50113696  0.04577050  1
  S2-  S229  1  0.12465110  0.48935956  0.53897059  1
  S2-  S230  1  0.12463752  0.74750327  0.03857629  1
  S2-  S231  1  0.12491939  0.73445030  0.55402071  1
  S2-  S232  1  0.37191365  -0.00567346  0.04399443  1
  S2-  S233  1  0.36997822  -0.01313971  0.54246149  1
  S2-  S234  1  0.37164304  0.24685926  0.05412620  1
  S2-  S235  1  0.36865328  0.23800245  0.54581669  1
  S2-  S236  1  0.37524419  0.50156863  0.04667451  1
  S2-  S237  1  0.37185540  0.48669770  0.53945932  1
  S2-  S238  1  0.37754882  0.74859150  0.04749767  1
  S2-  S239  1  0.37488340  0.73272044  0.55537055  1
  S2-  S240  1  0.61929191  -0.00258604  0.03928212  1
  S2-  S241  1  0.62909867  -0.01399706  0.54263890  1
  S2-  S242  1  0.62187205  0.24906719  0.03909916  1
  S2-  S243  1  0.62481055  0.23568412  0.54288275  1
  S2-  S244  1  0.62172142  0.49515614  0.03537736  1
  S2-  S245  1  0.61771192  0.48368465  0.53418129  1
  S2-  S246  1  0.62075748  0.75061058  0.04082682  1
  S2-  S247  1  0.61880062  0.74176128  0.54041177  1
  S2-  S248  1  0.88012470  -0.00160218  0.04620078  1
  S2-  S249  1  0.87527543  -0.01548874  0.55417741  1
  S2-  S250  1  0.87463350  0.24936990  0.05019424  1
  S2-  S251  1  0.87502250  0.23781455  0.54615863  1
  S2-  S252  1  0.87353773  0.49479055  0.04337778  1
  S2-  S253  1  0.87034097  0.48103360  0.54520185  1
  S2-  S254  1  0.86663584  0.75155143  0.04180117  1
  S2-  S255  1  0.87518218  0.73641528  0.54933759  1
