# generated using pymatgen
data_La12Ce14Pr13Nd13Sm12(BiS2)64
_symmetry_space_group_name_H-M   'P 1'
_cell_length_a   16.06615217
_cell_length_b   16.11743335
_cell_length_c   27.24411471
_cell_angle_alpha   90.12545074
_cell_angle_beta   90.03078589
_cell_angle_gamma   90.03230479
_symmetry_Int_Tables_number   1
_chemical_formula_structural   La12Ce14Pr13Nd13Sm12(BiS2)64
_chemical_formula_sum   'La12 Ce14 Pr13 Nd13 Sm12 Bi64 S128'
_cell_volume   7054.71195515
_cell_formula_units_Z   1
loop_
 _symmetry_equiv_pos_site_id
 _symmetry_equiv_pos_as_xyz
  1  'x, y, z'
loop_
 _atom_type_symbol
 _atom_type_oxidation_number
  La3+  3.0
  Ce3+  3.0
  Pr3+  3.0
  Nd3+  3.0
  Sm3+  3.0
  Bi2+  2.0
  S2-  -2.0
loop_
 _atom_site_type_symbol
 _atom_site_label
 _atom_site_symmetry_multiplicity
 _atom_site_fract_x
 _atom_site_fract_y
 _atom_site_fract_z
 _atom_site_occupancy
  La3+  La0  1  0.11632316  0.24323746  0.38999402  1
  La3+  La1  1  0.63893292  0.03638271  0.91196141  1
  La3+  La2  1  0.27692846  0.65231647  0.06801211  1
  La3+  La3  1  0.90540572  0.02905136  0.91588787  1
  La3+  La4  1  0.27992034  0.40163830  0.08331678  1
  La3+  La5  1  0.53647369  0.14919355  0.07469863  1
  La3+  La6  1  0.12171613  0.50648244  0.40481194  1
  La3+  La7  1  0.60952475  0.75362323  0.44227189  1
  La3+  La8  1  0.85337728  0.75047768  0.43368404  1
  La3+  La9  1  0.86448924  0.49219266  0.42063047  1
  La3+  La10  1  0.85460618  0.24508336  0.42393308  1
  La3+  La11  1  0.15430309  0.52346508  0.94136627  1
  Ce3+  Ce12  1  0.40698145  0.77723046  0.93113084  1
  Ce3+  Ce13  1  0.22966096  0.63045725  0.56771039  1
  Ce3+  Ce14  1  0.11423528  0.00260880  0.44170039  1
  Ce3+  Ce15  1  0.65128636  0.52055875  0.93748928  1
  Ce3+  Ce16  1  0.91021927  0.27833997  0.92350477  1
  Ce3+  Ce17  1  -0.01502176  0.62524073  0.55150530  1
  Ce3+  Ce18  1  0.35316259  0.25385086  0.44476188  1
  Ce3+  Ce19  1  0.65330187  0.27141342  0.94554095  1
  Ce3+  Ce20  1  0.64956176  0.77357238  0.93369981  1
  Ce3+  Ce21  1  0.02209325  0.40875313  0.07209276  1
  Ce3+  Ce22  1  0.74115092  0.37856204  0.56163539  1
  Ce3+  Ce23  1  0.35531142  0.50146970  0.44741143  1
  Ce3+  Ce24  1  0.15195590  0.02500855  0.94090889  1
  Ce3+  Ce25  1  0.60864423  0.25104870  0.44912286  1
  Pr3+  Pr26  1  -0.01856959  0.87701051  0.55092041  1
  Pr3+  Pr27  1  0.90880262  0.77391024  0.91079472  1
  Pr3+  Pr28  1  0.15883504  0.77573354  0.92750299  1
  Pr3+  Pr29  1  0.02076493  0.65569822  0.06043815  1
  Pr3+  Pr30  1  0.48305254  0.13082551  0.57233539  1
  Pr3+  Pr31  1  0.28057962  0.14845584  0.07127218  1
  Pr3+  Pr32  1  0.85010321  0.00278116  0.43113995  1
  Pr3+  Pr33  1  -0.01246788  0.12960208  0.55568704  1
  Pr3+  Pr34  1  0.78579424  0.15138411  0.06379322  1
  Pr3+  Pr35  1  0.61280496  0.49957594  0.43227379  1
  Pr3+  Pr36  1  0.23534872  0.12992766  0.56528167  1
  Pr3+  Pr37  1  0.23351438  0.87247116  0.57045419  1
  Pr3+  Pr38  1  0.75956630  0.85601992  0.61861720  1
  Nd3+  Nd39  1  0.39779355  0.27217343  0.94136971  1
  Nd3+  Nd40  1  0.73855812  0.12287240  0.56803946  1
  Nd3+  Nd41  1  0.53253261  0.89885580  0.05905596  1
  Nd3+  Nd42  1  0.02315369  0.89649310  0.05525600  1
  Nd3+  Nd43  1  0.49801927  0.88165071  0.57904612  1
  Nd3+  Nd44  1  0.22893942  0.38739539  0.56970004  1
  Nd3+  Nd45  1  0.52601270  0.40184102  0.06323657  1
  Nd3+  Nd46  1  0.36292554  -0.00043105  0.44640504  1
  Nd3+  Nd47  1  0.10651443  0.75143846  0.42580645  1
  Nd3+  Nd48  1  0.90959113  0.52028811  0.92574924  1
  Nd3+  Nd49  1  0.27811723  0.89611704  0.06398622  1
  Nd3+  Nd50  1  0.60502461  0.00113210  0.44244648  1
  Nd3+  Nd51  1  0.39670022  0.52155939  0.93666411  1
  Sm3+  Sm52  1  0.52754913  0.65030005  0.05134620  1
  Sm3+  Sm53  1  0.40046662  0.02500785  0.94616099  1
  Sm3+  Sm54  1  -0.00898879  0.37732362  0.54141538  1
  Sm3+  Sm55  1  0.49069836  0.62666910  0.56118571  1
  Sm3+  Sm56  1  0.73772148  0.61934050  0.56598065  1
  Sm3+  Sm57  1  0.48653001  0.37914120  0.55531664  1
  Sm3+  Sm58  1  0.77780519  0.65110692  0.04429242  1
  Sm3+  Sm59  1  0.78092257  0.40231641  0.05488867  1
  Sm3+  Sm60  1  0.02662850  0.15228430  0.05788297  1
  Sm3+  Sm61  1  0.15652865  0.27748133  0.94645887  1
  Sm3+  Sm62  1  0.77650185  0.90180540  0.04386790  1
  Sm3+  Sm63  1  0.35985572  0.75128400  0.45371952  1
  Bi2+  Bi64  1  -0.02078640  0.06523939  0.27710851  1
  Bi2+  Bi65  1  0.04454284  0.10964453  0.75919994  1
  Bi2+  Bi66  1  -0.02211377  0.38889865  0.27653786  1
  Bi2+  Bi67  1  -0.01787452  0.29231594  0.76623950  1
  Bi2+  Bi68  1  0.01786763  0.64906295  0.27699134  1
  Bi2+  Bi69  1  -0.06120423  0.53876444  0.78491424  1
  Bi2+  Bi70  1  -0.03433670  0.87287562  0.28287497  1
  Bi2+  Bi71  1  0.03716428  0.89356624  0.79215221  1
  Bi2+  Bi72  1  0.30001649  0.06339692  0.32018708  1
  Bi2+  Bi73  1  0.25869340  0.16560007  0.79212648  1
  Bi2+  Bi74  1  0.29561206  0.38252143  0.29623422  1
  Bi2+  Bi75  1  0.16507155  0.39343485  0.81550178  1
  Bi2+  Bi76  1  0.27889913  0.72900131  0.28655593  1
  Bi2+  Bi77  1  0.29998483  0.61264419  0.77982731  1
  Bi2+  Bi78  1  0.19099991  0.89553978  0.32711824  1
  Bi2+  Bi79  1  0.25062968  0.98002066  0.81465544  1
  Bi2+  Bi80  1  0.53612950  0.11617763  0.25004035  1
  Bi2+  Bi81  1  0.48018081  0.15788650  0.79198733  1
  Bi2+  Bi82  1  0.49315608  0.29251032  0.29823316  1
  Bi2+  Bi83  1  0.46260512  0.35737824  0.79201573  1
  Bi2+  Bi84  1  0.52594618  0.49377600  0.30811639  1
  Bi2+  Bi85  1  0.48583115  0.54922657  0.80286602  1
  Bi2+  Bi86  1  0.49202494  0.86827789  0.30413733  1
  Bi2+  Bi87  1  0.42079939  0.87271052  0.80947149  1
  Bi2+  Bi88  1  0.73211644  0.11612333  0.29320206  1
  Bi2+  Bi89  1  0.74847726  0.15588836  0.78727373  1
  Bi2+  Bi90  1  0.71208192  0.37562619  0.29749732  1
  Bi2+  Bi91  1  0.74002576  0.40252676  0.78644020  1
  Bi2+  Bi92  1  0.76017413  0.64603795  0.28285961  1
  Bi2+  Bi93  1  0.73495487  0.61703491  0.75817667  1
  Bi2+  Bi94  1  0.74783333  0.87111604  0.28705674  1
  Bi2+  Bi95  1  0.72900204  0.83434093  0.81288832  1
  Bi2+  Bi96  1  0.12218903  -0.06258190  0.21617280  1
  Bi2+  Bi97  1  0.15980541  -0.09211859  0.69645123  1
  Bi2+  Bi98  1  0.09226634  0.21735448  0.19404410  1
  Bi2+  Bi99  1  0.12019538  0.24999443  0.68938185  1
  Bi2+  Bi100  1  0.13293038  0.48689639  0.19916498  1
  Bi2+  Bi101  1  0.09186549  0.51622407  0.70316652  1
  Bi2+  Bi102  1  0.13007602  0.74231077  0.20266781  1
  Bi2+  Bi103  1  0.15665295  0.73572441  0.74545302  1
  Bi2+  Bi104  1  0.32234155  -0.06708178  0.24035776  1
  Bi2+  Bi105  1  0.34851458  -0.04952028  0.71093287  1
  Bi2+  Bi106  1  0.34648043  0.23095700  0.20618092  1
  Bi2+  Bi107  1  0.37490211  0.20784935  0.69968635  1
  Bi2+  Bi108  1  0.39823409  0.49706803  0.21869200  1
  Bi2+  Bi109  1  0.35155177  0.45577653  0.71570902  1
  Bi2+  Bi110  1  0.41340420  0.74240296  0.19844309  1
  Bi2+  Bi111  1  0.37918899  0.75651653  0.71461763  1
  Bi2+  Bi112  1  0.60349375  -0.06412636  0.21670879  1
  Bi2+  Bi113  1  0.60379921  -0.02030773  0.71557782  1
  Bi2+  Bi114  1  0.61007468  0.28337196  0.20385944  1
  Bi2+  Bi115  1  0.60185217  0.24340617  0.71068132  1
  Bi2+  Bi116  1  0.59619130  0.49135444  0.19419879  1
  Bi2+  Bi117  1  0.60042138  0.44822809  0.70429269  1
  Bi2+  Bi118  1  0.57012065  0.67192955  0.25696388  1
  Bi2+  Bi119  1  0.56319305  0.69785102  0.72694156  1
  Bi2+  Bi120  1  0.84255742  -0.01854273  0.20477945  1
  Bi2+  Bi121  1  0.88234915  0.00939215  0.70879484  1
  Bi2+  Bi122  1  0.80697033  0.21278437  0.20220190  1
  Bi2+  Bi123  1  0.80226944  0.26252501  0.69548851  1
  Bi2+  Bi124  1  0.79503036  0.50427718  0.21006471  1
  Bi2+  Bi125  1  0.87847196  0.44484522  0.69009135  1
  Bi2+  Bi126  1  0.85468801  0.77139636  0.19124190  1
  Bi2+  Bi127  1  0.90903050  0.73744826  0.70973833  1
  S2-  S128  1  -0.05274444  0.14901753  0.14589726  1
  S2-  S129  1  -0.01775313  0.11280761  0.65708552  1
  S2-  S130  1  0.01608903  0.36179453  0.17106405  1
  S2-  S131  1  0.02938819  0.38842222  0.64104382  1
  S2-  S132  1  0.02081716  0.55074310  0.14321381  1
  S2-  S133  1  0.00690637  0.63473860  0.65049142  1
  S2-  S134  1  0.00342464  0.78596101  0.13263901  1
  S2-  S135  1  -0.06435841  0.87578271  0.64832388  1
  S2-  S136  1  0.22456767  0.12406898  0.16671699  1
  S2-  S137  1  0.23401599  0.12178525  0.66631853  1
  S2-  S138  1  0.21568157  0.33749227  0.17464076  1
  S2-  S139  1  0.26326424  0.33052923  0.66525784  1
  S2-  S140  1  0.27382324  0.54565297  0.15096163  1
  S2-  S141  1  0.22982443  0.52286542  0.64639267  1
  S2-  S142  1  0.26791675  0.78042376  0.13922079  1
  S2-  S143  1  0.20522622  0.75030324  0.64327123  1
  S2-  S144  1  0.43382168  0.13058051  0.15605165  1
  S2-  S145  1  0.48812839  0.01851712  0.65209902  1
  S2-  S146  1  0.42863999  0.37930629  0.14665667  1
  S2-  S147  1  0.48677649  0.35010591  0.65219794  1
  S2-  S148  1  0.54089569  0.65553206  0.14961805  1
  S2-  S149  1  0.51191715  0.58931719  0.65692938  1
  S2-  S150  1  0.47850838  0.88902593  0.15427147  1
  S2-  S151  1  0.59696790  0.84378688  0.66282761  1
  S2-  S152  1  0.67859675  0.14703668  0.14522057  1
  S2-  S153  1  0.73769124  0.02651569  0.65288163  1
  S2-  S154  1  0.80045043  0.36806768  0.15089814  1
  S2-  S155  1  0.73297142  0.48854528  0.63691334  1
  S2-  S156  1  0.78992100  0.64477782  0.14227778  1
  S2-  S157  1  0.77817349  0.69244380  0.65624686  1
  S2-  S158  1  0.74196372  0.88715138  0.14142018  1
  S2-  S159  1  0.78777178  0.86262528  0.72663384  1
  S2-  S160  1  0.13121239  0.07051255  0.35208302  1
  S2-  S161  1  0.06522447  0.03780211  0.85522834  1
  S2-  S162  1  0.03969646  0.22630870  0.29183251  1
  S2-  S163  1  0.06207933  0.29035974  0.86075392  1
  S2-  S164  1  0.13175264  0.38859565  0.32868205  1
  S2-  S165  1  0.05509740  0.51818947  0.85431007  1
  S2-  S166  1  0.15005863  0.65390362  0.34415148  1
  S2-  S167  1  0.05719447  0.75818425  0.84416654  1
  S2-  S168  1  0.47617323  -0.00232161  0.36859509  1
  S2-  S169  1  0.47609495  0.02889350  0.85752674  1
  S2-  S170  1  0.28635002  0.23142647  0.35332297  1
  S2-  S171  1  0.27753572  0.28327768  0.86570062  1
  S2-  S172  1  0.30415653  0.51013953  0.35496245  1
  S2-  S173  1  0.27483901  0.50958872  0.86331379  1
  S2-  S174  1  0.40765148  0.75297680  0.35802047  1
  S2-  S175  1  0.29580480  0.77431264  0.85704617  1
  S2-  S176  1  0.71135516  -0.00878582  0.35920724  1
  S2-  S177  1  0.67852407  -0.00930086  0.81316086  1
  S2-  S178  1  0.68496834  0.24204924  0.36168969  1
  S2-  S179  1  0.63248177  0.19738991  0.85832548  1
  S2-  S180  1  0.72772131  0.51993280  0.35421194  1
  S2-  S181  1  0.65896938  0.53361139  0.83961038  1
  S2-  S182  1  0.71843209  0.74977516  0.36065970  1
  S2-  S183  1  0.56217568  0.78165510  0.84974945  1
  S2-  S184  1  0.87580566  0.11555033  0.35171322  1
  S2-  S185  1  0.88481389  -0.09476150  0.84258601  1
  S2-  S186  1  0.86461934  0.35462132  0.34301351  1
  S2-  S187  1  0.87477895  0.16251610  0.84960962  1
  S2-  S188  1  0.97328370  0.52557784  0.33803379  1
  S2-  S189  1  0.87133396  0.40437460  0.85028968  1
  S2-  S190  1  0.96573585  0.75221214  0.35298085  1
  S2-  S191  1  0.84400932  0.68556046  0.82344162  1
  S2-  S192  1  -0.00554843  0.13127322  0.45045428  1
  S2-  S193  1  0.03030851  0.15231646  0.95681090  1
  S2-  S194  1  -0.00290546  0.36491840  0.44017646  1
  S2-  S195  1  0.02811818  0.39983653  0.96352136  1
  S2-  S196  1  -0.01267772  0.62275555  0.44836958  1
  S2-  S197  1  0.02499817  0.65139080  0.95235476  1
  S2-  S198  1  -0.01625444  0.88419478  0.44593687  1
  S2-  S199  1  0.02809347  0.89943646  0.95071616  1
  S2-  S200  1  0.23744706  0.12470924  0.45989468  1
  S2-  S201  1  0.27626707  0.14605750  0.96183987  1
  S2-  S202  1  0.23141515  0.37681410  0.45569590  1
  S2-  S203  1  0.28006668  0.39681116  0.97121519  1
  S2-  S204  1  0.23689695  0.63143986  0.45973386  1
  S2-  S205  1  0.28212601  0.65171165  0.95909479  1
  S2-  S206  1  0.23831926  0.87458329  0.46086673  1
  S2-  S207  1  0.27919019  0.90301114  0.95863884  1
  S2-  S208  1  0.48042562  0.13273171  0.46458740  1
  S2-  S209  1  0.52192953  0.15125711  0.96402528  1
  S2-  S210  1  0.48306546  0.37671252  0.45016785  1
  S2-  S211  1  0.52369760  0.39702681  0.95264785  1
  S2-  S212  1  0.48496651  0.62446971  0.45543684  1
  S2-  S213  1  0.52480171  0.64372579  0.94729631  1
  S2-  S214  1  0.48424315  0.87317931  0.47108552  1
  S2-  S215  1  0.52850679  0.90353872  0.95430581  1
  S2-  S216  1  0.73063614  0.12612275  0.46338594  1
  S2-  S217  1  0.77553441  0.14858255  0.95655359  1
  S2-  S218  1  0.73411413  0.37474693  0.45741780  1
  S2-  S219  1  0.77453590  0.39817665  0.95193040  1
  S2-  S220  1  0.73460622  0.62212909  0.46138245  1
  S2-  S221  1  0.77605734  0.64568309  0.94052365  1
  S2-  S222  1  0.73108597  0.87807793  0.45915837  1
  S2-  S223  1  0.76592357  0.90664283  0.94097492  1
  S2-  S224  1  0.14916946  0.02171815  0.05080349  1
  S2-  S225  1  0.11216242  0.00020295  0.55073607  1
  S2-  S226  1  0.15001632  0.27296516  0.05241375  1
  S2-  S227  1  0.11375732  0.25476638  0.55178037  1
  S2-  S228  1  0.15093199  0.52670757  0.04751643  1
  S2-  S229  1  0.10937223  0.50487081  0.53824816  1
  S2-  S230  1  0.15031725  0.77707712  0.03588566  1
  S2-  S231  1  0.10615549  0.75398816  0.53518532  1
  S2-  S232  1  0.40230131  0.02005404  0.04982540  1
  S2-  S233  1  0.35846949  -0.00049162  0.55288800  1
  S2-  S234  1  0.40398892  0.27059798  0.04636795  1
  S2-  S235  1  0.35845048  0.25838132  0.55077603  1
  S2-  S236  1  0.40683048  0.52732440  0.04390837  1
  S2-  S237  1  0.36509701  0.50377110  0.55185173  1
  S2-  S238  1  0.40770355  0.77580528  0.03968724  1
  S2-  S239  1  0.36929168  0.75254336  0.55785619  1
  S2-  S240  1  0.65431710  0.02342780  0.04256868  1
  S2-  S241  1  0.60697480  0.01029720  0.54829142  1
  S2-  S242  1  0.65465197  0.28183138  0.04947804  1
  S2-  S243  1  0.61200032  0.25298097  0.55536550  1
  S2-  S244  1  0.65243728  0.52457746  0.04481402  1
  S2-  S245  1  0.60745857  0.49993450  0.53999809  1
  S2-  S246  1  0.65279610  0.77266139  0.03997911  1
  S2-  S247  1  0.61562466  0.74519895  0.55270206  1
  S2-  S248  1  0.90238572  0.02131865  0.04055195  1
  S2-  S249  1  0.86219443  0.00620782  0.54165166  1
  S2-  S250  1  0.90423129  0.27839371  0.04122823  1
  S2-  S251  1  0.86287507  0.25365731  0.54451079  1
  S2-  S252  1  0.89731454  0.52717522  0.03559557  1
  S2-  S253  1  0.86586522  0.49803372  0.53600030  1
  S2-  S254  1  0.89356447  0.77726051  0.02612411  1
  S2-  S255  1  0.85769470  0.74997366  0.54374111  1
