# generated using pymatgen
data_La12Ce14Pr13Nd13Sm12(BiS2)64
_symmetry_space_group_name_H-M   'P 1'
_cell_length_a   16.08663169
_cell_length_b   16.14442764
_cell_length_c   27.30364364
_cell_angle_alpha   90.02444368
_cell_angle_beta   90.13849196
_cell_angle_gamma   89.98310193
_symmetry_Int_Tables_number   1
_chemical_formula_structural   La12Ce14Pr13Nd13Sm12(BiS2)64
_chemical_formula_sum   'La12 Ce14 Pr13 Nd13 Sm12 Bi64 S128'
_cell_volume   7090.99291526
_cell_formula_units_Z   1
loop_
 _symmetry_equiv_pos_site_id
 _symmetry_equiv_pos_as_xyz
  1  'x, y, z'
loop_
 _atom_type_symbol
 _atom_type_oxidation_number
  La3+  3.0
  Ce3+  3.0
  Pr3+  3.0
  Nd3+  3.0
  Sm3+  3.0
  Bi2+  2.0
  S2-  -2.0
loop_
 _atom_site_type_symbol
 _atom_site_label
 _atom_site_symmetry_multiplicity
 _atom_site_fract_x
 _atom_site_fract_y
 _atom_site_fract_z
 _atom_site_occupancy
  La3+  La0  1  0.38432807  0.02106290  0.92889402  1
  La3+  La1  1  0.26786789  0.13003469  0.08647765  1
  La3+  La2  1  0.88413160  0.01134056  0.93067446  1
  La3+  La3  1  0.77004958  0.64802313  0.08394763  1
  La3+  La4  1  0.48529275  0.11850285  0.61118817  1
  La3+  La5  1  0.13670454  -0.01269719  0.40237807  1
  La3+  La6  1  0.02038181  0.88229830  0.60027333  1
  La3+  La7  1  0.76228225  0.89460616  0.06911665  1
  La3+  La8  1  0.13595362  0.50929116  0.94018992  1
  La3+  La9  1  0.88523583  0.74408121  0.88765597  1
  La3+  La10  1  0.13339246  0.25269043  0.40390503  1
  La3+  La11  1  0.51308687  0.39388804  0.07521782  1
  Ce3+  Ce12  1  0.00769949  0.64283644  0.06050698  1
  Ce3+  Ce13  1  0.62987599  0.49260091  0.42556714  1
  Ce3+  Ce14  1  0.01375997  0.11682234  0.54589263  1
  Ce3+  Ce15  1  0.88481034  0.50959339  0.94762027  1
  Ce3+  Ce16  1  0.01042343  0.88972376  0.05542935  1
  Ce3+  Ce17  1  0.38570604  0.75872788  0.93573220  1
  Ce3+  Ce18  1  0.38035599  0.23923865  0.43604484  1
  Ce3+  Ce19  1  0.26157552  0.88780886  0.05361834  1
  Ce3+  Ce20  1  0.51291017  0.61966645  0.56044573  1
  Ce3+  Ce21  1  0.76270197  0.61719487  0.54836110  1
  Ce3+  Ce22  1  0.63482907  0.26320852  0.94878122  1
  Ce3+  Ce23  1  0.76311541  0.86742122  0.55770449  1
  Ce3+  Ce24  1  0.88349922  0.25600281  0.94359108  1
  Ce3+  Ce25  1  0.38298018  -0.00672622  0.43415021  1
  Pr3+  Pr26  1  0.38154692  0.26872004  0.94099634  1
  Pr3+  Pr27  1  0.00900433  0.38800302  0.06315298  1
  Pr3+  Pr28  1  0.01046271  0.61836110  0.56169323  1
  Pr3+  Pr29  1  0.51182310  0.36639334  0.56786133  1
  Pr3+  Pr30  1  0.88781437  0.74228986  0.43092348  1
  Pr3+  Pr31  1  0.01236571  0.36944342  0.56267350  1
  Pr3+  Pr32  1  0.26198399  0.39260942  0.08924143  1
  Pr3+  Pr33  1  0.63173737  0.01295086  0.93786117  1
  Pr3+  Pr34  1  0.88797059  0.48726798  0.42926967  1
  Pr3+  Pr35  1  0.75845211  0.36829855  0.55868635  1
  Pr3+  Pr36  1  0.26050505  0.63875406  0.06534768  1
  Pr3+  Pr37  1  0.38534599  0.49374422  0.43451105  1
  Pr3+  Pr38  1  0.64183844  0.51342736  0.94522379  1
  Nd3+  Nd39  1  0.13559911  0.01755239  0.94037423  1
  Nd3+  Nd40  1  0.25614014  0.11274812  0.55280177  1
  Nd3+  Nd41  1  0.88448691  -0.00749970  0.43670184  1
  Nd3+  Nd42  1  0.51348384  0.86431595  0.56606520  1
  Nd3+  Nd43  1  0.01210954  0.13781720  0.06911183  1
  Nd3+  Nd44  1  0.63051757  0.24089246  0.44835502  1
  Nd3+  Nd45  1  0.13340238  0.74509780  0.43471944  1
  Nd3+  Nd46  1  0.50968898  0.88794966  0.05655700  1
  Nd3+  Nd47  1  0.64400770  0.76251736  0.94309801  1
  Nd3+  Nd48  1  0.75934749  0.13726833  0.07002898  1
  Nd3+  Nd49  1  0.13429907  0.76188886  0.93725051  1
  Nd3+  Nd50  1  0.25845683  0.87032460  0.55481275  1
  Nd3+  Nd51  1  0.25686984  0.61788491  0.55297786  1
  Sm3+  Sm52  1  0.14070733  0.49438974  0.42898217  1
  Sm3+  Sm53  1  0.63608507  0.74481980  0.43627535  1
  Sm3+  Sm54  1  0.14123976  0.26228514  0.95924835  1
  Sm3+  Sm55  1  0.51221120  0.63887870  0.05919786  1
  Sm3+  Sm56  1  0.38892160  0.51069227  0.94427786  1
  Sm3+  Sm57  1  0.75835086  0.38850980  0.06988035  1
  Sm3+  Sm58  1  0.26236636  0.36389033  0.55386377  1
  Sm3+  Sm59  1  0.50605957  0.13949937  0.06428993  1
  Sm3+  Sm60  1  0.38653211  0.74596907  0.44277165  1
  Sm3+  Sm61  1  0.75987245  0.11225052  0.55720290  1
  Sm3+  Sm62  1  0.63118427  -0.00666252  0.44479771  1
  Sm3+  Sm63  1  0.88440897  0.24261320  0.44105598  1
  Bi2+  Bi64  1  -0.04289979  0.12279865  0.28501946  1
  Bi2+  Bi65  1  0.01612532  0.14073388  0.80004060  1
  Bi2+  Bi66  1  -0.06850698  0.40262820  0.29624014  1
  Bi2+  Bi67  1  -0.00499765  0.35075858  0.78026393  1
  Bi2+  Bi68  1  0.05085897  0.67569555  0.30167367  1
  Bi2+  Bi69  1  0.00964065  0.61334097  0.78850246  1
  Bi2+  Bi70  1  -0.04379876  0.85459872  0.29055383  1
  Bi2+  Bi71  1  0.00666219  0.87948682  0.78334828  1
  Bi2+  Bi72  1  0.23955770  0.12198701  0.28436197  1
  Bi2+  Bi73  1  0.23019424  0.11832128  0.81661678  1
  Bi2+  Bi74  1  0.22906758  0.38491699  0.29107194  1
  Bi2+  Bi75  1  0.24424745  0.39093271  0.80459363  1
  Bi2+  Bi76  1  0.25518097  0.62823477  0.28004184  1
  Bi2+  Bi77  1  0.28444001  0.60231438  0.77791371  1
  Bi2+  Bi78  1  0.25858488  0.84529450  0.28180401  1
  Bi2+  Bi79  1  0.25593878  0.88172814  0.74336586  1
  Bi2+  Bi80  1  0.50653792  0.13232439  0.29605923  1
  Bi2+  Bi81  1  0.53689307  0.11626221  0.81208930  1
  Bi2+  Bi82  1  0.52113309  0.35345907  0.29214911  1
  Bi2+  Bi83  1  0.50864585  0.38303902  0.79947240  1
  Bi2+  Bi84  1  0.46630372  0.63656859  0.29893459  1
  Bi2+  Bi85  1  0.46192587  0.63687168  0.81869736  1
  Bi2+  Bi86  1  0.51095825  0.93418656  0.31209769  1
  Bi2+  Bi87  1  0.50972915  0.82575881  0.79509747  1
  Bi2+  Bi88  1  0.71547256  0.12103780  0.28682123  1
  Bi2+  Bi89  1  0.78263965  0.20793875  0.74542841  1
  Bi2+  Bi90  1  0.72174274  0.38969398  0.30242892  1
  Bi2+  Bi91  1  0.81683161  0.34570820  0.82621010  1
  Bi2+  Bi92  1  0.74566746  0.57655282  0.30077067  1
  Bi2+  Bi93  1  0.74898888  0.52560931  0.79040028  1
  Bi2+  Bi94  1  0.67430129  0.83137875  0.29018352  1
  Bi2+  Bi95  1  0.73650766  0.89237074  0.79264808  1
  Bi2+  Bi96  1  0.10557850  0.00044750  0.19581537  1
  Bi2+  Bi97  1  0.14570448  0.08218138  0.71832101  1
  Bi2+  Bi98  1  0.07234825  0.26338488  0.20123281  1
  Bi2+  Bi99  1  0.11070488  0.26999573  0.69983223  1
  Bi2+  Bi100  1  0.10498837  0.55622773  0.21697321  1
  Bi2+  Bi101  1  0.14153181  0.48350173  0.70224782  1
  Bi2+  Bi102  1  0.11034641  0.74877422  0.19865626  1
  Bi2+  Bi103  1  0.14648329  0.73433864  0.70583178  1
  Bi2+  Bi104  1  0.38156374  -0.06272976  0.21111672  1
  Bi2+  Bi105  1  0.38448642  0.01469308  0.72259709  1
  Bi2+  Bi106  1  0.40685824  0.24361787  0.22136973  1
  Bi2+  Bi107  1  0.35517413  0.29293728  0.72485474  1
  Bi2+  Bi108  1  0.37499046  0.51514050  0.21079869  1
  Bi2+  Bi109  1  0.41143763  0.48241589  0.71638679  1
  Bi2+  Bi110  1  0.30805138  0.75290996  0.18022768  1
  Bi2+  Bi111  1  0.39262916  0.74117624  0.71391277  1
  Bi2+  Bi112  1  0.60266524  0.03187463  0.20999021  1
  Bi2+  Bi113  1  0.63867000  -0.02654719  0.70671650  1
  Bi2+  Bi114  1  0.60466319  0.23021794  0.19306897  1
  Bi2+  Bi115  1  0.67481344  0.36919655  0.73672061  1
  Bi2+  Bi116  1  0.60224436  0.50729917  0.22099983  1
  Bi2+  Bi117  1  0.58357701  0.53393848  0.67602163  1
  Bi2+  Bi118  1  0.50263500  0.77727078  0.22565463  1
  Bi2+  Bi119  1  0.60377823  0.69367295  0.73356174  1
  Bi2+  Bi120  1  0.84919540  -0.06989152  0.20805240  1
  Bi2+  Bi121  1  0.89847275  0.06423315  0.71073031  1
  Bi2+  Bi122  1  0.79922655  0.22875161  0.20420920  1
  Bi2+  Bi123  1  0.91464892  0.29539425  0.67426899  1
  Bi2+  Bi124  1  0.82967151  0.41925169  0.19985822  1
  Bi2+  Bi125  1  0.88017126  0.48039291  0.70581603  1
  Bi2+  Bi126  1  0.84029966  0.68659902  0.22127480  1
  Bi2+  Bi127  1  0.84715295  0.74102394  0.68487745  1
  S2-  S128  1  -0.01639617  0.11590856  0.16742764  1
  S2-  S129  1  0.03065457  0.05844776  0.63807414  1
  S2-  S130  1  -0.00498880  0.40178747  0.16313421  1
  S2-  S131  1  0.02097471  0.49356223  0.63688955  1
  S2-  S132  1  -0.07428295  0.63474912  0.14684891  1
  S2-  S133  1  0.00778481  0.72051944  0.64491086  1
  S2-  S134  1  -0.00094853  0.88077576  0.15498798  1
  S2-  S135  1  -0.06901930  0.89571965  0.69151199  1
  S2-  S136  1  0.19377652  0.14343852  0.18088629  1
  S2-  S137  1  0.31739761  0.09754341  0.64836830  1
  S2-  S138  1  0.20503528  0.34981452  0.18905601  1
  S2-  S139  1  0.24287119  0.36664378  0.65231942  1
  S2-  S140  1  0.23506733  0.54112324  0.14809172  1
  S2-  S141  1  0.22037524  0.61330436  0.64997018  1
  S2-  S142  1  0.25396066  0.96127003  0.14245576  1
  S2-  S143  1  0.18277954  0.87442614  0.64515855  1
  S2-  S144  1  0.41288013  0.12980194  0.14721005  1
  S2-  S145  1  0.55308296  0.11726993  0.71301473  1
  S2-  S146  1  0.40245517  0.37850742  0.15268153  1
  S2-  S147  1  0.45928023  0.27804130  0.65201657  1
  S2-  S148  1  0.49039965  0.58669491  0.15201684  1
  S2-  S149  1  0.51392850  0.72545555  0.64025555  1
  S2-  S150  1  0.54036233  0.89720913  0.15447004  1
  S2-  S151  1  0.49308167  0.95046712  0.65163982  1
  S2-  S152  1  0.76141710  0.02139076  0.14566367  1
  S2-  S153  1  0.75569492  0.07396851  0.65301615  1
  S2-  S154  1  0.64369800  0.38878063  0.14686532  1
  S2-  S155  1  0.64850460  0.38640762  0.63581932  1
  S2-  S156  1  0.70591492  0.60842137  0.17619783  1
  S2-  S157  1  0.79431461  0.58680191  0.64307499  1
  S2-  S158  1  0.76941541  0.80274591  0.15695496  1
  S2-  S159  1  0.71629191  0.83966067  0.65059288  1
  S2-  S160  1  0.09729534  0.02420936  0.30005677  1
  S2-  S161  1  0.10096030  -0.00593680  0.84225428  1
  S2-  S162  1  0.10009277  0.21755181  0.30362652  1
  S2-  S163  1  0.17214092  0.26401680  0.86167964  1
  S2-  S164  1  0.08941105  0.40768843  0.34873305  1
  S2-  S165  1  0.12208173  0.50619947  0.84013269  1
  S2-  S166  1  0.13097430  0.82913084  0.34598056  1
  S2-  S167  1  0.06225264  0.74919692  0.84650975  1
  S2-  S168  1  0.29604219  0.00655110  0.34855731  1
  S2-  S169  1  0.46647044  -0.03305070  0.84370840  1
  S2-  S170  1  0.29407552  0.25249150  0.34865777  1
  S2-  S171  1  0.38192327  0.15828593  0.85877576  1
  S2-  S172  1  0.27049178  0.50045877  0.35470391  1
  S2-  S173  1  0.37602538  0.39921804  0.86896586  1
  S2-  S174  1  0.37453246  0.75460534  0.34488999  1
  S2-  S175  1  0.31540750  0.73134943  0.84849694  1
  S2-  S176  1  0.67444111  -0.02158571  0.34969238  1
  S2-  S177  1  0.68239843  0.02913655  0.84095809  1
  S2-  S178  1  0.63787704  0.24331463  0.34850820  1
  S2-  S179  1  0.59882878  0.26017265  0.85273730  1
  S2-  S180  1  0.50201627  0.48799944  0.35712977  1
  S2-  S181  1  0.60245027  0.51498542  0.84649167  1
  S2-  S182  1  0.62342130  0.69064970  0.34249857  1
  S2-  S183  1  0.71522285  0.76066031  0.85244926  1
  S2-  S184  1  0.89467035  0.00166612  0.33643470  1
  S2-  S185  1  0.88474665  -0.09066177  0.84563293  1
  S2-  S186  1  0.89646136  0.25677669  0.34363192  1
  S2-  S187  1  0.88741589  0.15048732  0.86523056  1
  S2-  S188  1  0.90637157  0.56526395  0.33889316  1
  S2-  S189  1  0.88527861  0.57117196  0.85573688  1
  S2-  S190  1  0.83086890  0.78711130  0.33729891  1
  S2-  S191  1  0.89390309  0.72991381  0.77748846  1
  S2-  S192  1  0.01286355  0.12083520  0.43901703  1
  S2-  S193  1  0.01582305  0.14147163  0.96279547  1
  S2-  S194  1  0.00970341  0.36291677  0.45526664  1
  S2-  S195  1  0.01027164  0.38106480  0.95514949  1
  S2-  S196  1  0.01380481  0.61486222  0.44997879  1
  S2-  S197  1  0.00877375  0.63705109  0.95499751  1
  S2-  S198  1  0.00788537  0.87113054  0.43986536  1
  S2-  S199  1  0.01488901  0.88866611  0.95099821  1
  S2-  S200  1  0.24977727  0.12005568  0.44820738  1
  S2-  S201  1  0.25903105  0.13865034  0.96714269  1
  S2-  S202  1  0.25780207  0.36637027  0.45234338  1
  S2-  S203  1  0.25837394  0.39080462  0.97133300  1
  S2-  S204  1  0.26161907  0.62513450  0.44869231  1
  S2-  S205  1  0.26168772  0.63387853  0.95659936  1
  S2-  S206  1  0.26043713  0.86731815  0.44937931  1
  S2-  S207  1  0.26048454  0.88887928  0.94598390  1
  S2-  S208  1  0.50801998  0.11576147  0.44124235  1
  S2-  S209  1  0.51032640  0.14093623  0.96078516  1
  S2-  S210  1  0.50617568  0.36323941  0.45805367  1
  S2-  S211  1  0.51430341  0.39137756  0.96537607  1
  S2-  S212  1  0.50962796  0.62435118  0.45496898  1
  S2-  S213  1  0.51263498  0.63674739  0.95469464  1
  S2-  S214  1  0.51170105  0.86667619  0.45458989  1
  S2-  S215  1  0.51169548  0.88207483  0.95246058  1
  S2-  S216  1  0.75866664  0.11790851  0.45182562  1
  S2-  S217  1  0.75611109  0.13696197  0.96365299  1
  S2-  S218  1  0.75844365  0.36582332  0.45080503  1
  S2-  S219  1  0.76089917  0.38440027  0.96479364  1
  S2-  S220  1  0.75983941  0.61727289  0.44294458  1
  S2-  S221  1  0.76655019  0.63897418  0.95859492  1
  S2-  S222  1  0.75798179  0.86917834  0.45185867  1
  S2-  S223  1  0.75622798  0.89264882  0.95921326  1
  S2-  S224  1  0.13476846  0.01502643  0.04689865  1
  S2-  S225  1  0.13299685  -0.01097347  0.53559839  1
  S2-  S226  1  0.13892677  0.26380785  0.06338630  1
  S2-  S227  1  0.13651446  0.24283840  0.55005431  1
  S2-  S228  1  0.12923269  0.51486913  0.04814428  1
  S2-  S229  1  0.13969400  0.48985275  0.53459197  1
  S2-  S230  1  0.13650419  0.76377693  0.04490855  1
  S2-  S231  1  0.13418288  0.74599473  0.53975141  1
  S2-  S232  1  0.38792378  0.01062711  0.03991680  1
  S2-  S233  1  0.38693934  -0.00762958  0.54093525  1
  S2-  S234  1  0.38486510  0.26412951  0.04962233  1
  S2-  S235  1  0.38193603  0.23668760  0.54174264  1
  S2-  S236  1  0.38678671  0.51708349  0.04658639  1
  S2-  S237  1  0.38368487  0.49300635  0.54752602  1
  S2-  S238  1  0.38771724  0.76104056  0.04414875  1
  S2-  S239  1  0.38150776  0.74394104  0.54643449  1
  S2-  S240  1  0.62834924  0.01740934  0.04620923  1
  S2-  S241  1  0.63328477  -0.00668341  0.54768244  1
  S2-  S242  1  0.63526533  0.25920533  0.05277765  1
  S2-  S243  1  0.63300097  0.23134501  0.55268631  1
  S2-  S244  1  0.64113525  0.52074190  0.05082760  1
  S2-  S245  1  0.63475599  0.49612424  0.53288143  1
  S2-  S246  1  0.63469223  0.76127392  0.05066043  1
  S2-  S247  1  0.63877043  0.74169061  0.53954251  1
  S2-  S248  1  0.88951557  0.01839426  0.04355348  1
  S2-  S249  1  0.88801347  -0.00905535  0.54383391  1
  S2-  S250  1  0.88184812  0.26198934  0.05451388  1
  S2-  S251  1  0.88222590  0.23929070  0.54534047  1
  S2-  S252  1  0.88120357  0.51010333  0.05182806  1
  S2-  S253  1  0.88451929  0.48936771  0.53615274  1
  S2-  S254  1  0.88830592  0.76896340  0.04862671  1
  S2-  S255  1  0.88669997  0.74502951  0.53850171  1
