# generated using pymatgen
data_La12Ce14Pr13Nd13Sm12(BiS2)64
_symmetry_space_group_name_H-M   'P 1'
_cell_length_a   16.15443585
_cell_length_b   16.07580852
_cell_length_c   27.11709222
_cell_angle_alpha   90.28167653
_cell_angle_beta   90.18464317
_cell_angle_gamma   89.89687861
_symmetry_Int_Tables_number   1
_chemical_formula_structural   La12Ce14Pr13Nd13Sm12(BiS2)64
_chemical_formula_sum   'La12 Ce14 Pr13 Nd13 Sm12 Bi64 S128'
_cell_volume   7042.05713778
_cell_formula_units_Z   1
loop_
 _symmetry_equiv_pos_site_id
 _symmetry_equiv_pos_as_xyz
  1  'x, y, z'
loop_
 _atom_type_symbol
 _atom_type_oxidation_number
  La3+  3.0
  Ce3+  3.0
  Pr3+  3.0
  Nd3+  3.0
  Sm3+  3.0
  Bi2+  2.0
  S2-  -2.0
loop_
 _atom_site_type_symbol
 _atom_site_label
 _atom_site_symmetry_multiplicity
 _atom_site_fract_x
 _atom_site_fract_y
 _atom_site_fract_z
 _atom_site_occupancy
  La3+  La0  1  0.36809099  0.49270970  0.94473104  1
  La3+  La1  1  0.50335524  0.37780880  0.09617704  1
  La3+  La2  1  0.49454363  0.61326325  0.57352081  1
  La3+  La3  1  0.86245890  -0.01442196  0.41217133  1
  La3+  La4  1  0.61699080  0.73794157  0.43823170  1
  La3+  La5  1  -0.00580409  0.86332600  0.56407749  1
  La3+  La6  1  0.75190834  0.61486183  0.60590637  1
  La3+  La7  1  0.73706037  0.11227897  0.09782329  1
  La3+  La8  1  0.11943411  0.23396502  0.43147636  1
  La3+  La9  1  0.24946250  0.87063924  0.57431475  1
  La3+  La10  1  0.36558548  0.74178095  0.92069152  1
  La3+  La11  1  0.87417670  0.49661591  0.91514921  1
  Ce3+  Ce12  1  0.36552200  0.48509331  0.42175716  1
  Ce3+  Ce13  1  0.86918198  0.49013330  0.44066222  1
  Ce3+  Ce14  1  0.61848212  -0.00419704  0.94130877  1
  Ce3+  Ce15  1  0.37229678  -0.00901469  0.43912596  1
  Ce3+  Ce16  1  0.49570085  0.37087304  0.55869705  1
  Ce3+  Ce17  1  0.24616880  0.61219039  0.56247731  1
  Ce3+  Ce18  1  0.37379797  0.73844668  0.43970232  1
  Ce3+  Ce19  1  0.86414372  -0.00098573  0.94332155  1
  Ce3+  Ce20  1  -0.00904621  0.87241607  0.04496827  1
  Ce3+  Ce21  1  0.24547318  0.12209906  0.06676745  1
  Ce3+  Ce22  1  0.49335381  0.86535049  0.05134755  1
  Ce3+  Ce23  1  0.74701865  0.86214199  0.56290114  1
  Ce3+  Ce24  1  0.12046634  0.74687258  0.93014668  1
  Ce3+  Ce25  1  0.36851558  0.25530717  0.94937258  1
  Pr3+  Pr26  1  0.37010002  0.23586869  0.43296677  1
  Pr3+  Pr27  1  0.49423578  0.12243466  0.06174309  1
  Pr3+  Pr28  1  0.86117807  0.74767810  0.92500846  1
  Pr3+  Pr29  1  0.74786728  0.11633672  0.57150303  1
  Pr3+  Pr30  1  0.12108529  0.74429635  0.43248200  1
  Pr3+  Pr31  1  0.62419218  0.23894307  0.43609752  1
  Pr3+  Pr32  1  0.24015951  0.87432718  0.06483767  1
  Pr3+  Pr33  1  0.61969616  0.49055726  0.44178247  1
  Pr3+  Pr34  1  0.24004285  0.62184243  0.06465898  1
  Pr3+  Pr35  1  0.74822288  0.36352366  0.56945076  1
  Pr3+  Pr36  1  0.74760553  0.37818455  0.06455468  1
  Pr3+  Pr37  1  0.24839232  0.11669172  0.57213524  1
  Pr3+  Pr38  1  0.11497466  0.48498779  0.42023254  1
  Nd3+  Nd39  1  0.23856232  0.36841127  0.08984920  1
  Nd3+  Nd40  1  -0.00401287  0.62459419  0.05947756  1
  Nd3+  Nd41  1  0.74574894  0.62465334  0.05631755  1
  Nd3+  Nd42  1  0.24554361  0.36784468  0.55721036  1
  Nd3+  Nd43  1  -0.00788339  0.12146830  0.06262087  1
  Nd3+  Nd44  1  0.86474645  0.24671191  0.94892414  1
  Nd3+  Nd45  1  0.49583704  0.11861041  0.56434761  1
  Nd3+  Nd46  1  0.48507916  0.62997382  0.07386089  1
  Nd3+  Nd47  1  0.49818202  0.86090237  0.57058659  1
  Nd3+  Nd48  1  0.11594589  0.49287136  0.93950826  1
  Nd3+  Nd49  1  -0.00421293  0.61373357  0.55595339  1
  Nd3+  Nd50  1  0.36671097  -0.00074836  0.93695661  1
  Nd3+  Nd51  1  0.12182831  -0.01216580  0.43387380  1
  Sm3+  Sm52  1  0.61847615  0.24899908  0.94914243  1
  Sm3+  Sm53  1  0.61781350  0.49631273  0.94584690  1
  Sm3+  Sm54  1  -0.00245194  0.36660082  0.55692651  1
  Sm3+  Sm55  1  0.11890314  -0.00001937  0.93872862  1
  Sm3+  Sm56  1  0.86892753  0.23669182  0.44213568  1
  Sm3+  Sm57  1  -0.00313546  0.11341889  0.55496696  1
  Sm3+  Sm58  1  -0.00872896  0.37438938  0.06418699  1
  Sm3+  Sm59  1  0.86427543  0.73978634  0.43508803  1
  Sm3+  Sm60  1  0.11732087  0.24708519  0.94763009  1
  Sm3+  Sm61  1  0.61257585  0.73514166  0.92371806  1
  Sm3+  Sm62  1  0.62278316  -0.00995174  0.44857812  1
  Sm3+  Sm63  1  0.74130401  0.86326038  0.06377627  1
  Bi2+  Bi64  1  -0.00436241  0.20667416  0.30613388  1
  Bi2+  Bi65  1  -0.00978280  0.06190403  0.78896014  1
  Bi2+  Bi66  1  0.00034940  0.42882738  0.23021234  1
  Bi2+  Bi67  1  0.00919098  0.32247035  0.79265759  1
  Bi2+  Bi68  1  0.03185772  0.61760730  0.30818270  1
  Bi2+  Bi69  1  0.05743210  0.61908249  0.81102527  1
  Bi2+  Bi70  1  0.01504820  0.81055044  0.28217371  1
  Bi2+  Bi71  1  0.01792639  0.86718232  0.77264275  1
  Bi2+  Bi72  1  0.23552342  0.07877761  0.28278481  1
  Bi2+  Bi73  1  0.30160262  0.17602070  0.78037340  1
  Bi2+  Bi74  1  0.23425332  0.38603372  0.28789258  1
  Bi2+  Bi75  1  0.23702256  0.36451583  0.79597087  1
  Bi2+  Bi76  1  0.22123988  0.68580521  0.29990710  1
  Bi2+  Bi77  1  0.24264655  0.56551142  0.78567884  1
  Bi2+  Bi78  1  0.27758936  0.87833512  0.30047743  1
  Bi2+  Bi79  1  0.21318719  0.88962275  0.78935408  1
  Bi2+  Bi80  1  0.49694418  0.10458928  0.29948120  1
  Bi2+  Bi81  1  0.49610220  0.18537989  0.78850016  1
  Bi2+  Bi82  1  0.50910753  0.37857218  0.29983207  1
  Bi2+  Bi83  1  0.49040760  0.38029455  0.79396918  1
  Bi2+  Bi84  1  0.58120976  0.61924664  0.31139126  1
  Bi2+  Bi85  1  0.49273633  0.62696324  0.79072269  1
  Bi2+  Bi86  1  0.47358987  0.90565108  0.31596118  1
  Bi2+  Bi87  1  0.48880540  0.91207809  0.78510409  1
  Bi2+  Bi88  1  0.76391336  0.12976608  0.30257796  1
  Bi2+  Bi89  1  0.71016509  0.07787327  0.77913736  1
  Bi2+  Bi90  1  0.77107200  0.42914376  0.22895986  1
  Bi2+  Bi91  1  0.75051526  0.31601357  0.78736046  1
  Bi2+  Bi92  1  0.82131866  0.60549246  0.29357452  1
  Bi2+  Bi93  1  0.74248838  0.62072090  0.79775077  1
  Bi2+  Bi94  1  0.74959151  0.86271817  0.29331364  1
  Bi2+  Bi95  1  0.81335033  0.88024210  0.78499558  1
  Bi2+  Bi96  1  0.11017982  -0.01567063  0.20814792  1
  Bi2+  Bi97  1  0.13186409  0.11893137  0.71535937  1
  Bi2+  Bi98  1  0.10710228  0.22570104  0.21070148  1
  Bi2+  Bi99  1  0.22244612  0.28304524  0.68426809  1
  Bi2+  Bi100  1  0.14879016  0.55809972  0.21925745  1
  Bi2+  Bi101  1  0.09142333  0.46134549  0.70780367  1
  Bi2+  Bi102  1  0.15731043  0.79133273  0.19962742  1
  Bi2+  Bi103  1  0.11937149  0.66281116  0.70918885  1
  Bi2+  Bi104  1  0.38145701  -0.04742770  0.20079019  1
  Bi2+  Bi105  1  0.33491658  0.01578787  0.71294483  1
  Bi2+  Bi106  1  0.37328288  0.15747782  0.21449203  1
  Bi2+  Bi107  1  0.42219479  0.28804168  0.68304897  1
  Bi2+  Bi108  1  0.39131393  0.54697440  0.22163454  1
  Bi2+  Bi109  1  0.35656355  0.48791835  0.70029205  1
  Bi2+  Bi110  1  0.41127609  0.75719230  0.22094891  1
  Bi2+  Bi111  1  0.36753194  0.75668153  0.70366367  1
  Bi2+  Bi112  1  0.57792076  -0.02279184  0.22368297  1
  Bi2+  Bi113  1  0.59362256  -0.01831562  0.69409112  1
  Bi2+  Bi114  1  0.61376919  0.23993428  0.21403818  1
  Bi2+  Bi115  1  0.59937707  0.18391041  0.68476170  1
  Bi2+  Bi116  1  0.65799247  0.58625443  0.20611726  1
  Bi2+  Bi117  1  0.61627667  0.38568748  0.70746618  1
  Bi2+  Bi118  1  0.62763645  0.78212306  0.21418404  1
  Bi2+  Bi119  1  0.63175604  0.77949692  0.71986893  1
  Bi2+  Bi120  1  0.87083565  -0.12012974  0.20323455  1
  Bi2+  Bi121  1  0.78998028  -0.01322123  0.68365678  1
  Bi2+  Bi122  1  0.89592284  0.27239906  0.20919942  1
  Bi2+  Bi123  1  0.86419194  0.16185038  0.71716377  1
  Bi2+  Bi124  1  0.87729518  0.50972969  0.14316314  1
  Bi2+  Bi125  1  0.89288257  0.47720579  0.71498007  1
  Bi2+  Bi126  1  0.89942083  0.68418918  0.20226850  1
  Bi2+  Bi127  1  0.89963773  0.74476657  0.71361581  1
  S2-  S128  1  0.00873236  0.11161414  0.16304842  1
  S2-  S129  1  -0.00764104  0.11142094  0.65430101  1
  S2-  S130  1  0.08611696  0.37023180  0.14759495  1
  S2-  S131  1  -0.02296656  0.36232291  0.65679150  1
  S2-  S132  1  0.11158251  0.64485552  0.13774082  1
  S2-  S133  1  -0.08250520  0.60955696  0.64762302  1
  S2-  S134  1  0.02271947  0.87207377  0.14147129  1
  S2-  S135  1  -0.00585121  0.85639379  0.66587452  1
  S2-  S136  1  0.25065818  0.22198216  0.15009996  1
  S2-  S137  1  0.20430898  0.00189287  0.64808193  1
  S2-  S138  1  0.28442370  0.43839092  0.18613984  1
  S2-  S139  1  0.21959177  0.48117516  0.63377036  1
  S2-  S140  1  0.34426652  0.64968616  0.14878221  1
  S2-  S141  1  0.35806500  0.62340404  0.64219053  1
  S2-  S142  1  0.23691648  0.99923500  0.13967272  1
  S2-  S143  1  0.21398643  0.76625838  0.65818873  1
  S2-  S144  1  0.57887467  0.10920210  0.15055680  1
  S2-  S145  1  0.38414452  0.12824553  0.64179905  1
  S2-  S146  1  0.47000868  0.30787181  0.19295914  1
  S2-  S147  1  0.50374378  0.46944117  0.64288858  1
  S2-  S148  1  0.51738126  0.52661936  0.15589181  1
  S2-  S149  1  0.51890359  0.74269400  0.64981683  1
  S2-  S150  1  0.50805174  0.77622411  0.13486553  1
  S2-  S151  1  0.38502258  0.89063659  0.64781225  1
  S2-  S152  1  0.77636978  0.15999182  0.19647800  1
  S2-  S153  1  0.75680882  0.23664585  0.64555658  1
  S2-  S154  1  0.66172354  0.35950266  0.15258032  1
  S2-  S155  1  0.75980411  0.45702000  0.65737713  1
  S2-  S156  1  0.73461707  0.73010295  0.13716090  1
  S2-  S157  1  0.66671657  0.62087443  0.70660468  1
  S2-  S158  1  0.75669352  0.95500321  0.14858844  1
  S2-  S159  1  0.76160010  0.77908816  0.64882665  1
  S2-  S160  1  0.12259487  0.10691375  0.35660631  1
  S2-  S161  1  0.13644740  0.01929116  0.84134349  1
  S2-  S162  1  0.11325808  0.34477165  0.34781950  1
  S2-  S163  1  0.12454948  0.25772657  0.84807857  1
  S2-  S164  1  0.23791358  0.51432206  0.34817233  1
  S2-  S165  1  0.02119708  0.46241060  0.85455665  1
  S2-  S166  1  0.12468683  0.86800660  0.35736341  1
  S2-  S167  1  0.22667627  0.76405721  0.85242259  1
  S2-  S168  1  0.35952167  0.10334533  0.36184180  1
  S2-  S169  1  0.35508965  -0.04015449  0.83854628  1
  S2-  S170  1  0.36965711  0.33424684  0.34670711  1
  S2-  S171  1  0.36914461  0.35955514  0.86916072  1
  S2-  S172  1  0.44351600  0.52757990  0.32880086  1
  S2-  S173  1  0.37017547  0.59030408  0.85753887  1
  S2-  S174  1  0.48593964  0.74525875  0.36191137  1
  S2-  S175  1  0.49417476  0.76277147  0.84569391  1
  S2-  S176  1  0.70057401  -0.00116974  0.35912249  1
  S2-  S177  1  0.59658649  0.00398872  0.84328431  1
  S2-  S178  1  0.60877473  0.23661206  0.33353001  1
  S2-  S179  1  0.60999998  0.27993399  0.85059990  1
  S2-  S180  1  0.64296227  0.46398566  0.34108313  1
  S2-  S181  1  0.60279022  0.57929408  0.85674638  1
  S2-  S182  1  0.71430972  0.72268105  0.35003455  1
  S2-  S183  1  0.72908726  0.77052373  0.85187624  1
  S2-  S184  1  0.90642382  0.05987722  0.31952212  1
  S2-  S185  1  0.84795778  0.02149911  0.84637503  1
  S2-  S186  1  0.84246599  0.26070972  0.34443496  1
  S2-  S187  1  0.87867544  0.26506890  0.84858877  1
  S2-  S188  1  0.92089259  0.49307407  0.34654228  1
  S2-  S189  1  0.77740434  0.45964800  0.82997424  1
  S2-  S190  1  0.88603053  0.83985492  0.35312051  1
  S2-  S191  1  0.89313431  0.63906267  0.84542681  1
  S2-  S192  1  -0.01385739  0.10900027  0.45107476  1
  S2-  S193  1  -0.00680655  0.12313974  0.95343610  1
  S2-  S194  1  -0.00914328  0.36012444  0.45211511  1
  S2-  S195  1  -0.00767136  0.36581522  0.96048350  1
  S2-  S196  1  -0.00563261  0.61970298  0.44896200  1
  S2-  S197  1  -0.00251290  0.62452722  0.95366235  1
  S2-  S198  1  -0.00900915  0.86628462  0.45601758  1
  S2-  S199  1  -0.00649476  0.87491699  0.93704570  1
  S2-  S200  1  0.24488116  0.11255219  0.46372592  1
  S2-  S201  1  0.24328529  0.12478216  0.95541477  1
  S2-  S202  1  0.24199150  0.36219553  0.45208956  1
  S2-  S203  1  0.23595352  0.36942084  0.96596278  1
  S2-  S204  1  0.24462417  0.61910502  0.45277319  1
  S2-  S205  1  0.23569592  0.61759454  0.95587664  1
  S2-  S206  1  0.25156801  0.86544964  0.45764362  1
  S2-  S207  1  0.24125311  0.87977196  0.95583593  1
  S2-  S208  1  0.50216540  0.11415740  0.45732841  1
  S2-  S209  1  0.49200960  0.12606006  0.95284150  1
  S2-  S210  1  0.49765685  0.36269413  0.45164407  1
  S2-  S211  1  0.50041759  0.37241234  0.96755223  1
  S2-  S212  1  0.49135824  0.60972331  0.45953826  1
  S2-  S213  1  0.49213080  0.61836633  0.96354622  1
  S2-  S214  1  0.49814137  0.87053137  0.46291425  1
  S2-  S215  1  0.49092763  0.87378017  0.94789384  1
  S2-  S216  1  0.74711695  0.11472473  0.46169859  1
  S2-  S217  1  0.73970813  0.12441448  0.95199715  1
  S2-  S218  1  0.74747247  0.36282789  0.45643101  1
  S2-  S219  1  0.74209696  0.37298572  0.95580693  1
  S2-  S220  1  0.74871667  0.61208797  0.45001727  1
  S2-  S221  1  0.74416106  0.61791992  0.95093190  1
  S2-  S222  1  0.74470186  0.86534812  0.45772306  1
  S2-  S223  1  0.74248195  0.87525844  0.95587517  1
  S2-  S224  1  0.11440382  -0.00050693  0.04197916  1
  S2-  S225  1  0.11668913  -0.01017600  0.54135543  1
  S2-  S226  1  0.11514312  0.24466439  0.05058583  1
  S2-  S227  1  0.11863915  0.23983678  0.54590818  1
  S2-  S228  1  0.11565896  0.49284574  0.04577029  1
  S2-  S229  1  0.11412253  0.48886514  0.53114950  1
  S2-  S230  1  0.11829672  0.75271098  0.03584793  1
  S2-  S231  1  0.11956836  0.73837971  0.54262446  1
  S2-  S232  1  0.37233752  -0.00413091  0.04391174  1
  S2-  S233  1  0.37561608  -0.00655023  0.54321374  1
  S2-  S234  1  0.37510505  0.25247168  0.05499527  1
  S2-  S235  1  0.37139381  0.24598936  0.54085602  1
  S2-  S236  1  0.36486014  0.48997220  0.05577555  1
  S2-  S237  1  0.36886052  0.48682121  0.53521656  1
  S2-  S238  1  0.36093251  0.75110051  0.03606788  1
  S2-  S239  1  0.37017150  0.74295447  0.54307852  1
  S2-  S240  1  0.61854994  -0.00822785  0.04703543  1
  S2-  S241  1  0.62119921  -0.00825001  0.55325245  1
  S2-  S242  1  0.62443777  0.24364914  0.05243001  1
  S2-  S243  1  0.61875712  0.24272656  0.54468263  1
  S2-  S244  1  0.62165937  0.50223284  0.04928902  1
  S2-  S245  1  0.63072748  0.49479167  0.54887947  1
  S2-  S246  1  0.62091728  0.74639511  0.03108537  1
  S2-  S247  1  0.62748324  0.73522093  0.54684490  1
  S2-  S248  1  0.86581652  -0.00078368  0.04860574  1
  S2-  S249  1  0.87083455  -0.00826814  0.55176319  1
  S2-  S250  1  0.86570836  0.24466541  0.05680176  1
  S2-  S251  1  0.87751169  0.23991155  0.54657851  1
  S2-  S252  1  0.87240527  0.49915754  0.03129134  1
  S2-  S253  1  0.87268177  0.48815049  0.54601816  1
  S2-  S254  1  0.87092938  0.74817252  0.03671351  1
  S2-  S255  1  0.86989875  0.73608127  0.54136022  1
