# generated using pymatgen
data_La12Ce14Pr13Nd13Sm12(BiS2)64
_symmetry_space_group_name_H-M   'P 1'
_cell_length_a   16.08178761
_cell_length_b   16.14351879
_cell_length_c   27.22802053
_cell_angle_alpha   89.93699323
_cell_angle_beta   90.25429517
_cell_angle_gamma   90.01439137
_symmetry_Int_Tables_number   1
_chemical_formula_structural   La12Ce14Pr13Nd13Sm12(BiS2)64
_chemical_formula_sum   'La12 Ce14 Pr13 Nd13 Sm12 Bi64 S128'
_cell_volume   7068.77310068
_cell_formula_units_Z   1
loop_
 _symmetry_equiv_pos_site_id
 _symmetry_equiv_pos_as_xyz
  1  'x, y, z'
loop_
 _atom_type_symbol
 _atom_type_oxidation_number
  La3+  3.0
  Ce3+  3.0
  Pr3+  3.0
  Nd3+  3.0
  Sm3+  3.0
  Bi2+  2.0
  S2-  -2.0
loop_
 _atom_site_type_symbol
 _atom_site_label
 _atom_site_symmetry_multiplicity
 _atom_site_fract_x
 _atom_site_fract_y
 _atom_site_fract_z
 _atom_site_occupancy
  La3+  La0  1  0.24875404  0.12755481  0.10164580  1
  La3+  La1  1  -0.03282447  0.88475203  0.57938320  1
  La3+  La2  1  0.34284167  0.01106046  0.41293747  1
  La3+  La3  1  -0.03459626  0.61730081  0.58477644  1
  La3+  La4  1  0.74764422  0.86867432  0.06513930  1
  La3+  La5  1  0.48086910  0.39261856  0.58419089  1
  La3+  La6  1  0.34502930  0.50735990  0.42042748  1
  La3+  La7  1  -0.00215287  0.86332455  0.06686166  1
  La3+  La8  1  0.36488950  -0.00633720  0.93813949  1
  La3+  La9  1  0.74116802  0.61882223  0.07144420  1
  La3+  La10  1  0.13799984  0.75223424  0.89368135  1
  La3+  La11  1  0.71578917  0.88305517  0.57653195  1
  Ce3+  Ce12  1  0.08932637  0.00411759  0.43228118  1
  Ce3+  Ce13  1  0.72263625  0.62426115  0.55879297  1
  Ce3+  Ce14  1  0.62287862  0.49569338  0.93197842  1
  Ce3+  Ce15  1  0.60350813  0.00651943  0.43721496  1
  Ce3+  Ce16  1  -0.02912077  0.37782140  0.55353831  1
  Ce3+  Ce17  1  0.86814689  -0.00137561  0.93664438  1
  Ce3+  Ce18  1  -0.00281683  0.62083278  0.05714057  1
  Ce3+  Ce19  1  0.59292959  0.25546510  0.44252538  1
  Ce3+  Ce20  1  0.11213558  0.49589343  0.92929543  1
  Ce3+  Ce21  1  0.84426617  0.25260286  0.43990685  1
  Ce3+  Ce22  1  0.34899759  0.25227275  0.44210113  1
  Ce3+  Ce23  1  0.09296875  0.50869493  0.43274832  1
  Ce3+  Ce24  1  0.84785760  0.75726403  0.44973054  1
  Ce3+  Ce25  1  0.24351351  0.37153866  0.06265073  1
  Pr3+  Pr26  1  0.49230525  0.87192810  0.05814854  1
  Pr3+  Pr27  1  0.59691777  0.50827581  0.42188901  1
  Pr3+  Pr28  1  0.74745039  0.37099483  0.06482638  1
  Pr3+  Pr29  1  0.62398859  0.74440663  0.93437016  1
  Pr3+  Pr30  1  0.36879802  0.49623027  0.93011701  1
  Pr3+  Pr31  1  0.84626455  0.00454338  0.43520308  1
  Pr3+  Pr32  1  0.46758529  0.12989007  0.56712990  1
  Pr3+  Pr33  1  0.49701179  0.12014132  0.07132535  1
  Pr3+  Pr34  1  0.61850025  0.24443307  0.94208851  1
  Pr3+  Pr35  1  0.61370037  -0.00189236  0.93387211  1
  Pr3+  Pr36  1  0.71313831  0.13497776  0.56993316  1
  Pr3+  Pr37  1  -0.03231867  0.12930964  0.56824950  1
  Pr3+  Pr38  1  0.09433243  0.25211896  0.44002756  1
  Nd3+  Nd39  1  0.22287557  0.62726321  0.55872245  1
  Nd3+  Nd40  1  0.24561208  0.87130161  0.06315542  1
  Nd3+  Nd41  1  0.22068382  0.88297499  0.55557933  1
  Nd3+  Nd42  1  0.24908675  0.61887516  0.05913845  1
  Nd3+  Nd43  1  0.34521021  0.75950607  0.43916737  1
  Nd3+  Nd44  1  0.46876975  0.62862717  0.55356352  1
  Nd3+  Nd45  1  0.49226332  0.61788286  0.06365045  1
  Nd3+  Nd46  1  0.86815073  0.23940339  0.94176968  1
  Nd3+  Nd47  1  0.87499298  0.75341360  0.92839474  1
  Nd3+  Nd48  1  0.12002147  0.24563969  0.94379838  1
  Nd3+  Nd49  1  0.22286175  0.38199497  0.55363852  1
  Nd3+  Nd50  1  0.74367180  0.11356249  0.07568468  1
  Nd3+  Nd51  1  0.09184865  0.75570775  0.44961687  1
  Sm3+  Sm52  1  -0.00432812  0.36720037  0.05692719  1
  Sm3+  Sm53  1  0.11778728  -0.00733699  0.94913001  1
  Sm3+  Sm54  1  0.86719648  0.50035055  0.93458021  1
  Sm3+  Sm55  1  0.59719802  0.75708183  0.44520405  1
  Sm3+  Sm56  1  0.36559419  0.24463711  0.94626945  1
  Sm3+  Sm57  1  0.37162212  0.74238421  0.93853437  1
  Sm3+  Sm58  1  0.49425413  0.36953656  0.05520643  1
  Sm3+  Sm59  1  0.47346841  0.88287339  0.55696469  1
  Sm3+  Sm60  1  0.71975903  0.38232022  0.54923149  1
  Sm3+  Sm61  1  0.84826281  0.51059683  0.42906779  1
  Sm3+  Sm62  1  -0.00418222  0.11488242  0.06902503  1
  Sm3+  Sm63  1  0.22530994  0.12991627  0.56087184  1
  Bi2+  Bi64  1  -0.00122709  0.20838647  0.27263243  1
  Bi2+  Bi65  1  0.00071228  0.12501821  0.79295669  1
  Bi2+  Bi66  1  -0.00917820  0.40719558  0.29610464  1
  Bi2+  Bi67  1  -0.03693043  0.33503102  0.79933064  1
  Bi2+  Bi68  1  0.04800824  0.60367864  0.26192497  1
  Bi2+  Bi69  1  0.04570435  0.59032297  0.78937032  1
  Bi2+  Bi70  1  -0.00924128  0.83163075  0.30246839  1
  Bi2+  Bi71  1  0.01039003  0.85869645  0.79342100  1
  Bi2+  Bi72  1  0.23220540  0.12948611  0.28814897  1
  Bi2+  Bi73  1  0.20163117  0.13115424  0.79693844  1
  Bi2+  Bi74  1  0.28793100  0.39182312  0.28803376  1
  Bi2+  Bi75  1  0.26549577  0.34732673  0.79770911  1
  Bi2+  Bi76  1  0.25253305  0.61539819  0.27864359  1
  Bi2+  Bi77  1  0.35262642  0.52887168  0.80032206  1
  Bi2+  Bi78  1  0.25992472  0.85071820  0.30815271  1
  Bi2+  Bi79  1  0.31306438  0.96295624  0.80669113  1
  Bi2+  Bi80  1  0.49144828  0.14850765  0.28700257  1
  Bi2+  Bi81  1  0.50358332  0.15861444  0.78983187  1
  Bi2+  Bi82  1  0.54681659  0.33738774  0.27650303  1
  Bi2+  Bi83  1  0.50315207  0.39016686  0.76971125  1
  Bi2+  Bi84  1  0.52664865  0.61447067  0.28072432  1
  Bi2+  Bi85  1  0.50888639  0.67379626  0.82073023  1
  Bi2+  Bi86  1  0.56222508  0.86982142  0.28447949  1
  Bi2+  Bi87  1  0.55797815  0.87793192  0.81055177  1
  Bi2+  Bi88  1  0.75934595  0.17482560  0.27812918  1
  Bi2+  Bi89  1  0.80707470  0.15325265  0.76511344  1
  Bi2+  Bi90  1  0.79651653  0.40379093  0.27914056  1
  Bi2+  Bi91  1  0.72366553  0.35963257  0.79370810  1
  Bi2+  Bi92  1  0.79667084  0.62897217  0.28718972  1
  Bi2+  Bi93  1  0.69770074  0.62633500  0.78627312  1
  Bi2+  Bi94  1  0.81816184  0.92473498  0.29723229  1
  Bi2+  Bi95  1  0.75269612  0.87420710  0.78898671  1
  Bi2+  Bi96  1  0.12267181  -0.07527079  0.22202527  1
  Bi2+  Bi97  1  0.16365604  -0.00165199  0.71657217  1
  Bi2+  Bi98  1  0.13338731  0.35694557  0.21900304  1
  Bi2+  Bi99  1  0.08873469  0.17790574  0.68759488  1
  Bi2+  Bi100  1  0.16577004  0.53681657  0.17166765  1
  Bi2+  Bi101  1  0.09485519  0.37088810  0.71827077  1
  Bi2+  Bi102  1  0.15481006  0.73378836  0.19712270  1
  Bi2+  Bi103  1  0.15247900  0.74158956  0.68957501  1
  Bi2+  Bi104  1  0.37600342  -0.02386495  0.21060251  1
  Bi2+  Bi105  1  0.38277111  -0.02153719  0.69921307  1
  Bi2+  Bi106  1  0.39033877  0.27295583  0.21440319  1
  Bi2+  Bi107  1  0.34322864  0.20750831  0.72634950  1
  Bi2+  Bi108  1  0.36010142  0.50608669  0.20367148  1
  Bi2+  Bi109  1  0.33975746  0.48103750  0.69201377  1
  Bi2+  Bi110  1  0.46203161  0.74889618  0.20672199  1
  Bi2+  Bi111  1  0.38853598  0.79349357  0.75784394  1
  Bi2+  Bi112  1  0.62903633  0.03769247  0.24005068  1
  Bi2+  Bi113  1  0.56794053  0.01976557  0.71556193  1
  Bi2+  Bi114  1  0.67073899  0.27778174  0.18917280  1
  Bi2+  Bi115  1  0.69860587  0.26476983  0.69221998  1
  Bi2+  Bi116  1  0.62036973  0.48231943  0.20232916  1
  Bi2+  Bi117  1  0.60376051  0.52023483  0.71226956  1
  Bi2+  Bi118  1  0.66549145  0.73108987  0.22505205  1
  Bi2+  Bi119  1  0.57364684  0.75064133  0.71776243  1
  Bi2+  Bi120  1  0.87362978  0.05531184  0.20349547  1
  Bi2+  Bi121  1  0.88623559  -0.01074207  0.71449479  1
  Bi2+  Bi122  1  0.86568794  0.28214502  0.18358796  1
  Bi2+  Bi123  1  0.90550885  0.25802799  0.67648433  1
  Bi2+  Bi124  1  0.89045883  0.53332817  0.20483689  1
  Bi2+  Bi125  1  0.85420360  0.43064533  0.71906101  1
  Bi2+  Bi126  1  0.89744877  0.81507282  0.19935727  1
  Bi2+  Bi127  1  0.88335723  0.71889194  0.70608642  1
  S2-  S128  1  -0.00406184  0.17410414  0.16288271  1
  S2-  S129  1  0.00926932  0.02189177  0.64565676  1
  S2-  S130  1  -0.01756884  0.40206514  0.15330866  1
  S2-  S131  1  -0.02797234  0.44703862  0.64170347  1
  S2-  S132  1  -0.00698081  0.72527626  0.14113219  1
  S2-  S133  1  0.03112900  0.62639753  0.68363198  1
  S2-  S134  1  -0.00071986  0.95850993  0.15430137  1
  S2-  S135  1  0.01019207  0.81830305  0.67275776  1
  S2-  S136  1  0.20044802  0.06845680  0.19623136  1
  S2-  S137  1  0.33621577  0.11971938  0.63883521  1
  S2-  S138  1  0.24351412  0.28685027  0.15034912  1
  S2-  S139  1  0.22249854  0.37130601  0.65370560  1
  S2-  S140  1  0.37033398  0.63637281  0.13807353  1
  S2-  S141  1  0.27201289  0.62016382  0.65416549  1
  S2-  S142  1  0.26874631  0.86295114  0.16373685  1
  S2-  S143  1  0.24059574  0.88738380  0.65529610  1
  S2-  S144  1  0.39839255  0.10814343  0.15681372  1
  S2-  S145  1  0.58342583  0.14178678  0.64567080  1
  S2-  S146  1  0.47381774  0.39165672  0.15252944  1
  S2-  S147  1  0.44324906  0.32952894  0.67965245  1
  S2-  S148  1  0.59760441  0.61487062  0.14449759  1
  S2-  S149  1  0.48030806  0.54653856  0.64074240  1
  S2-  S150  1  0.50302309  0.89436667  0.15886633  1
  S2-  S151  1  0.56975069  0.88704771  0.64260177  1
  S2-  S152  1  0.61639219  0.12649070  0.14990512  1
  S2-  S153  1  0.79152705  0.08220988  0.65932877  1
  S2-  S154  1  0.75870102  0.48636817  0.14197889  1
  S2-  S155  1  0.64928225  0.40323166  0.63810608  1
  S2-  S156  1  0.76877086  0.75063985  0.14294374  1
  S2-  S157  1  0.80954814  0.61708252  0.64439675  1
  S2-  S158  1  0.76448740  0.98130254  0.14582437  1
  S2-  S159  1  0.81036630  0.85732030  0.66118096  1
  S2-  S160  1  0.19339116  0.00892691  0.35035666  1
  S2-  S161  1  0.11132876  -0.07653073  0.85716327  1
  S2-  S162  1  0.12285200  0.23265104  0.34029854  1
  S2-  S163  1  0.12037643  0.30516893  0.84943154  1
  S2-  S164  1  0.20727830  0.50166102  0.35360322  1
  S2-  S165  1  0.18370875  0.55472769  0.84455734  1
  S2-  S166  1  0.11885884  0.76198011  0.35052419  1
  S2-  S167  1  0.14133243  0.74039851  0.78491456  1
  S2-  S168  1  0.39521342  -0.05935962  0.31910835  1
  S2-  S169  1  0.46249030  0.02173121  0.85521026  1
  S2-  S170  1  0.35663352  0.16640531  0.35592560  1
  S2-  S171  1  0.38708103  0.25587587  0.84834611  1
  S2-  S172  1  0.47271112  0.50724704  0.34698508  1
  S2-  S173  1  0.50101925  0.48414365  0.85811824  1
  S2-  S174  1  0.34845455  0.72218509  0.34176274  1
  S2-  S175  1  0.30684518  0.79368049  0.85256753  1
  S2-  S176  1  0.71688451  0.00062079  0.36271187  1
  S2-  S177  1  0.68395118  -0.00625631  0.84083854  1
  S2-  S178  1  0.61856519  0.22578979  0.34686778  1
  S2-  S179  1  0.62996337  0.23180398  0.84169332  1
  S2-  S180  1  0.73115261  0.51229401  0.35119318  1
  S2-  S181  1  0.74363982  0.49956197  0.85895917  1
  S2-  S182  1  0.59571568  0.74235525  0.34709695  1
  S2-  S183  1  0.74171303  0.74082055  0.85719541  1
  S2-  S184  1  0.96644773  -0.01719180  0.35992168  1
  S2-  S185  1  0.88100822  -0.09833475  0.85508205  1
  S2-  S186  1  0.87916557  0.19909220  0.34923486  1
  S2-  S187  1  0.87121944  0.12937090  0.86395864  1
  S2-  S188  1  0.97500894  0.54157849  0.36039769  1
  S2-  S189  1  0.97755972  0.48801182  0.85552968  1
  S2-  S190  1  0.83855350  0.76659485  0.35061148  1
  S2-  S191  1  0.97762356  0.71463771  0.84721035  1
  S2-  S192  1  -0.03001726  0.13089005  0.46104157  1
  S2-  S193  1  0.00029031  0.11999457  0.96166319  1
  S2-  S194  1  -0.03121225  0.37856355  0.44791038  1
  S2-  S195  1  -0.01025056  0.36506326  0.95468149  1
  S2-  S196  1  -0.03102317  0.63266529  0.46700795  1
  S2-  S197  1  -0.00424862  0.62049725  0.95437796  1
  S2-  S198  1  -0.02933204  0.87931320  0.46766641  1
  S2-  S199  1  -0.00065722  0.87113482  0.96017034  1
  S2-  S200  1  0.22147160  0.13023881  0.45774537  1
  S2-  S201  1  0.24165706  0.12058752  0.94634890  1
  S2-  S202  1  0.22114131  0.37524123  0.44901358  1
  S2-  S203  1  0.24490760  0.37194435  0.95426405  1
  S2-  S204  1  0.22142162  0.63515505  0.45304131  1
  S2-  S205  1  0.24568027  0.62492452  0.95287196  1
  S2-  S206  1  0.22017894  0.88090069  0.45113159  1
  S2-  S207  1  0.24125414  0.86798973  0.95857904  1
  S2-  S208  1  0.47411875  0.12592818  0.45604770  1
  S2-  S209  1  0.49093668  0.12501809  0.96165459  1
  S2-  S210  1  0.47000827  0.37874223  0.44514370  1
  S2-  S211  1  0.49123237  0.36571581  0.95292858  1
  S2-  S212  1  0.47113557  0.63607066  0.44940188  1
  S2-  S213  1  0.49408981  0.62145200  0.95652268  1
  S2-  S214  1  0.47384018  0.88217680  0.45103994  1
  S2-  S215  1  0.49300941  0.86659965  0.95102387  1
  S2-  S216  1  0.71984478  0.13410591  0.46135751  1
  S2-  S217  1  0.74006811  0.11987635  0.96455672  1
  S2-  S218  1  0.72175935  0.37879339  0.44574240  1
  S2-  S219  1  0.74825881  0.36578533  0.95680982  1
  S2-  S220  1  0.72137010  0.63383182  0.45321125  1
  S2-  S221  1  0.74478288  0.61942686  0.96100299  1
  S2-  S222  1  0.71914888  0.87703222  0.46421682  1
  S2-  S223  1  0.74084346  0.87591006  0.95725001  1
  S2-  S224  1  0.12851154  0.00318229  0.05422989  1
  S2-  S225  1  0.10249970  0.00933980  0.54194950  1
  S2-  S226  1  0.11898542  0.24184732  0.05070542  1
  S2-  S227  1  0.09911967  0.25283927  0.54870238  1
  S2-  S228  1  0.11850338  0.49233959  0.04024686  1
  S2-  S229  1  0.09797440  0.50533296  0.54274749  1
  S2-  S230  1  0.12890634  0.74235181  0.05085677  1
  S2-  S231  1  0.09690572  0.75258072  0.55637251  1
  S2-  S232  1  0.36535421  -0.00068354  0.04793528  1
  S2-  S233  1  0.34823471  0.00036010  0.53880159  1
  S2-  S234  1  0.36868114  0.24529550  0.04986038  1
  S2-  S235  1  0.35029241  0.26206430  0.54711133  1
  S2-  S236  1  0.37028499  0.49053941  0.03918398  1
  S2-  S237  1  0.34756365  0.50329418  0.53606489  1
  S2-  S238  1  0.36868990  0.74883742  0.04150202  1
  S2-  S239  1  0.34920988  0.75858927  0.54736014  1
  S2-  S240  1  0.61731390  -0.00494379  0.04382952  1
  S2-  S241  1  0.59354760  0.00702683  0.54198734  1
  S2-  S242  1  0.62058999  0.24843993  0.04830688  1
  S2-  S243  1  0.58998136  0.26325290  0.54534987  1
  S2-  S244  1  0.61648513  0.48905320  0.03982215  1
  S2-  S245  1  0.59649311  0.50704348  0.53115923  1
  S2-  S246  1  0.61426920  0.74681235  0.04268033  1
  S2-  S247  1  0.59483937  0.75040170  0.54965973  1
  S2-  S248  1  0.87555248  -0.00254937  0.04404677  1
  S2-  S249  1  0.84152365  0.00699535  0.54624241  1
  S2-  S250  1  0.87110824  0.24091976  0.04853183  1
  S2-  S251  1  0.84185091  0.25747260  0.54685141  1
  S2-  S252  1  0.87610164  0.49313190  0.04045395  1
  S2-  S253  1  0.84381143  0.49993149  0.53622959  1
  S2-  S254  1  0.87183761  0.74199058  0.03621889  1
  S2-  S255  1  0.84544444  0.75364326  0.55297978  1
