# generated using pymatgen
data_La12Ce14Pr13Nd13Sm12(BiS2)64
_symmetry_space_group_name_H-M   'P 1'
_cell_length_a   16.09481548
_cell_length_b   16.04468263
_cell_length_c   27.22035364
_cell_angle_alpha   89.93650729
_cell_angle_beta   89.66155926
_cell_angle_gamma   90.03176837
_symmetry_Int_Tables_number   1
_chemical_formula_structural   La12Ce14Pr13Nd13Sm12(BiS2)64
_chemical_formula_sum   'La12 Ce14 Pr13 Nd13 Sm12 Bi64 S128'
_cell_volume   7029.15280568
_cell_formula_units_Z   1
loop_
 _symmetry_equiv_pos_site_id
 _symmetry_equiv_pos_as_xyz
  1  'x, y, z'
loop_
 _atom_type_symbol
 _atom_type_oxidation_number
  La3+  3.0
  Ce3+  3.0
  Pr3+  3.0
  Nd3+  3.0
  Sm3+  3.0
  Bi2+  2.0
  S2-  -2.0
loop_
 _atom_site_type_symbol
 _atom_site_label
 _atom_site_symmetry_multiplicity
 _atom_site_fract_x
 _atom_site_fract_y
 _atom_site_fract_z
 _atom_site_occupancy
  La3+  La0  1  0.64251771  0.76809824  0.93148015  1
  La3+  La1  1  0.39129679  0.76211330  0.92814911  1
  La3+  La2  1  0.50305211  0.62079729  0.59295279  1
  La3+  La3  1  0.63545988  0.26333527  0.93824936  1
  La3+  La4  1  0.78071195  0.64608568  0.60473692  1
  La3+  La5  1  0.26029182  0.89182347  0.05079688  1
  La3+  La6  1  0.37886246  0.75079878  0.39618650  1
  La3+  La7  1  0.38666948  0.01300057  0.89472419  1
  La3+  La8  1  0.11378037  0.25154686  0.38845703  1
  La3+  La9  1  -0.00371464  0.88033142  0.58338079  1
  La3+  La10  1  0.12636499  0.01878900  0.91452312  1
  La3+  La11  1  0.63584330  0.75818629  0.41661645  1
  Ce3+  Ce12  1  0.25923570  0.87863856  0.56069681  1
  Ce3+  Ce13  1  0.76242071  0.63986486  0.05282785  1
  Ce3+  Ce14  1  0.76214772  0.38829068  0.05876098  1
  Ce3+  Ce15  1  0.50386003  0.13336863  0.55347765  1
  Ce3+  Ce16  1  0.01015549  0.89323345  0.06768473  1
  Ce3+  Ce17  1  0.63200753  0.00430694  0.44069809  1
  Ce3+  Ce18  1  0.00343336  0.63138424  0.54903602  1
  Ce3+  Ce19  1  0.13016512  0.76037872  0.44625737  1
  Ce3+  Ce20  1  0.75346250  0.88552789  0.56501878  1
  Ce3+  Ce21  1  0.26067169  0.63992192  0.05726100  1
  Ce3+  Ce22  1  0.00831919  0.12895456  0.56705445  1
  Ce3+  Ce23  1  0.50855804  0.39544903  0.07037512  1
  Ce3+  Ce24  1  0.88636308  0.01938641  0.94602243  1
  Ce3+  Ce25  1  0.75040241  0.12997249  0.56449998  1
  Pr3+  Pr26  1  0.51125672  0.88963837  0.06364899  1
  Pr3+  Pr27  1  0.51318554  0.64208588  0.06801609  1
  Pr3+  Pr28  1  0.13882305  0.51013572  0.94312172  1
  Pr3+  Pr29  1  0.13147847  0.76648103  0.93319034  1
  Pr3+  Pr30  1  0.26485182  0.38293616  0.07589673  1
  Pr3+  Pr31  1  0.50910260  0.87197074  0.56129226  1
  Pr3+  Pr32  1  0.63860681  0.01672118  0.93731505  1
  Pr3+  Pr33  1  0.25681731  0.63097886  0.56246836  1
  Pr3+  Pr34  1  0.89711404  0.50663967  0.92424757  1
  Pr3+  Pr35  1  0.38866729  0.51545875  0.93773657  1
  Pr3+  Pr36  1  0.00562055  0.37953335  0.55734718  1
  Pr3+  Pr37  1  0.14095278  0.26443856  0.93554856  1
  Pr3+  Pr38  1  0.76101593  0.89880165  0.07385703  1
  Nd3+  Nd39  1  0.87678562  0.50794348  0.43940849  1
  Nd3+  Nd40  1  0.63998566  0.51432948  0.93721081  1
  Nd3+  Nd41  1  0.87945243  0.25707903  0.44887176  1
  Nd3+  Nd42  1  0.74905389  0.38615748  0.56791797  1
  Nd3+  Nd43  1  0.88003532  0.76344173  0.42910086  1
  Nd3+  Nd44  1  0.89060052  0.76779251  0.93646001  1
  Nd3+  Nd45  1  0.38288880  0.00059382  0.43575216  1
  Nd3+  Nd46  1  0.01099892  0.39059517  0.07197430  1
  Nd3+  Nd47  1  0.38223938  0.50725987  0.43830638  1
  Nd3+  Nd48  1  0.13348011  0.00911321  0.44528893  1
  Nd3+  Nd49  1  0.39066623  0.26475636  0.93466726  1
  Nd3+  Nd50  1  0.38243557  0.25760533  0.42637101  1
  Nd3+  Nd51  1  0.26333786  0.13357218  0.56480819  1
  Sm3+  Sm52  1  0.62941612  0.25739742  0.43421614  1
  Sm3+  Sm53  1  0.50821274  0.13358844  0.06110129  1
  Sm3+  Sm54  1  0.50264875  0.38055750  0.56043275  1
  Sm3+  Sm55  1  0.89109307  0.26336551  0.94181188  1
  Sm3+  Sm56  1  0.26211527  0.13847494  0.04947782  1
  Sm3+  Sm57  1  0.00687720  0.64082885  0.06545481  1
  Sm3+  Sm58  1  0.13349823  0.50585951  0.44111054  1
  Sm3+  Sm59  1  0.62965314  0.51294358  0.44623441  1
  Sm3+  Sm60  1  0.01635746  0.14136169  0.06889737  1
  Sm3+  Sm61  1  0.88256719  0.00783071  0.44387604  1
  Sm3+  Sm62  1  0.25561351  0.37899359  0.55313626  1
  Sm3+  Sm63  1  0.76019939  0.14678851  0.06980907  1
  Bi2+  Bi64  1  -0.11449366  0.10928279  0.30455637  1
  Bi2+  Bi65  1  -0.02396960  0.19327258  0.80317674  1
  Bi2+  Bi66  1  -0.06332119  0.39158319  0.26014159  1
  Bi2+  Bi67  1  0.07673325  0.37623973  0.81742094  1
  Bi2+  Bi68  1  -0.02758943  0.66434671  0.27840384  1
  Bi2+  Bi69  1  -0.03188275  0.57997304  0.77124464  1
  Bi2+  Bi70  1  0.03868391  0.83517930  0.32421392  1
  Bi2+  Bi71  1  -0.00647936  0.88634434  0.79653662  1
  Bi2+  Bi72  1  0.25088190  0.10270326  0.29554174  1
  Bi2+  Bi73  1  0.24729119  0.23263917  0.78147137  1
  Bi2+  Bi74  1  0.23578951  0.37507376  0.27460537  1
  Bi2+  Bi75  1  0.27115867  0.39767886  0.85072519  1
  Bi2+  Bi76  1  0.18387001  0.61453117  0.29013792  1
  Bi2+  Bi77  1  0.23992600  0.59546653  0.80123685  1
  Bi2+  Bi78  1  0.23784455  0.89390509  0.28864403  1
  Bi2+  Bi79  1  0.21126701  0.78829418  0.79959282  1
  Bi2+  Bi80  1  0.44726259  0.06962126  0.29750695  1
  Bi2+  Bi81  1  0.50340265  0.15128489  0.78641083  1
  Bi2+  Bi82  1  0.47266400  0.34243109  0.27823859  1
  Bi2+  Bi83  1  0.45381869  0.40656858  0.80009872  1
  Bi2+  Bi84  1  0.49962367  0.58091411  0.29793326  1
  Bi2+  Bi85  1  0.49902097  0.62489882  0.78442074  1
  Bi2+  Bi86  1  0.52263706  0.88771297  0.28056223  1
  Bi2+  Bi87  1  0.49417014  0.89308116  0.78436856  1
  Bi2+  Bi88  1  0.69542505  0.08827333  0.32262519  1
  Bi2+  Bi89  1  0.76221805  0.09299508  0.82944701  1
  Bi2+  Bi90  1  0.73185087  0.27644567  0.30486268  1
  Bi2+  Bi91  1  0.70466279  0.26927229  0.79184951  1
  Bi2+  Bi92  1  0.77198403  0.58011088  0.29057346  1
  Bi2+  Bi93  1  0.71957782  0.65217116  0.80603497  1
  Bi2+  Bi94  1  0.77346868  0.86604217  0.28902309  1
  Bi2+  Bi95  1  0.74300402  0.90818483  0.78655378  1
  Bi2+  Bi96  1  0.07547708  -0.02565103  0.23915362  1
  Bi2+  Bi97  1  0.11150900  -0.00740665  0.71476170  1
  Bi2+  Bi98  1  0.10356082  0.17526956  0.20759868  1
  Bi2+  Bi99  1  0.09003274  0.27635731  0.71635449  1
  Bi2+  Bi100  1  0.07647498  0.52185137  0.21657627  1
  Bi2+  Bi101  1  0.13304721  0.47974033  0.71023438  1
  Bi2+  Bi102  1  0.11765984  0.77443213  0.21903020  1
  Bi2+  Bi103  1  0.13357289  0.68205478  0.71550913  1
  Bi2+  Bi104  1  0.35881750  0.00130532  0.20001178  1
  Bi2+  Bi105  1  0.36388277  0.01732855  0.68415180  1
  Bi2+  Bi106  1  0.39171232  0.20325623  0.20390848  1
  Bi2+  Bi107  1  0.40553709  0.27826537  0.71490230  1
  Bi2+  Bi108  1  0.36911802  0.49939551  0.19180420  1
  Bi2+  Bi109  1  0.33175532  0.48112785  0.71741552  1
  Bi2+  Bi110  1  0.36209191  0.75240887  0.20839209  1
  Bi2+  Bi111  1  0.38469316  0.76570719  0.69622529  1
  Bi2+  Bi112  1  0.61968399  0.04081454  0.21825026  1
  Bi2+  Bi113  1  0.64489746  0.06709458  0.72140448  1
  Bi2+  Bi114  1  0.59250681  0.23726137  0.20881037  1
  Bi2+  Bi115  1  0.67741909  0.24655920  0.67152684  1
  Bi2+  Bi116  1  0.64967958  0.42495199  0.24074493  1
  Bi2+  Bi117  1  0.62209772  0.41638053  0.71551558  1
  Bi2+  Bi118  1  0.61913324  0.70578248  0.20211498  1
  Bi2+  Bi119  1  0.64691905  0.81212622  0.70018376  1
  Bi2+  Bi120  1  0.88031929  -0.02396601  0.20973202  1
  Bi2+  Bi121  1  0.85204466  0.03765438  0.72363703  1
  Bi2+  Bi122  1  0.85761122  0.22972449  0.21460430  1
  Bi2+  Bi123  1  0.86654854  0.24006609  0.70852268  1
  Bi2+  Bi124  1  0.81510670  0.46509492  0.18332166  1
  Bi2+  Bi125  1  0.86332230  0.43344864  0.72502735  1
  Bi2+  Bi126  1  0.86434222  0.77595244  0.20306857  1
  Bi2+  Bi127  1  0.91633064  0.74688990  0.71661129  1
  S2-  S128  1  0.02006176  0.01533232  0.14190778  1
  S2-  S129  1  -0.00692279  0.03694671  0.65158819  1
  S2-  S130  1  0.01487715  0.26176376  0.14464163  1
  S2-  S131  1  0.00136261  0.39994035  0.65802807  1
  S2-  S132  1  -0.02622773  0.52300664  0.13876231  1
  S2-  S133  1  -0.05258831  0.63420098  0.64081402  1
  S2-  S134  1  0.00744489  0.76360873  0.14083773  1
  S2-  S135  1  0.06288710  0.84262442  0.67830449  1
  S2-  S136  1  0.24671758  0.15836333  0.14941791  1
  S2-  S137  1  0.22049172  0.09860767  0.66181075  1
  S2-  S138  1  0.20807819  0.41887241  0.17276845  1
  S2-  S139  1  0.29100062  0.35707598  0.64914528  1
  S2-  S140  1  0.28686793  0.64299939  0.15558753  1
  S2-  S141  1  0.34386114  0.62669246  0.65068136  1
  S2-  S142  1  0.27771850  0.87661864  0.15206402  1
  S2-  S143  1  0.27324974  0.86942443  0.65960592  1
  S2-  S144  1  0.50546933  0.01476990  0.13971396  1
  S2-  S145  1  0.43020964  0.15794551  0.64040260  1
  S2-  S146  1  0.39892664  0.35266593  0.14515963  1
  S2-  S147  1  0.51453173  0.46164020  0.64868283  1
  S2-  S148  1  0.51144000  0.52507585  0.14661923  1
  S2-  S149  1  0.54454160  0.68334559  0.68707061  1
  S2-  S150  1  0.49985222  0.76818340  0.14397133  1
  S2-  S151  1  0.50276849  0.90466640  0.66276087  1
  S2-  S152  1  0.75540126  0.03604396  0.14801501  1
  S2-  S153  1  0.74116793  0.01644311  0.64090693  1
  S2-  S154  1  0.76153243  0.27727990  0.13816937  1
  S2-  S155  1  0.75969702  0.48305101  0.65265020  1
  S2-  S156  1  0.73636695  0.60925150  0.14929933  1
  S2-  S157  1  0.74534016  0.67830666  0.70871558  1
  S2-  S158  1  0.70384495  0.82475844  0.16436881  1
  S2-  S159  1  0.84824313  0.82835500  0.63886827  1
  S2-  S160  1  0.11721093  0.08317329  0.35437859  1
  S2-  S161  1  0.15848205  -0.05221377  0.81679349  1
  S2-  S162  1  0.09765332  0.29436432  0.28232011  1
  S2-  S163  1  0.13174704  0.16497927  0.84989278  1
  S2-  S164  1  0.14868566  0.47613014  0.34450806  1
  S2-  S165  1  0.03836429  0.53042716  0.86026476  1
  S2-  S166  1  0.20315915  0.75778861  0.35715754  1
  S2-  S167  1  0.00875721  0.76165412  0.85834564  1
  S2-  S168  1  0.38421598  -0.09142836  0.34888281  1
  S2-  S169  1  0.37182012  0.01369812  0.77931408  1
  S2-  S170  1  0.27605119  0.25900480  0.34557152  1
  S2-  S171  1  0.36912261  0.17425394  0.84921165  1
  S2-  S172  1  0.39546061  0.46624918  0.34053637  1
  S2-  S173  1  0.39118938  0.62638629  0.85653096  1
  S2-  S174  1  0.35919833  0.66551305  0.30007416  1
  S2-  S175  1  0.36789146  0.85207059  0.84248326  1
  S2-  S176  1  0.64242522  -0.08367272  0.35524785  1
  S2-  S177  1  0.54857251  0.01226039  0.84996799  1
  S2-  S178  1  0.51789886  0.25987368  0.35844255  1
  S2-  S179  1  0.55291238  0.28335607  0.84974736  1
  S2-  S180  1  0.64139839  0.51023406  0.34533980  1
  S2-  S181  1  0.60858368  0.52491431  0.83842738  1
  S2-  S182  1  0.53198093  0.74034424  0.33421382  1
  S2-  S183  1  0.56531852  0.75577898  0.83796749  1
  S2-  S184  1  0.89294582  -0.09425576  0.36261088  1
  S2-  S185  1  0.96630819  0.01175758  0.85894447  1
  S2-  S186  1  0.94175728  0.24052084  0.35750686  1
  S2-  S187  1  0.91457159  0.33407423  0.85297393  1
  S2-  S188  1  0.88595606  0.48617649  0.34003820  1
  S2-  S189  1  0.82382887  0.53723434  0.83031404  1
  S2-  S190  1  0.77094848  0.72641853  0.34784001  1
  S2-  S191  1  0.77859837  0.79339802  0.85816390  1
  S2-  S192  1  0.00606859  0.13289502  0.46120851  1
  S2-  S193  1  0.01202298  0.14416327  0.96048234  1
  S2-  S194  1  0.00963275  0.38078296  0.45015659  1
  S2-  S195  1  0.01526147  0.38473006  0.96368354  1
  S2-  S196  1  0.00666476  0.63091353  0.44172510  1
  S2-  S197  1  0.01149531  0.63888135  0.96269194  1
  S2-  S198  1  0.00834609  0.88623810  0.46562447  1
  S2-  S199  1  0.01160680  0.89401009  0.96052326  1
  S2-  S200  1  0.26229143  0.12874102  0.45561292  1
  S2-  S201  1  0.26383296  0.13307189  0.94823470  1
  S2-  S202  1  0.25251688  0.38113166  0.45004921  1
  S2-  S203  1  0.26558907  0.38728352  0.96627618  1
  S2-  S204  1  0.25734708  0.63115939  0.45374622  1
  S2-  S205  1  0.25638431  0.64134256  0.95183996  1
  S2-  S206  1  0.25793064  0.88025029  0.45521621  1
  S2-  S207  1  0.25612414  0.89540102  0.94335299  1
  S2-  S208  1  0.50655715  0.12764420  0.44976646  1
  S2-  S209  1  0.50881818  0.13714556  0.95568105  1
  S2-  S210  1  0.50829366  0.38435536  0.45589307  1
  S2-  S211  1  0.51139706  0.39281097  0.95884917  1
  S2-  S212  1  0.50378742  0.63344652  0.44417004  1
  S2-  S213  1  0.51869613  0.63822876  0.95804643  1
  S2-  S214  1  0.50612198  0.87380774  0.45414357  1
  S2-  S215  1  0.51222031  0.89183750  0.95348893  1
  S2-  S216  1  0.75520613  0.13242536  0.45579804  1
  S2-  S217  1  0.76320455  0.14495789  0.96196179  1
  S2-  S218  1  0.75180593  0.38148326  0.45523189  1
  S2-  S219  1  0.76322864  0.38676125  0.94924579  1
  S2-  S220  1  0.75487637  0.63057142  0.45177911  1
  S2-  S221  1  0.76812249  0.63503878  0.94773083  1
  S2-  S222  1  0.75602502  0.88341681  0.45973021  1
  S2-  S223  1  0.76450800  0.89688959  0.96254959  1
  S2-  S224  1  0.13676388  0.01882740  0.03979395  1
  S2-  S225  1  0.13461692  0.00564682  0.55136593  1
  S2-  S226  1  0.14045065  0.26513207  0.04440174  1
  S2-  S227  1  0.13370040  0.25528828  0.55808264  1
  S2-  S228  1  0.13640766  0.51432276  0.05090195  1
  S2-  S229  1  0.13168551  0.50489954  0.54750792  1
  S2-  S230  1  0.13496465  0.76314633  0.04189832  1
  S2-  S231  1  0.12906905  0.75566127  0.55328973  1
  S2-  S232  1  0.38424282  0.01598280  0.04284431  1
  S2-  S233  1  0.38383558  0.00287304  0.54383887  1
  S2-  S234  1  0.38928195  0.25806116  0.04165579  1
  S2-  S235  1  0.38135480  0.26089047  0.53497549  1
  S2-  S236  1  0.38280069  0.51555047  0.04455867  1
  S2-  S237  1  0.38003124  0.50324982  0.54433193  1
  S2-  S238  1  0.38516678  0.76334074  0.03790404  1
  S2-  S239  1  0.38501782  0.75073313  0.55198368  1
  S2-  S240  1  0.63803886  0.02044184  0.04352165  1
  S2-  S241  1  0.62398350  0.00769431  0.54445383  1
  S2-  S242  1  0.62690663  0.26413876  0.04606836  1
  S2-  S243  1  0.62768280  0.25931264  0.54011513  1
  S2-  S244  1  0.63985920  0.51254573  0.04310254  1
  S2-  S245  1  0.62654630  0.50723797  0.54817637  1
  S2-  S246  1  0.64016857  0.76715387  0.04100517  1
  S2-  S247  1  0.63804518  0.74761844  0.56709421  1
  S2-  S248  1  0.88535848  0.02418991  0.04929099  1
  S2-  S249  1  0.88008666  0.01034509  0.54565002  1
  S2-  S250  1  0.89000864  0.26516060  0.04413299  1
  S2-  S251  1  0.87649982  0.25693894  0.55561171  1
  S2-  S252  1  0.88288963  0.51229049  0.03540078  1
  S2-  S253  1  0.87804127  0.50469350  0.54464399  1
  S2-  S254  1  0.88120136  0.76915619  0.04479641  1
  S2-  S255  1  0.88063020  0.75189955  0.53518553  1
