# generated using pymatgen
data_La12Ce14Pr13Nd13Sm12(BiS2)64
_symmetry_space_group_name_H-M   'P 1'
_cell_length_a   16.15618840
_cell_length_b   16.15654242
_cell_length_c   27.31509551
_cell_angle_alpha   89.77213393
_cell_angle_beta   89.94462990
_cell_angle_gamma   89.86943235
_symmetry_Int_Tables_number   1
_chemical_formula_structural   La12Ce14Pr13Nd13Sm12(BiS2)64
_chemical_formula_sum   'La12 Ce14 Pr13 Nd13 Sm12 Bi64 S128'
_cell_volume   7129.93049433
_cell_formula_units_Z   1
loop_
 _symmetry_equiv_pos_site_id
 _symmetry_equiv_pos_as_xyz
  1  'x, y, z'
loop_
 _atom_type_symbol
 _atom_type_oxidation_number
  La3+  3.0
  Ce3+  3.0
  Pr3+  3.0
  Nd3+  3.0
  Sm3+  3.0
  Bi2+  2.0
  S2-  -2.0
loop_
 _atom_site_type_symbol
 _atom_site_label
 _atom_site_symmetry_multiplicity
 _atom_site_fract_x
 _atom_site_fract_y
 _atom_site_fract_z
 _atom_site_occupancy
  La3+  La0  1  0.39151374  0.50721902  0.39885504  1
  La3+  La1  1  0.37775880  0.50255618  0.93112181  1
  La3+  La2  1  -0.00812180  0.12003683  0.08261278  1
  La3+  La3  1  0.86504703  0.00432951  0.92512923  1
  La3+  La4  1  0.89846869  0.00740020  0.39358743  1
  La3+  La5  1  0.26137316  0.88870746  0.57462801  1
  La3+  La6  1  0.11383977  -0.00465724  0.92090480  1
  La3+  La7  1  0.88870352  0.26245758  0.42837736  1
  La3+  La8  1  0.00180642  0.13456519  0.59384654  1
  La3+  La9  1  0.37426553  0.25451143  0.91654611  1
  La3+  La10  1  0.26507459  0.14510545  0.58096072  1
  La3+  La11  1  0.12555297  0.49623937  0.93846039  1
  Ce3+  Ce12  1  0.62434251  0.00002165  0.94606674  1
  Ce3+  Ce13  1  0.11972547  0.24590528  0.93990324  1
  Ce3+  Ce14  1  0.49308781  0.38020407  0.06804365  1
  Ce3+  Ce15  1  0.24316187  0.87901783  0.05921701  1
  Ce3+  Ce16  1  0.62217742  0.74842879  0.94545874  1
  Ce3+  Ce17  1  0.38703631  0.26657319  0.44883494  1
  Ce3+  Ce18  1  0.24608318  0.61736966  0.06692622  1
  Ce3+  Ce19  1  0.50528429  0.88608865  0.55770214  1
  Ce3+  Ce20  1  0.87169792  0.74817364  0.94662555  1
  Ce3+  Ce21  1  0.25987410  0.63092027  0.55912389  1
  Ce3+  Ce22  1  0.50729073  0.63818599  0.55726014  1
  Ce3+  Ce23  1  0.87262946  0.24845597  0.93880987  1
  Ce3+  Ce24  1  0.63631970  0.76173412  0.44388085  1
  Ce3+  Ce25  1  0.49525079  0.87699563  0.05837916  1
  Pr3+  Pr26  1  0.76419474  0.38634542  0.56024621  1
  Pr3+  Pr27  1  0.13773707  0.51128050  0.43483277  1
  Pr3+  Pr28  1  0.25117866  0.36172412  0.07116349  1
  Pr3+  Pr29  1  0.14122448  0.01723890  0.43816819  1
  Pr3+  Pr30  1  0.37826408  0.76276497  0.42965378  1
  Pr3+  Pr31  1  0.13640883  0.26147109  0.44336932  1
  Pr3+  Pr32  1  0.25798708  0.39178101  0.56647303  1
  Pr3+  Pr33  1  0.38361332  0.01462136  0.43701406  1
  Pr3+  Pr34  1  -0.00447812  0.87630413  0.06240525  1
  Pr3+  Pr35  1  0.76457851  0.63853873  0.56097183  1
  Pr3+  Pr36  1  0.88755372  0.76437708  0.43724378  1
  Pr3+  Pr37  1  0.12324771  0.74984162  0.94197446  1
  Pr3+  Pr38  1  0.86998366  0.50051269  0.93287678  1
  Nd3+  Nd39  1  -0.00138978  0.62338168  0.06154596  1
  Nd3+  Nd40  1  0.37149017  0.75239307  0.94597942  1
  Nd3+  Nd41  1  0.61819974  0.25314501  0.94157127  1
  Nd3+  Nd42  1  0.74746688  0.37374018  0.05890183  1
  Nd3+  Nd43  1  0.74626870  0.12615660  0.06552558  1
  Nd3+  Nd44  1  0.49301974  0.62559104  0.06887865  1
  Nd3+  Nd45  1  0.13716475  0.76174601  0.44133511  1
  Nd3+  Nd46  1  0.76361886  0.13513949  0.55523815  1
  Nd3+  Nd47  1  0.63465377  0.26515278  0.44529760  1
  Nd3+  Nd48  1  0.63586484  0.01415677  0.44064235  1
  Nd3+  Nd49  1  0.51171183  0.13839727  0.56621150  1
  Nd3+  Nd50  1  0.51151231  0.39773309  0.57144186  1
  Nd3+  Nd51  1  0.74711121  0.62151603  0.06512355  1
  Sm3+  Sm52  1  0.00942838  0.63586547  0.55558086  1
  Sm3+  Sm53  1  0.49436366  0.12806560  0.05567754  1
  Sm3+  Sm54  1  0.00983642  0.38319546  0.56170549  1
  Sm3+  Sm55  1  0.62022007  0.50194416  0.94176224  1
  Sm3+  Sm56  1  0.37165708  -0.00012177  0.93988387  1
  Sm3+  Sm57  1  0.88562398  0.51148564  0.43149048  1
  Sm3+  Sm58  1  0.76564523  0.89117546  0.54884907  1
  Sm3+  Sm59  1  0.74730580  0.87548823  0.06222231  1
  Sm3+  Sm60  1  0.24496229  0.12471525  0.04787376  1
  Sm3+  Sm61  1  0.01266111  0.88938788  0.55600153  1
  Sm3+  Sm62  1  0.63524706  0.51385475  0.44140832  1
  Sm3+  Sm63  1  -0.00266240  0.37331815  0.05598963  1
  Bi2+  Bi64  1  0.01906543  0.15994249  0.28843973  1
  Bi2+  Bi65  1  0.00905305  0.12127332  0.80256901  1
  Bi2+  Bi66  1  -0.05852765  0.38649331  0.25709765  1
  Bi2+  Bi67  1  -0.02292603  0.36170360  0.75069598  1
  Bi2+  Bi68  1  -0.08715883  0.65977771  0.32335858  1
  Bi2+  Bi69  1  0.00003123  0.63912901  0.75716007  1
  Bi2+  Bi70  1  0.03871186  0.89249894  0.27924734  1
  Bi2+  Bi71  1  -0.01406988  0.82778448  0.78931833  1
  Bi2+  Bi72  1  0.25772997  0.11468840  0.27664833  1
  Bi2+  Bi73  1  0.27876271  0.07920128  0.76493432  1
  Bi2+  Bi74  1  0.23736275  0.37431606  0.30165728  1
  Bi2+  Bi75  1  0.21380300  0.35913917  0.80874440  1
  Bi2+  Bi76  1  0.11407312  0.66358965  0.31824170  1
  Bi2+  Bi77  1  0.28724676  0.59040738  0.78969057  1
  Bi2+  Bi78  1  0.20879711  0.80950276  0.25743946  1
  Bi2+  Bi79  1  0.28030807  0.82344537  0.79598666  1
  Bi2+  Bi80  1  0.44067442  0.09795255  0.31371662  1
  Bi2+  Bi81  1  0.53300955  0.11275675  0.79102900  1
  Bi2+  Bi82  1  0.51344663  0.35078484  0.28950520  1
  Bi2+  Bi83  1  0.62885726  0.37998220  0.81449952  1
  Bi2+  Bi84  1  0.55567707  0.61705090  0.29242766  1
  Bi2+  Bi85  1  0.53276234  0.62236990  0.78674460  1
  Bi2+  Bi86  1  0.43450471  0.89964494  0.31232141  1
  Bi2+  Bi87  1  0.51344907  0.90162134  0.79914128  1
  Bi2+  Bi88  1  0.72571656  0.12744217  0.29528566  1
  Bi2+  Bi89  1  0.73106492  0.12483225  0.79310913  1
  Bi2+  Bi90  1  0.75780640  0.36485238  0.29622041  1
  Bi2+  Bi91  1  0.82022885  0.38146170  0.82242268  1
  Bi2+  Bi92  1  0.74563568  0.56041748  0.31677085  1
  Bi2+  Bi93  1  0.78240697  0.63500766  0.81046207  1
  Bi2+  Bi94  1  0.67436189  0.83528333  0.26458853  1
  Bi2+  Bi95  1  0.70653152  0.90021651  0.77420366  1
  Bi2+  Bi96  1  0.16392680  0.04832080  0.18494334  1
  Bi2+  Bi97  1  0.11417917  -0.06155496  0.71107215  1
  Bi2+  Bi98  1  0.12866499  0.30175357  0.19365239  1
  Bi2+  Bi99  1  0.13557147  0.22304287  0.70562086  1
  Bi2+  Bi100  1  0.16076787  0.58972084  0.21474316  1
  Bi2+  Bi101  1  0.12383800  0.47393155  0.70670023  1
  Bi2+  Bi102  1  0.03983812  0.76243278  0.19370108  1
  Bi2+  Bi103  1  0.17866626  0.66692206  0.70302555  1
  Bi2+  Bi104  1  0.40148518  -0.02977690  0.20735177  1
  Bi2+  Bi105  1  0.43927807  -0.01062189  0.70640726  1
  Bi2+  Bi106  1  0.39974614  0.23407030  0.22566199  1
  Bi2+  Bi107  1  0.38610054  0.25611033  0.71740389  1
  Bi2+  Bi108  1  0.36743237  0.49132253  0.19558631  1
  Bi2+  Bi109  1  0.41630391  0.50052912  0.72256575  1
  Bi2+  Bi110  1  0.40389211  0.73613266  0.25578565  1
  Bi2+  Bi111  1  0.40366903  0.68775835  0.69387182  1
  Bi2+  Bi112  1  0.59755292  0.00865504  0.23498188  1
  Bi2+  Bi113  1  0.62791705  0.05003769  0.69297298  1
  Bi2+  Bi114  1  0.59669817  0.19372661  0.19284697  1
  Bi2+  Bi115  1  0.61825917  0.24281273  0.71170968  1
  Bi2+  Bi116  1  0.62336804  0.43259885  0.21245327  1
  Bi2+  Bi117  1  0.72781445  0.48905926  0.73735010  1
  Bi2+  Bi118  1  0.57804655  0.71296995  0.19533702  1
  Bi2+  Bi119  1  0.57998055  0.77137221  0.71689506  1
  Bi2+  Bi120  1  0.87892834  -0.00763470  0.21001192  1
  Bi2+  Bi121  1  0.86815686  -0.01139052  0.69839867  1
  Bi2+  Bi122  1  0.77349693  0.27260225  0.19230295  1
  Bi2+  Bi123  1  0.81926857  0.25556126  0.72060399  1
  Bi2+  Bi124  1  0.87365798  0.55915920  0.22556776  1
  Bi2+  Bi125  1  0.93750389  0.50903315  0.67499493  1
  Bi2+  Bi126  1  0.84131994  0.75962881  0.21724249  1
  Bi2+  Bi127  1  0.77997762  0.74754907  0.71367280  1
  S2-  S128  1  0.03526308  0.16841774  0.18311559  1
  S2-  S129  1  0.01380400  0.08533715  0.70025637  1
  S2-  S130  1  -0.01142896  0.36416915  0.15364412  1
  S2-  S131  1  0.02060271  0.28694221  0.64665108  1
  S2-  S132  1  0.01238971  0.59438430  0.15952698  1
  S2-  S133  1  -0.00531291  0.66626157  0.65147698  1
  S2-  S134  1  0.01756198  0.97344982  0.14417221  1
  S2-  S135  1  -0.01549493  0.89141539  0.65455054  1
  S2-  S136  1  0.23158153  0.19157260  0.13809634  1
  S2-  S137  1  0.21225265  0.05740873  0.66521765  1
  S2-  S138  1  0.20795483  0.45235200  0.15637567  1
  S2-  S139  1  0.25781752  0.28934146  0.65248391  1
  S2-  S140  1  0.30299334  0.64309157  0.15884344  1
  S2-  S141  1  0.24209896  0.52489358  0.63887990  1
  S2-  S142  1  0.25514283  0.91147355  0.15498212  1
  S2-  S143  1  0.19869040  0.82523088  0.66501289  1
  S2-  S144  1  0.45222014  0.11602084  0.15056436  1
  S2-  S145  1  0.41119806  0.13827990  0.64848370  1
  S2-  S146  1  0.38606836  0.34554648  0.14297260  1
  S2-  S147  1  0.49320283  0.34628157  0.66774777  1
  S2-  S148  1  0.51080969  0.51285180  0.14424939  1
  S2-  S149  1  0.51066576  0.56507033  0.64626216  1
  S2-  S150  1  0.49171089  0.85109080  0.15386515  1
  S2-  S151  1  0.40612054  0.87389948  0.63758386  1
  S2-  S152  1  0.84263768  0.11994645  0.14785022  1
  S2-  S153  1  0.84079099  0.13449840  0.64428419  1
  S2-  S154  1  0.75647978  0.43567608  0.15054960  1
  S2-  S155  1  0.73397912  0.36675536  0.65884262  1
  S2-  S156  1  0.73659084  0.65665694  0.16202693  1
  S2-  S157  1  0.75220087  0.60830253  0.65922898  1
  S2-  S158  1  0.77735943  0.89598651  0.15802899  1
  S2-  S159  1  0.76408391  0.88968766  0.64674817  1
  S2-  S160  1  0.05360457  0.01761362  0.34481428  1
  S2-  S161  1  0.15697206  0.04137997  0.82427667  1
  S2-  S162  1  0.12453065  0.24941819  0.34083315  1
  S2-  S163  1  0.07419411  0.26628745  0.84538115  1
  S2-  S164  1  0.12742341  0.48397055  0.33491594  1
  S2-  S165  1  0.15907883  0.51594447  0.84062560  1
  S2-  S166  1  0.23206403  0.78201839  0.35926243  1
  S2-  S167  1  0.13848514  0.80115458  0.84501950  1
  S2-  S168  1  0.26670913  0.02370591  0.36074980  1
  S2-  S169  1  0.36238389  -0.04672811  0.84517737  1
  S2-  S170  1  0.37871411  0.33237298  0.35857432  1
  S2-  S171  1  0.30586217  0.20738838  0.82022647  1
  S2-  S172  1  0.33386341  0.50141270  0.29443446  1
  S2-  S173  1  0.34789263  0.39709263  0.85329316  1
  S2-  S174  1  0.41244132  0.66351354  0.34876576  1
  S2-  S175  1  0.36865539  0.71671146  0.84819860  1
  S2-  S176  1  0.60118042  0.03399209  0.34412826  1
  S2-  S177  1  0.71688056  -0.00954098  0.86258522  1
  S2-  S178  1  0.63424345  0.26168255  0.34565744  1
  S2-  S179  1  0.52709906  0.25411837  0.85640510  1
  S2-  S180  1  0.55063161  0.48323729  0.35727628  1
  S2-  S181  1  0.52475263  0.51015144  0.86018036  1
  S2-  S182  1  0.64987702  0.74573399  0.34714970  1
  S2-  S183  1  0.63356482  0.71254291  0.85092883  1
  S2-  S184  1  0.80685305  -0.01287892  0.30236199  1
  S2-  S185  1  0.97485073  -0.02847554  0.84834863  1
  S2-  S186  1  0.87914386  0.16560010  0.34271356  1
  S2-  S187  1  0.86674700  0.15453688  0.85696315  1
  S2-  S188  1  0.90426844  0.39725585  0.35678815  1
  S2-  S189  1  0.92282881  0.54896565  0.84017154  1
  S2-  S190  1  0.92266821  0.83763935  0.34889835  1
  S2-  S191  1  0.86817439  0.77806820  0.84979836  1
  S2-  S192  1  0.01132594  0.13678555  0.44752524  1
  S2-  S193  1  -0.00325791  0.12422798  0.95554240  1
  S2-  S194  1  0.01213543  0.38921167  0.45809365  1
  S2-  S195  1  -0.00552634  0.37578329  0.95078770  1
  S2-  S196  1  0.00991345  0.63524163  0.45131160  1
  S2-  S197  1  -0.00107599  0.62468275  0.95455524  1
  S2-  S198  1  0.01690851  0.89012549  0.45294296  1
  S2-  S199  1  -0.00481078  0.87118705  0.95722704  1
  S2-  S200  1  0.26437620  0.14372360  0.46445782  1
  S2-  S201  1  0.24779604  0.12133264  0.94396171  1
  S2-  S202  1  0.26201084  0.39117650  0.45679342  1
  S2-  S203  1  0.24494488  0.36909501  0.95898863  1
  S2-  S204  1  0.26340374  0.62971163  0.45203463  1
  S2-  S205  1  0.24880874  0.62609988  0.95705154  1
  S2-  S206  1  0.26106727  0.88854769  0.46476013  1
  S2-  S207  1  0.24708901  0.87753156  0.95345987  1
  S2-  S208  1  0.51162952  0.13885059  0.45868474  1
  S2-  S209  1  0.49712333  0.11988049  0.95152769  1
  S2-  S210  1  0.51288659  0.38975560  0.46309970  1
  S2-  S211  1  0.49912684  0.37844919  0.96120011  1
  S2-  S212  1  0.51370255  0.63669085  0.45347816  1
  S2-  S213  1  0.49740981  0.62928176  0.96307247  1
  S2-  S214  1  0.51058350  0.88700089  0.45119773  1
  S2-  S215  1  0.49752972  0.87656427  0.95222429  1
  S2-  S216  1  0.75878082  0.13727875  0.45017982  1
  S2-  S217  1  0.74157954  0.13056745  0.96044459  1
  S2-  S218  1  0.75875569  0.39061625  0.45300410  1
  S2-  S219  1  0.74357359  0.37647284  0.95363489  1
  S2-  S220  1  0.76300660  0.63515310  0.45414697  1
  S2-  S221  1  0.74600264  0.62253345  0.95742845  1
  S2-  S222  1  0.76283111  0.89263043  0.44375537  1
  S2-  S223  1  0.74618730  0.87047183  0.95930285  1
  S2-  S224  1  0.12209517  0.00303654  0.03756895  1
  S2-  S225  1  0.12977505  0.01517948  0.55083109  1
  S2-  S226  1  0.11463930  0.24671882  0.04466190  1
  S2-  S227  1  0.13249654  0.26022356  0.54825401  1
  S2-  S228  1  0.11940330  0.49658952  0.04602001  1
  S2-  S229  1  0.12557941  0.50985108  0.54211156  1
  S2-  S230  1  0.12266981  0.74909110  0.05058163  1
  S2-  S231  1  0.13307813  0.75739001  0.54718506  1
  S2-  S232  1  0.37109501  0.00316625  0.04457986  1
  S2-  S233  1  0.38765408  0.01567992  0.54404370  1
  S2-  S234  1  0.37305972  0.24312984  0.03356880  1
  S2-  S235  1  0.39277727  0.27020625  0.55111833  1
  S2-  S236  1  0.36984761  0.50115676  0.04257720  1
  S2-  S237  1  0.38730778  0.51252206  0.54751066  1
  S2-  S238  1  0.37002430  0.75202328  0.05141455  1
  S2-  S239  1  0.38194131  0.75652191  0.53895285  1
  S2-  S240  1  0.62186638  0.00153702  0.05481534  1
  S2-  S241  1  0.63581304  0.01093292  0.54680183  1
  S2-  S242  1  0.61947638  0.25127690  0.04985609  1
  S2-  S243  1  0.63664752  0.26157843  0.55182155  1
  S2-  S244  1  0.62402023  0.50175466  0.04469949  1
  S2-  S245  1  0.64024685  0.51339790  0.54607913  1
  S2-  S246  1  0.62337248  0.75019962  0.05175525  1
  S2-  S247  1  0.63849279  0.76505878  0.55089759  1
  S2-  S248  1  0.86702699  -0.00151290  0.04141780  1
  S2-  S249  1  0.88918514  0.01131724  0.54619206  1
  S2-  S250  1  0.87262060  0.25083122  0.04573010  1
  S2-  S251  1  0.88734030  0.26141458  0.54125689  1
  S2-  S252  1  0.87423140  0.50015607  0.04375131  1
  S2-  S253  1  0.88791182  0.51075744  0.53931161  1
  S2-  S254  1  0.87087440  0.74901807  0.05432548  1
  S2-  S255  1  0.88751415  0.76457985  0.54404806  1
