# generated using pymatgen
data_La12Ce14Pr13Nd13Sm12(BiS2)64
_symmetry_space_group_name_H-M   'P 1'
_cell_length_a   16.12587815
_cell_length_b   16.13020917
_cell_length_c   27.28894306
_cell_angle_alpha   89.98817971
_cell_angle_beta   90.17103228
_cell_angle_gamma   89.99862604
_symmetry_Int_Tables_number   1
_chemical_formula_structural   La12Ce14Pr13Nd13Sm12(BiS2)64
_chemical_formula_sum   'La12 Ce14 Pr13 Nd13 Sm12 Bi64 S128'
_cell_volume   7098.19855862
_cell_formula_units_Z   1
loop_
 _symmetry_equiv_pos_site_id
 _symmetry_equiv_pos_as_xyz
  1  'x, y, z'
loop_
 _atom_type_symbol
 _atom_type_oxidation_number
  La3+  3.0
  Ce3+  3.0
  Pr3+  3.0
  Nd3+  3.0
  Sm3+  3.0
  Bi2+  2.0
  S2-  -2.0
loop_
 _atom_site_type_symbol
 _atom_site_label
 _atom_site_symmetry_multiplicity
 _atom_site_fract_x
 _atom_site_fract_y
 _atom_site_fract_z
 _atom_site_occupancy
  La3+  La0  1  0.75485209  0.85972846  0.10450090  1
  La3+  La1  1  0.35631345  0.74826006  0.41542459  1
  La3+  La2  1  0.36219457  0.00877963  0.42161061  1
  La3+  La3  1  0.48725939  0.86191911  0.08672005  1
  La3+  La4  1  -0.01467362  0.10957618  0.06563781  1
  La3+  La5  1  0.11512417  0.73285674  0.92290429  1
  La3+  La6  1  0.10928511  0.49275424  0.42997556  1
  La3+  La7  1  0.48716284  0.62784569  0.55863949  1
  La3+  La8  1  -0.01453924  0.87074096  0.59432711  1
  La3+  La9  1  0.61125693  -0.01236876  0.94332164  1
  La3+  La10  1  0.49323578  0.11144358  0.07868470  1
  La3+  La11  1  0.38537035  0.75037789  0.89176336  1
  Ce3+  Ce12  1  0.73294726  0.11068485  0.06495179  1
  Ce3+  Ce13  1  0.61434870  0.50073447  0.43545653  1
  Ce3+  Ce14  1  0.11515841  0.24317674  0.95792521  1
  Ce3+  Ce15  1  -0.01469142  0.11962979  0.56308354  1
  Ce3+  Ce16  1  0.86728901  0.73840948  0.93169486  1
  Ce3+  Ce17  1  0.73990826  0.61803365  0.05399224  1
  Ce3+  Ce18  1  0.86411550  -0.01054474  0.93747413  1
  Ce3+  Ce19  1  0.11595782  -0.00163334  0.44097644  1
  Ce3+  Ce20  1  0.23758064  0.62665906  0.55553697  1
  Ce3+  Ce21  1  0.24241335  0.87540279  0.56392343  1
  Ce3+  Ce22  1  0.60969751  0.49225448  0.94589853  1
  Ce3+  Ce23  1  -0.00881152  0.62127047  0.56711001  1
  Ce3+  Ce24  1  0.73886931  0.12203474  0.54837673  1
  Ce3+  Ce25  1  0.11381855  0.75194543  0.44333184  1
  Pr3+  Pr26  1  0.23964896  0.37418289  0.56349072  1
  Pr3+  Pr27  1  -0.01253593  0.36243026  0.06906489  1
  Pr3+  Pr28  1  0.49094005  0.61907962  0.06775940  1
  Pr3+  Pr29  1  0.24204632  0.85579976  0.06771530  1
  Pr3+  Pr30  1  0.73641625  0.37373256  0.56376087  1
  Pr3+  Pr31  1  0.73221870  0.87796346  0.56302875  1
  Pr3+  Pr32  1  0.86482818  0.75380720  0.43882974  1
  Pr3+  Pr33  1  0.61169828  0.74390616  0.42715151  1
  Pr3+  Pr34  1  0.60697036  0.23769689  0.93354784  1
  Pr3+  Pr35  1  0.74003368  0.62816432  0.55846201  1
  Pr3+  Pr36  1  0.24030201  0.61543840  0.06264352  1
  Pr3+  Pr37  1  0.24581052  0.11278573  0.07123610  1
  Pr3+  Pr38  1  0.86552672  0.25227501  0.43490815  1
  Nd3+  Nd39  1  0.49876870  0.12159989  0.56063364  1
  Nd3+  Nd40  1  0.36083144  0.49665315  0.93450243  1
  Nd3+  Nd41  1  0.34801166  0.24229712  0.93736485  1
  Nd3+  Nd42  1  0.36135760  -0.01172209  0.94520055  1
  Nd3+  Nd43  1  0.61329735  0.00775275  0.41022214  1
  Nd3+  Nd44  1  -0.01073067  0.86094468  0.05676669  1
  Nd3+  Nd45  1  0.48835247  0.37412373  0.55074790  1
  Nd3+  Nd46  1  0.48570613  0.87760646  0.54930697  1
  Nd3+  Nd47  1  0.86251476  0.00162020  0.43386673  1
  Nd3+  Nd48  1  -0.01338534  0.61638600  0.05998157  1
  Nd3+  Nd49  1  0.24159353  0.12155027  0.56379419  1
  Nd3+  Nd50  1  -0.01271909  0.37657834  0.57213506  1
  Nd3+  Nd51  1  0.25352395  0.37054019  0.07841623  1
  Sm3+  Sm52  1  0.11332295  0.48985537  0.94585916  1
  Sm3+  Sm53  1  0.86362332  0.23871833  0.94595591  1
  Sm3+  Sm54  1  0.48786792  0.36440455  0.05278386  1
  Sm3+  Sm55  1  0.86712851  0.50021556  0.44168824  1
  Sm3+  Sm56  1  0.11640613  -0.01347785  0.94896221  1
  Sm3+  Sm57  1  0.86214862  0.48763770  0.94648082  1
  Sm3+  Sm58  1  0.61393089  0.74217845  0.94819132  1
  Sm3+  Sm59  1  0.35698085  0.50066770  0.42833662  1
  Sm3+  Sm60  1  0.73655889  0.36308161  0.05381842  1
  Sm3+  Sm61  1  0.61375129  0.25427058  0.43364503  1
  Sm3+  Sm62  1  0.11012971  0.24919499  0.45164313  1
  Sm3+  Sm63  1  0.36332250  0.24789546  0.44294995  1
  Bi2+  Bi64  1  0.02122695  0.08451127  0.29926869  1
  Bi2+  Bi65  1  -0.00049290  0.14136912  0.77338095  1
  Bi2+  Bi66  1  -0.06318710  0.34048975  0.31748636  1
  Bi2+  Bi67  1  -0.02144585  0.33516731  0.79365440  1
  Bi2+  Bi68  1  -0.00030685  0.62353562  0.29337837  1
  Bi2+  Bi69  1  -0.01443881  0.60805920  0.79359799  1
  Bi2+  Bi70  1  0.04545645  0.88366052  0.28408712  1
  Bi2+  Bi71  1  0.00006366  0.90150906  0.79374898  1
  Bi2+  Bi72  1  0.23721403  0.11150749  0.28354812  1
  Bi2+  Bi73  1  0.26824558  0.19963040  0.78305856  1
  Bi2+  Bi74  1  0.33589497  0.39102176  0.28182098  1
  Bi2+  Bi75  1  0.25337628  0.39489548  0.81993906  1
  Bi2+  Bi76  1  0.23677846  0.60351115  0.29338853  1
  Bi2+  Bi77  1  0.23673686  0.61457549  0.78873202  1
  Bi2+  Bi78  1  0.25125796  0.86650628  0.28905029  1
  Bi2+  Bi79  1  0.25380016  0.90998118  0.79575042  1
  Bi2+  Bi80  1  0.48242103  0.15547859  0.28766750  1
  Bi2+  Bi81  1  0.50036412  0.09698722  0.80496738  1
  Bi2+  Bi82  1  0.52824092  0.37487027  0.30303235  1
  Bi2+  Bi83  1  0.44424745  0.40372413  0.78732640  1
  Bi2+  Bi84  1  0.50289169  0.58118443  0.27906167  1
  Bi2+  Bi85  1  0.52551564  0.60318584  0.78857483  1
  Bi2+  Bi86  1  0.53439117  0.88658253  0.27976555  1
  Bi2+  Bi87  1  0.56692549  0.85656392  0.77615055  1
  Bi2+  Bi88  1  0.74809901  0.21556403  0.28039413  1
  Bi2+  Bi89  1  0.75494092  0.14549169  0.79377599  1
  Bi2+  Bi90  1  0.72679271  0.38054675  0.34259619  1
  Bi2+  Bi91  1  0.73916700  0.45763197  0.79029338  1
  Bi2+  Bi92  1  0.74733648  0.55138147  0.28800403  1
  Bi2+  Bi93  1  0.73353457  0.65420573  0.77019822  1
  Bi2+  Bi94  1  0.78816590  0.86482425  0.29725669  1
  Bi2+  Bi95  1  0.77734537  0.91839789  0.75001944  1
  Bi2+  Bi96  1  0.13514587  0.00063379  0.20470985  1
  Bi2+  Bi97  1  0.10547862  0.00284222  0.71688021  1
  Bi2+  Bi98  1  0.10392529  0.25828146  0.25617418  1
  Bi2+  Bi99  1  0.12563345  0.25477273  0.70833700  1
  Bi2+  Bi100  1  0.16165158  0.44032218  0.22533170  1
  Bi2+  Bi101  1  0.10645464  0.45388143  0.73365271  1
  Bi2+  Bi102  1  0.12335640  0.73218915  0.22314055  1
  Bi2+  Bi103  1  0.13141417  0.74334851  0.71206501  1
  Bi2+  Bi104  1  0.39479657  0.01406000  0.21961807  1
  Bi2+  Bi105  1  0.36135149  -0.00063367  0.70623093  1
  Bi2+  Bi106  1  0.27791199  0.26318269  0.19995301  1
  Bi2+  Bi107  1  0.40860517  0.25807712  0.71023301  1
  Bi2+  Bi108  1  0.40564287  0.50519286  0.18923838  1
  Bi2+  Bi109  1  0.30330644  0.46972986  0.71410870  1
  Bi2+  Bi110  1  0.36601292  0.75191168  0.20795689  1
  Bi2+  Bi111  1  0.37515568  0.74539394  0.69870966  1
  Bi2+  Bi112  1  0.66231080  0.04257119  0.21679590  1
  Bi2+  Bi113  1  0.60521844  0.00932071  0.70127910  1
  Bi2+  Bi114  1  0.60021304  0.29336291  0.20801788  1
  Bi2+  Bi115  1  0.66929945  0.29181520  0.73590948  1
  Bi2+  Bi116  1  0.62242719  0.48879841  0.20085944  1
  Bi2+  Bi117  1  0.58068726  0.46511560  0.71105432  1
  Bi2+  Bi118  1  0.64794444  0.69687257  0.21664047  1
  Bi2+  Bi119  1  0.63502682  0.73484309  0.68559077  1
  Bi2+  Bi120  1  0.93743176  0.01578432  0.20139413  1
  Bi2+  Bi121  1  0.84089025  0.08713615  0.69801008  1
  Bi2+  Bi122  1  0.87361849  0.29637178  0.20477128  1
  Bi2+  Bi123  1  0.93513172  0.25886833  0.68011313  1
  Bi2+  Bi124  1  0.89978925  0.48935904  0.22658888  1
  Bi2+  Bi125  1  0.89103708  0.45789424  0.71328562  1
  Bi2+  Bi126  1  0.90409411  0.71757491  0.20869243  1
  Bi2+  Bi127  1  0.88338779  0.75897733  0.72713939  1
  S2-  S128  1  -0.02852256  0.16681650  0.16018078  1
  S2-  S129  1  -0.01645751  0.02492354  0.64607206  1
  S2-  S130  1  0.01279979  0.40519853  0.16524748  1
  S2-  S131  1  0.00658768  0.49978822  0.64288468  1
  S2-  S132  1  0.01973749  0.63912645  0.15643322  1
  S2-  S133  1  -0.00693365  0.71756680  0.64964538  1
  S2-  S134  1  -0.08150875  0.85612725  0.14834890  1
  S2-  S135  1  0.14433524  0.86876065  0.65009756  1
  S2-  S136  1  0.36045553  0.12861756  0.14768525  1
  S2-  S137  1  0.23929407  0.07545575  0.66053375  1
  S2-  S138  1  0.24438961  0.50564587  0.14536939  1
  S2-  S139  1  0.27481479  0.31732064  0.65660136  1
  S2-  S140  1  0.23224142  0.72691671  0.14338104  1
  S2-  S141  1  0.24169755  0.65465490  0.65362222  1
  S2-  S142  1  0.34204543  0.88869376  0.15441133  1
  S2-  S143  1  0.37447901  0.87331317  0.63310358  1
  S2-  S144  1  0.62464567  0.15915248  0.14472694  1
  S2-  S145  1  0.45912485  0.10432874  0.65884640  1
  S2-  S146  1  0.40142354  0.35684976  0.13821343  1
  S2-  S147  1  0.52050455  0.34294381  0.64607792  1
  S2-  S148  1  0.49922667  0.72095631  0.15414542  1
  S2-  S149  1  0.48640987  0.64176575  0.65917329  1
  S2-  S150  1  0.52823584  0.98142610  0.16120350  1
  S2-  S151  1  0.59577033  0.88575354  0.63143393  1
  S2-  S152  1  0.77801670  0.02514935  0.14947933  1
  S2-  S153  1  0.67543315  0.11598939  0.63824710  1
  S2-  S154  1  0.73871992  0.37113498  0.15206847  1
  S2-  S155  1  0.77014290  0.35323682  0.66145189  1
  S2-  S156  1  0.76739914  0.67919634  0.14384999  1
  S2-  S157  1  0.74079697  0.61594534  0.65907636  1
  S2-  S158  1  0.69150532  0.85132365  0.20290127  1
  S2-  S159  1  0.82814609  0.86483404  0.65120533  1
  S2-  S160  1  0.21931700  -0.00894059  0.35957710  1
  S2-  S161  1  0.12251587  -0.01893160  0.85031842  1
  S2-  S162  1  0.09142917  0.29763886  0.35872426  1
  S2-  S163  1  0.18565770  0.25024809  0.87009218  1
  S2-  S164  1  0.22826511  0.47569186  0.35510793  1
  S2-  S165  1  0.11231702  0.57275663  0.85775603  1
  S2-  S166  1  0.19768720  0.74316044  0.35678157  1
  S2-  S167  1  0.22556860  0.76159770  0.84612207  1
  S2-  S168  1  0.47806003  0.00263008  0.34269393  1
  S2-  S169  1  0.36833764  -0.00256199  0.84422442  1
  S2-  S170  1  0.35046336  0.17675542  0.35423073  1
  S2-  S171  1  0.40972951  0.21166058  0.84643769  1
  S2-  S172  1  0.38020182  0.60841304  0.34979263  1
  S2-  S173  1  0.37644080  0.59155178  0.84950577  1
  S2-  S174  1  0.41077427  0.80449015  0.31691213  1
  S2-  S175  1  0.40027157  0.81035441  0.78805910  1
  S2-  S176  1  0.70924606  -0.00463410  0.32137170  1
  S2-  S177  1  0.60913283  -0.01341400  0.84169145  1
  S2-  S178  1  0.60862683  0.16840117  0.34871355  1
  S2-  S179  1  0.61888327  0.22531110  0.83300156  1
  S2-  S180  1  0.61861931  0.60344802  0.35686264  1
  S2-  S181  1  0.59411837  0.48323758  0.84988593  1
  S2-  S182  1  0.64468839  0.80341005  0.33360155  1
  S2-  S183  1  0.55818922  0.73952777  0.85438368  1
  S2-  S184  1  0.91957462  -0.04397164  0.34280641  1
  S2-  S185  1  0.86885378  -0.02173850  0.83881776  1
  S2-  S186  1  0.87810089  0.17255230  0.34382280  1
  S2-  S187  1  0.85628563  0.24874726  0.84812730  1
  S2-  S188  1  0.97413103  0.49606114  0.36267792  1
  S2-  S189  1  0.87882073  0.51095748  0.84987923  1
  S2-  S190  1  0.87995957  0.72540713  0.33847644  1
  S2-  S191  1  0.97449708  0.74706273  0.85327308  1
  S2-  S192  1  -0.01051224  0.12436639  0.45586018  1
  S2-  S193  1  -0.00874120  0.11585609  0.95570638  1
  S2-  S194  1  -0.01347367  0.37260317  0.46702023  1
  S2-  S195  1  -0.01317464  0.36510810  0.95886391  1
  S2-  S196  1  -0.01199318  0.62697570  0.45893069  1
  S2-  S197  1  -0.01544399  0.60902355  0.95623116  1
  S2-  S198  1  -0.00854469  0.87630536  0.45155717  1
  S2-  S199  1  -0.00921197  0.86777818  0.95248037  1
  S2-  S200  1  0.23445354  0.13087591  0.45830869  1
  S2-  S201  1  0.23576454  0.11148177  0.96363612  1
  S2-  S202  1  0.24027544  0.36739586  0.45811430  1
  S2-  S203  1  0.23822616  0.37302589  0.96863662  1
  S2-  S204  1  0.23587866  0.61976958  0.45324851  1
  S2-  S205  1  0.23722198  0.61189963  0.95626717  1
  S2-  S206  1  0.23988448  0.87445492  0.45742131  1
  S2-  S207  1  0.23899589  0.86535319  0.95737461  1
  S2-  S208  1  0.49202031  0.13161770  0.45326820  1
  S2-  S209  1  0.48523988  0.11526776  0.95949987  1
  S2-  S210  1  0.48422782  0.37561931  0.44462083  1
  S2-  S211  1  0.48273098  0.36522359  0.94839655  1
  S2-  S212  1  0.48376487  0.61880190  0.45262492  1
  S2-  S213  1  0.48998289  0.61948658  0.95865832  1
  S2-  S214  1  0.48731589  0.87207666  0.44284229  1
  S2-  S215  1  0.48591652  0.86263283  0.95201706  1
  S2-  S216  1  0.73854748  0.12794938  0.44462318  1
  S2-  S217  1  0.73900653  0.11694248  0.95316226  1
  S2-  S218  1  0.74096125  0.37733765  0.45762054  1
  S2-  S219  1  0.73743498  0.36347106  0.94863341  1
  S2-  S220  1  0.74525138  0.62233998  0.45221168  1
  S2-  S221  1  0.73830549  0.61486147  0.94726731  1
  S2-  S222  1  0.73734940  0.87776709  0.44794439  1
  S2-  S223  1  0.74030565  0.86056957  0.93691396  1
  S2-  S224  1  0.11603873  -0.01289370  0.05490140  1
  S2-  S225  1  0.11489972  0.00064952  0.54553667  1
  S2-  S226  1  0.12000655  0.24163088  0.06321106  1
  S2-  S227  1  0.11251996  0.24810830  0.55694065  1
  S2-  S228  1  0.10900870  0.48891975  0.04911282  1
  S2-  S229  1  0.11809095  0.49706402  0.54198358  1
  S2-  S230  1  0.10961263  0.73795728  0.03885806  1
  S2-  S231  1  0.11337731  0.74984507  0.54581724  1
  S2-  S232  1  0.36681791  -0.01301288  0.04890936  1
  S2-  S233  1  0.36681263  0.00747375  0.53537873  1
  S2-  S234  1  0.36636731  0.23879487  0.04180375  1
  S2-  S235  1  0.36776804  0.24583011  0.54687652  1
  S2-  S236  1  0.37200839  0.49386092  0.04019066  1
  S2-  S237  1  0.36282439  0.49788990  0.54467679  1
  S2-  S238  1  0.36909196  0.73837328  0.04861263  1
  S2-  S239  1  0.36214514  0.74710560  0.53370441  1
  S2-  S240  1  0.61949313  -0.02085353  0.05024592  1
  S2-  S241  1  0.61367838  0.00167785  0.52772250  1
  S2-  S242  1  0.61222116  0.24496174  0.03953519  1
  S2-  S243  1  0.61469509  0.25135983  0.53799253  1
  S2-  S244  1  0.61388322  0.48886062  0.05138139  1
  S2-  S245  1  0.61379265  0.49954734  0.54575198  1
  S2-  S246  1  0.62157250  0.74772555  0.05109485  1
  S2-  S247  1  0.61359160  0.74812380  0.53545199  1
  S2-  S248  1  0.86239324  -0.01622162  0.04215982  1
  S2-  S249  1  0.86113548  -0.00307282  0.54126867  1
  S2-  S250  1  0.85940935  0.23883911  0.05054991  1
  S2-  S251  1  0.86291838  0.24899568  0.54512279  1
  S2-  S252  1  0.86159742  0.48800712  0.05206109  1
  S2-  S253  1  0.86162677  0.49822775  0.54665703  1
  S2-  S254  1  0.86345262  0.74171096  0.03803580  1
  S2-  S255  1  0.86290972  0.75227241  0.54549253  1
