# generated using pymatgen
data_La12Ce14Pr13Nd13Sm12(BiS2)64
_symmetry_space_group_name_H-M   'P 1'
_cell_length_a   16.13801017
_cell_length_b   16.16513557
_cell_length_c   27.18366145
_cell_angle_alpha   90.19853405
_cell_angle_beta   90.17213480
_cell_angle_gamma   90.02664075
_symmetry_Int_Tables_number   1
_chemical_formula_structural   La12Ce14Pr13Nd13Sm12(BiS2)64
_chemical_formula_sum   'La12 Ce14 Pr13 Nd13 Sm12 Bi64 S128'
_cell_volume   7091.41126222
_cell_formula_units_Z   1
loop_
 _symmetry_equiv_pos_site_id
 _symmetry_equiv_pos_as_xyz
  1  'x, y, z'
loop_
 _atom_type_symbol
 _atom_type_oxidation_number
  La3+  3.0
  Ce3+  3.0
  Pr3+  3.0
  Nd3+  3.0
  Sm3+  3.0
  Bi2+  2.0
  S2-  -2.0
loop_
 _atom_site_type_symbol
 _atom_site_label
 _atom_site_symmetry_multiplicity
 _atom_site_fract_x
 _atom_site_fract_y
 _atom_site_fract_z
 _atom_site_occupancy
  La3+  La0  1  0.37332035  -0.00555168  0.93112662  1
  La3+  La1  1  0.25015644  0.87761056  0.56098657  1
  La3+  La2  1  0.60986762  0.25755698  0.90651673  1
  La3+  La3  1  0.00716037  0.36934426  0.60084116  1
  La3+  La4  1  0.11991048  0.74604210  0.43554595  1
  La3+  La5  1  0.87831793  0.25595600  0.91301364  1
  La3+  La6  1  -0.00525520  0.63177184  0.58824362  1
  La3+  La7  1  -0.00606779  0.87442328  0.56310076  1
  La3+  La8  1  -0.01861091  0.13704536  0.07304375  1
  La3+  La9  1  0.75094805  0.12674019  0.57678480  1
  La3+  La10  1  0.49246566  0.37388387  0.07610767  1
  La3+  La11  1  0.50776854  0.61940925  0.11141795  1
  Ce3+  Ce12  1  0.62641092  0.00232274  0.44380433  1
  Ce3+  Ce13  1  0.61651105  0.50238457  0.94085839  1
  Ce3+  Ce14  1  -0.00438619  0.37922697  0.05554332  1
  Ce3+  Ce15  1  0.50311832  0.37852651  0.56236574  1
  Ce3+  Ce16  1  -0.00644656  0.63040997  0.04980479  1
  Ce3+  Ce17  1  0.48844033  0.87902442  0.07370534  1
  Ce3+  Ce18  1  0.24544518  0.12585631  0.05473925  1
  Ce3+  Ce19  1  0.37435948  0.00203264  0.43840699  1
  Ce3+  Ce20  1  0.37402750  0.49833413  0.44365569  1
  Ce3+  Ce21  1  0.87091112  0.50049994  0.93065967  1
  Ce3+  Ce22  1  0.37048962  0.25380010  0.94186899  1
  Ce3+  Ce23  1  0.88416150  -0.00312654  0.43598003  1
  Ce3+  Ce24  1  0.24246601  0.63138569  0.05822346  1
  Ce3+  Ce25  1  -0.00084290  0.12463905  0.56326247  1
  Pr3+  Pr26  1  0.86698075  0.75149199  0.92722337  1
  Pr3+  Pr27  1  0.13033664  0.50537506  0.92731818  1
  Pr3+  Pr28  1  0.37313849  0.74978964  0.43416591  1
  Pr3+  Pr29  1  0.50210998  0.87627468  0.55615970  1
  Pr3+  Pr30  1  0.62368496  0.49867954  0.42894654  1
  Pr3+  Pr31  1  0.12226010  0.50390785  0.44770485  1
  Pr3+  Pr32  1  0.14361334  0.00526556  0.38080607  1
  Pr3+  Pr33  1  0.24599426  0.12671511  0.56300007  1
  Pr3+  Pr34  1  0.23781909  0.86721140  0.07232594  1
  Pr3+  Pr35  1  0.62352947  0.24722195  0.44300050  1
  Pr3+  Pr36  1  0.25747477  0.63250540  0.57555201  1
  Pr3+  Pr37  1  0.87620300  0.24928946  0.44502758  1
  Pr3+  Pr38  1  0.75484839  0.62700231  0.06706807  1
  Nd3+  Nd39  1  0.37140508  0.50419373  0.94878909  1
  Nd3+  Nd40  1  0.50382618  0.62338586  0.55936515  1
  Nd3+  Nd41  1  0.11756175  0.76566416  0.92317060  1
  Nd3+  Nd42  1  0.49747160  0.13008853  0.06061362  1
  Nd3+  Nd43  1  0.49625570  0.12599881  0.57145994  1
  Nd3+  Nd44  1  -0.00948615  0.88200222  0.06842991  1
  Nd3+  Nd45  1  0.74643008  0.88187381  0.06306788  1
  Nd3+  Nd46  1  0.87135718  0.73492092  0.43460531  1
  Nd3+  Nd47  1  0.87018711  0.00548229  0.93184494  1
  Nd3+  Nd48  1  0.62077305  -0.00053413  0.93908509  1
  Nd3+  Nd49  1  0.12235896  0.25364223  0.93966322  1
  Nd3+  Nd50  1  0.11752495  0.00367364  0.94524245  1
  Nd3+  Nd51  1  0.36976477  0.75317164  0.94587252  1
  Sm3+  Sm52  1  0.87609443  0.49877454  0.45531256  1
  Sm3+  Sm53  1  0.74522155  0.13561227  0.04097153  1
  Sm3+  Sm54  1  0.74889087  0.62313088  0.56779455  1
  Sm3+  Sm55  1  0.74940382  0.37600682  0.56036682  1
  Sm3+  Sm56  1  0.12298886  0.24746375  0.44328986  1
  Sm3+  Sm57  1  0.24597245  0.37903553  0.56129583  1
  Sm3+  Sm58  1  0.62450008  0.74834575  0.44546667  1
  Sm3+  Sm59  1  0.24339408  0.37991320  0.06507899  1
  Sm3+  Sm60  1  0.74272797  0.37799400  0.04639438  1
  Sm3+  Sm61  1  0.74913034  0.87677679  0.54936529  1
  Sm3+  Sm62  1  0.61932874  0.75154396  0.95431029  1
  Sm3+  Sm63  1  0.37265718  0.24968728  0.45245846  1
  Bi2+  Bi64  1  -0.01874194  0.15424514  0.28802565  1
  Bi2+  Bi65  1  -0.02249600  0.09065910  0.79966555  1
  Bi2+  Bi66  1  0.00692544  0.37517849  0.29733358  1
  Bi2+  Bi67  1  -0.00413802  0.36713314  0.79413496  1
  Bi2+  Bi68  1  -0.01525719  0.61351319  0.29797480  1
  Bi2+  Bi69  1  -0.01602563  0.64243909  0.78597410  1
  Bi2+  Bi70  1  0.00628286  0.87521344  0.28481378  1
  Bi2+  Bi71  1  0.02489903  0.90231043  0.78424596  1
  Bi2+  Bi72  1  0.24831235  0.22887898  0.28653715  1
  Bi2+  Bi73  1  0.22085820  0.13215689  0.79701538  1
  Bi2+  Bi74  1  0.20098399  0.41802034  0.29633925  1
  Bi2+  Bi75  1  0.24581553  0.33142216  0.81234831  1
  Bi2+  Bi76  1  0.16727047  0.60385297  0.25736043  1
  Bi2+  Bi77  1  0.33337472  0.61892208  0.79936722  1
  Bi2+  Bi78  1  0.27185635  0.87409374  0.28936176  1
  Bi2+  Bi79  1  0.26321334  0.85149766  0.79850920  1
  Bi2+  Bi80  1  0.51956218  0.16641952  0.30180080  1
  Bi2+  Bi81  1  0.48479982  0.11713382  0.78266151  1
  Bi2+  Bi82  1  0.49619108  0.38098557  0.31053905  1
  Bi2+  Bi83  1  0.44147582  0.36949954  0.78964900  1
  Bi2+  Bi84  1  0.49255692  0.63162495  0.29994572  1
  Bi2+  Bi85  1  0.53516053  0.61748376  0.79238990  1
  Bi2+  Bi86  1  0.53343384  0.90116746  0.27770582  1
  Bi2+  Bi87  1  0.52979100  0.86857914  0.79705068  1
  Bi2+  Bi88  1  0.74066425  0.09458805  0.29565346  1
  Bi2+  Bi89  1  0.73688015  0.06762606  0.78210912  1
  Bi2+  Bi90  1  0.81153672  0.38587583  0.28562330  1
  Bi2+  Bi91  1  0.67043530  0.47132956  0.77156125  1
  Bi2+  Bi92  1  0.76862662  0.68560767  0.30019241  1
  Bi2+  Bi93  1  0.80390581  0.60905462  0.82500848  1
  Bi2+  Bi94  1  0.74549399  0.90761787  0.27234522  1
  Bi2+  Bi95  1  0.75760543  0.78489261  0.78387398  1
  Bi2+  Bi96  1  0.17296683  0.00742142  0.18074068  1
  Bi2+  Bi97  1  0.16214809  0.01121789  0.70778795  1
  Bi2+  Bi98  1  0.09572416  0.25444688  0.21209810  1
  Bi2+  Bi99  1  0.14113359  0.23311412  0.71156128  1
  Bi2+  Bi100  1  0.11580013  0.45012857  0.18452334  1
  Bi2+  Bi101  1  0.14839305  0.48187081  0.73121757  1
  Bi2+  Bi102  1  0.06188522  0.70503739  0.18312199  1
  Bi2+  Bi103  1  0.15328238  0.72328397  0.70905974  1
  Bi2+  Bi104  1  0.43074815  0.03127229  0.21627322  1
  Bi2+  Bi105  1  0.34664029  -0.06086932  0.70923204  1
  Bi2+  Bi106  1  0.38146071  0.22435552  0.20288404  1
  Bi2+  Bi107  1  0.33772891  0.24112637  0.72330021  1
  Bi2+  Bi108  1  0.36955162  0.44454721  0.23355279  1
  Bi2+  Bi109  1  0.41884737  0.50999502  0.71442090  1
  Bi2+  Bi110  1  0.35382264  0.77213801  0.20875383  1
  Bi2+  Bi111  1  0.43284892  0.73566511  0.72087069  1
  Bi2+  Bi112  1  0.60989371  -0.03359367  0.17677371  1
  Bi2+  Bi113  1  0.64348710  -0.11115240  0.70436074  1
  Bi2+  Bi114  1  0.63285929  0.15349952  0.20725014  1
  Bi2+  Bi115  1  0.62315349  0.24604489  0.70322705  1
  Bi2+  Bi116  1  0.66024294  0.48538948  0.21709135  1
  Bi2+  Bi117  1  0.60871431  0.50941024  0.65854535  1
  Bi2+  Bi118  1  0.64225738  0.76006483  0.21917163  1
  Bi2+  Bi119  1  0.63798460  0.69094775  0.69457761  1
  Bi2+  Bi120  1  0.87134700  0.03687810  0.21341018  1
  Bi2+  Bi121  1  0.96914497  0.01419182  0.68995698  1
  Bi2+  Bi122  1  0.83133612  0.27030501  0.19560661  1
  Bi2+  Bi123  1  0.86383166  0.25016921  0.71357585  1
  Bi2+  Bi124  1  0.92507944  0.48892089  0.21289365  1
  Bi2+  Bi125  1  0.82772019  0.53539820  0.71865925  1
  Bi2+  Bi126  1  0.86103557  0.75764369  0.20701185  1
  Bi2+  Bi127  1  0.89377661  0.83233568  0.70630220  1
  S2-  S128  1  0.01059620  0.04118596  0.15663761  1
  S2-  S129  1  -0.00425045  0.20849976  0.65075486  1
  S2-  S130  1  -0.02313894  0.28110209  0.13708661  1
  S2-  S131  1  -0.05417874  0.40182597  0.69606071  1
  S2-  S132  1  -0.09573920  0.63028900  0.13526889  1
  S2-  S133  1  0.03796512  0.59045453  0.69005718  1
  S2-  S134  1  0.10368202  0.85735624  0.14628189  1
  S2-  S135  1  0.02529490  0.78360166  0.64714791  1
  S2-  S136  1  0.23298323  0.16132217  0.15136929  1
  S2-  S137  1  0.30439519  0.07495199  0.65320579  1
  S2-  S138  1  0.33582965  0.37183329  0.14888483  1
  S2-  S139  1  0.16784947  0.37217072  0.64963452  1
  S2-  S140  1  0.23657876  0.70532165  0.14575939  1
  S2-  S141  1  0.22473686  0.58022689  0.67219378  1
  S2-  S142  1  0.33550099  0.92295668  0.15215309  1
  S2-  S143  1  0.25441977  0.79931554  0.65092793  1
  S2-  S144  1  0.51724299  0.23406305  0.14241418  1
  S2-  S145  1  0.53520669  0.12486323  0.66940742  1
  S2-  S146  1  0.53201188  0.46214724  0.16188758  1
  S2-  S147  1  0.51102314  0.35311886  0.65857813  1
  S2-  S148  1  0.41884086  0.61371531  0.20695734  1
  S2-  S149  1  0.40813100  0.63780394  0.64133147  1
  S2-  S150  1  0.50012220  0.78009143  0.15495542  1
  S2-  S151  1  0.48338658  0.90180698  0.65479667  1
  S2-  S152  1  0.81243026  0.13442903  0.13225648  1
  S2-  S153  1  0.75484034  0.12870021  0.67910052  1
  S2-  S154  1  0.73806891  0.37898312  0.14605079  1
  S2-  S155  1  0.75473196  0.33444196  0.65552030  1
  S2-  S156  1  0.67357569  0.61559866  0.15895052  1
  S2-  S157  1  0.84161899  0.64727304  0.64966643  1
  S2-  S158  1  0.85991009  0.87714628  0.13895424  1
  S2-  S159  1  0.77533994  0.91528866  0.64358348  1
  S2-  S160  1  0.14153564  -0.00892430  0.27178840  1
  S2-  S161  1  0.14726162  -0.08087898  0.85990513  1
  S2-  S162  1  0.12439899  0.17566611  0.35342994  1
  S2-  S163  1  0.03376779  0.23167216  0.85429910  1
  S2-  S164  1  0.11463264  0.60832238  0.36495313  1
  S2-  S165  1  0.06837412  0.51024941  0.83017687  1
  S2-  S166  1  0.13378315  0.83222154  0.34610236  1
  S2-  S167  1  0.20128847  0.70970422  0.83723465  1
  S2-  S168  1  0.31327244  0.00579406  0.34727775  1
  S2-  S169  1  0.36322884  0.05226723  0.83194472  1
  S2-  S170  1  0.38534622  0.25258289  0.35452571  1
  S2-  S171  1  0.45319988  0.24236156  0.85582605  1
  S2-  S172  1  0.39083819  0.51597496  0.34616987  1
  S2-  S173  1  0.28193626  0.48878977  0.86194412  1
  S2-  S174  1  0.37338620  0.74273318  0.33294259  1
  S2-  S175  1  0.39268146  0.84892438  0.86359752  1
  S2-  S176  1  0.58521004  0.02269367  0.34913465  1
  S2-  S177  1  0.58761472  0.01095790  0.84070958  1
  S2-  S178  1  0.62327870  0.28975594  0.34521517  1
  S2-  S179  1  0.63872189  0.20741815  0.80584942  1
  S2-  S180  1  0.61138997  0.50935455  0.32695284  1
  S2-  S181  1  0.59000851  0.41803658  0.85462677  1
  S2-  S182  1  0.61902584  0.72668227  0.34842132  1
  S2-  S183  1  0.63451472  0.78354647  0.85669531  1
  S2-  S184  1  0.96997660  0.00656351  0.35041049  1
  S2-  S185  1  0.82217921  -0.03329800  0.83732082  1
  S2-  S186  1  0.87145900  0.24717095  0.34347371  1
  S2-  S187  1  0.84134797  0.18776419  0.81483206  1
  S2-  S188  1  0.85901334  0.57852795  0.36887985  1
  S2-  S189  1  0.86748030  0.39904669  0.84934226  1
  S2-  S190  1  0.90076433  0.79321319  0.34077226  1
  S2-  S191  1  0.98467836  0.76877167  0.85171124  1
  S2-  S192  1  0.00125193  0.12641486  0.45826210  1
  S2-  S193  1  -0.00569302  0.12628315  0.95730595  1
  S2-  S194  1  0.00024996  0.37626185  0.45036789  1
  S2-  S195  1  0.00447603  0.38317262  0.95032941  1
  S2-  S196  1  -0.00640083  0.62121274  0.47115245  1
  S2-  S197  1  -0.00309513  0.62574712  0.94511781  1
  S2-  S198  1  -0.00918983  0.86493319  0.45686192  1
  S2-  S199  1  -0.01008975  0.88354035  0.95639037  1
  S2-  S200  1  0.24870785  0.12683257  0.45606425  1
  S2-  S201  1  0.24529171  0.12639379  0.94761994  1
  S2-  S202  1  0.24699210  0.37277379  0.45543592  1
  S2-  S203  1  0.24577512  0.37645790  0.96161031  1
  S2-  S204  1  0.25472954  0.62425792  0.46131991  1
  S2-  S205  1  0.24562353  0.63288628  0.95482642  1
  S2-  S206  1  0.24931367  0.87851506  0.45221621  1
  S2-  S207  1  0.24586366  0.87682358  0.96385577  1
  S2-  S208  1  0.49679671  0.12717905  0.46172739  1
  S2-  S209  1  0.49746804  0.12473655  0.95424441  1
  S2-  S210  1  0.49892324  0.37372753  0.45526383  1
  S2-  S211  1  0.49045492  0.37890603  0.96228156  1
  S2-  S212  1  0.50092826  0.62442750  0.45307206  1
  S2-  S213  1  0.49498752  0.63010992  0.94566295  1
  S2-  S214  1  0.50181661  0.87450447  0.44805496  1
  S2-  S215  1  0.50187550  0.87638111  0.96575792  1
  S2-  S216  1  0.75222010  0.12352380  0.45676695  1
  S2-  S217  1  0.74115058  0.13137106  0.93694011  1
  S2-  S218  1  0.74967824  0.37658485  0.45347538  1
  S2-  S219  1  0.73974467  0.37617223  0.94308388  1
  S2-  S220  1  0.74176685  0.62101641  0.46236586  1
  S2-  S221  1  0.74316887  0.62765847  0.95580605  1
  S2-  S222  1  0.74856118  0.87291486  0.44403199  1
  S2-  S223  1  0.74527693  0.87705638  0.95595100  1
  S2-  S224  1  0.11866043  0.00465308  0.04864526  1
  S2-  S225  1  0.12239795  0.00041907  0.56138029  1
  S2-  S226  1  0.12312924  0.25555007  0.04530166  1
  S2-  S227  1  0.12349711  0.25324163  0.54694312  1
  S2-  S228  1  0.12183037  0.50419559  0.04236236  1
  S2-  S229  1  0.12175324  0.50160571  0.55430470  1
  S2-  S230  1  0.11339973  0.75130314  0.03437424  1
  S2-  S231  1  0.12806759  0.74736429  0.54444446  1
  S2-  S232  1  0.37375842  0.00755889  0.04239023  1
  S2-  S233  1  0.37742826  0.00224017  0.54437766  1
  S2-  S234  1  0.36647052  0.25118675  0.04539587  1
  S2-  S235  1  0.37166927  0.25390740  0.55768388  1
  S2-  S236  1  0.37064023  0.51036250  0.05510584  1
  S2-  S237  1  0.37380907  0.49672125  0.55011579  1
  S2-  S238  1  0.37465645  0.74847058  0.05065227  1
  S2-  S239  1  0.37994052  0.75297901  0.54096692  1
  S2-  S240  1  0.62395313  0.00746282  0.04626213  1
  S2-  S241  1  0.62534340  0.00439683  0.55091908  1
  S2-  S242  1  0.62345685  0.25405253  0.03726497  1
  S2-  S243  1  0.62542225  0.24926308  0.55077157  1
  S2-  S244  1  0.62113848  0.50659435  0.04648140  1
  S2-  S245  1  0.62772356  0.49906149  0.53885996  1
  S2-  S246  1  0.62531169  0.75265722  0.05661506  1
  S2-  S247  1  0.62836406  0.74941675  0.55110691  1
  S2-  S248  1  0.86623240  0.00687980  0.03735187  1
  S2-  S249  1  0.87174023  0.00366994  0.54323899  1
  S2-  S250  1  0.86642952  0.25977344  0.02697025  1
  S2-  S251  1  0.87458821  0.25514055  0.55103597  1
  S2-  S252  1  0.87048721  0.49828080  0.03755467  1
  S2-  S253  1  0.87673410  0.49341257  0.55972293  1
  S2-  S254  1  0.86938649  0.75513075  0.03461865  1
  S2-  S255  1  0.86487336  0.75036520  0.54310649  1
