# generated using pymatgen
data_La12Ce14Pr13Nd13Sm12(BiS2)64
_symmetry_space_group_name_H-M   'P 1'
_cell_length_a   16.07620570
_cell_length_b   16.09632336
_cell_length_c   27.27723836
_cell_angle_alpha   89.88038198
_cell_angle_beta   90.20647320
_cell_angle_gamma   89.98255356
_symmetry_Int_Tables_number   1
_chemical_formula_structural   La12Ce14Pr13Nd13Sm12(BiS2)64
_chemical_formula_sum   'La12 Ce14 Pr13 Nd13 Sm12 Bi64 S128'
_cell_volume   7058.40954930
_cell_formula_units_Z   1
loop_
 _symmetry_equiv_pos_site_id
 _symmetry_equiv_pos_as_xyz
  1  'x, y, z'
loop_
 _atom_type_symbol
 _atom_type_oxidation_number
  La3+  3.0
  Ce3+  3.0
  Pr3+  3.0
  Nd3+  3.0
  Sm3+  3.0
  Bi2+  2.0
  S2-  -2.0
loop_
 _atom_site_type_symbol
 _atom_site_label
 _atom_site_symmetry_multiplicity
 _atom_site_fract_x
 _atom_site_fract_y
 _atom_site_fract_z
 _atom_site_occupancy
  La3+  La0  1  0.51158140  0.60360118  0.57369846  1
  La3+  La1  1  0.10820673  0.24415956  0.92563495  1
  La3+  La2  1  0.10396507  0.76426622  0.89741149  1
  La3+  La3  1  0.36969784  0.49660252  0.91599214  1
  La3+  La4  1  0.86021806  0.23833889  0.91777503  1
  La3+  La5  1  0.86842379  -0.01993161  0.92855326  1
  La3+  La6  1  0.37034681  -0.02395930  0.40630977  1
  La3+  La7  1  0.47479504  0.60836904  0.07767811  1
  La3+  La8  1  0.50512470  0.34103315  0.57793434  1
  La3+  La9  1  0.62101055  0.22968228  0.42461500  1
  La3+  La10  1  0.25849586  0.85465013  0.58743663  1
  La3+  La11  1  0.00806558  0.37558876  0.10836328  1
  Ce3+  Ce12  1  0.13255743  0.73337898  0.45184072  1
  Ce3+  Ce13  1  0.48874664  0.36540253  0.05616553  1
  Ce3+  Ce14  1  0.86281225  0.74480883  0.94427227  1
  Ce3+  Ce15  1  0.12877683  0.48346030  0.44972296  1
  Ce3+  Ce16  1  0.87940658  0.73132573  0.44836065  1
  Ce3+  Ce17  1  0.13285197  -0.02054735  0.44623597  1
  Ce3+  Ce18  1  0.23618151  0.36794340  0.04665876  1
  Ce3+  Ce19  1  0.00259698  0.10637912  0.55514288  1
  Ce3+  Ce20  1  0.87861047  0.23082408  0.42957734  1
  Ce3+  Ce21  1  0.23584188  0.12447425  0.06327793  1
  Ce3+  Ce22  1  0.37623742  0.73348650  0.44663322  1
  Ce3+  Ce23  1  0.74319690  0.11827436  0.05295844  1
  Ce3+  Ce24  1  0.62799592  0.48324422  0.44684758  1
  Ce3+  Ce25  1  0.00249993  0.85628564  0.56153294  1
  Pr3+  Pr26  1  0.73698977  0.61864452  0.05653065  1
  Pr3+  Pr27  1  0.37827814  0.48403310  0.44911330  1
  Pr3+  Pr28  1  0.00325137  0.60316789  0.56362911  1
  Pr3+  Pr29  1  0.23645811  0.61636943  0.04266645  1
  Pr3+  Pr30  1  0.25094246  0.35587636  0.58944970  1
  Pr3+  Pr31  1  0.86946090  0.47975433  0.42296501  1
  Pr3+  Pr32  1  0.25086210  0.10855349  0.56588172  1
  Pr3+  Pr33  1  0.36124000  -0.00869777  0.94958854  1
  Pr3+  Pr34  1  0.23768872  0.86492614  0.07068302  1
  Pr3+  Pr35  1  0.26069269  0.60480898  0.58351152  1
  Pr3+  Pr36  1  0.49221930  0.12025341  0.06561913  1
  Pr3+  Pr37  1  0.62858633  0.73376589  0.44407391  1
  Pr3+  Pr38  1  0.88156846  -0.01669510  0.42527727  1
  Nd3+  Nd39  1  0.61440331  0.24041522  0.92736937  1
  Nd3+  Nd40  1  -0.00818412  0.35499259  0.56759723  1
  Nd3+  Nd41  1  0.36109444  0.74760384  0.93226751  1
  Nd3+  Nd42  1  0.75359983  0.10114131  0.55908448  1
  Nd3+  Nd43  1  0.12984931  0.23605886  0.44165899  1
  Nd3+  Nd44  1  0.86025432  0.49610129  0.93289889  1
  Nd3+  Nd45  1  0.35772515  0.24112811  0.92818816  1
  Nd3+  Nd46  1  0.60171872  0.74327900  0.93908915  1
  Nd3+  Nd47  1  0.10706561  0.49521787  0.92492318  1
  Nd3+  Nd48  1  0.62716690  -0.02117298  0.43485398  1
  Nd3+  Nd49  1  -0.01379467  0.12412897  0.05536957  1
  Nd3+  Nd50  1  0.37705110  0.23326964  0.43916641  1
  Nd3+  Nd51  1  0.73894769  0.86688508  0.05953800  1
  Sm3+  Sm52  1  0.75480164  0.60022257  0.56476454  1
  Sm3+  Sm53  1  0.75429139  0.34419132  0.56008994  1
  Sm3+  Sm54  1  0.50215186  0.85882831  0.56272762  1
  Sm3+  Sm55  1  0.60830238  0.49408788  0.94727631  1
  Sm3+  Sm56  1  0.11497471  -0.01021110  0.94973254  1
  Sm3+  Sm57  1  0.74748085  0.36409987  0.05401405  1
  Sm3+  Sm58  1  0.48289022  0.86207064  0.07855544  1
  Sm3+  Sm59  1  0.75624754  0.86245094  0.56357091  1
  Sm3+  Sm60  1  -0.01100758  0.61310392  0.04944948  1
  Sm3+  Sm61  1  0.60892409  -0.00953832  0.94790338  1
  Sm3+  Sm62  1  -0.00638157  0.86551233  0.07134303  1
  Sm3+  Sm63  1  0.49922127  0.10284975  0.55004756  1
  Bi2+  Bi64  1  0.00801704  0.12969261  0.28652668  1
  Bi2+  Bi65  1  -0.00648710  0.12255361  0.77461670  1
  Bi2+  Bi66  1  0.02109285  0.38576200  0.31760459  1
  Bi2+  Bi67  1  -0.03990582  0.38616231  0.78840590  1
  Bi2+  Bi68  1  0.01187426  0.67696595  0.30062602  1
  Bi2+  Bi69  1  -0.09121061  0.65706868  0.77246054  1
  Bi2+  Bi70  1  0.03678835  0.94442688  0.32402445  1
  Bi2+  Bi71  1  -0.03122490  0.92909737  0.79135339  1
  Bi2+  Bi72  1  0.32923448  0.17940966  0.30935016  1
  Bi2+  Bi73  1  0.30389768  0.09632673  0.78622134  1
  Bi2+  Bi74  1  0.25764833  0.36012799  0.29387448  1
  Bi2+  Bi75  1  0.24391180  0.34045146  0.79066339  1
  Bi2+  Bi76  1  0.31928481  0.66083642  0.31981482  1
  Bi2+  Bi77  1  0.22941321  0.66159530  0.76968895  1
  Bi2+  Bi78  1  0.21274611  0.86975203  0.28746009  1
  Bi2+  Bi79  1  0.23289503  0.90117919  0.78334492  1
  Bi2+  Bi80  1  0.56758247  0.14485076  0.29204714  1
  Bi2+  Bi81  1  0.48880015  0.17169820  0.82541406  1
  Bi2+  Bi82  1  0.50901620  0.38063453  0.23779367  1
  Bi2+  Bi83  1  0.53581854  0.37020731  0.80399603  1
  Bi2+  Bi84  1  0.54197694  0.59814962  0.31481146  1
  Bi2+  Bi85  1  0.52137143  0.63914812  0.78644194  1
  Bi2+  Bi86  1  0.50615779  0.78538838  0.28341358  1
  Bi2+  Bi87  1  0.48749618  0.89597669  0.79274801  1
  Bi2+  Bi88  1  0.80430917  0.09032589  0.24849066  1
  Bi2+  Bi89  1  0.65756702  0.13110623  0.77660822  1
  Bi2+  Bi90  1  0.70217517  0.35972871  0.25073582  1
  Bi2+  Bi91  1  0.73189714  0.38588547  0.78241563  1
  Bi2+  Bi92  1  0.75145191  0.64611570  0.30925713  1
  Bi2+  Bi93  1  0.71674239  0.65533985  0.79558388  1
  Bi2+  Bi94  1  0.84856853  0.90758331  0.29493097  1
  Bi2+  Bi95  1  0.71256583  0.85462223  0.79621114  1
  Bi2+  Bi96  1  0.11333516  0.00766604  0.21903855  1
  Bi2+  Bi97  1  0.15374928  0.07634773  0.70642742  1
  Bi2+  Bi98  1  0.15847561  0.22442665  0.19319904  1
  Bi2+  Bi99  1  0.11621834  0.26641263  0.71680151  1
  Bi2+  Bi100  1  0.17803077  0.55459891  0.25818242  1
  Bi2+  Bi101  1  0.09380265  0.51296524  0.72194060  1
  Bi2+  Bi102  1  0.14663241  0.73483145  0.21373251  1
  Bi2+  Bi103  1  0.08216349  0.77348658  0.69811779  1
  Bi2+  Bi104  1  0.41594902  -0.01076303  0.20820112  1
  Bi2+  Bi105  1  0.42657121  0.02304563  0.70391682  1
  Bi2+  Bi106  1  0.35284274  0.26311324  0.20907991  1
  Bi2+  Bi107  1  0.41744423  0.23511221  0.72306037  1
  Bi2+  Bi108  1  0.34688602  0.49788181  0.21112785  1
  Bi2+  Bi109  1  0.35891881  0.49053476  0.72180732  1
  Bi2+  Bi110  1  0.37820908  0.71672881  0.20880235  1
  Bi2+  Bi111  1  0.40911465  0.74868633  0.71859233  1
  Bi2+  Bi112  1  0.66118922  -0.07223347  0.24357774  1
  Bi2+  Bi113  1  0.61492861  -0.01679272  0.69855210  1
  Bi2+  Bi114  1  0.61515316  0.25558350  0.17067460  1
  Bi2+  Bi115  1  0.62431501  0.28311273  0.69648778  1
  Bi2+  Bi116  1  0.61844427  0.57080421  0.21322822  1
  Bi2+  Bi117  1  0.58838696  0.47447756  0.70416376  1
  Bi2+  Bi118  1  0.75550618  0.74679957  0.21086718  1
  Bi2+  Bi119  1  0.61775443  0.77511646  0.70254288  1
  Bi2+  Bi120  1  0.92397356  -0.02651253  0.18678713  1
  Bi2+  Bi121  1  0.81049080  0.01998813  0.74203655  1
  Bi2+  Bi122  1  0.87566263  0.25998345  0.21201096  1
  Bi2+  Bi123  1  0.87168576  0.25915337  0.69675771  1
  Bi2+  Bi124  1  0.88749662  0.51154499  0.20840552  1
  Bi2+  Bi125  1  0.78141462  0.52674146  0.70445541  1
  Bi2+  Bi126  1  0.95343912  0.77617852  0.20269869  1
  Bi2+  Bi127  1  0.81664094  0.79071870  0.70422547  1
  S2-  S128  1  -0.00044381  0.20411208  0.14439000  1
  S2-  S129  1  -0.02707199  0.15340556  0.64688244  1
  S2-  S130  1  -0.00002309  0.38237018  0.21994989  1
  S2-  S131  1  0.04394391  0.39446947  0.66258530  1
  S2-  S132  1  -0.00312385  0.54646703  0.14088889  1
  S2-  S133  1  0.00778165  0.62499516  0.66409936  1
  S2-  S134  1  0.11665315  0.86768283  0.14562566  1
  S2-  S135  1  -0.03520499  0.86651238  0.65744113  1
  S2-  S136  1  0.24389657  0.08571873  0.16013778  1
  S2-  S137  1  0.23703193  0.20852941  0.64858394  1
  S2-  S138  1  0.17948193  0.36713313  0.13953948  1
  S2-  S139  1  0.22600057  0.48814004  0.66091356  1
  S2-  S140  1  0.31010751  0.61071152  0.13545544  1
  S2-  S141  1  0.23127907  0.71969600  0.66151166  1
  S2-  S142  1  0.35327993  0.86576655  0.14984064  1
  S2-  S143  1  0.18607853  0.91446372  0.67905909  1
  S2-  S144  1  0.48253732  0.13212595  0.16658924  1
  S2-  S145  1  0.50731266  0.17795492  0.63882310  1
  S2-  S146  1  0.46724301  0.45502921  0.13884155  1
  S2-  S147  1  0.39165311  0.36306414  0.65622999  1
  S2-  S148  1  0.53202668  0.69159616  0.16072646  1
  S2-  S149  1  0.40956915  0.60494120  0.65624700  1
  S2-  S150  1  0.54546851  0.92588918  0.16667618  1
  S2-  S151  1  0.41053163  0.87109345  0.64852641  1
  S2-  S152  1  0.74364997  0.14132706  0.15015263  1
  S2-  S153  1  0.74776213  0.21433342  0.63684165  1
  S2-  S154  1  0.83577478  0.37491233  0.13947900  1
  S2-  S155  1  0.84312420  0.40024129  0.64001678  1
  S2-  S156  1  0.76517229  0.59319768  0.15463869  1
  S2-  S157  1  0.65086513  0.60628291  0.64366400  1
  S2-  S158  1  0.76249771  0.89431813  0.15682226  1
  S2-  S159  1  0.75650356  0.98064816  0.63620716  1
  S2-  S160  1  0.21234894  -0.00877176  0.35842559  1
  S2-  S161  1  0.10831739  -0.06650136  0.85483925  1
  S2-  S162  1  0.13804530  0.25226116  0.34093131  1
  S2-  S163  1  0.22614828  0.20731991  0.85299798  1
  S2-  S164  1  0.15841766  0.48732794  0.35278669  1
  S2-  S165  1  0.10946902  0.43757785  0.82881207  1
  S2-  S166  1  0.15860495  0.73746918  0.35469394  1
  S2-  S167  1  0.06373075  0.67322661  0.81197596  1
  S2-  S168  1  0.42329412  0.03306878  0.31165720  1
  S2-  S169  1  0.35513594  -0.04254846  0.85080832  1
  S2-  S170  1  0.47561041  0.24840061  0.35581917  1
  S2-  S171  1  0.37507902  0.35529424  0.85062562  1
  S2-  S172  1  0.40239642  0.51795974  0.34981597  1
  S2-  S173  1  0.31136835  0.55063167  0.81827588  1
  S2-  S174  1  0.38521253  0.81874051  0.35919276  1
  S2-  S175  1  0.25931219  0.77068611  0.84569234  1
  S2-  S176  1  0.64287854  0.01347256  0.33766503  1
  S2-  S177  1  0.61206218  -0.03525770  0.85008261  1
  S2-  S178  1  0.68213695  0.24260104  0.32842998  1
  S2-  S179  1  0.72783958  0.25206608  0.84780809  1
  S2-  S180  1  0.69644838  0.50370566  0.35707165  1
  S2-  S181  1  0.52909564  0.51556571  0.86104955  1
  S2-  S182  1  0.64089292  0.77334083  0.34598806  1
  S2-  S183  1  0.49017719  0.75374696  0.86186018  1
  S2-  S184  1  0.88196299  0.11457991  0.35277076  1
  S2-  S185  1  0.86324936  0.06641329  0.84073327  1
  S2-  S186  1  0.87978256  0.34424068  0.35582105  1
  S2-  S187  1  0.98914534  0.24499956  0.84595826  1
  S2-  S188  1  0.93227905  0.53851585  0.32942630  1
  S2-  S189  1  0.88634676  0.50890480  0.83366475  1
  S2-  S190  1  0.87469759  0.75651402  0.35161433  1
  S2-  S191  1  0.90719127  0.83134540  0.86405544  1
  S2-  S192  1  0.00996885  0.10583563  0.45096509  1
  S2-  S193  1  -0.01020736  0.10968208  0.94902038  1
  S2-  S194  1  0.00411084  0.35930310  0.45755573  1
  S2-  S195  1  -0.01940240  0.37406281  0.93847383  1
  S2-  S196  1  0.00387487  0.60798274  0.45572588  1
  S2-  S197  1  -0.01062865  0.62529232  0.94360688  1
  S2-  S198  1  0.00443019  0.85642192  0.45478278  1
  S2-  S199  1  -0.00370429  0.86404827  0.96719052  1
  S2-  S200  1  0.25500697  0.10932010  0.45826645  1
  S2-  S201  1  0.23665634  0.11459782  0.95759340  1
  S2-  S202  1  0.25548697  0.35783768  0.45561603  1
  S2-  S203  1  0.23537132  0.37350215  0.94295674  1
  S2-  S204  1  0.25427101  0.60800274  0.46812082  1
  S2-  S205  1  0.23144808  0.62289996  0.93815581  1
  S2-  S206  1  0.25630936  0.85813499  0.46531409  1
  S2-  S207  1  0.23474435  0.86604306  0.96224210  1
  S2-  S208  1  0.49449070  0.09600478  0.44666673  1
  S2-  S209  1  0.48825928  0.11811247  0.95722397  1
  S2-  S210  1  0.50334065  0.35925188  0.46165958  1
  S2-  S211  1  0.49250206  0.36160742  0.95278093  1
  S2-  S212  1  0.50583757  0.60957105  0.46341179  1
  S2-  S213  1  0.48529711  0.61876763  0.96490793  1
  S2-  S214  1  0.50192431  0.85989374  0.45844779  1
  S2-  S215  1  0.48721297  0.87036073  0.96705934  1
  S2-  S216  1  0.75033570  0.10277388  0.45068908  1
  S2-  S217  1  0.73503744  0.10936508  0.94758802  1
  S2-  S218  1  0.74885318  0.35366897  0.45527615  1
  S2-  S219  1  0.73450250  0.37371427  0.94896155  1
  S2-  S220  1  0.75285746  0.60985920  0.46145058  1
  S2-  S221  1  0.73188418  0.62046500  0.94873584  1
  S2-  S222  1  0.75591552  0.86039901  0.45695737  1
  S2-  S223  1  0.73195998  0.86443769  0.95351318  1
  S2-  S224  1  0.11118591  -0.00193818  0.05210796  1
  S2-  S225  1  0.12813589  -0.01999494  0.55351857  1
  S2-  S226  1  0.10993985  0.24594576  0.03555459  1
  S2-  S227  1  0.12372255  0.23733792  0.54736516  1
  S2-  S228  1  0.10950175  0.49080217  0.03315609  1
  S2-  S229  1  0.12640195  0.47761564  0.55293383  1
  S2-  S230  1  0.10983931  0.73544941  0.05296767  1
  S2-  S231  1  0.12740365  0.73158176  0.55556063  1
  S2-  S232  1  0.36539280  -0.00296411  0.05420791  1
  S2-  S233  1  0.37629688  -0.01572370  0.55085308  1
  S2-  S234  1  0.36355948  0.24256865  0.04414829  1
  S2-  S235  1  0.37553644  0.23022058  0.54374842  1
  S2-  S236  1  0.36112003  0.48687420  0.02989897  1
  S2-  S237  1  0.38033870  0.47612818  0.55387425  1
  S2-  S238  1  0.36333132  0.74447338  0.04128522  1
  S2-  S239  1  0.38287179  0.73163765  0.55183315  1
  S2-  S240  1  0.61514031  -0.00778630  0.05171994  1
  S2-  S241  1  0.62291807  -0.01963839  0.54188612  1
  S2-  S242  1  0.61821380  0.24334307  0.03645303  1
  S2-  S243  1  0.62642909  0.22437529  0.53455452  1
  S2-  S244  1  0.61888070  0.48715191  0.05063138  1
  S2-  S245  1  0.63291258  0.47022510  0.55183001  1
  S2-  S246  1  0.61129614  0.74558788  0.04744734  1
  S2-  S247  1  0.63255520  0.74004778  0.55034834  1
  S2-  S248  1  0.86718364  -0.01080384  0.04253923  1
  S2-  S249  1  0.88141521  -0.01919956  0.53595982  1
  S2-  S250  1  0.86161989  0.24096221  0.03082449  1
  S2-  S251  1  0.87947955  0.22787175  0.53614374  1
  S2-  S252  1  0.86132391  0.49530021  0.03668370  1
  S2-  S253  1  0.87638092  0.48402702  0.53642985  1
  S2-  S254  1  0.86716413  0.74267143  0.05131839  1
  S2-  S255  1  0.87295065  0.73007652  0.55503001  1
