# generated using pymatgen
data_La12Ce14Pr13Nd13Sm12(BiS2)64
_symmetry_space_group_name_H-M   'P 1'
_cell_length_a   16.13922490
_cell_length_b   16.18775808
_cell_length_c   27.26673651
_cell_angle_alpha   90.11914042
_cell_angle_beta   89.58917168
_cell_angle_gamma   90.01859360
_symmetry_Int_Tables_number   1
_chemical_formula_structural   La12Ce14Pr13Nd13Sm12(BiS2)64
_chemical_formula_sum   'La12 Ce14 Pr13 Nd13 Sm12 Bi64 S128'
_cell_volume   7123.45058782
_cell_formula_units_Z   1
loop_
 _symmetry_equiv_pos_site_id
 _symmetry_equiv_pos_as_xyz
  1  'x, y, z'
loop_
 _atom_type_symbol
 _atom_type_oxidation_number
  La3+  3.0
  Ce3+  3.0
  Pr3+  3.0
  Nd3+  3.0
  Sm3+  3.0
  Bi2+  2.0
  S2-  -2.0
loop_
 _atom_site_type_symbol
 _atom_site_label
 _atom_site_symmetry_multiplicity
 _atom_site_fract_x
 _atom_site_fract_y
 _atom_site_fract_z
 _atom_site_occupancy
  La3+  La0  1  0.74170863  0.11204733  0.58112275  1
  La3+  La1  1  0.89497805  0.76307085  0.41712487  1
  La3+  La2  1  0.77201575  0.37483056  0.08959919  1
  La3+  La3  1  0.39110514  0.49738139  0.89894409  1
  La3+  La4  1  0.51064130  0.87920136  0.06236639  1
  La3+  La5  1  0.39667146  0.74953914  0.92295353  1
  La3+  La6  1  0.00876736  0.63179503  0.06325955  1
  La3+  La7  1  0.14599315  0.00694349  0.91232137  1
  La3+  La8  1  0.64097820  0.74728083  0.93652586  1
  La3+  La9  1  0.26705039  0.38054272  0.05833736  1
  La3+  La10  1  0.75430877  0.63142787  0.07764522  1
  La3+  La11  1  0.50237394  0.62263605  0.06534011  1
  Ce3+  Ce12  1  0.13522212  0.49976328  0.93156458  1
  Ce3+  Ce13  1  0.64515371  0.49975185  0.94177411  1
  Ce3+  Ce14  1  0.50198601  0.12043222  0.55767122  1
  Ce3+  Ce15  1  0.00286179  0.12345857  0.56855375  1
  Ce3+  Ce16  1  0.13669775  0.25422898  0.93293497  1
  Ce3+  Ce17  1  0.12266814  0.49740070  0.44158270  1
  Ce3+  Ce18  1  0.51517377  0.37812589  0.05363695  1
  Ce3+  Ce19  1  0.63117682  -0.00225883  0.43979198  1
  Ce3+  Ce20  1  0.39887541  0.25536702  0.92672366  1
  Ce3+  Ce21  1  0.25825879  0.61756106  0.56599031  1
  Ce3+  Ce22  1  0.63254185  0.74311915  0.43676223  1
  Ce3+  Ce23  1  0.49778682  0.86507891  0.55462991  1
  Ce3+  Ce24  1  0.38229664  0.25125750  0.43595197  1
  Ce3+  Ce25  1  0.25359323  0.36892867  0.55583960  1
  Pr3+  Pr26  1  0.26235956  0.87750971  0.04893627  1
  Pr3+  Pr27  1  0.12769311  0.23423558  0.43341613  1
  Pr3+  Pr28  1  0.37940278  0.73628081  0.43017689  1
  Pr3+  Pr29  1  0.63856182  0.24081572  0.42796394  1
  Pr3+  Pr30  1  0.24447991  0.87985531  0.60422696  1
  Pr3+  Pr31  1  0.75098855  0.86538494  0.56131805  1
  Pr3+  Pr32  1  0.01439420  0.88059028  0.04911912  1
  Pr3+  Pr33  1  0.01447200  0.12713502  0.05413843  1
  Pr3+  Pr34  1  0.75401276  0.37004572  0.55664809  1
  Pr3+  Pr35  1  0.50685202  0.37483992  0.56396776  1
  Pr3+  Pr36  1  0.38127837  0.48992978  0.43180479  1
  Pr3+  Pr37  1  0.75567302  0.62070520  0.55552470  1
  Pr3+  Pr38  1  0.25350523  0.12247023  0.56806004  1
  Nd3+  Nd39  1  0.26425930  0.12845459  0.04489700  1
  Nd3+  Nd40  1  0.00426229  0.62242403  0.56429193  1
  Nd3+  Nd41  1  0.64160154  0.00224077  0.93136314  1
  Nd3+  Nd42  1  0.64538826  0.25395813  0.93906141  1
  Nd3+  Nd43  1  0.13160825  -0.00754355  0.44827673  1
  Nd3+  Nd44  1  0.88157540  0.24317037  0.44018050  1
  Nd3+  Nd45  1  0.76172258  0.12672655  0.06582724  1
  Nd3+  Nd46  1  0.51326932  0.12921204  0.05588407  1
  Nd3+  Nd47  1  0.88238257  0.50037900  0.42948872  1
  Nd3+  Nd48  1  0.88010978  -0.00265290  0.45382928  1
  Nd3+  Nd49  1  0.13340642  0.74790564  0.45431372  1
  Nd3+  Nd50  1  0.88583029  0.74804800  0.93245364  1
  Nd3+  Nd51  1  0.63603708  0.48704772  0.40678140  1
  Sm3+  Sm52  1  0.88321680  0.50008297  0.94560979  1
  Sm3+  Sm53  1  0.76246551  0.87737294  0.06097276  1
  Sm3+  Sm54  1  0.26524009  0.62726846  0.04509752  1
  Sm3+  Sm55  1  0.39459276  0.00012988  0.92673515  1
  Sm3+  Sm56  1  0.13938595  0.75122211  0.93115183  1
  Sm3+  Sm57  1  0.01538577  0.37915946  0.06086366  1
  Sm3+  Sm58  1  0.00117588  0.86994362  0.57417884  1
  Sm3+  Sm59  1  0.88460905  0.00158359  0.93818977  1
  Sm3+  Sm60  1  0.37911813  -0.00682695  0.44582373  1
  Sm3+  Sm61  1  0.50359993  0.61848338  0.55015432  1
  Sm3+  Sm62  1  0.00352511  0.37077812  0.56001956  1
  Sm3+  Sm63  1  0.88549072  0.25369866  0.94124699  1
  Bi2+  Bi64  1  -0.02336581  0.08891986  0.32109911  1
  Bi2+  Bi65  1  -0.03531559  0.18368969  0.80571261  1
  Bi2+  Bi66  1  -0.02145628  0.33046788  0.24482493  1
  Bi2+  Bi67  1  0.02884216  0.36201484  0.83303667  1
  Bi2+  Bi68  1  0.03005180  0.63642758  0.30990815  1
  Bi2+  Bi69  1  -0.03128817  0.54706420  0.82424458  1
  Bi2+  Bi70  1  0.01359763  0.88172509  0.28603318  1
  Bi2+  Bi71  1  -0.09592392  0.80567446  0.79880764  1
  Bi2+  Bi72  1  0.32434322  0.18534718  0.31217822  1
  Bi2+  Bi73  1  0.23360205  0.15026041  0.77298594  1
  Bi2+  Bi74  1  0.15452373  0.28484780  0.30418292  1
  Bi2+  Bi75  1  0.20979877  0.36613815  0.78290925  1
  Bi2+  Bi76  1  0.22677806  0.62993915  0.29354372  1
  Bi2+  Bi77  1  0.24419911  0.63377358  0.78242435  1
  Bi2+  Bi78  1  0.29590935  0.89786833  0.28857889  1
  Bi2+  Bi79  1  0.21570861  0.87863414  0.79184373  1
  Bi2+  Bi80  1  0.51225594  0.09004153  0.28788341  1
  Bi2+  Bi81  1  0.42443176  0.16225725  0.74713448  1
  Bi2+  Bi82  1  0.47395386  0.30176515  0.28119439  1
  Bi2+  Bi83  1  0.51311744  0.35591872  0.79175878  1
  Bi2+  Bi84  1  0.48724562  0.68330047  0.29787995  1
  Bi2+  Bi85  1  0.55061664  0.62028635  0.78165919  1
  Bi2+  Bi86  1  0.56715326  0.91746398  0.24333054  1
  Bi2+  Bi87  1  0.46601227  0.87054205  0.79532935  1
  Bi2+  Bi88  1  0.76750080  0.10944905  0.29300542  1
  Bi2+  Bi89  1  0.67989872  0.18438610  0.79180421  1
  Bi2+  Bi90  1  0.73520452  0.35194613  0.28321207  1
  Bi2+  Bi91  1  0.76463726  0.38417515  0.79273386  1
  Bi2+  Bi92  1  0.73543550  0.61561136  0.28814635  1
  Bi2+  Bi93  1  0.79759316  0.63133645  0.78779780  1
  Bi2+  Bi94  1  0.75737768  0.91565818  0.27071619  1
  Bi2+  Bi95  1  0.70871261  0.90382883  0.78491534  1
  Bi2+  Bi96  1  0.14475394  0.02108605  0.26164108  1
  Bi2+  Bi97  1  0.03089599  -0.02519578  0.72621938  1
  Bi2+  Bi98  1  0.10835805  0.19708214  0.20323815  1
  Bi2+  Bi99  1  0.09694552  0.24515490  0.70773539  1
  Bi2+  Bi100  1  0.17182589  0.45608530  0.25316401  1
  Bi2+  Bi101  1  0.09171141  0.50300732  0.73525217  1
  Bi2+  Bi102  1  0.16923873  0.77595938  0.22828754  1
  Bi2+  Bi103  1  0.04048328  0.71235597  0.73688309  1
  Bi2+  Bi104  1  0.33576334  0.03776370  0.21046487  1
  Bi2+  Bi105  1  0.39159591  -0.02306233  0.70702568  1
  Bi2+  Bi106  1  0.35369740  0.23399676  0.19996123  1
  Bi2+  Bi107  1  0.29006114  0.24423501  0.67766567  1
  Bi2+  Bi108  1  0.33348838  0.49298866  0.19816344  1
  Bi2+  Bi109  1  0.38890429  0.47990581  0.69543671  1
  Bi2+  Bi110  1  0.35892421  0.76145428  0.20027262  1
  Bi2+  Bi111  1  0.41129305  0.72044020  0.68554508  1
  Bi2+  Bi112  1  0.70678255  0.00223001  0.16999039  1
  Bi2+  Bi113  1  0.58169034  0.03867627  0.74371942  1
  Bi2+  Bi114  1  0.62464479  0.17600239  0.20566781  1
  Bi2+  Bi115  1  0.64322639  0.25895634  0.68730207  1
  Bi2+  Bi116  1  0.56699815  0.49445220  0.21151015  1
  Bi2+  Bi117  1  0.67624327  0.51704118  0.72263721  1
  Bi2+  Bi118  1  0.65077905  0.75220148  0.20663673  1
  Bi2+  Bi119  1  0.66605423  0.78564108  0.69838488  1
  Bi2+  Bi120  1  0.90498848  -0.04072573  0.19550868  1
  Bi2+  Bi121  1  0.86063127  0.02683919  0.77253215  1
  Bi2+  Bi122  1  0.89619373  0.16340576  0.20920113  1
  Bi2+  Bi123  1  0.88439781  0.28810129  0.72064279  1
  Bi2+  Bi124  1  0.95378067  0.51466551  0.21472854  1
  Bi2+  Bi125  1  0.90077856  0.51076317  0.71132246  1
  Bi2+  Bi126  1  0.91791925  0.71947935  0.19332146  1
  Bi2+  Bi127  1  0.85400012  0.83929586  0.68933911  1
  S2-  S128  1  0.01972969  0.07070732  0.14872700  1
  S2-  S129  1  0.02389116  0.10856030  0.66447786  1
  S2-  S130  1  -0.06908678  0.38153075  0.14639262  1
  S2-  S131  1  -0.00278373  0.38505892  0.65816316  1
  S2-  S132  1  0.05428107  0.62391374  0.16060877  1
  S2-  S133  1  -0.03880758  0.65368299  0.65994724  1
  S2-  S134  1  0.00031467  0.83476857  0.14583406  1
  S2-  S135  1  0.08949039  0.86876417  0.65890298  1
  S2-  S136  1  0.24426721  0.12902875  0.14404815  1
  S2-  S137  1  0.25981920  0.03156793  0.65558571  1
  S2-  S138  1  0.20616705  0.40268965  0.15228778  1
  S2-  S139  1  0.25314185  0.40942775  0.65030825  1
  S2-  S140  1  0.35061340  0.62371067  0.13238778  1
  S2-  S141  1  0.27850290  0.61833230  0.66405601  1
  S2-  S142  1  0.25065589  0.86263914  0.14875065  1
  S2-  S143  1  0.28601669  0.81933427  0.69749037  1
  S2-  S144  1  0.48185719  0.13320081  0.15454323  1
  S2-  S145  1  0.58847224  0.11374893  0.64148070  1
  S2-  S146  1  0.45773388  0.41421072  0.14446865  1
  S2-  S147  1  0.49025967  0.35277320  0.66542728  1
  S2-  S148  1  0.60528593  0.62187480  0.14871218  1
  S2-  S149  1  0.49852345  0.57681819  0.64612127  1
  S2-  S150  1  0.49553574  0.83398654  0.15936961  1
  S2-  S151  1  0.50055600  0.85757923  0.65261578  1
  S2-  S152  1  0.76863238  0.22431083  0.14809615  1
  S2-  S153  1  0.79168674  0.17688910  0.67088676  1
  S2-  S154  1  0.69031965  0.40816054  0.18439863  1
  S2-  S155  1  0.72428489  0.39906629  0.65467787  1
  S2-  S156  1  0.82853856  0.58009192  0.16701670  1
  S2-  S157  1  0.72145876  0.65029710  0.65387346  1
  S2-  S158  1  0.77197240  0.77739437  0.14225332  1
  S2-  S159  1  0.73472339  0.94133012  0.65156869  1
  S2-  S160  1  0.13303175  0.07991483  0.36310884  1
  S2-  S161  1  0.07699423  -0.06177194  0.82629761  1
  S2-  S162  1  0.00085383  0.24576588  0.36128282  1
  S2-  S163  1  0.12865031  0.15482725  0.85143695  1
  S2-  S164  1  0.01765940  0.49757039  0.36249587  1
  S2-  S165  1  0.22744579  0.50566983  0.84793203  1
  S2-  S166  1  0.06042662  0.77978285  0.36573590  1
  S2-  S167  1  0.12240224  0.72161520  0.83380277  1
  S2-  S168  1  0.37749113  0.02860232  0.34966758  1
  S2-  S169  1  0.29003418  -0.01442680  0.84631887  1
  S2-  S170  1  0.38162973  0.36422065  0.35798052  1
  S2-  S171  1  0.37148609  0.34657593  0.84283492  1
  S2-  S172  1  0.36693735  0.60791658  0.35519881  1
  S2-  S173  1  0.39931705  0.55956204  0.79227391  1
  S2-  S174  1  0.41762352  0.81179120  0.33934180  1
  S2-  S175  1  0.32975027  0.76012403  0.82800768  1
  S2-  S176  1  0.63496114  0.09815277  0.36115621  1
  S2-  S177  1  0.51920238  -0.00739065  0.85531411  1
  S2-  S178  1  0.60888084  0.34309394  0.34600853  1
  S2-  S179  1  0.54408798  0.23754643  0.85478613  1
  S2-  S180  1  0.57764562  0.53927885  0.31418254  1
  S2-  S181  1  0.55839025  0.49326580  0.85268047  1
  S2-  S182  1  0.63879022  0.73929440  0.33900941  1
  S2-  S183  1  0.53733915  0.74861565  0.85193778  1
  S2-  S184  1  0.90283130  -0.06726066  0.36159748  1
  S2-  S185  1  0.77309009  0.00870824  0.86315153  1
  S2-  S186  1  0.78443191  0.24829203  0.35529139  1
  S2-  S187  1  0.77234686  0.25977823  0.86540172  1
  S2-  S188  1  0.78180338  0.48367789  0.34438149  1
  S2-  S189  1  0.77136218  0.49755223  0.86894575  1
  S2-  S190  1  0.86321219  0.68700485  0.32768166  1
  S2-  S191  1  0.76479119  0.74368898  0.86026495  1
  S2-  S192  1  0.00419379  0.11653724  0.46486914  1
  S2-  S193  1  0.00578081  0.12592856  0.94855505  1
  S2-  S194  1  0.00316133  0.36944371  0.45860144  1
  S2-  S195  1  0.00952975  0.37654786  0.95637329  1
  S2-  S196  1  0.00279934  0.62908993  0.45978937  1
  S2-  S197  1  0.01203005  0.62780707  0.95185121  1
  S2-  S198  1  0.00807093  0.87442813  0.47100282  1
  S2-  S199  1  0.00984776  0.87617445  0.94306710  1
  S2-  S200  1  0.25964064  0.11994488  0.46121941  1
  S2-  S201  1  0.27407486  0.13159673  0.94162436  1
  S2-  S202  1  0.24428024  0.36935353  0.45109107  1
  S2-  S203  1  0.26017427  0.37516157  0.94968112  1
  S2-  S204  1  0.24917806  0.61685956  0.45835813  1
  S2-  S205  1  0.26325324  0.62908285  0.94263233  1
  S2-  S206  1  0.25697310  0.87008455  0.44465886  1
  S2-  S207  1  0.26372795  0.87281807  0.94380224  1
  S2-  S208  1  0.50023878  0.12074453  0.45405443  1
  S2-  S209  1  0.51661600  0.12493256  0.95305416  1
  S2-  S210  1  0.51291064  0.37175664  0.45614177  1
  S2-  S211  1  0.51617580  0.37753057  0.95127076  1
  S2-  S212  1  0.51335071  0.61325549  0.44602937  1
  S2-  S213  1  0.51345057  0.62023351  0.95363822  1
  S2-  S214  1  0.50533524  0.87131195  0.44879805  1
  S2-  S215  1  0.51568943  0.87835553  0.95589483  1
  S2-  S216  1  0.75630460  0.11750615  0.46702839  1
  S2-  S217  1  0.76599910  0.12713228  0.96179283  1
  S2-  S218  1  0.75900588  0.37541588  0.45250607  1
  S2-  S219  1  0.76847397  0.37462067  0.97067144  1
  S2-  S220  1  0.76122043  0.62530935  0.44820988  1
  S2-  S221  1  0.76747757  0.62644272  0.96669674  1
  S2-  S222  1  0.75567077  0.87049142  0.45300833  1
  S2-  S223  1  0.76432570  0.87718699  0.95833906  1
  S2-  S224  1  0.14016733  0.00400102  0.03061296  1
  S2-  S225  1  0.12835870  -0.00594194  0.55351133  1
  S2-  S226  1  0.13704907  0.25400138  0.04233817  1
  S2-  S227  1  0.12654399  0.24633959  0.54806801  1
  S2-  S228  1  0.13645363  0.50618822  0.04056499  1
  S2-  S229  1  0.12579182  0.49653523  0.55019618  1
  S2-  S230  1  0.13965129  0.75098361  0.03776521  1
  S2-  S231  1  0.13349258  0.74713169  0.55945552  1
  S2-  S232  1  0.38736553  0.00427062  0.04069718  1
  S2-  S233  1  0.37505742  -0.00900270  0.55058777  1
  S2-  S234  1  0.38987684  0.25200693  0.03920973  1
  S2-  S235  1  0.38100014  0.24729716  0.54494576  1
  S2-  S236  1  0.38488147  0.50149120  0.03178733  1
  S2-  S237  1  0.37967735  0.49432662  0.54002927  1
  S2-  S238  1  0.38635547  0.75440004  0.03451807  1
  S2-  S239  1  0.37684590  0.74137039  0.54244240  1
  S2-  S240  1  0.63816553  0.00276138  0.04212570  1
  S2-  S241  1  0.62256426  -0.01116165  0.54278080  1
  S2-  S242  1  0.63754605  0.25182858  0.04844825  1
  S2-  S243  1  0.62755442  0.24619936  0.54327424  1
  S2-  S244  1  0.64050778  0.49736388  0.05035911  1
  S2-  S245  1  0.63004815  0.49904368  0.54434423  1
  S2-  S246  1  0.63376311  0.75596803  0.04479428  1
  S2-  S247  1  0.62550372  0.74253162  0.54360546  1
  S2-  S248  1  0.88578383  0.00139790  0.04290454  1
  S2-  S249  1  0.88028143  -0.00540763  0.55963384  1
  S2-  S250  1  0.89364008  0.25139275  0.04508098  1
  S2-  S251  1  0.87988895  0.24640153  0.55084399  1
  S2-  S252  1  0.89091752  0.50245239  0.04819921  1
  S2-  S253  1  0.88284134  0.49623145  0.54633351  1
  S2-  S254  1  0.88844764  0.75724352  0.03834179  1
  S2-  S255  1  0.88204406  0.74876192  0.54774377  1
