# generated using pymatgen
data_La12Ce14Pr13Nd13Sm12(BiS2)64
_symmetry_space_group_name_H-M   'P 1'
_cell_length_a   16.09255869
_cell_length_b   16.12104687
_cell_length_c   27.37169028
_cell_angle_alpha   90.00044095
_cell_angle_beta   90.42695897
_cell_angle_gamma   89.84556626
_symmetry_Int_Tables_number   1
_chemical_formula_structural   La12Ce14Pr13Nd13Sm12(BiS2)64
_chemical_formula_sum   'La12 Ce14 Pr13 Nd13 Sm12 Bi64 S128'
_cell_volume   7100.78435208
_cell_formula_units_Z   1
loop_
 _symmetry_equiv_pos_site_id
 _symmetry_equiv_pos_as_xyz
  1  'x, y, z'
loop_
 _atom_type_symbol
 _atom_type_oxidation_number
  La3+  3.0
  Ce3+  3.0
  Pr3+  3.0
  Nd3+  3.0
  Sm3+  3.0
  Bi2+  2.0
  S2-  -2.0
loop_
 _atom_site_type_symbol
 _atom_site_label
 _atom_site_symmetry_multiplicity
 _atom_site_fract_x
 _atom_site_fract_y
 _atom_site_fract_z
 _atom_site_occupancy
  La3+  La0  1  0.59669535  -0.01470981  0.93473690  1
  La3+  La1  1  0.85868207  0.49507686  0.93560927  1
  La3+  La2  1  0.87151456  0.74402798  0.38261194  1
  La3+  La3  1  0.24256366  0.11769516  0.11540903  1
  La3+  La4  1  0.11154330  -0.00296374  0.93061910  1
  La3+  La5  1  0.26699856  0.87673571  0.57138066  1
  La3+  La6  1  0.39500740  0.26281775  0.39601711  1
  La3+  La7  1  0.76148008  0.87554109  0.56610810  1
  La3+  La8  1  0.35189607  0.50951131  0.92693133  1
  La3+  La9  1  0.85439391  0.23563316  0.91952445  1
  La3+  La10  1  0.36616300  0.80668723  0.87745321  1
  La3+  La11  1  0.26308309  0.13190211  0.56297875  1
  Ce3+  Ce12  1  0.73153399  0.86902458  0.06225277  1
  Ce3+  Ce13  1  0.38507890  0.75189774  0.43515851  1
  Ce3+  Ce14  1  0.01547962  0.62656062  0.56448403  1
  Ce3+  Ce15  1  0.63595614  0.50016813  0.43769789  1
  Ce3+  Ce16  1  0.63571981  0.25397630  0.44330809  1
  Ce3+  Ce17  1  0.01127301  0.12788241  0.56155374  1
  Ce3+  Ce18  1  0.12894165  0.74996615  0.43978689  1
  Ce3+  Ce19  1  0.88740578  0.50244921  0.44128823  1
  Ce3+  Ce20  1  0.85084329  0.74467385  0.94253144  1
  Ce3+  Ce21  1  0.88628683  -0.00540495  0.44003100  1
  Ce3+  Ce22  1  0.63511829  0.00110379  0.44201479  1
  Ce3+  Ce23  1  0.61342256  0.49372914  0.93315836  1
  Ce3+  Ce24  1  0.48167904  0.37038429  0.04735217  1
  Ce3+  Ce25  1  0.73002555  0.12245277  0.06263522  1
  Pr3+  Pr26  1  0.23428801  0.61914861  0.07202179  1
  Pr3+  Pr27  1  0.51461196  0.87643893  0.56847504  1
  Pr3+  Pr28  1  0.13535445  0.49734708  0.44455705  1
  Pr3+  Pr29  1  0.48827489  0.12658200  0.06921665  1
  Pr3+  Pr30  1  0.60560073  0.23727530  0.92643525  1
  Pr3+  Pr31  1  0.76390284  0.37671839  0.56831491  1
  Pr3+  Pr32  1  0.01489217  0.38219566  0.58196329  1
  Pr3+  Pr33  1  0.62984442  0.75197393  0.43187187  1
  Pr3+  Pr34  1  0.72686331  0.61386330  0.07798476  1
  Pr3+  Pr35  1  -0.01622598  0.36780840  0.06114299  1
  Pr3+  Pr36  1  0.60888245  0.74209456  0.93566143  1
  Pr3+  Pr37  1  0.27092649  0.38125013  0.57442150  1
  Pr3+  Pr38  1  -0.01255221  0.11874104  0.06289269  1
  Nd3+  Nd39  1  0.48022753  0.62052721  0.06005588  1
  Nd3+  Nd40  1  0.11491679  0.74434823  0.94099663  1
  Nd3+  Nd41  1  0.38333185  0.49758679  0.43752665  1
  Nd3+  Nd42  1  0.38555671  0.00218042  0.43950885  1
  Nd3+  Nd43  1  0.13393514  0.25373226  0.43631013  1
  Nd3+  Nd44  1  0.51165829  0.62678650  0.55860861  1
  Nd3+  Nd45  1  0.76425634  0.62820426  0.55325939  1
  Nd3+  Nd46  1  0.10441314  0.49531778  0.93962011  1
  Nd3+  Nd47  1  0.47932526  0.87070704  0.06603422  1
  Nd3+  Nd48  1  0.13702167  0.00086095  0.44461338  1
  Nd3+  Nd49  1  0.85631381  -0.00364684  0.94468637  1
  Nd3+  Nd50  1  0.35255966  0.24802142  0.93912601  1
  Nd3+  Nd51  1  0.73358457  0.36776700  0.05854108  1
  Sm3+  Sm52  1  0.76549337  0.12805573  0.55204617  1
  Sm3+  Sm53  1  -0.01469361  0.87104375  0.05293881  1
  Sm3+  Sm54  1  0.23593673  0.36736116  0.06428995  1
  Sm3+  Sm55  1  -0.01884225  0.61990174  0.06145097  1
  Sm3+  Sm56  1  0.51149145  0.12829087  0.55341681  1
  Sm3+  Sm57  1  0.89000333  0.25338425  0.43992803  1
  Sm3+  Sm58  1  0.10798486  0.24818903  0.94528155  1
  Sm3+  Sm59  1  0.01272863  0.87568164  0.55988603  1
  Sm3+  Sm60  1  0.35462299  0.00567443  0.95479245  1
  Sm3+  Sm61  1  0.51628927  0.37777086  0.56766577  1
  Sm3+  Sm62  1  0.26149258  0.62900248  0.55722003  1
  Sm3+  Sm63  1  0.23203642  0.87336584  0.05796807  1
  Bi2+  Bi64  1  -0.01752238  0.12512300  0.29564149  1
  Bi2+  Bi65  1  -0.00388739  0.09271032  0.76032842  1
  Bi2+  Bi66  1  -0.05470553  0.40277957  0.31834291  1
  Bi2+  Bi67  1  0.05761199  0.38860796  0.79938869  1
  Bi2+  Bi68  1  0.10976350  0.60432213  0.29567043  1
  Bi2+  Bi69  1  -0.03116291  0.62716975  0.78582092  1
  Bi2+  Bi70  1  0.04498397  0.87264022  0.28936502  1
  Bi2+  Bi71  1  -0.01924567  0.82217066  0.78913662  1
  Bi2+  Bi72  1  0.25992059  0.08786132  0.31994151  1
  Bi2+  Bi73  1  0.25550127  0.11538892  0.80961200  1
  Bi2+  Bi74  1  0.17224771  0.34369156  0.27190830  1
  Bi2+  Bi75  1  0.34641479  0.36913737  0.81182396  1
  Bi2+  Bi76  1  0.29166825  0.66349039  0.32097270  1
  Bi2+  Bi77  1  0.22270436  0.61636306  0.79756943  1
  Bi2+  Bi78  1  0.24288251  0.83806779  0.27865675  1
  Bi2+  Bi79  1  0.20634216  0.88030041  0.77504187  1
  Bi2+  Bi80  1  0.57000838  0.15406474  0.28091506  1
  Bi2+  Bi81  1  0.50016886  0.17659326  0.74631946  1
  Bi2+  Bi82  1  0.52910035  0.42650232  0.30295867  1
  Bi2+  Bi83  1  0.56930962  0.34297971  0.80502036  1
  Bi2+  Bi84  1  0.47569667  0.63228104  0.28248964  1
  Bi2+  Bi85  1  0.49130545  0.52588401  0.81427625  1
  Bi2+  Bi86  1  0.52344590  0.89152659  0.30012193  1
  Bi2+  Bi87  1  0.50753057  0.97585190  0.80081197  1
  Bi2+  Bi88  1  0.78882052  0.15629592  0.29719184  1
  Bi2+  Bi89  1  0.73935798  0.11374200  0.79658157  1
  Bi2+  Bi90  1  0.77893442  0.34669043  0.27439575  1
  Bi2+  Bi91  1  0.80486996  0.38540587  0.79052679  1
  Bi2+  Bi92  1  0.77349037  0.58727429  0.27091761  1
  Bi2+  Bi93  1  0.66601497  0.61951355  0.79747021  1
  Bi2+  Bi94  1  0.77023006  0.89693353  0.28240576  1
  Bi2+  Bi95  1  0.79186261  0.87347414  0.80262039  1
  Bi2+  Bi96  1  0.10638922  -0.01766470  0.20785791  1
  Bi2+  Bi97  1  0.10668338  0.00490655  0.68766984  1
  Bi2+  Bi98  1  0.02600693  0.25717853  0.21580657  1
  Bi2+  Bi99  1  0.18884467  0.27188683  0.74591937  1
  Bi2+  Bi100  1  0.18449969  0.48572423  0.19242160  1
  Bi2+  Bi101  1  0.13904478  0.48742689  0.70987555  1
  Bi2+  Bi102  1  0.18362056  0.69742451  0.20154640  1
  Bi2+  Bi103  1  0.07854152  0.74799723  0.69854118  1
  Bi2+  Bi104  1  0.37130466  -0.01219482  0.21410624  1
  Bi2+  Bi105  1  0.38975058  0.02559684  0.70479335  1
  Bi2+  Bi106  1  0.38529687  0.26950014  0.21065591  1
  Bi2+  Bi107  1  0.36676723  0.29801930  0.70195423  1
  Bi2+  Bi108  1  0.37525150  0.49207694  0.21808999  1
  Bi2+  Bi109  1  0.33888777  0.50468906  0.72784313  1
  Bi2+  Bi110  1  0.37570212  0.74460751  0.20735003  1
  Bi2+  Bi111  1  0.34235628  0.73588504  0.68755361  1
  Bi2+  Bi112  1  0.66858804  0.02433596  0.21732040  1
  Bi2+  Bi113  1  0.65608533  -0.04620346  0.73055803  1
  Bi2+  Bi114  1  0.64852262  0.29326099  0.19016091  1
  Bi2+  Bi115  1  0.67527714  0.24217378  0.70975821  1
  Bi2+  Bi116  1  0.57862603  0.49917074  0.20122337  1
  Bi2+  Bi117  1  0.62099526  0.46917323  0.72617582  1
  Bi2+  Bi118  1  0.60204112  0.76112203  0.21020535  1
  Bi2+  Bi119  1  0.63751859  0.71972313  0.70035155  1
  Bi2+  Bi120  1  0.86670519  0.03948224  0.21017101  1
  Bi2+  Bi121  1  0.84337093  0.00189576  0.70923599  1
  Bi2+  Bi122  1  0.83616151  0.22789271  0.17622428  1
  Bi2+  Bi123  1  0.88761406  0.23866370  0.71435311  1
  Bi2+  Bi124  1  0.99054690  0.50611291  0.22132536  1
  Bi2+  Bi125  1  0.87037598  0.50745728  0.71273480  1
  Bi2+  Bi126  1  0.89108129  0.75169506  0.18188697  1
  Bi2+  Bi127  1  0.83589316  0.73055765  0.72029168  1
  S2-  S128  1  0.07398402  0.12162987  0.15022008  1
  S2-  S129  1  0.01658339  0.15465358  0.65841960  1
  S2-  S130  1  -0.05802100  0.38159777  0.15834321  1
  S2-  S131  1  -0.12231039  0.36293737  0.64867071  1
  S2-  S132  1  0.02685465  0.64585988  0.15500974  1
  S2-  S133  1  0.00405119  0.53288710  0.64659660  1
  S2-  S134  1  0.00088713  0.88651236  0.15000500  1
  S2-  S135  1  -0.01147823  0.88419942  0.65759061  1
  S2-  S136  1  0.23899418  0.09768851  0.22605125  1
  S2-  S137  1  0.25389249  0.09234161  0.66120449  1
  S2-  S138  1  0.25422573  0.28535301  0.15207908  1
  S2-  S139  1  0.15198557  0.35520777  0.64844596  1
  S2-  S140  1  0.36980400  0.60534401  0.14227628  1
  S2-  S141  1  0.20479741  0.64201838  0.65011225  1
  S2-  S142  1  0.24213135  0.93943104  0.14900698  1
  S2-  S143  1  0.19804948  0.86170701  0.66637942  1
  S2-  S144  1  0.40701342  0.11730064  0.15985876  1
  S2-  S145  1  0.51134321  0.09989499  0.65045451  1
  S2-  S146  1  0.48466489  0.33935090  0.14487196  1
  S2-  S147  1  0.41081318  0.42512137  0.64255661  1
  S2-  S148  1  0.58861262  0.64136713  0.14211762  1
  S2-  S149  1  0.49463374  0.66531826  0.65566673  1
  S2-  S150  1  0.49446241  0.88243391  0.16709519  1
  S2-  S151  1  0.40073055  0.87764495  0.64485388  1
  S2-  S152  1  0.62432697  0.13018736  0.14071121  1
  S2-  S153  1  0.77053130  0.12876958  0.65039919  1
  S2-  S154  1  0.70733430  0.44298217  0.14728516  1
  S2-  S155  1  0.63810638  0.37189576  0.64180024  1
  S2-  S156  1  0.81476901  0.61149716  0.16863488  1
  S2-  S157  1  0.75800455  0.60922209  0.65294233  1
  S2-  S158  1  0.73369344  0.82550433  0.15766970  1
  S2-  S159  1  0.64358413  0.86622440  0.64099945  1
  S2-  S160  1  0.11046448  0.01017114  0.34555704  1
  S2-  S161  1  0.11244065  0.00898718  0.82944241  1
  S2-  S162  1  0.22947374  0.24783963  0.35121965  1
  S2-  S163  1  0.15352446  0.24463504  0.84987115  1
  S2-  S164  1  0.12455879  0.45030767  0.34687466  1
  S2-  S165  1  0.20960482  0.49160823  0.85804834  1
  S2-  S166  1  0.04236460  0.74486263  0.35338931  1
  S2-  S167  1  0.18834691  0.77033747  0.85057932  1
  S2-  S168  1  0.38481144  -0.03868475  0.34161307  1
  S2-  S169  1  0.34703798  -0.01632611  0.85580819  1
  S2-  S170  1  0.41045019  0.17854296  0.30304002  1
  S2-  S171  1  0.38058024  0.20337185  0.84367067  1
  S2-  S172  1  0.38232512  0.41884431  0.34887477  1
  S2-  S173  1  0.36680097  0.63766432  0.85442170  1
  S2-  S174  1  0.49632482  0.76110149  0.35937428  1
  S2-  S175  1  0.36045610  0.81017330  0.77017577  1
  S2-  S176  1  0.61133644  0.01143020  0.34529196  1
  S2-  S177  1  0.59338044  0.09499109  0.85701640  1
  S2-  S178  1  0.57010625  0.27666039  0.35420386  1
  S2-  S179  1  0.72132515  0.26514788  0.84967770  1
  S2-  S180  1  0.64953956  0.54290641  0.34271194  1
  S2-  S181  1  0.73940373  0.50077054  0.85988093  1
  S2-  S182  1  0.71014877  0.78199376  0.34378842  1
  S2-  S183  1  0.54550830  0.84517583  0.85965654  1
  S2-  S184  1  0.89184771  -0.08112037  0.35069248  1
  S2-  S185  1  0.86500605  0.08216176  0.85862123  1
  S2-  S186  1  1.00042464  0.25257620  0.36415220  1
  S2-  S187  1  0.93645328  0.29617485  0.83440633  1
  S2-  S188  1  0.88043906  0.56676153  0.34942714  1
  S2-  S189  1  0.98587612  0.50674165  0.86093492  1
  S2-  S190  1  0.86651458  0.72322971  0.27444840  1
  S2-  S191  1  0.74841678  0.73323265  0.86326925  1
  S2-  S192  1  0.00885530  0.12201210  0.45689170  1
  S2-  S193  1  -0.01173671  0.12201233  0.95561109  1
  S2-  S194  1  0.00886303  0.37740238  0.46504701  1
  S2-  S195  1  -0.01885000  0.36422191  0.95599658  1
  S2-  S196  1  0.01099570  0.62377636  0.45836013  1
  S2-  S197  1  -0.01715696  0.62830175  0.95789911  1
  S2-  S198  1  0.01238338  0.87744810  0.45704698  1
  S2-  S199  1  -0.01766353  0.86939853  0.94674330  1
  S2-  S200  1  0.26217376  0.12660251  0.45461768  1
  S2-  S201  1  0.23057810  0.12367320  0.95036989  1
  S2-  S202  1  0.26394026  0.37269238  0.46009080  1
  S2-  S203  1  0.23042584  0.37037290  0.95982395  1
  S2-  S204  1  0.25880213  0.62569772  0.45250518  1
  S2-  S205  1  0.22303597  0.61767816  0.96543456  1
  S2-  S206  1  0.26038340  0.87468763  0.45436048  1
  S2-  S207  1  0.23768395  0.87331332  0.95467802  1
  S2-  S208  1  0.50587595  0.13116350  0.44857934  1
  S2-  S209  1  0.47848429  0.12245852  0.96075606  1
  S2-  S210  1  0.51018429  0.37684342  0.46143887  1
  S2-  S211  1  0.48134922  0.37180902  0.94244653  1
  S2-  S212  1  0.50788230  0.62071688  0.45187346  1
  S2-  S213  1  0.49173181  0.61599340  0.95539984  1
  S2-  S214  1  0.51002907  0.88088818  0.46065658  1
  S2-  S215  1  0.46716361  0.86997542  0.96247654  1
  S2-  S216  1  0.76451018  0.12824314  0.44743933  1
  S2-  S217  1  0.72888937  0.11432249  0.95823764  1
  S2-  S218  1  0.76345681  0.37518211  0.45153791  1
  S2-  S219  1  0.73516776  0.36481464  0.95533385  1
  S2-  S220  1  0.76148561  0.63016426  0.44904654  1
  S2-  S221  1  0.73377806  0.61923843  0.96754759  1
  S2-  S222  1  0.75936356  0.87686960  0.45775012  1
  S2-  S223  1  0.73250641  0.87363748  0.95698088  1
  S2-  S224  1  0.10718784  -0.00763264  0.04006749  1
  S2-  S225  1  0.13691775  0.00049793  0.55008732  1
  S2-  S226  1  0.11231444  0.24644967  0.04912901  1
  S2-  S227  1  0.13513364  0.25161003  0.54415787  1
  S2-  S228  1  0.10644330  0.49472917  0.05021032  1
  S2-  S229  1  0.14312145  0.50270256  0.54894497  1
  S2-  S230  1  0.10856357  0.74783278  0.04772575  1
  S2-  S231  1  0.13694625  0.75414196  0.54542156  1
  S2-  S232  1  0.35612616  0.00090857  0.05526516  1
  S2-  S233  1  0.38801441  0.00497096  0.54457397  1
  S2-  S234  1  0.35669538  0.24491361  0.04480570  1
  S2-  S235  1  0.39347220  0.25310799  0.55747162  1
  S2-  S236  1  0.35413640  0.49101413  0.04061867  1
  S2-  S237  1  0.38525108  0.50884948  0.54173650  1
  S2-  S238  1  0.35340386  0.75082937  0.05624392  1
  S2-  S239  1  0.38596206  0.74895016  0.54146572  1
  S2-  S240  1  0.60655891  -0.00827844  0.04605514  1
  S2-  S241  1  0.63916167  0.00817471  0.54651469  1
  S2-  S242  1  0.60938790  0.24838009  0.03603801  1
  S2-  S243  1  0.63908280  0.24712379  0.54631979  1
  S2-  S244  1  0.60610072  0.49218489  0.04033982  1
  S2-  S245  1  0.63785370  0.50425026  0.54446514  1
  S2-  S246  1  0.60558297  0.75117997  0.04262530  1
  S2-  S247  1  0.63530986  0.74750946  0.54026573  1
  S2-  S248  1  0.85878268  -0.00470124  0.05063686  1
  S2-  S249  1  0.88769301  0.00102277  0.54805080  1
  S2-  S250  1  0.85867443  0.24202434  0.04330240  1
  S2-  S251  1  0.88688976  0.25091801  0.54352114  1
  S2-  S252  1  0.86051689  0.49609096  0.04706161  1
  S2-  S253  1  0.88569917  0.50204248  0.54523592  1
  S2-  S254  1  0.85990568  0.74537654  0.04879274  1
  S2-  S255  1  0.88908259  0.75207737  0.55983295  1
