# generated using pymatgen
data_La12Ce14Pr13Nd13Sm12(BiS2)64
_symmetry_space_group_name_H-M   'P 1'
_cell_length_a   16.15131850
_cell_length_b   16.11954286
_cell_length_c   27.23905759
_cell_angle_alpha   90.06333268
_cell_angle_beta   89.96934150
_cell_angle_gamma   90.12963494
_symmetry_Int_Tables_number   1
_chemical_formula_structural   La12Ce14Pr13Nd13Sm12(BiS2)64
_chemical_formula_sum   'La12 Ce14 Pr13 Nd13 Sm12 Bi64 S128'
_cell_volume   7091.71611096
_cell_formula_units_Z   1
loop_
 _symmetry_equiv_pos_site_id
 _symmetry_equiv_pos_as_xyz
  1  'x, y, z'
loop_
 _atom_type_symbol
 _atom_type_oxidation_number
  La3+  3.0
  Ce3+  3.0
  Pr3+  3.0
  Nd3+  3.0
  Sm3+  3.0
  Bi2+  2.0
  S2-  -2.0
loop_
 _atom_site_type_symbol
 _atom_site_label
 _atom_site_symmetry_multiplicity
 _atom_site_fract_x
 _atom_site_fract_y
 _atom_site_fract_z
 _atom_site_occupancy
  La3+  La0  1  0.86246251  0.49231638  0.41885287  1
  La3+  La1  1  -0.00277589  0.37432821  0.07794981  1
  La3+  La2  1  0.74008797  0.87262567  0.59362534  1
  La3+  La3  1  0.13649285  0.49882537  0.39371685  1
  La3+  La4  1  0.62793672  0.00114336  0.91915894  1
  La3+  La5  1  0.88645771  0.00381642  0.91807450  1
  La3+  La6  1  0.11679874  0.74863967  0.42597637  1
  La3+  La7  1  0.48349906  0.87069666  0.59583046  1
  La3+  La8  1  0.38224792  0.49952017  0.93503191  1
  La3+  La9  1  0.75557016  0.61336467  0.57766766  1
  La3+  La10  1  0.25893506  0.62965378  0.07049283  1
  La3+  La11  1  0.75946356  0.63667359  0.08465820  1
  Ce3+  Ce12  1  0.61800672  0.24550157  0.45034799  1
  Ce3+  Ce13  1  0.63696865  0.74844898  0.93617993  1
  Ce3+  Ce14  1  0.24591159  0.62140214  0.55589599  1
  Ce3+  Ce15  1  0.37179563  0.74194232  0.43851383  1
  Ce3+  Ce16  1  0.50667740  0.63860047  0.06726529  1
  Ce3+  Ce17  1  0.38050592  -0.00693348  0.92083643  1
  Ce3+  Ce18  1  0.50358241  0.11965342  0.05446496  1
  Ce3+  Ce19  1  0.62452996  0.74364181  0.45412737  1
  Ce3+  Ce20  1  0.50706537  0.37882359  0.06154916  1
  Ce3+  Ce21  1  0.62985329  0.25095514  0.94455474  1
  Ce3+  Ce22  1  0.75600467  0.11889429  0.05421759  1
  Ce3+  Ce23  1  0.00373591  0.62395230  0.07225310  1
  Ce3+  Ce24  1  0.50735358  0.88157056  0.05642601  1
  Ce3+  Ce25  1  0.24633708  0.86863006  0.55640516  1
  Pr3+  Pr26  1  0.11822234  -0.00536090  0.42950475  1
  Pr3+  Pr27  1  0.62051048  0.49226443  0.44486346  1
  Pr3+  Pr28  1  0.88236186  0.74486480  0.91627198  1
  Pr3+  Pr29  1  0.12863560  0.74204670  0.93838327  1
  Pr3+  Pr30  1  0.00485019  0.12498360  0.06981716  1
  Pr3+  Pr31  1  -0.00692621  0.62050763  0.54247002  1
  Pr3+  Pr32  1  0.48749585  0.37225978  0.58021987  1
  Pr3+  Pr33  1  -0.00081422  0.37095934  0.55840659  1
  Pr3+  Pr34  1  0.87006869  0.24673860  0.43477277  1
  Pr3+  Pr35  1  0.74740033  0.36850331  0.56699915  1
  Pr3+  Pr36  1  0.88268151  0.25208281  0.93505610  1
  Pr3+  Pr37  1  0.36990408  0.24392578  0.44319126  1
  Pr3+  Pr38  1  0.37325710  -0.01169250  0.43444601  1
  Nd3+  Nd39  1  -0.00637277  0.86743353  0.55920809  1
  Nd3+  Nd40  1  0.12813465  0.49875679  0.94847618  1
  Nd3+  Nd41  1  0.62329469  -0.00975278  0.44482948  1
  Nd3+  Nd42  1  -0.00401504  0.11688945  0.55467801  1
  Nd3+  Nd43  1  0.49343021  0.11661531  0.56201923  1
  Nd3+  Nd44  1  0.38861229  0.74764425  0.92626937  1
  Nd3+  Nd45  1  0.24082235  0.37337532  0.56617487  1
  Nd3+  Nd46  1  0.25948878  0.37420281  0.06443638  1
  Nd3+  Nd47  1  0.25801476  0.12459851  0.04666799  1
  Nd3+  Nd48  1  0.75813530  0.87963458  0.05586728  1
  Nd3+  Nd49  1  0.12826485  0.00098804  0.93910117  1
  Nd3+  Nd50  1  0.38135168  0.25406717  0.92846132  1
  Nd3+  Nd51  1  0.85811892  0.74363085  0.42811554  1
  Sm3+  Sm52  1  0.12783897  0.25333292  0.94865599  1
  Sm3+  Sm53  1  0.63417672  0.50493745  0.94975755  1
  Sm3+  Sm54  1  0.49666913  0.61812973  0.56706396  1
  Sm3+  Sm55  1  0.87997423  0.50360029  0.94865277  1
  Sm3+  Sm56  1  0.12072077  0.24876275  0.43786507  1
  Sm3+  Sm57  1  0.74446117  0.11780067  0.56084372  1
  Sm3+  Sm58  1  0.25691555  0.87696017  0.05271499  1
  Sm3+  Sm59  1  0.00337761  0.87391301  0.05305056  1
  Sm3+  Sm60  1  0.86771175  -0.00704167  0.44794496  1
  Sm3+  Sm61  1  0.75343241  0.37524332  0.05950984  1
  Sm3+  Sm62  1  0.24456713  0.11622923  0.55294671  1
  Sm3+  Sm63  1  0.36984107  0.49178998  0.44202170  1
  Bi2+  Bi64  1  -0.06317214  0.17103905  0.31248873  1
  Bi2+  Bi65  1  0.01155849  0.15134322  0.79437844  1
  Bi2+  Bi66  1  0.00855777  0.34434212  0.28202665  1
  Bi2+  Bi67  1  -0.02858711  0.36223560  0.80799316  1
  Bi2+  Bi68  1  -0.00238855  0.67055376  0.28693548  1
  Bi2+  Bi69  1  0.02291896  0.61050162  0.79018087  1
  Bi2+  Bi70  1  -0.00135043  0.96189304  0.29847516  1
  Bi2+  Bi71  1  0.01440842  0.87689374  0.78861856  1
  Bi2+  Bi72  1  0.13065742  0.11336480  0.31294078  1
  Bi2+  Bi73  1  0.21942916  0.12150143  0.78909299  1
  Bi2+  Bi74  1  0.28201891  0.35925126  0.29028224  1
  Bi2+  Bi75  1  0.24950226  0.31922328  0.78612852  1
  Bi2+  Bi76  1  0.30320100  0.65693271  0.29264586  1
  Bi2+  Bi77  1  0.24747320  0.64836978  0.79543758  1
  Bi2+  Bi78  1  0.25182197  0.95934823  0.29213500  1
  Bi2+  Bi79  1  0.20970905  0.90561709  0.78596489  1
  Bi2+  Bi80  1  0.47789430  0.15930832  0.28587341  1
  Bi2+  Bi81  1  0.41205591  0.14199578  0.80544375  1
  Bi2+  Bi82  1  0.53658384  0.36989513  0.29245423  1
  Bi2+  Bi83  1  0.50739524  0.34481001  0.79285569  1
  Bi2+  Bi84  1  0.49353217  0.63423139  0.25748262  1
  Bi2+  Bi85  1  0.51359836  0.61004768  0.79337231  1
  Bi2+  Bi86  1  0.50467314  0.90996214  0.27809298  1
  Bi2+  Bi87  1  0.47232386  0.86231417  0.78672235  1
  Bi2+  Bi88  1  0.75133302  0.11195354  0.28632137  1
  Bi2+  Bi89  1  0.74546203  0.17884343  0.78500818  1
  Bi2+  Bi90  1  0.73939324  0.36397287  0.28889383  1
  Bi2+  Bi91  1  0.77921875  0.38126303  0.79136829  1
  Bi2+  Bi92  1  0.72566794  0.61519663  0.28590215  1
  Bi2+  Bi93  1  0.76194608  0.58985033  0.79629148  1
  Bi2+  Bi94  1  0.75146188  0.86390890  0.30777239  1
  Bi2+  Bi95  1  0.73353793  0.86290488  0.78989959  1
  Bi2+  Bi96  1  0.08664554  0.04533891  0.19241817  1
  Bi2+  Bi97  1  0.14688403  0.01665747  0.69609896  1
  Bi2+  Bi98  1  0.12852409  0.23552320  0.21564187  1
  Bi2+  Bi99  1  0.08815544  0.25330728  0.70462203  1
  Bi2+  Bi100  1  0.15678825  0.50567610  0.21126352  1
  Bi2+  Bi101  1  0.11661249  0.44231328  0.73928460  1
  Bi2+  Bi102  1  0.13053974  0.86046051  0.22091848  1
  Bi2+  Bi103  1  0.13742965  0.74442313  0.72270537  1
  Bi2+  Bi104  1  0.38784424  0.01246521  0.20640765  1
  Bi2+  Bi105  1  0.35078202  0.00074547  0.71538352  1
  Bi2+  Bi106  1  0.32923831  0.20631552  0.21901654  1
  Bi2+  Bi107  1  0.42300287  0.24462642  0.70744133  1
  Bi2+  Bi108  1  0.40888750  0.46237289  0.21681687  1
  Bi2+  Bi109  1  0.37272611  0.49617607  0.70762014  1
  Bi2+  Bi110  1  0.37082575  0.76181659  0.20373141  1
  Bi2+  Bi111  1  0.34001851  0.73381902  0.70936654  1
  Bi2+  Bi112  1  0.64141296  0.00076295  0.20731620  1
  Bi2+  Bi113  1  0.61285660  0.02669273  0.71282867  1
  Bi2+  Bi114  1  0.62437783  0.20071830  0.21093918  1
  Bi2+  Bi115  1  0.61704583  0.22604932  0.69941712  1
  Bi2+  Bi116  1  0.63329302  0.40327877  0.19290977  1
  Bi2+  Bi117  1  0.62815813  0.42043010  0.71126284  1
  Bi2+  Bi118  1  0.61396993  0.79147441  0.21600951  1
  Bi2+  Bi119  1  0.60070377  0.72704289  0.72441468  1
  Bi2+  Bi120  1  0.89534536  0.02842692  0.19760015  1
  Bi2+  Bi121  1  0.89911993  -0.00216706  0.70381655  1
  Bi2+  Bi122  1  0.84638179  0.21923798  0.20508862  1
  Bi2+  Bi123  1  0.88216053  0.27939691  0.70733187  1
  Bi2+  Bi124  1  0.87124426  0.51072417  0.20380578  1
  Bi2+  Bi125  1  0.90705197  0.47191198  0.70165716  1
  Bi2+  Bi126  1  0.87128298  0.79254687  0.21027696  1
  Bi2+  Bi127  1  0.89824096  0.72870381  0.69803662  1
  S2-  S128  1  0.00104864  0.24297133  0.14688465  1
  S2-  S129  1  0.00652892  0.10425864  0.65315189  1
  S2-  S130  1  0.01985681  0.49366032  0.15185657  1
  S2-  S131  1  0.11206380  0.37748471  0.63828271  1
  S2-  S132  1  -0.09634128  0.65120159  0.15249984  1
  S2-  S133  1  -0.04713863  0.60700361  0.64162202  1
  S2-  S134  1  -0.00703005  0.84777051  0.15285190  1
  S2-  S135  1  -0.00793592  0.86658476  0.65935607  1
  S2-  S136  1  0.27603942  0.10329031  0.14440880  1
  S2-  S137  1  0.25533753  0.11936062  0.65119198  1
  S2-  S138  1  0.23032274  0.38568069  0.16250072  1
  S2-  S139  1  0.34673637  0.36442368  0.64639978  1
  S2-  S140  1  0.24245664  0.62460678  0.17138176  1
  S2-  S141  1  0.26915926  0.58844745  0.65252951  1
  S2-  S142  1  0.25893005  0.85165217  0.15103475  1
  S2-  S143  1  0.32443752  0.87210768  0.64468483  1
  S2-  S144  1  0.50561930  0.00780120  0.13028997  1
  S2-  S145  1  0.48239198  0.03436339  0.64973331  1
  S2-  S146  1  0.47774995  0.33899617  0.15481567  1
  S2-  S147  1  0.50884884  0.50395108  0.64907150  1
  S2-  S148  1  0.48341614  0.56904578  0.15746592  1
  S2-  S149  1  0.47758321  0.71180845  0.65076685  1
  S2-  S150  1  0.50148843  0.77869613  0.13635478  1
  S2-  S151  1  0.60842010  0.88040541  0.66631279  1
  S2-  S152  1  0.75915262  0.00944610  0.13169117  1
  S2-  S153  1  0.75676406  0.05422872  0.65173285  1
  S2-  S154  1  0.82748591  0.37296596  0.14842401  1
  S2-  S155  1  0.75755051  0.47339757  0.64670466  1
  S2-  S156  1  0.71760242  0.56391551  0.18131447  1
  S2-  S157  1  0.73827429  0.68527290  0.67058333  1
  S2-  S158  1  0.74505804  0.78795408  0.14419416  1
  S2-  S159  1  0.80306620  0.87065560  0.69305463  1
  S2-  S160  1  0.12355497  -0.11835731  0.35258200  1
  S2-  S161  1  0.03768822  0.01185719  0.85472497  1
  S2-  S162  1  0.14260520  0.33271079  0.35260784  1
  S2-  S163  1  0.11172475  0.28878723  0.85334640  1
  S2-  S164  1  0.05282147  0.49902033  0.29920519  1
  S2-  S165  1  0.14317882  0.54831024  0.85315615  1
  S2-  S166  1  0.14652672  0.65993082  0.34044923  1
  S2-  S167  1  0.02833916  0.74253827  0.85491639  1
  S2-  S168  1  0.37580421  0.04975677  0.34043429  1
  S2-  S169  1  0.49719681  0.00735534  0.84583051  1
  S2-  S170  1  0.40050960  0.29152047  0.34868429  1
  S2-  S171  1  0.36829389  0.37599501  0.85618851  1
  S2-  S172  1  0.30257992  0.50173616  0.34983823  1
  S2-  S173  1  0.37717749  0.61130391  0.85683159  1
  S2-  S174  1  0.36079281  0.78782241  0.34410903  1
  S2-  S175  1  0.34596785  0.86524488  0.85116414  1
  S2-  S176  1  0.62008073  -0.04198050  0.34596537  1
  S2-  S177  1  0.70602407  0.01018913  0.82421573  1
  S2-  S178  1  0.63986019  0.26811895  0.35515560  1
  S2-  S179  1  0.61605072  0.23974523  0.84717968  1
  S2-  S180  1  0.69426294  0.50339967  0.35345105  1
  S2-  S181  1  0.62183654  0.52403402  0.85031025  1
  S2-  S182  1  0.70300819  0.73882592  0.36416309  1
  S2-  S183  1  0.52998160  0.75398253  0.85486975  1
  S2-  S184  1  0.83954006  -0.00486229  0.35087902  1
  S2-  S185  1  0.87300633  -0.12111502  0.84387371  1
  S2-  S186  1  0.87184590  0.35379385  0.35362510  1
  S2-  S187  1  0.87838131  0.14936657  0.85294401  1
  S2-  S188  1  0.86963713  0.58825434  0.32841348  1
  S2-  S189  1  0.88763340  0.57183258  0.85698123  1
  S2-  S190  1  0.92516455  0.78600635  0.33674349  1
  S2-  S191  1  0.73870336  0.72430999  0.85407549  1
  S2-  S192  1  -0.00578142  0.11956638  0.44890125  1
  S2-  S193  1  0.00903390  0.13109796  0.96112570  1
  S2-  S194  1  -0.00015982  0.36949977  0.45225751  1
  S2-  S195  1  0.00279510  0.37708043  0.96306765  1
  S2-  S196  1  -0.00671734  0.61756441  0.43757578  1
  S2-  S197  1  0.00508800  0.62162681  0.96413093  1
  S2-  S198  1  -0.01266103  0.87058410  0.45353860  1
  S2-  S199  1  0.00843018  0.87347263  0.95181462  1
  S2-  S200  1  0.24368868  0.11907908  0.44756393  1
  S2-  S201  1  0.25322191  0.12933452  0.94072977  1
  S2-  S202  1  0.24695839  0.37012642  0.45845843  1
  S2-  S203  1  0.25232323  0.37386247  0.95813436  1
  S2-  S204  1  0.24686014  0.61861956  0.45117105  1
  S2-  S205  1  0.25447925  0.62313785  0.96104098  1
  S2-  S206  1  0.24743888  0.86894415  0.45235379  1
  S2-  S207  1  0.24650602  0.87342426  0.95088332  1
  S2-  S208  1  0.49675758  0.11705021  0.45437018  1
  S2-  S209  1  0.50038146  0.12963773  0.94997913  1
  S2-  S210  1  0.49327551  0.37064247  0.46367570  1
  S2-  S211  1  0.51051358  0.37709529  0.95466820  1
  S2-  S212  1  0.49532074  0.61650052  0.45253972  1
  S2-  S213  1  0.51028038  0.62364902  0.96084666  1
  S2-  S214  1  0.49878845  0.86630867  0.45090878  1
  S2-  S215  1  0.50586828  0.87594221  0.95158126  1
  S2-  S216  1  0.74558525  0.12067033  0.45533983  1
  S2-  S217  1  0.75385071  0.12685902  0.95009571  1
  S2-  S218  1  0.74435514  0.36657066  0.46083972  1
  S2-  S219  1  0.75654863  0.37759663  0.95272614  1
  S2-  S220  1  0.74750852  0.61676934  0.46441618  1
  S2-  S221  1  0.75745378  0.62187165  0.96377304  1
  S2-  S222  1  0.74732803  0.87116523  0.46378448  1
  S2-  S223  1  0.75664246  0.87931366  0.94924749  1
  S2-  S224  1  0.13015679  -0.00017415  0.04535289  1
  S2-  S225  1  0.12025966  -0.00710758  0.54063459  1
  S2-  S226  1  0.13414123  0.24990327  0.05165705  1
  S2-  S227  1  0.12217189  0.23891491  0.54214535  1
  S2-  S228  1  0.13431853  0.49930378  0.05217899  1
  S2-  S229  1  0.12067548  0.50106313  0.54235209  1
  S2-  S230  1  0.13001755  0.75262628  0.04893180  1
  S2-  S231  1  0.11979326  0.74629526  0.54210083  1
  S2-  S232  1  0.37618244  -0.00068471  0.03111257  1
  S2-  S233  1  0.36891628  -0.00503544  0.54134866  1
  S2-  S234  1  0.38181216  0.25005030  0.04050321  1
  S2-  S235  1  0.36842145  0.24005581  0.54871908  1
  S2-  S236  1  0.38067303  0.50067048  0.04818309  1
  S2-  S237  1  0.37037078  0.49760502  0.54452170  1
  S2-  S238  1  0.37665322  0.75478941  0.03826042  1
  S2-  S239  1  0.37199606  0.74395088  0.54349072  1
  S2-  S240  1  0.63068216  0.00311857  0.02960242  1
  S2-  S241  1  0.61998654  -0.00568351  0.55016829  1
  S2-  S242  1  0.63109461  0.24773831  0.05182007  1
  S2-  S243  1  0.61889448  0.24287641  0.55714289  1
  S2-  S244  1  0.63331809  0.50239856  0.05419351  1
  S2-  S245  1  0.62000607  0.49256963  0.54934405  1
  S2-  S246  1  0.63267410  0.75377255  0.04155500  1
  S2-  S247  1  0.62093844  0.74371297  0.55743918  1
  S2-  S248  1  0.88862305  0.00173387  0.03499722  1
  S2-  S249  1  0.86860960  -0.00705425  0.55131445  1
  S2-  S250  1  0.87409190  0.24795534  0.04224456  1
  S2-  S251  1  0.87114748  0.24151207  0.54749898  1
  S2-  S252  1  0.87398768  0.50276342  0.05044841  1
  S2-  S253  1  0.87342383  0.48858814  0.53665165  1
  S2-  S254  1  0.88304339  0.75439697  0.04031679  1
  S2-  S255  1  0.86672762  0.74921897  0.54743031  1
