# generated using pymatgen
data_La12Ce14Pr13Nd13Sm12(BiS2)64
_symmetry_space_group_name_H-M   'P 1'
_cell_length_a   16.19293609
_cell_length_b   16.20851535
_cell_length_c   27.09924241
_cell_angle_alpha   89.91390877
_cell_angle_beta   90.14117339
_cell_angle_gamma   90.00745834
_symmetry_Int_Tables_number   1
_chemical_formula_structural   La12Ce14Pr13Nd13Sm12(BiS2)64
_chemical_formula_sum   'La12 Ce14 Pr13 Nd13 Sm12 Bi64 S128'
_cell_volume   7112.53106329
_cell_formula_units_Z   1
loop_
 _symmetry_equiv_pos_site_id
 _symmetry_equiv_pos_as_xyz
  1  'x, y, z'
loop_
 _atom_type_symbol
 _atom_type_oxidation_number
  La3+  3.0
  Ce3+  3.0
  Pr3+  3.0
  Nd3+  3.0
  Sm3+  3.0
  Bi2+  2.0
  S2-  -2.0
loop_
 _atom_site_type_symbol
 _atom_site_label
 _atom_site_symmetry_multiplicity
 _atom_site_fract_x
 _atom_site_fract_y
 _atom_site_fract_z
 _atom_site_occupancy
  La3+  La0  1  0.00402299  0.88952427  0.08463452  1
  La3+  La1  1  0.47632178  0.12176801  0.59213108  1
  La3+  La2  1  0.59810326  0.00296192  0.43107582  1
  La3+  La3  1  0.35077091  0.50760666  0.40832163  1
  La3+  La4  1  0.60380031  0.50078003  0.43813952  1
  La3+  La5  1  0.00462768  0.62290796  0.07234876  1
  La3+  La6  1  0.51201007  0.13219523  0.06426162  1
  La3+  La7  1  0.26388559  0.13211277  0.07759206  1
  La3+  La8  1  0.88823513  0.51794806  0.90901997  1
  La3+  La9  1  0.62164406  0.51419874  0.91816858  1
  La3+  La10  1  0.51609469  0.38414999  0.06700915  1
  La3+  La11  1  0.51943198  0.63209041  0.07058413  1
  Ce3+  Ce12  1  0.73230020  0.87850069  0.55488939  1
  Ce3+  Ce13  1  0.88049131  0.25935220  0.94075245  1
  Ce3+  Ce14  1  0.75419415  0.38343454  0.04714412  1
  Ce3+  Ce15  1  -0.01430772  0.12676263  0.55739935  1
  Ce3+  Ce16  1  0.85904787  0.75256575  0.44813602  1
  Ce3+  Ce17  1  0.75866590  0.62892342  0.05092148  1
  Ce3+  Ce18  1  0.73440758  0.62274673  0.55950507  1
  Ce3+  Ce19  1  -0.01484436  0.37548491  0.55565472  1
  Ce3+  Ce20  1  0.75270137  0.13422187  0.06138821  1
  Ce3+  Ce21  1  0.12913770  0.75910362  0.94681789  1
  Ce3+  Ce22  1  0.10783523  -0.00060681  0.44165830  1
  Ce3+  Ce23  1  0.35853994  -0.00079262  0.44052879  1
  Ce3+  Ce24  1  0.38022806  0.75849901  0.94702210  1
  Ce3+  Ce25  1  0.63283085  0.01146323  0.93220637  1
  Pr3+  Pr26  1  0.37767107  0.25555145  0.93795291  1
  Pr3+  Pr27  1  0.48177068  0.87332026  0.56765174  1
  Pr3+  Pr28  1  0.10390943  0.50265362  0.43016725  1
  Pr3+  Pr29  1  0.25735615  0.88128753  0.06010041  1
  Pr3+  Pr30  1  0.72767377  0.12626353  0.56137804  1
  Pr3+  Pr31  1  0.35778565  0.25090651  0.43329343  1
  Pr3+  Pr32  1  0.48062381  0.62647637  0.56444398  1
  Pr3+  Pr33  1  0.85397818  0.24933449  0.44331862  1
  Pr3+  Pr34  1  0.38099524  0.50894752  0.94114759  1
  Pr3+  Pr35  1  0.26173838  0.38544769  0.06744832  1
  Pr3+  Pr36  1  0.88329785  0.01004690  0.94042178  1
  Pr3+  Pr37  1  0.10771090  0.24977215  0.43543574  1
  Pr3+  Pr38  1  -0.01746922  0.88499318  0.56834727  1
  Nd3+  Nd39  1  0.51124647  0.88246162  0.05427836  1
  Nd3+  Nd40  1  0.23149346  0.87469362  0.55739223  1
  Nd3+  Nd41  1  0.13176801  0.25742850  0.94782493  1
  Nd3+  Nd42  1  0.00677652  0.13668674  0.06645528  1
  Nd3+  Nd43  1  0.85534019  0.00225478  0.43599542  1
  Nd3+  Nd44  1  0.10272716  0.75273960  0.44043377  1
  Nd3+  Nd45  1  0.62969015  0.75849532  0.92875825  1
  Nd3+  Nd46  1  0.62607685  0.26660068  0.91888383  1
  Nd3+  Nd47  1  0.85874789  0.50102153  0.43597212  1
  Nd3+  Nd48  1  0.23812293  0.37783606  0.55659402  1
  Nd3+  Nd49  1  0.25630700  0.63179571  0.06087025  1
  Nd3+  Nd50  1  -0.01492922  0.62183808  0.56886339  1
  Nd3+  Nd51  1  0.47653918  0.38599510  0.58815605  1
  Sm3+  Sm52  1  0.60012553  0.25360610  0.45387236  1
  Sm3+  Sm53  1  0.23957242  0.12850156  0.55566011  1
  Sm3+  Sm54  1  0.00501793  0.38212201  0.05890429  1
  Sm3+  Sm55  1  0.13110754  0.00858684  0.95023160  1
  Sm3+  Sm56  1  0.38187805  0.00872647  0.94150436  1
  Sm3+  Sm57  1  0.88709673  0.75754093  0.94445414  1
  Sm3+  Sm58  1  0.35849470  0.74916996  0.44189384  1
  Sm3+  Sm59  1  0.23280808  0.62367982  0.55287536  1
  Sm3+  Sm60  1  0.12952724  0.50816325  0.93975591  1
  Sm3+  Sm61  1  0.60749727  0.75001395  0.44896711  1
  Sm3+  Sm62  1  0.75896973  0.88278380  0.04768108  1
  Sm3+  Sm63  1  0.73221437  0.37665234  0.56273178  1
  Bi2+  Bi64  1  0.04212079  0.17684208  0.29320128  1
  Bi2+  Bi65  1  0.00557633  0.09083069  0.79993752  1
  Bi2+  Bi66  1  -0.02700744  0.36991822  0.28746713  1
  Bi2+  Bi67  1  0.05752729  0.35505523  0.79738309  1
  Bi2+  Bi68  1  -0.02224628  0.62989585  0.29213646  1
  Bi2+  Bi69  1  0.07180120  0.61635404  0.77319378  1
  Bi2+  Bi70  1  -0.01220157  0.85534881  0.31381326  1
  Bi2+  Bi71  1  0.08580691  0.87718297  0.78278392  1
  Bi2+  Bi72  1  0.24531439  0.11820802  0.27220360  1
  Bi2+  Bi73  1  0.23859377  0.12250959  0.79289808  1
  Bi2+  Bi74  1  0.16904271  0.37598891  0.27366160  1
  Bi2+  Bi75  1  0.25354981  0.40384040  0.79305391  1
  Bi2+  Bi76  1  0.23635322  0.64223637  0.28675530  1
  Bi2+  Bi77  1  0.26079383  0.60049097  0.79850812  1
  Bi2+  Bi78  1  0.26263781  0.93077716  0.30374225  1
  Bi2+  Bi79  1  0.26839508  0.80241551  0.79501473  1
  Bi2+  Bi80  1  0.53063707  0.12793867  0.30434138  1
  Bi2+  Bi81  1  0.49955105  0.12525151  0.79963834  1
  Bi2+  Bi82  1  0.52875626  0.35949507  0.29875891  1
  Bi2+  Bi83  1  0.49394325  0.38718326  0.78449341  1
  Bi2+  Bi84  1  0.50563502  0.61253597  0.29839209  1
  Bi2+  Bi85  1  0.49336659  0.63944670  0.78193723  1
  Bi2+  Bi86  1  0.53303484  0.87957742  0.30012111  1
  Bi2+  Bi87  1  0.44928949  0.86652391  0.77026885  1
  Bi2+  Bi88  1  0.78815670  0.11079339  0.29965018  1
  Bi2+  Bi89  1  0.81279969  0.07667134  0.75859974  1
  Bi2+  Bi90  1  0.77888018  0.41662246  0.29976132  1
  Bi2+  Bi91  1  0.77041698  0.33842255  0.79450136  1
  Bi2+  Bi92  1  0.78241773  0.59949361  0.25660205  1
  Bi2+  Bi93  1  0.75669601  0.64676995  0.78463606  1
  Bi2+  Bi94  1  0.78190742  0.85597316  0.24339559  1
  Bi2+  Bi95  1  0.70254745  0.87401301  0.80040417  1
  Bi2+  Bi96  1  0.11862052  0.00157720  0.21173931  1
  Bi2+  Bi97  1  0.12402161  0.05027673  0.70635288  1
  Bi2+  Bi98  1  0.02452583  0.26142349  0.19136984  1
  Bi2+  Bi99  1  0.12251370  0.24866884  0.70050248  1
  Bi2+  Bi100  1  0.12056064  0.53159632  0.21308223  1
  Bi2+  Bi101  1  0.13567251  0.47037853  0.70356794  1
  Bi2+  Bi102  1  0.17185642  0.78375227  0.21506846  1
  Bi2+  Bi103  1  0.16326901  0.74816701  0.70053998  1
  Bi2+  Bi104  1  0.39510355  -0.02130000  0.21238171  1
  Bi2+  Bi105  1  0.32532270  -0.01074436  0.71432801  1
  Bi2+  Bi106  1  0.35624765  0.24222153  0.20931520  1
  Bi2+  Bi107  1  0.31406791  0.25173640  0.71750878  1
  Bi2+  Bi108  1  0.36487484  0.47684583  0.20574323  1
  Bi2+  Bi109  1  0.34785025  0.51279577  0.70730191  1
  Bi2+  Bi110  1  0.37243995  0.78964105  0.25380074  1
  Bi2+  Bi111  1  0.44797050  0.74003245  0.68293801  1
  Bi2+  Bi112  1  0.64272889  0.00051026  0.19811799  1
  Bi2+  Bi113  1  0.63004697  -0.01934341  0.70595920  1
  Bi2+  Bi114  1  0.68398586  0.26196541  0.25147749  1
  Bi2+  Bi115  1  0.65256803  0.23152344  0.72003080  1
  Bi2+  Bi116  1  0.61677289  0.50879585  0.19363617  1
  Bi2+  Bi117  1  0.64004337  0.49049262  0.69788013  1
  Bi2+  Bi118  1  0.62837795  0.73871406  0.24308386  1
  Bi2+  Bi119  1  0.63113500  0.75840082  0.71551823  1
  Bi2+  Bi120  1  0.83273825  0.05757179  0.19461481  1
  Bi2+  Bi121  1  0.88975936  -0.06986267  0.69577440  1
  Bi2+  Bi122  1  0.83341795  0.24995085  0.17416651  1
  Bi2+  Bi123  1  0.93137750  0.23710041  0.73517960  1
  Bi2+  Bi124  1  0.85821166  0.44979533  0.19322262  1
  Bi2+  Bi125  1  0.87914856  0.50930318  0.70132011  1
  Bi2+  Bi126  1  0.90601524  0.72361696  0.19995574  1
  Bi2+  Bi127  1  0.87854468  0.79759943  0.78085415  1
  S2-  S128  1  -0.01001271  0.03701395  0.14717111  1
  S2-  S129  1  -0.02219503  0.05113584  0.64416804  1
  S2-  S130  1  0.00330670  0.47850382  0.14044238  1
  S2-  S131  1  -0.00820809  0.42021148  0.64994174  1
  S2-  S132  1  0.06752295  0.67334460  0.16366304  1
  S2-  S133  1  -0.02879107  0.62668578  0.66928655  1
  S2-  S134  1  0.02144997  0.85812176  0.18795940  1
  S2-  S135  1  0.02212582  0.84139640  0.66324978  1
  S2-  S136  1  0.18690310  0.13833525  0.16986135  1
  S2-  S137  1  0.32104512  0.12365473  0.64297397  1
  S2-  S138  1  0.24535887  0.35906329  0.16790905  1
  S2-  S139  1  0.32908722  0.37117276  0.64327488  1
  S2-  S140  1  0.25832513  0.57812228  0.15576793  1
  S2-  S141  1  0.22642961  0.60486291  0.65108451  1
  S2-  S142  1  0.25190765  0.91428019  0.15869164  1
  S2-  S143  1  0.26394081  0.87504119  0.65547325  1
  S2-  S144  1  0.40267586  0.12373690  0.14580735  1
  S2-  S145  1  0.51544899  0.15921057  0.69605889  1
  S2-  S146  1  0.45684899  0.34398705  0.16497450  1
  S2-  S147  1  0.54762901  0.35436568  0.68213961  1
  S2-  S148  1  0.46864828  0.57931267  0.16532192  1
  S2-  S149  1  0.49267952  0.53258156  0.64839058  1
  S2-  S150  1  0.51857281  0.90859974  0.15337914  1
  S2-  S151  1  0.49870043  0.97261780  0.64949475  1
  S2-  S152  1  0.63806619  0.13303235  0.13736582  1
  S2-  S153  1  0.73148427  0.11390255  0.66218918  1
  S2-  S154  1  0.66029223  0.39180823  0.13056893  1
  S2-  S155  1  0.75957555  0.38684862  0.66099100  1
  S2-  S156  1  0.66650757  0.63563770  0.13341835  1
  S2-  S157  1  0.74881538  0.60597300  0.65748667  1
  S2-  S158  1  0.76919374  0.90145502  0.14580444  1
  S2-  S159  1  0.73346470  0.86975813  0.65305688  1
  S2-  S160  1  0.10387299  -0.03215911  0.34518568  1
  S2-  S161  1  0.13381388  0.00332285  0.85189152  1
  S2-  S162  1  0.18554585  0.24627943  0.34460465  1
  S2-  S163  1  0.17349657  0.25761138  0.85128834  1
  S2-  S164  1  0.20481071  0.49770505  0.34669212  1
  S2-  S165  1  0.04072395  0.50846557  0.85465969  1
  S2-  S166  1  0.11027465  0.72908558  0.34064166  1
  S2-  S167  1  0.09875748  0.74894899  0.85007127  1
  S2-  S168  1  0.45571799  0.00811582  0.35984786  1
  S2-  S169  1  0.37290107  0.04612043  0.84546914  1
  S2-  S170  1  0.41831186  0.23744194  0.33571772  1
  S2-  S171  1  0.44317561  0.27032283  0.84378876  1
  S2-  S172  1  0.40883024  0.46493594  0.31114954  1
  S2-  S173  1  0.46213678  0.51434889  0.85171910  1
  S2-  S174  1  0.36892901  0.66385301  0.35666369  1
  S2-  S175  1  0.42039743  0.75547408  0.85156138  1
  S2-  S176  1  0.65952122  0.01273779  0.33487259  1
  S2-  S177  1  0.59321585  -0.00883465  0.83675411  1
  S2-  S178  1  0.62986702  0.24553078  0.35609804  1
  S2-  S179  1  0.65616123  0.19606680  0.82671406  1
  S2-  S180  1  0.61790159  0.49848521  0.33695040  1
  S2-  S181  1  0.63123830  0.39657529  0.84173973  1
  S2-  S182  1  0.60140556  0.74154004  0.35072186  1
  S2-  S183  1  0.63166870  0.65094091  0.84924183  1
  S2-  S184  1  0.88575814  -0.02732751  0.33860552  1
  S2-  S185  1  0.87774703  -0.00311104  0.83996878  1
  S2-  S186  1  0.89820767  0.22292260  0.34659176  1
  S2-  S187  1  0.90572648  0.26298630  0.84411208  1
  S2-  S188  1  0.97163903  0.50903716  0.35946500  1
  S2-  S189  1  0.83352109  0.48605570  0.80913934  1
  S2-  S190  1  0.87504759  0.74183849  0.35088328  1
  S2-  S191  1  0.88427292  0.67937256  0.85695941  1
  S2-  S192  1  -0.01668426  0.12408701  0.45161599  1
  S2-  S193  1  0.00859274  0.13318107  0.95813051  1
  S2-  S194  1  -0.01832035  0.37189799  0.45093909  1
  S2-  S195  1  0.00787520  0.38242814  0.95443877  1
  S2-  S196  1  -0.01820778  0.62752970  0.46063060  1
  S2-  S197  1  0.00896476  0.63265673  0.96201963  1
  S2-  S198  1  -0.01885164  0.87905669  0.45897802  1
  S2-  S199  1  0.00630885  0.88485423  0.95955618  1
  S2-  S200  1  0.23430059  0.12309671  0.45016271  1
  S2-  S201  1  0.25620068  0.12944300  0.96214682  1
  S2-  S202  1  0.23353216  0.37678059  0.45041743  1
  S2-  S203  1  0.25448853  0.38526935  0.95612520  1
  S2-  S204  1  0.22887412  0.63036339  0.45015535  1
  S2-  S205  1  0.25369310  0.63242631  0.95266040  1
  S2-  S206  1  0.23391308  0.87151938  0.45035194  1
  S2-  S207  1  0.25636903  0.88554832  0.95202773  1
  S2-  S208  1  0.48147212  0.13075968  0.46133041  1
  S2-  S209  1  0.50581439  0.13174701  0.95111637  1
  S2-  S210  1  0.47933949  0.37837856  0.44473485  1
  S2-  S211  1  0.50206952  0.38120651  0.95522489  1
  S2-  S212  1  0.48345713  0.62791500  0.45709319  1
  S2-  S213  1  0.50376976  0.63866115  0.95950989  1
  S2-  S214  1  0.48136902  0.86870288  0.45864335  1
  S2-  S215  1  0.50636906  0.88406134  0.94765007  1
  S2-  S216  1  0.72787345  0.12778239  0.45437408  1
  S2-  S217  1  0.75690978  0.13423806  0.94890130  1
  S2-  S218  1  0.73242825  0.37601415  0.45548963  1
  S2-  S219  1  0.76121476  0.38693375  0.94081170  1
  S2-  S220  1  0.73365302  0.62579343  0.45080458  1
  S2-  S221  1  0.75922811  0.63606606  0.94843924  1
  S2-  S222  1  0.72997960  0.87609589  0.44741513  1
  S2-  S223  1  0.75960221  0.87881944  0.94318807  1
  S2-  S224  1  0.13285776  0.00796548  0.05375982  1
  S2-  S225  1  0.11501762  0.00482084  0.54838096  1
  S2-  S226  1  0.13247149  0.26077861  0.05438068  1
  S2-  S227  1  0.11359684  0.25023048  0.54559471  1
  S2-  S228  1  0.13512105  0.50441086  0.04448531  1
  S2-  S229  1  0.11019611  0.50051142  0.54179560  1
  S2-  S230  1  0.13003642  0.75914567  0.05386217  1
  S2-  S231  1  0.10736862  0.74880792  0.54816432  1
  S2-  S232  1  0.38387139  0.00289935  0.04566998  1
  S2-  S233  1  0.35695182  -0.00227801  0.54480820  1
  S2-  S234  1  0.38322986  0.25993041  0.04567340  1
  S2-  S235  1  0.36297099  0.25276624  0.54255709  1
  S2-  S236  1  0.38414620  0.50926440  0.04826574  1
  S2-  S237  1  0.35739539  0.50383614  0.54067424  1
  S2-  S238  1  0.38468871  0.75583485  0.05641744  1
  S2-  S239  1  0.35399864  0.74901875  0.54680554  1
  S2-  S240  1  0.63571813  0.00276859  0.03801099  1
  S2-  S241  1  0.60579607  0.00156342  0.54359732  1
  S2-  S242  1  0.63422959  0.25734564  0.02999248  1
  S2-  S243  1  0.60261995  0.25584930  0.55919954  1
  S2-  S244  1  0.63432004  0.50972223  0.02833127  1
  S2-  S245  1  0.60889564  0.49605319  0.54653316  1
  S2-  S246  1  0.63704414  0.76260684  0.03626701  1
  S2-  S247  1  0.60994535  0.74937238  0.55377730  1
  S2-  S248  1  0.87940693  0.00904088  0.04544151  1
  S2-  S249  1  0.85464740  0.00460310  0.54338163  1
  S2-  S250  1  0.88208234  0.25842392  0.04700859  1
  S2-  S251  1  0.85632559  0.25132993  0.55234110  1
  S2-  S252  1  0.87949728  0.50366168  0.03778787  1
  S2-  S253  1  0.85815999  0.49780399  0.54328728  1
  S2-  S254  1  0.88370056  0.75912868  0.05095968  1
  S2-  S255  1  0.86138056  0.75089695  0.55555204  1
