# generated using pymatgen
data_La12Ce14Pr13Nd13Sm12(BiS2)64
_symmetry_space_group_name_H-M   'P 1'
_cell_length_a   16.05824304
_cell_length_b   16.09128652
_cell_length_c   27.21731607
_cell_angle_alpha   89.65610209
_cell_angle_beta   89.38809152
_cell_angle_gamma   90.15167675
_symmetry_Int_Tables_number   1
_chemical_formula_structural   La12Ce14Pr13Nd13Sm12(BiS2)64
_chemical_formula_sum   'La12 Ce14 Pr13 Nd13 Sm12 Bi64 S128'
_cell_volume   7032.34071108
_cell_formula_units_Z   1
loop_
 _symmetry_equiv_pos_site_id
 _symmetry_equiv_pos_as_xyz
  1  'x, y, z'
loop_
 _atom_type_symbol
 _atom_type_oxidation_number
  La3+  3.0
  Ce3+  3.0
  Pr3+  3.0
  Nd3+  3.0
  Sm3+  3.0
  Bi2+  2.0
  S2-  -2.0
loop_
 _atom_site_type_symbol
 _atom_site_label
 _atom_site_symmetry_multiplicity
 _atom_site_fract_x
 _atom_site_fract_y
 _atom_site_fract_z
 _atom_site_occupancy
  La3+  La0  1  0.23936687  0.38416285  0.08836917  1
  La3+  La1  1  0.13926994  0.73076200  0.42836928  1
  La3+  La2  1  0.75076225  0.85428513  0.58531987  1
  La3+  La3  1  0.00567416  0.36292964  0.57152619  1
  La3+  La4  1  0.13274808  0.75830453  0.89773262  1
  La3+  La5  1  0.63255517  0.23245242  0.41578739  1
  La3+  La6  1  0.63360208  0.49191670  0.41852176  1
  La3+  La7  1  0.01251775  0.85534591  0.58478132  1
  La3+  La8  1  0.11721068  0.50022562  0.92993600  1
  La3+  La9  1  0.89064643  0.74796964  0.43176049  1
  La3+  La10  1  0.37626217  0.26854994  0.92529722  1
  La3+  La11  1  0.73947721  0.88423099  0.07487294  1
  Ce3+  Ce12  1  0.13198188  0.48358505  0.43806868  1
  Ce3+  Ce13  1  0.86965372  0.76211223  0.94050838  1
  Ce3+  Ce14  1  0.13693183  0.24654639  0.42835211  1
  Ce3+  Ce15  1  0.75309487  0.36373640  0.54811526  1
  Ce3+  Ce16  1  0.88149736  -0.01747500  0.44951078  1
  Ce3+  Ce17  1  0.86979170  0.00551926  0.93376010  1
  Ce3+  Ce18  1  0.24132755  0.63126677  0.05780047  1
  Ce3+  Ce19  1  -0.00414317  0.63506044  0.05255747  1
  Ce3+  Ce20  1  0.50582436  0.85932164  0.56008170  1
  Ce3+  Ce21  1  -0.00642568  0.13064956  0.05664904  1
  Ce3+  Ce22  1  0.50596332  0.61084217  0.55434986  1
  Ce3+  Ce23  1  0.86874508  0.26115818  0.94561048  1
  Ce3+  Ce24  1  0.49360116  0.38330706  0.06349983  1
  Ce3+  Ce25  1  0.24391854  0.88575085  0.05808107  1
  Pr3+  Pr26  1  0.12094961  0.01314505  0.93009041  1
  Pr3+  Pr27  1  0.25730446  0.35490545  0.57446520  1
  Pr3+  Pr28  1  0.61589562  0.00147151  0.91934070  1
  Pr3+  Pr29  1  0.49108261  0.63481172  0.07504478  1
  Pr3+  Pr30  1  0.24453597  0.13021723  0.06542112  1
  Pr3+  Pr31  1  0.25387878  0.11215436  0.56152275  1
  Pr3+  Pr32  1  0.38347119  -0.01064658  0.44218127  1
  Pr3+  Pr33  1  0.37365984  0.76063649  0.93772364  1
  Pr3+  Pr34  1  0.63277132  0.26001731  0.93098656  1
  Pr3+  Pr35  1  0.12877918  -0.01455782  0.43826123  1
  Pr3+  Pr36  1  0.73895963  0.38420767  0.07429875  1
  Pr3+  Pr37  1  0.63555464  0.73938617  0.43109314  1
  Pr3+  Pr38  1  0.36679263  0.51299120  0.93582970  1
  Nd3+  Nd39  1  0.38248739  0.23791483  0.43489308  1
  Nd3+  Nd40  1  0.50707999  0.11289738  0.56476497  1
  Nd3+  Nd41  1  0.88176467  0.24275313  0.42951113  1
  Nd3+  Nd42  1  -0.01388629  0.38630414  0.07378902  1
  Nd3+  Nd43  1  0.50640271  0.36295689  0.56197398  1
  Nd3+  Nd44  1  0.49308841  0.13376338  0.05382839  1
  Nd3+  Nd45  1  0.62139253  0.76078208  0.94402431  1
  Nd3+  Nd46  1  0.75753173  0.11354679  0.55916438  1
  Nd3+  Nd47  1  0.74266954  0.63491662  0.09105006  1
  Nd3+  Nd48  1  0.38370725  0.73608205  0.43496105  1
  Nd3+  Nd49  1  0.86783383  0.51286388  0.94133060  1
  Nd3+  Nd50  1  0.74181828  0.12688166  0.06012790  1
  Nd3+  Nd51  1  0.62509963  0.51386026  0.94248877  1
  Sm3+  Sm52  1  0.25590921  0.85776664  0.55829144  1
  Sm3+  Sm53  1  -0.00518864  0.88106751  0.05352520  1
  Sm3+  Sm54  1  0.36862514  0.01986864  0.93174209  1
  Sm3+  Sm55  1  0.88494411  0.49697256  0.42998401  1
  Sm3+  Sm56  1  0.75590022  0.61359676  0.55653291  1
  Sm3+  Sm57  1  0.49279097  0.88589922  0.06324558  1
  Sm3+  Sm58  1  0.00512817  0.11286973  0.54983049  1
  Sm3+  Sm59  1  0.63434739  -0.01340089  0.44400162  1
  Sm3+  Sm60  1  0.38364353  0.48205918  0.44358888  1
  Sm3+  Sm61  1  0.00435062  0.61193126  0.56382856  1
  Sm3+  Sm62  1  0.12060404  0.26448019  0.95062943  1
  Sm3+  Sm63  1  0.25402984  0.60946021  0.55987113  1
  Bi2+  Bi64  1  -0.05360682  0.13475131  0.29094406  1
  Bi2+  Bi65  1  0.04730487  0.13599975  0.80584086  1
  Bi2+  Bi66  1  -0.01142671  0.32357590  0.30387662  1
  Bi2+  Bi67  1  -0.02925971  0.32865874  0.82705167  1
  Bi2+  Bi68  1  0.02394577  0.67237330  0.28788352  1
  Bi2+  Bi69  1  -0.02806547  0.57845604  0.77169135  1
  Bi2+  Bi70  1  -0.00544969  0.93936742  0.30231550  1
  Bi2+  Bi71  1  -0.01181526  0.87406082  0.78684203  1
  Bi2+  Bi72  1  0.27639676  0.10651891  0.28851919  1
  Bi2+  Bi73  1  0.23323406  0.05653463  0.80035912  1
  Bi2+  Bi74  1  0.21818926  0.37680283  0.25173030  1
  Bi2+  Bi75  1  0.24278086  0.42790111  0.79360894  1
  Bi2+  Bi76  1  0.27279251  0.60055458  0.30122673  1
  Bi2+  Bi77  1  0.33483167  0.64034735  0.79240547  1
  Bi2+  Bi78  1  0.26584879  0.83482628  0.26626890  1
  Bi2+  Bi79  1  0.26527292  0.86831873  0.76258422  1
  Bi2+  Bi80  1  0.50560823  0.10945783  0.29141952  1
  Bi2+  Bi81  1  0.50668187  0.13103924  0.80390011  1
  Bi2+  Bi82  1  0.38226746  0.34190923  0.29742567  1
  Bi2+  Bi83  1  0.52422400  0.44492836  0.77206705  1
  Bi2+  Bi84  1  0.49874831  0.69607267  0.30537218  1
  Bi2+  Bi85  1  0.50459623  0.63096238  0.85256671  1
  Bi2+  Bi86  1  0.53457166  0.88202496  0.30109226  1
  Bi2+  Bi87  1  0.47884114  0.89007298  0.77145328  1
  Bi2+  Bi88  1  0.75838847  0.06361820  0.28816995  1
  Bi2+  Bi89  1  0.71584179  0.24442589  0.72598935  1
  Bi2+  Bi90  1  0.74421102  0.33218126  0.27345137  1
  Bi2+  Bi91  1  0.70572816  0.38436940  0.80571193  1
  Bi2+  Bi92  1  0.77593403  0.57497870  0.28974128  1
  Bi2+  Bi93  1  0.68354350  0.64191701  0.79775605  1
  Bi2+  Bi94  1  0.72747862  0.86305722  0.29740125  1
  Bi2+  Bi95  1  0.75286317  0.92308670  0.80380947  1
  Bi2+  Bi96  1  0.15618374  -0.01632498  0.23129179  1
  Bi2+  Bi97  1  0.10312098  0.05737087  0.70339584  1
  Bi2+  Bi98  1  0.09547139  0.23418152  0.22139454  1
  Bi2+  Bi99  1  0.16638165  0.24084532  0.72857993  1
  Bi2+  Bi100  1  0.11393184  0.52868013  0.22266173  1
  Bi2+  Bi101  1  0.11044155  0.48025112  0.71040772  1
  Bi2+  Bi102  1  0.21547398  0.70850678  0.18566433  1
  Bi2+  Bi103  1  0.13314191  0.72207832  0.70209502  1
  Bi2+  Bi104  1  0.37007349  -0.03630937  0.20021296  1
  Bi2+  Bi105  1  0.35969174  0.01390011  0.70465831  1
  Bi2+  Bi106  1  0.39098186  0.23151513  0.18992393  1
  Bi2+  Bi107  1  0.35841519  0.27886604  0.72610233  1
  Bi2+  Bi108  1  0.41361808  0.58964761  0.21933681  1
  Bi2+  Bi109  1  0.39242138  0.53628841  0.70080971  1
  Bi2+  Bi110  1  0.39887318  0.77343226  0.17209210  1
  Bi2+  Bi111  1  0.38504375  0.82284606  0.67361028  1
  Bi2+  Bi112  1  0.61630078  0.00265996  0.20749000  1
  Bi2+  Bi113  1  0.62640719  -0.00568073  0.70053130  1
  Bi2+  Bi114  1  0.58672370  0.25145984  0.21774896  1
  Bi2+  Bi115  1  0.54128843  0.30618435  0.69062716  1
  Bi2+  Bi116  1  0.57797103  0.48394088  0.22575741  1
  Bi2+  Bi117  1  0.67496976  0.51395911  0.70404921  1
  Bi2+  Bi118  1  0.63684952  0.75109942  0.22011698  1
  Bi2+  Bi119  1  0.51496049  0.70873959  0.73619428  1
  Bi2+  Bi120  1  0.91663628  -0.00078752  0.19803053  1
  Bi2+  Bi121  1  0.87777182  0.04580339  0.70302081  1
  Bi2+  Bi122  1  0.76320909  0.18458367  0.19298639  1
  Bi2+  Bi123  1  0.92608578  0.25327731  0.72969728  1
  Bi2+  Bi124  1  0.92304295  0.47608664  0.20657506  1
  Bi2+  Bi125  1  0.86352131  0.44699874  0.71511544  1
  Bi2+  Bi126  1  0.91272923  0.74508436  0.20837057  1
  Bi2+  Bi127  1  0.82751603  0.68620349  0.72644332  1
  S2-  S128  1  0.00964379  0.12207600  0.15425016  1
  S2-  S129  1  -0.01272930  0.15788254  0.64429101  1
  S2-  S130  1  0.08944711  0.38496835  0.15541438  1
  S2-  S131  1  -0.01888913  0.49567097  0.64139786  1
  S2-  S132  1  -0.00527498  0.62244913  0.15186556  1
  S2-  S133  1  0.00183920  0.71207360  0.64771246  1
  S2-  S134  1  -0.00336578  0.86922300  0.15384615  1
  S2-  S135  1  -0.00904313  0.92976636  0.68314627  1
  S2-  S136  1  0.24000587  0.22121234  0.15254360  1
  S2-  S137  1  0.27225013  0.19998052  0.64707884  1
  S2-  S138  1  0.38925156  0.38010206  0.14384061  1
  S2-  S139  1  0.12971709  0.35409631  0.64785430  1
  S2-  S140  1  0.24079510  0.54850884  0.14376254  1
  S2-  S141  1  0.23492431  0.59112419  0.65938105  1
  S2-  S142  1  0.23610101  0.99377366  0.13702723  1
  S2-  S143  1  0.17082751  0.84676339  0.64375359  1
  S2-  S144  1  0.47541096  0.08092650  0.15099782  1
  S2-  S145  1  0.49721653  0.09254913  0.66455570  1
  S2-  S146  1  0.60712253  0.38966478  0.14783256  1
  S2-  S147  1  0.39262359  0.37881592  0.64283691  1
  S2-  S148  1  0.59832093  0.62502730  0.15603296  1
  S2-  S149  1  0.53701307  0.59125123  0.65042480  1
  S2-  S150  1  0.59211362  0.87968857  0.14569588  1
  S2-  S151  1  0.59412736  0.86318605  0.64347601  1
  S2-  S152  1  0.75811092  0.02300207  0.14323536  1
  S2-  S153  1  0.73030846  0.11930903  0.65804444  1
  S2-  S154  1  0.86303569  0.36347419  0.14836786  1
  S2-  S155  1  0.75352741  0.36556610  0.64655572  1
  S2-  S156  1  0.78689348  0.55537985  0.18569680  1
  S2-  S157  1  0.75470747  0.70027717  0.64343218  1
  S2-  S158  1  0.78004331  0.77148499  0.15400848  1
  S2-  S159  1  0.78153402  0.91683800  0.68589554  1
  S2-  S160  1  0.14911811  0.01945367  0.33860082  1
  S2-  S161  1  0.10971211  -0.08555952  0.84556630  1
  S2-  S162  1  0.12214691  0.37426709  0.36001333  1
  S2-  S163  1  0.13121357  0.34349305  0.86190529  1
  S2-  S164  1  0.12674852  0.59037586  0.35741663  1
  S2-  S165  1  0.20829313  0.56848923  0.84867189  1
  S2-  S166  1  0.04332470  0.79926287  0.35391104  1
  S2-  S167  1  0.06547156  0.72446670  0.80334289  1
  S2-  S168  1  0.38765223  0.00562428  0.34203946  1
  S2-  S169  1  0.46941334  -0.02059789  0.85425783  1
  S2-  S170  1  0.26687132  0.22807607  0.35824321  1
  S2-  S171  1  0.34898097  0.14358861  0.85377309  1
  S2-  S172  1  0.39316659  0.48976209  0.34517932  1
  S2-  S173  1  0.36378818  0.40380745  0.85468019  1
  S2-  S174  1  0.27995030  0.74820397  0.35528809  1
  S2-  S175  1  0.29307161  0.78178430  0.84801535  1
  S2-  S176  1  0.63063003  0.07454311  0.35816203  1
  S2-  S177  1  0.66195287  0.07191290  0.82623139  1
  S2-  S178  1  0.49302866  0.24452472  0.35336842  1
  S2-  S179  1  0.52826676  0.26543122  0.85063927  1
  S2-  S180  1  0.62522774  0.42239324  0.32224745  1
  S2-  S181  1  0.74582375  0.51982209  0.86481231  1
  S2-  S182  1  0.64904952  0.63199230  0.34952829  1
  S2-  S183  1  0.64050795  0.85216164  0.85704472  1
  S2-  S184  1  0.86049649  -0.10665409  0.36495919  1
  S2-  S185  1  0.89729663  0.01588444  0.83436405  1
  S2-  S186  1  0.77262499  0.23395939  0.35045680  1
  S2-  S187  1  0.78641120  0.26856847  0.86058407  1
  S2-  S188  1  0.86424115  0.44173620  0.33460576  1
  S2-  S189  1  0.97553801  0.49526273  0.86036132  1
  S2-  S190  1  0.88394370  0.63848985  0.35073377  1
  S2-  S191  1  0.85926709  0.79952358  0.84297950  1
  S2-  S192  1  0.00508070  0.11513623  0.44439387  1
  S2-  S193  1  -0.00477185  0.13747657  0.94927444  1
  S2-  S194  1  -0.00113690  0.36559357  0.45759690  1
  S2-  S195  1  -0.01085628  0.38174402  0.96748764  1
  S2-  S196  1  0.00636948  0.61153162  0.45850806  1
  S2-  S197  1  0.00124626  0.64401428  0.94616821  1
  S2-  S198  1  0.01011304  0.86616558  0.46884718  1
  S2-  S199  1  -0.00095515  0.88134210  0.94899497  1
  S2-  S200  1  0.25553325  0.10922435  0.45644262  1
  S2-  S201  1  0.23976225  0.13953237  0.95680252  1
  S2-  S202  1  0.26127646  0.36278443  0.46170538  1
  S2-  S203  1  0.24593290  0.38479184  0.96448104  1
  S2-  S204  1  0.26535156  0.60637225  0.45590155  1
  S2-  S205  1  0.24247754  0.64082193  0.95437720  1
  S2-  S206  1  0.25800712  0.86534526  0.45434995  1
  S2-  S207  1  0.24656137  0.88931739  0.95127101  1
  S2-  S208  1  0.50878763  0.11075815  0.45879900  1
  S2-  S209  1  0.50097978  0.13478521  0.95025511  1
  S2-  S210  1  0.51219152  0.36494864  0.45495578  1
  S2-  S211  1  0.50362920  0.39002413  0.95668171  1
  S2-  S212  1  0.50543325  0.61141041  0.44845822  1
  S2-  S213  1  0.49593530  0.63549445  0.96586036  1
  S2-  S214  1  0.50827382  0.86226777  0.45105617  1
  S2-  S215  1  0.49273594  0.88392601  0.95972352  1
  S2-  S216  1  0.76077865  0.10987968  0.45485015  1
  S2-  S217  1  0.74613713  0.12652933  0.95465874  1
  S2-  S218  1  0.75637366  0.36815370  0.44479069  1
  S2-  S219  1  0.74648808  0.38679330  0.96602218  1
  S2-  S220  1  0.75963441  0.61503926  0.45386450  1
  S2-  S221  1  0.74642522  0.64223890  0.96203278  1
  S2-  S222  1  0.75119884  0.86290985  0.46556793  1
  S2-  S223  1  0.74706578  0.88539558  0.96133478  1
  S2-  S224  1  0.11520037  0.00673846  0.03816371  1
  S2-  S225  1  0.12984362  -0.01117474  0.54708320  1
  S2-  S226  1  0.11546329  0.25891740  0.05197896  1
  S2-  S227  1  0.12855551  0.23508378  0.53865639  1
  S2-  S228  1  0.11534148  0.50793978  0.04323023  1
  S2-  S229  1  0.13413275  0.48742542  0.54534161  1
  S2-  S230  1  0.12082734  0.76121047  0.05195614  1
  S2-  S231  1  0.13584600  0.73091294  0.53998814  1
  S2-  S232  1  0.37134838  0.00771532  0.03723838  1
  S2-  S233  1  0.37997036  -0.01458495  0.55032858  1
  S2-  S234  1  0.37080151  0.25626838  0.03979883  1
  S2-  S235  1  0.38584613  0.23544796  0.54205706  1
  S2-  S236  1  0.37163469  0.51227251  0.04399668  1
  S2-  S237  1  0.37969544  0.48920330  0.54637018  1
  S2-  S238  1  0.36866607  0.76018401  0.04564736  1
  S2-  S239  1  0.37844656  0.73433389  0.54233883  1
  S2-  S240  1  0.61443417  0.00766523  0.03973302  1
  S2-  S241  1  0.63138974  -0.01074360  0.54717962  1
  S2-  S242  1  0.62186370  0.25395220  0.04473981  1
  S2-  S243  1  0.63017494  0.23641819  0.54547937  1
  S2-  S244  1  0.62158733  0.51576283  0.04821532  1
  S2-  S245  1  0.63079771  0.48888262  0.53937141  1
  S2-  S246  1  0.61682315  0.75696031  0.04921463  1
  S2-  S247  1  0.62803554  0.73357905  0.53871989  1
  S2-  S248  1  0.87365427  0.00500537  0.04094796  1
  S2-  S249  1  0.88140095  -0.01411631  0.55598144  1
  S2-  S250  1  0.86602387  0.25134105  0.04917274  1
  S2-  S251  1  0.88038107  0.23811013  0.53926161  1
  S2-  S252  1  0.86380488  0.51562854  0.04991367  1
  S2-  S253  1  0.87551663  0.48941353  0.53844271  1
  S2-  S254  1  0.87084983  0.75794519  0.04579171  1
  S2-  S255  1  0.88142747  0.73650422  0.54398337  1
