# generated using pymatgen
data_La12Ce14Pr13Nd13Sm12(BiS2)64
_symmetry_space_group_name_H-M   'P 1'
_cell_length_a   16.15851134
_cell_length_b   16.17082906
_cell_length_c   27.22212665
_cell_angle_alpha   89.90851531
_cell_angle_beta   89.96940021
_cell_angle_gamma   90.02934194
_symmetry_Int_Tables_number   1
_chemical_formula_structural   La12Ce14Pr13Nd13Sm12(BiS2)64
_chemical_formula_sum   'La12 Ce14 Pr13 Nd13 Sm12 Bi64 S128'
_cell_volume   7113.03607138
_cell_formula_units_Z   1
loop_
 _symmetry_equiv_pos_site_id
 _symmetry_equiv_pos_as_xyz
  1  'x, y, z'
loop_
 _atom_type_symbol
 _atom_type_oxidation_number
  La3+  3.0
  Ce3+  3.0
  Pr3+  3.0
  Nd3+  3.0
  Sm3+  3.0
  Bi2+  2.0
  S2-  -2.0
loop_
 _atom_site_type_symbol
 _atom_site_label
 _atom_site_symmetry_multiplicity
 _atom_site_fract_x
 _atom_site_fract_y
 _atom_site_fract_z
 _atom_site_occupancy
  La3+  La0  1  0.87763782  0.50907983  0.93777063  1
  La3+  La1  1  0.12884422  0.50269184  0.42003318  1
  La3+  La2  1  0.01115250  0.11997347  0.56622086  1
  La3+  La3  1  0.37472062  0.50873445  0.95520439  1
  La3+  La4  1  0.89021226  0.76735388  0.90092044  1
  La3+  La5  1  0.88997962  0.24247927  0.42335769  1
  La3+  La6  1  0.12959532  0.75478799  0.39388010  1
  La3+  La7  1  0.01672864  0.61439300  0.58470312  1
  La3+  La8  1  0.76435704  0.12236240  0.57977144  1
  La3+  La9  1  -0.00123404  0.87960707  0.06019991  1
  La3+  La10  1  0.00223277  0.36902424  0.10818129  1
  La3+  La11  1  0.51035025  0.88629757  0.08202423  1
  Ce3+  Ce12  1  0.50556273  0.37648083  0.06731977  1
  Ce3+  Ce13  1  0.38459222  0.24553206  0.43988854  1
  Ce3+  Ce14  1  0.25799787  0.12118240  0.56591487  1
  Ce3+  Ce15  1  0.76383541  0.37489908  0.55711229  1
  Ce3+  Ce16  1  0.13702863  0.24345704  0.43307239  1
  Ce3+  Ce17  1  0.62467740  0.75589421  0.93855917  1
  Ce3+  Ce18  1  0.50416760  0.13231428  0.05893439  1
  Ce3+  Ce19  1  0.75138038  0.13180462  0.05458190  1
  Ce3+  Ce20  1  0.75914087  0.86858423  0.55871555  1
  Ce3+  Ce21  1  0.38259287  0.49905746  0.43215844  1
  Ce3+  Ce22  1  0.88492499  0.49154559  0.42984408  1
  Ce3+  Ce23  1  0.75149711  0.88201152  0.04773831  1
  Ce3+  Ce24  1  0.25884667  0.86506548  0.55264934  1
  Ce3+  Ce25  1  0.24785399  0.37987779  0.06461214  1
  Pr3+  Pr26  1  0.88611089  -0.00632610  0.43780740  1
  Pr3+  Pr27  1  0.12497599  0.25421157  0.94147807  1
  Pr3+  Pr28  1  0.62676359  0.01375448  0.92392457  1
  Pr3+  Pr29  1  0.37912826  0.00332039  0.94645105  1
  Pr3+  Pr30  1  0.01389905  0.37312291  0.55406527  1
  Pr3+  Pr31  1  0.63428964  0.74461291  0.42840995  1
  Pr3+  Pr32  1  0.50414624  0.62851289  0.06961639  1
  Pr3+  Pr33  1  0.37649322  0.25614750  0.94007220  1
  Pr3+  Pr34  1  0.38515747  0.74733425  0.42181581  1
  Pr3+  Pr35  1  0.12477091  0.50908115  0.94563087  1
  Pr3+  Pr36  1  0.62868681  0.26640301  0.93031712  1
  Pr3+  Pr37  1  0.25182518  0.12967821  0.06911008  1
  Pr3+  Pr38  1  0.63989944  -0.00235891  0.44346334  1
  Nd3+  Nd39  1  0.37432093  0.75821365  0.95176214  1
  Nd3+  Nd40  1  0.87408344  0.01010448  0.92519614  1
  Nd3+  Nd41  1  0.38349543  -0.00540489  0.44071880  1
  Nd3+  Nd42  1  0.62564383  0.51268546  0.93319858  1
  Nd3+  Nd43  1  0.76079992  0.62026513  0.55777000  1
  Nd3+  Nd44  1  0.63740311  0.24465151  0.44902621  1
  Nd3+  Nd45  1  0.13434757  0.75505106  0.93309701  1
  Nd3+  Nd46  1  0.26160393  0.62199263  0.55736399  1
  Nd3+  Nd47  1  0.50901638  0.87016229  0.55742390  1
  Nd3+  Nd48  1  0.24867771  0.88398058  0.07179595  1
  Nd3+  Nd49  1  0.88986695  0.74180633  0.44670463  1
  Nd3+  Nd50  1  0.23798889  0.63677110  0.08714857  1
  Nd3+  Nd51  1  0.00011072  0.62820130  0.05931828  1
  Sm3+  Sm52  1  0.50779263  0.37126537  0.55386173  1
  Sm3+  Sm53  1  0.75263428  0.62978136  0.05455012  1
  Sm3+  Sm54  1  0.63373968  0.49646102  0.44511274  1
  Sm3+  Sm55  1  0.50820295  0.12233442  0.55401291  1
  Sm3+  Sm56  1  0.25909148  0.37366262  0.54841218  1
  Sm3+  Sm57  1  -0.00184050  0.13262224  0.05849777  1
  Sm3+  Sm58  1  0.74970410  0.38152564  0.06304239  1
  Sm3+  Sm59  1  0.50495764  0.62139004  0.55634472  1
  Sm3+  Sm60  1  0.12503217  0.00553804  0.94156225  1
  Sm3+  Sm61  1  0.01026104  0.86843855  0.56390286  1
  Sm3+  Sm62  1  0.13495261  -0.00693279  0.44134589  1
  Sm3+  Sm63  1  0.87850035  0.25802840  0.94186164  1
  Bi2+  Bi64  1  -0.02989035  0.11441560  0.27824584  1
  Bi2+  Bi65  1  0.00362054  0.08410337  0.80778229  1
  Bi2+  Bi66  1  0.01039039  0.37425859  0.29953794  1
  Bi2+  Bi67  1  0.05543921  0.35621061  0.78245332  1
  Bi2+  Bi68  1  -0.05852676  0.64326780  0.28339510  1
  Bi2+  Bi69  1  -0.01483823  0.61409507  0.79683844  1
  Bi2+  Bi70  1  -0.05834763  0.91398014  0.29867432  1
  Bi2+  Bi71  1  0.01678652  0.86508439  0.76872531  1
  Bi2+  Bi72  1  0.22767077  0.11635896  0.29979824  1
  Bi2+  Bi73  1  0.24898442  0.16541463  0.78551451  1
  Bi2+  Bi74  1  0.27192108  0.32920630  0.26534594  1
  Bi2+  Bi75  1  0.26874753  0.37820752  0.75383937  1
  Bi2+  Bi76  1  0.27453632  0.58629994  0.30515213  1
  Bi2+  Bi77  1  0.25931632  0.61831185  0.80125747  1
  Bi2+  Bi78  1  0.25686401  0.91497646  0.28788523  1
  Bi2+  Bi79  1  0.31319532  0.85966601  0.78779494  1
  Bi2+  Bi80  1  0.47468070  0.16751519  0.27937588  1
  Bi2+  Bi81  1  0.48557438  0.09482384  0.80167818  1
  Bi2+  Bi82  1  0.55146665  0.34955409  0.29213779  1
  Bi2+  Bi83  1  0.45315243  0.38157259  0.79790838  1
  Bi2+  Bi84  1  0.56292334  0.62511116  0.29721063  1
  Bi2+  Bi85  1  0.47165455  0.64487746  0.80176877  1
  Bi2+  Bi86  1  0.51014260  0.88903748  0.27795326  1
  Bi2+  Bi87  1  0.51683147  0.89504505  0.82923191  1
  Bi2+  Bi88  1  0.72439615  0.11653347  0.29974591  1
  Bi2+  Bi89  1  0.74077378  0.14108418  0.78181655  1
  Bi2+  Bi90  1  0.74698648  0.40473759  0.27673694  1
  Bi2+  Bi91  1  0.69861105  0.36614256  0.75412981  1
  Bi2+  Bi92  1  0.74984875  0.69473253  0.31459901  1
  Bi2+  Bi93  1  0.73093904  0.54219081  0.80595452  1
  Bi2+  Bi94  1  0.74789536  0.89688039  0.31665214  1
  Bi2+  Bi95  1  0.69093039  0.90429525  0.78146773  1
  Bi2+  Bi96  1  0.11034185  0.01682034  0.21807974  1
  Bi2+  Bi97  1  0.12733459  0.02117671  0.73106958  1
  Bi2+  Bi98  1  0.14431895  0.21259215  0.21167976  1
  Bi2+  Bi99  1  0.12941628  0.25943787  0.69509485  1
  Bi2+  Bi100  1  0.14704346  0.51916528  0.21263327  1
  Bi2+  Bi101  1  0.12868445  0.49579966  0.70854411  1
  Bi2+  Bi102  1  0.11187309  0.76966352  0.21151179  1
  Bi2+  Bi103  1  0.19431446  0.74405589  0.72097381  1
  Bi2+  Bi104  1  0.35286484  0.07175027  0.21247726  1
  Bi2+  Bi105  1  0.31808137  0.00819095  0.70885574  1
  Bi2+  Bi106  1  0.39555721  0.24574447  0.15999336  1
  Bi2+  Bi107  1  0.33981460  0.20023979  0.68713210  1
  Bi2+  Bi108  1  0.42298786  0.41877993  0.21398077  1
  Bi2+  Bi109  1  0.40389055  0.52038697  0.71202545  1
  Bi2+  Bi110  1  0.37443659  0.72512271  0.21502893  1
  Bi2+  Bi111  1  0.38449940  0.76511352  0.69440886  1
  Bi2+  Bi112  1  0.62566846  0.05163510  0.21363863  1
  Bi2+  Bi113  1  0.56685154  0.00971784  0.71361192  1
  Bi2+  Bi114  1  0.58914457  0.24449351  0.19368459  1
  Bi2+  Bi115  1  0.53002616  0.27843373  0.71428280  1
  Bi2+  Bi116  1  0.59960596  0.52184014  0.20192213  1
  Bi2+  Bi117  1  0.59914448  0.56113814  0.71867938  1
  Bi2+  Bi118  1  0.66090939  0.79371550  0.22662360  1
  Bi2+  Bi119  1  0.58560249  0.75833130  0.73587092  1
  Bi2+  Bi120  1  0.83740283  -0.01196321  0.20429872  1
  Bi2+  Bi121  1  0.86203113  0.00176718  0.69280063  1
  Bi2+  Bi122  1  0.86426630  0.24096427  0.21403774  1
  Bi2+  Bi123  1  0.87922070  0.28708660  0.75695210  1
  Bi2+  Bi124  1  0.83595010  0.52506184  0.21038916  1
  Bi2+  Bi125  1  0.86443745  0.50143315  0.69359538  1
  Bi2+  Bi126  1  0.86146121  0.79178163  0.21864847  1
  Bi2+  Bi127  1  0.82369355  0.73884411  0.71360759  1
  S2-  S128  1  0.00251052  0.20561700  0.14874874  1
  S2-  S129  1  -0.09651495  0.13635605  0.64550350  1
  S2-  S130  1  -0.00534291  0.44280021  0.20628118  1
  S2-  S131  1  -0.00426134  0.46018853  0.64162947  1
  S2-  S132  1  0.08032138  0.63479191  0.14834247  1
  S2-  S133  1  -0.04679894  0.66180812  0.68262458  1
  S2-  S134  1  0.04134067  0.88469175  0.15833878  1
  S2-  S135  1  -0.00695820  0.90434849  0.66217527  1
  S2-  S136  1  0.23986552  0.01117441  0.14458483  1
  S2-  S137  1  0.13854968  0.11669670  0.63922052  1
  S2-  S138  1  0.17035275  0.38064476  0.15193665  1
  S2-  S139  1  0.22756687  0.38665899  0.64507219  1
  S2-  S140  1  0.29012733  0.57663860  0.18016329  1
  S2-  S141  1  0.16658308  0.61733724  0.64522450  1
  S2-  S142  1  0.24152901  0.77891874  0.15305732  1
  S2-  S143  1  0.24844983  0.87114445  0.65096971  1
  S2-  S144  1  0.52463868  0.03535014  0.13854219  1
  S2-  S145  1  0.49455008  0.13502344  0.65090729  1
  S2-  S146  1  0.62639491  0.38766766  0.13688385  1
  S2-  S147  1  0.48574339  0.39945500  0.64918593  1
  S2-  S148  1  0.49663796  0.65570877  0.16914356  1
  S2-  S149  1  0.39159894  0.62822163  0.63049193  1
  S2-  S150  1  0.44915441  0.85627803  0.18229318  1
  S2-  S151  1  0.51665554  0.86608751  0.65669975  1
  S2-  S152  1  0.78260715  0.13157077  0.15205332  1
  S2-  S153  1  0.71042035  0.09704424  0.67904264  1
  S2-  S154  1  0.83780733  0.36442973  0.14861820  1
  S2-  S155  1  0.77397210  0.37534296  0.65474919  1
  S2-  S156  1  0.72992108  0.61072924  0.15211082  1
  S2-  S157  1  0.74065875  0.61778532  0.65731594  1
  S2-  S158  1  0.71824827  0.89313486  0.14402096  1
  S2-  S159  1  0.76272866  0.87128796  0.65605744  1
  S2-  S160  1  0.12706821  -0.08136199  0.35167219  1
  S2-  S161  1  0.12262078  -0.01495712  0.84305976  1
  S2-  S162  1  0.04058825  0.23141542  0.35249383  1
  S2-  S163  1  0.10933940  0.21684091  0.84277664  1
  S2-  S164  1  0.17824392  0.43502194  0.32695269  1
  S2-  S165  1  0.12770353  0.55531443  0.84772438  1
  S2-  S166  1  0.11341453  0.66709517  0.30086804  1
  S2-  S167  1  0.04225982  0.75421775  0.84585900  1
  S2-  S168  1  0.38915917  -0.04037730  0.34259469  1
  S2-  S169  1  0.35798697  -0.00697253  0.84695288  1
  S2-  S170  1  0.35135811  0.23581777  0.34387599  1
  S2-  S171  1  0.38727464  0.23457362  0.84107822  1
  S2-  S172  1  0.41612163  0.53115538  0.33700532  1
  S2-  S173  1  0.38628176  0.51432876  0.85479542  1
  S2-  S174  1  0.28839740  0.74716925  0.33629096  1
  S2-  S175  1  0.27295418  0.74693530  0.86986519  1
  S2-  S176  1  0.60998717  -0.00834525  0.34411326  1
  S2-  S177  1  0.75045717  0.01826146  0.84939720  1
  S2-  S178  1  0.64577172  0.23676810  0.35031098  1
  S2-  S179  1  0.61463067  0.16204213  0.84858949  1
  S2-  S180  1  0.65292964  0.49676741  0.34761441  1
  S2-  S181  1  0.64827869  0.40162370  0.85627289  1
  S2-  S182  1  0.51689066  0.75835947  0.35115976  1
  S2-  S183  1  0.61601150  0.64352834  0.86211945  1
  S2-  S184  1  0.85898104  0.10574690  0.36014579  1
  S2-  S185  1  0.91685694  -0.08242348  0.83809814  1
  S2-  S186  1  0.85835999  0.36033280  0.34786374  1
  S2-  S187  1  0.87129654  0.20625750  0.84687608  1
  S2-  S188  1  0.98411347  0.51614645  0.35034184  1
  S2-  S189  1  0.89408516  0.49538634  0.83653062  1
  S2-  S190  1  0.95949751  0.76907914  0.35624515  1
  S2-  S191  1  0.83257898  0.69495773  0.81409067  1
  S2-  S192  1  0.01421247  0.11470238  0.45665842  1
  S2-  S193  1  -0.00107808  0.12835804  0.95351489  1
  S2-  S194  1  0.01411496  0.37042391  0.44946340  1
  S2-  S195  1  0.00159927  0.37919072  0.94172684  1
  S2-  S196  1  0.01408129  0.62646914  0.45160790  1
  S2-  S197  1  0.00014341  0.63778982  0.95360120  1
  S2-  S198  1  0.01144665  0.87185096  0.45917606  1
  S2-  S199  1  0.00340478  0.88286650  0.95276312  1
  S2-  S200  1  0.25916097  0.11719495  0.45573164  1
  S2-  S201  1  0.25091316  0.12790904  0.95607681  1
  S2-  S202  1  0.26039837  0.37131327  0.44381683  1
  S2-  S203  1  0.24897491  0.38052456  0.95337030  1
  S2-  S204  1  0.25754224  0.62463201  0.44577529  1
  S2-  S205  1  0.24977524  0.62998634  0.97191423  1
  S2-  S206  1  0.25813479  0.86949910  0.44833454  1
  S2-  S207  1  0.24841061  0.88621146  0.96313653  1
  S2-  S208  1  0.50928071  0.12014656  0.44910643  1
  S2-  S209  1  0.50066240  0.13221050  0.95360370  1
  S2-  S210  1  0.51038924  0.37130970  0.44833904  1
  S2-  S211  1  0.50053633  0.38215112  0.95778134  1
  S2-  S212  1  0.51091068  0.61936081  0.45267392  1
  S2-  S213  1  0.49811157  0.63459743  0.96293151  1
  S2-  S214  1  0.51211963  0.87436033  0.45237182  1
  S2-  S215  1  0.50295170  0.87880728  0.96345639  1
  S2-  S216  1  0.75997393  0.12143060  0.46592576  1
  S2-  S217  1  0.75296325  0.13741823  0.95163632  1
  S2-  S218  1  0.75522812  0.37217107  0.45338538  1
  S2-  S219  1  0.75793433  0.38162610  0.95685797  1
  S2-  S220  1  0.75901659  0.61933272  0.45166045  1
  S2-  S221  1  0.76007128  0.63954396  0.95052890  1
  S2-  S222  1  0.76102881  0.86677811  0.45250189  1
  S2-  S223  1  0.75470025  0.87558265  0.94280892  1
  S2-  S224  1  0.12121849  0.01092238  0.04601758  1
  S2-  S225  1  0.13533027  -0.01126134  0.54506860  1
  S2-  S226  1  0.12502955  0.25263289  0.04756809  1
  S2-  S227  1  0.13833243  0.24901722  0.53931245  1
  S2-  S228  1  0.11700649  0.49728505  0.05086806  1
  S2-  S229  1  0.13902098  0.49709272  0.53477716  1
  S2-  S230  1  0.12436324  0.75735976  0.04267719  1
  S2-  S231  1  0.13111385  0.74708233  0.55156013  1
  S2-  S232  1  0.37744821  0.00448399  0.05107766  1
  S2-  S233  1  0.38532272  -0.00332390  0.54798734  1
  S2-  S234  1  0.37402490  0.25578651  0.04552538  1
  S2-  S235  1  0.38393281  0.24805971  0.54576655  1
  S2-  S236  1  0.37539459  0.50333872  0.06233317  1
  S2-  S237  1  0.38503866  0.49317711  0.53755699  1
  S2-  S238  1  0.37993830  0.75791991  0.05696484  1
  S2-  S239  1  0.38729031  0.74804316  0.53269519  1
  S2-  S240  1  0.63126675  0.00726065  0.03381596  1
  S2-  S241  1  0.63248243  -0.00197639  0.55155374  1
  S2-  S242  1  0.62775596  0.25415203  0.04025590  1
  S2-  S243  1  0.63277648  0.24804976  0.55537896  1
  S2-  S244  1  0.62824967  0.50881484  0.03936957  1
  S2-  S245  1  0.63013661  0.49778805  0.55034755  1
  S2-  S246  1  0.62754698  0.75406525  0.04844115  1
  S2-  S247  1  0.63129977  0.74255320  0.54340373  1
  S2-  S248  1  0.87702183  0.00836683  0.04041529  1
  S2-  S249  1  0.88501213  -0.00938571  0.54537207  1
  S2-  S250  1  0.87986772  0.25759045  0.04391719  1
  S2-  S251  1  0.88641765  0.25168675  0.54018736  1
  S2-  S252  1  0.87577934  0.50537575  0.04792905  1
  S2-  S253  1  0.88554556  0.49959051  0.53873805  1
  S2-  S254  1  0.87465601  0.75313653  0.05629697  1
  S2-  S255  1  0.88794626  0.74303408  0.55365662  1
