# generated using pymatgen
data_La12Ce14Pr13Nd13Sm12(BiS2)64
_symmetry_space_group_name_H-M   'P 1'
_cell_length_a   16.11925167
_cell_length_b   16.11649357
_cell_length_c   27.20639377
_cell_angle_alpha   90.22404481
_cell_angle_beta   89.59266867
_cell_angle_gamma   90.03443697
_symmetry_Int_Tables_number   1
_chemical_formula_structural   La12Ce14Pr13Nd13Sm12(BiS2)64
_chemical_formula_sum   'La12 Ce14 Pr13 Nd13 Sm12 Bi64 S128'
_cell_volume   7067.60140001
_cell_formula_units_Z   1
loop_
 _symmetry_equiv_pos_site_id
 _symmetry_equiv_pos_as_xyz
  1  'x, y, z'
loop_
 _atom_type_symbol
 _atom_type_oxidation_number
  La3+  3.0
  Ce3+  3.0
  Pr3+  3.0
  Nd3+  3.0
  Sm3+  3.0
  Bi2+  2.0
  S2-  -2.0
loop_
 _atom_site_type_symbol
 _atom_site_label
 _atom_site_symmetry_multiplicity
 _atom_site_fract_x
 _atom_site_fract_y
 _atom_site_fract_z
 _atom_site_occupancy
  La3+  La0  1  0.00713610  0.62831314  0.60205366  1
  La3+  La1  1  0.74422008  0.87811210  0.09111850  1
  La3+  La2  1  0.37463148  0.74283460  0.93454649  1
  La3+  La3  1  0.49223325  0.36533533  0.08008858  1
  La3+  La4  1  0.11698412  0.73856661  0.92475319  1
  La3+  La5  1  0.13651334  0.73238110  0.40711137  1
  La3+  La6  1  0.86943001  0.24210974  0.92910397  1
  La3+  La7  1  0.36781351  0.24000026  0.92055060  1
  La3+  La8  1  0.12032930  -0.01296213  0.92918359  1
  La3+  La9  1  0.87003990  0.75207490  0.93338686  1
  La3+  La10  1  0.13831707  -0.00246097  0.41237057  1
  La3+  La11  1  0.49572711  0.13416181  0.61495480  1
  Ce3+  Ce12  1  0.49277207  0.61621230  0.07089507  1
  Ce3+  Ce13  1  0.24466863  0.86839586  0.06080289  1
  Ce3+  Ce14  1  -0.00394837  0.62472505  0.06449431  1
  Ce3+  Ce15  1  0.87982937  0.73838664  0.42788610  1
  Ce3+  Ce16  1  0.49310700  0.86148832  0.07268911  1
  Ce3+  Ce17  1  0.62042479  0.24629057  0.93060130  1
  Ce3+  Ce18  1  -0.00135260  0.11874114  0.06536701  1
  Ce3+  Ce19  1  0.25449837  0.36436478  0.55668868  1
  Ce3+  Ce20  1  0.38107895  0.49006939  0.44209207  1
  Ce3+  Ce21  1  0.74795277  0.11463326  0.56066617  1
  Ce3+  Ce22  1  0.50754019  0.62031445  0.55896968  1
  Ce3+  Ce23  1  0.37337736  -0.01113154  0.93765525  1
  Ce3+  Ce24  1  0.12693256  0.49377880  0.44088808  1
  Ce3+  Ce25  1  0.24969777  0.85812116  0.55891381  1
  Pr3+  Pr26  1  0.11205007  0.49503875  0.92893978  1
  Pr3+  Pr27  1  0.37144680  0.49390118  0.93626706  1
  Pr3+  Pr28  1  0.75485149  0.61603564  0.56074305  1
  Pr3+  Pr29  1  0.62337063  0.74212765  0.95495599  1
  Pr3+  Pr30  1  0.38147703  0.73507167  0.43229917  1
  Pr3+  Pr31  1  0.25412483  0.61717671  0.56289513  1
  Pr3+  Pr32  1  0.37911861  0.23685667  0.44068410  1
  Pr3+  Pr33  1  0.00693187  0.86123736  0.54147916  1
  Pr3+  Pr34  1  0.74842640  0.36888344  0.56537177  1
  Pr3+  Pr35  1  0.87204783  -0.00829074  0.94758691  1
  Pr3+  Pr36  1  0.50236603  0.86647416  0.56717766  1
  Pr3+  Pr37  1  0.63910119  0.48376696  0.41804383  1
  Pr3+  Pr38  1  0.63145551  0.23791959  0.43484013  1
  Nd3+  Nd39  1  0.63006032  0.73667147  0.43283229  1
  Nd3+  Nd40  1  0.12889356  0.24369709  0.43699257  1
  Nd3+  Nd41  1  0.88092031  0.48972059  0.44096753  1
  Nd3+  Nd42  1  0.75829985  0.86325755  0.55154649  1
  Nd3+  Nd43  1  0.88059734  0.23979295  0.44646790  1
  Nd3+  Nd44  1  0.24231140  0.10331383  0.57072039  1
  Nd3+  Nd45  1  0.62769641  -0.01184260  0.44006131  1
  Nd3+  Nd46  1  0.24091110  0.36940795  0.05965826  1
  Nd3+  Nd47  1  0.74467774  0.12166539  0.06332515  1
  Nd3+  Nd48  1  0.75062214  0.61998394  0.06515863  1
  Nd3+  Nd49  1  0.62516217  -0.01663775  0.94128137  1
  Nd3+  Nd50  1  0.74644263  0.36664655  0.05871816  1
  Nd3+  Nd51  1  0.00270312  0.36968296  0.56843480  1
  Sm3+  Sm52  1  0.87556764  0.49383136  0.94775807  1
  Sm3+  Sm53  1  0.24671229  0.12075196  0.05375367  1
  Sm3+  Sm54  1  0.62142219  0.49466852  0.94671106  1
  Sm3+  Sm55  1  0.88098198  -0.01135356  0.43606491  1
  Sm3+  Sm56  1  0.11821826  0.24321684  0.93238072  1
  Sm3+  Sm57  1  -0.00104405  0.36630824  0.06527460  1
  Sm3+  Sm58  1  0.37625370  -0.01160463  0.44518398  1
  Sm3+  Sm59  1  0.49347553  0.12181266  0.05275093  1
  Sm3+  Sm60  1  0.24157332  0.61846500  0.05741691  1
  Sm3+  Sm61  1  0.00364052  0.87726697  0.07602190  1
  Sm3+  Sm62  1  0.50524618  0.36721725  0.55624538  1
  Sm3+  Sm63  1  0.00654865  0.11398066  0.55296764  1
  Bi2+  Bi64  1  -0.01358135  0.18854284  0.29179620  1
  Bi2+  Bi65  1  -0.11890248  0.13213145  0.80933993  1
  Bi2+  Bi66  1  0.03530512  0.37246120  0.32717155  1
  Bi2+  Bi67  1  -0.02685236  0.37047704  0.78618665  1
  Bi2+  Bi68  1  0.03478860  0.54271986  0.27176138  1
  Bi2+  Bi69  1  0.01620102  0.61068693  0.78895380  1
  Bi2+  Bi70  1  -0.02509028  0.86809701  0.27352768  1
  Bi2+  Bi71  1  0.00615417  0.89884464  0.80889823  1
  Bi2+  Bi72  1  0.28223435  0.14113125  0.30215696  1
  Bi2+  Bi73  1  0.23420290  0.14061498  0.78825920  1
  Bi2+  Bi74  1  0.22185898  0.35225357  0.28911595  1
  Bi2+  Bi75  1  0.30048268  0.41386100  0.79250204  1
  Bi2+  Bi76  1  0.27162069  0.62320893  0.28540729  1
  Bi2+  Bi77  1  0.27203764  0.61684511  0.77793334  1
  Bi2+  Bi78  1  0.22724150  0.87961482  0.28646959  1
  Bi2+  Bi79  1  0.28143141  0.85857276  0.77946151  1
  Bi2+  Bi80  1  0.48881117  0.12662822  0.29293266  1
  Bi2+  Bi81  1  0.50858132  0.11827698  0.81435468  1
  Bi2+  Bi82  1  0.50189342  0.32398703  0.27694545  1
  Bi2+  Bi83  1  0.50119659  0.43190004  0.79770294  1
  Bi2+  Bi84  1  0.47799952  0.66131957  0.27953003  1
  Bi2+  Bi85  1  0.50012777  0.65388616  0.79023225  1
  Bi2+  Bi86  1  0.49000986  0.92839145  0.29529204  1
  Bi2+  Bi87  1  0.54048486  0.89862703  0.80617293  1
  Bi2+  Bi88  1  0.71813691  0.13892469  0.29206161  1
  Bi2+  Bi89  1  0.72988499  0.10181010  0.73830121  1
  Bi2+  Bi90  1  0.76025908  0.35364115  0.28944413  1
  Bi2+  Bi91  1  0.77034315  0.38162104  0.79692695  1
  Bi2+  Bi92  1  0.73803210  0.62840668  0.30377756  1
  Bi2+  Bi93  1  0.75685179  0.57512328  0.78934170  1
  Bi2+  Bi94  1  0.75660294  0.88017381  0.29207168  1
  Bi2+  Bi95  1  0.75778428  0.83303486  0.78533086  1
  Bi2+  Bi96  1  0.13118090  0.02067619  0.20714278  1
  Bi2+  Bi97  1  0.10154133  0.02144410  0.72691387  1
  Bi2+  Bi98  1  0.10274757  0.26076782  0.21039053  1
  Bi2+  Bi99  1  0.10082200  0.23130496  0.71535407  1
  Bi2+  Bi100  1  0.19426587  0.48482654  0.20630540  1
  Bi2+  Bi101  1  0.13557699  0.42176969  0.72320939  1
  Bi2+  Bi102  1  0.12053304  0.72757915  0.19169324  1
  Bi2+  Bi103  1  0.13961018  0.79787781  0.69989856  1
  Bi2+  Bi104  1  0.38758599  0.01473194  0.21000734  1
  Bi2+  Bi105  1  0.35167116  -0.00415711  0.70864822  1
  Bi2+  Bi106  1  0.35726686  0.22230449  0.19367537  1
  Bi2+  Bi107  1  0.36946326  0.27457803  0.71483152  1
  Bi2+  Bi108  1  0.40882201  0.48786048  0.24327595  1
  Bi2+  Bi109  1  0.40533200  0.52836479  0.71143937  1
  Bi2+  Bi110  1  0.38527422  0.81413073  0.22365912  1
  Bi2+  Bi111  1  0.39387822  0.75047098  0.70923072  1
  Bi2+  Bi112  1  0.60547589  0.02300748  0.21258208  1
  Bi2+  Bi113  1  0.63580565  -0.07610026  0.71077616  1
  Bi2+  Bi114  1  0.63556773  0.23191374  0.20543575  1
  Bi2+  Bi115  1  0.62749486  0.36265644  0.71704279  1
  Bi2+  Bi116  1  0.62120275  0.48719174  0.21292239  1
  Bi2+  Bi117  1  0.62212961  0.51508264  0.64858356  1
  Bi2+  Bi118  1  0.60979860  0.74083014  0.20184263  1
  Bi2+  Bi119  1  0.64593382  0.67352104  0.71398047  1
  Bi2+  Bi120  1  0.87109251  0.08220409  0.22022648  1
  Bi2+  Bi121  1  0.90475389  0.02002721  0.71325033  1
  Bi2+  Bi122  1  0.91291127  0.24868324  0.16589696  1
  Bi2+  Bi123  1  0.90420121  0.22282721  0.70591643  1
  Bi2+  Bi124  1  0.90812104  0.41530163  0.22662545  1
  Bi2+  Bi125  1  0.85093941  0.48700818  0.70175461  1
  Bi2+  Bi126  1  0.86821751  0.68648972  0.20443474  1
  Bi2+  Bi127  1  0.87887621  0.77096671  0.70829966  1
  S2-  S128  1  0.00497346  0.01791938  0.14772729  1
  S2-  S129  1  0.09754431  0.11506003  0.63559958  1
  S2-  S130  1  0.11891740  0.37914336  0.13702388  1
  S2-  S131  1  0.00086944  0.46445204  0.65269509  1
  S2-  S132  1  0.00818883  0.60041969  0.16231398  1
  S2-  S133  1  0.09328932  0.64266436  0.69554391  1
  S2-  S134  1  -0.02582138  0.81118045  0.16849141  1
  S2-  S135  1  0.00143560  0.81041039  0.63945032  1
  S2-  S136  1  0.21113851  0.13852997  0.15159091  1
  S2-  S137  1  0.32690529  0.14453521  0.65431504  1
  S2-  S138  1  0.34367139  0.35484566  0.14041296  1
  S2-  S139  1  0.25525374  0.37552318  0.65436287  1
  S2-  S140  1  0.24824995  0.63324153  0.15750206  1
  S2-  S141  1  0.26217595  0.73803459  0.63699892  1
  S2-  S142  1  0.17743756  0.87459980  0.15282357  1
  S2-  S143  1  0.23261174  0.94925881  0.64298381  1
  S2-  S144  1  0.50222123  0.21193776  0.13759751  1
  S2-  S145  1  0.48360000  0.14943195  0.72369704  1
  S2-  S146  1  0.49530631  0.50484346  0.14934084  1
  S2-  S147  1  0.50279360  0.30706193  0.64873040  1
  S2-  S148  1  0.46844784  0.72719542  0.14702359  1
  S2-  S149  1  0.51424403  0.73211316  0.63705527  1
  S2-  S150  1  0.59302329  0.88536385  0.15193267  1
  S2-  S151  1  0.48922711  0.96520023  0.65263749  1
  S2-  S152  1  0.75343049  0.03503007  0.15155478  1
  S2-  S153  1  0.66786614  0.11916328  0.64719385  1
  S2-  S154  1  0.68204860  0.37592148  0.15254367  1
  S2-  S155  1  0.78435267  0.33300161  0.66213896  1
  S2-  S156  1  0.73163245  0.60348003  0.16516066  1
  S2-  S157  1  0.85007433  0.63971813  0.64732069  1
  S2-  S158  1  0.77112871  0.81458935  0.19048115  1
  S2-  S159  1  0.75975949  0.85835372  0.65118547  1
  S2-  S160  1  0.08831525  -0.02876815  0.30959315  1
  S2-  S161  1  0.09473871  0.05000706  0.83198631  1
  S2-  S162  1  0.13734778  0.15398175  0.35182807  1
  S2-  S163  1  -0.00324385  0.24808857  0.85867919  1
  S2-  S164  1  0.14590478  0.57151720  0.35191396  1
  S2-  S165  1  0.14559170  0.60817879  0.84901517  1
  S2-  S166  1  0.09248451  0.76857416  0.30413593  1
  S2-  S167  1  0.14874683  0.85673099  0.85062010  1
  S2-  S168  1  0.29490210  -0.00634982  0.35707531  1
  S2-  S169  1  0.35985915  0.08897363  0.85490690  1
  S2-  S170  1  0.35843960  0.29079473  0.34433260  1
  S2-  S171  1  0.22654451  0.26292637  0.85314966  1
  S2-  S172  1  0.37910324  0.54011865  0.34869721  1
  S2-  S173  1  0.37755961  0.61789619  0.86037018  1
  S2-  S174  1  0.28728636  0.75657509  0.34953399  1
  S2-  S175  1  0.39172310  0.86885406  0.86103859  1
  S2-  S176  1  0.66649665  -0.00771336  0.34156823  1
  S2-  S177  1  0.64622573  0.02304160  0.84413172  1
  S2-  S178  1  0.62310117  0.34145422  0.35283404  1
  S2-  S179  1  0.50443583  0.27391850  0.85566143  1
  S2-  S180  1  0.59633028  0.56390936  0.32912755  1
  S2-  S181  1  0.61442441  0.53647444  0.85013376  1
  S2-  S182  1  0.64992078  0.76976892  0.33449837  1
  S2-  S183  1  0.64763741  0.80224589  0.86177721  1
  S2-  S184  1  0.87871033  -0.02696229  0.33811257  1
  S2-  S185  1  0.85677087  -0.10562113  0.86398801  1
  S2-  S186  1  0.84098545  0.23084203  0.34969245  1
  S2-  S187  1  0.74034127  0.24379185  0.85485777  1
  S2-  S188  1  0.79545187  0.49102763  0.35365330  1
  S2-  S189  1  0.96772011  0.49211584  0.86252534  1
  S2-  S190  1  0.87188596  0.74136189  0.32774907  1
  S2-  S191  1  0.97739103  0.72785666  0.84945695  1
  S2-  S192  1  0.00266757  0.11353226  0.44839467  1
  S2-  S193  1  -0.00237489  0.11551174  0.95769862  1
  S2-  S194  1  0.00321345  0.36519133  0.46053462  1
  S2-  S195  1  -0.00431599  0.36777816  0.96237684  1
  S2-  S196  1  0.00139363  0.61559350  0.43769294  1
  S2-  S197  1  -0.00935012  0.62225848  0.96053872  1
  S2-  S198  1  0.00807621  0.86462023  0.43493537  1
  S2-  S199  1  -0.00221588  0.86684801  0.96490808  1
  S2-  S200  1  0.25399209  0.11773531  0.46087183  1
  S2-  S201  1  0.23931599  0.11537952  0.95155495  1
  S2-  S202  1  0.25223327  0.36800939  0.45024979  1
  S2-  S203  1  0.24073358  0.37503573  0.95243537  1
  S2-  S204  1  0.25634380  0.61377819  0.45680235  1
  S2-  S205  1  0.24226576  0.61720449  0.95540281  1
  S2-  S206  1  0.25238127  0.86160442  0.45272007  1
  S2-  S207  1  0.24677772  0.86508634  0.95733310  1
  S2-  S208  1  0.50306078  0.11118102  0.43968118  1
  S2-  S209  1  0.50074176  0.11375095  0.95068301  1
  S2-  S210  1  0.50350472  0.36514006  0.45160380  1
  S2-  S211  1  0.49794472  0.37625776  0.96052304  1
  S2-  S212  1  0.50836961  0.61337491  0.45036716  1
  S2-  S213  1  0.49977749  0.61694601  0.96280882  1
  S2-  S214  1  0.50255804  0.86466193  0.44945985  1
  S2-  S215  1  0.49958864  0.86687246  0.96614191  1
  S2-  S216  1  0.75628733  0.11154905  0.45318212  1
  S2-  S217  1  0.74449010  0.11414404  0.95784161  1
  S2-  S218  1  0.75694361  0.36193164  0.45779198  1
  S2-  S219  1  0.74806514  0.37613106  0.95377295  1
  S2-  S220  1  0.75434875  0.61633862  0.45173483  1
  S2-  S221  1  0.75152392  0.61714486  0.95665912  1
  S2-  S222  1  0.75604514  0.86525250  0.44591770  1
  S2-  S223  1  0.74640411  0.86732515  0.97465395  1
  S2-  S224  1  0.12516252  -0.00487897  0.04225969  1
  S2-  S225  1  0.12340838  -0.01122456  0.52979072  1
  S2-  S226  1  0.11989339  0.24026363  0.04038450  1
  S2-  S227  1  0.12576726  0.24509636  0.54337197  1
  S2-  S228  1  0.11597263  0.49840410  0.03976497  1
  S2-  S229  1  0.12711853  0.49444836  0.54947689  1
  S2-  S230  1  0.12007401  0.74539289  0.04735758  1
  S2-  S231  1  0.12277541  0.73030271  0.53950399  1
  S2-  S232  1  0.37122846  -0.00436057  0.04970924  1
  S2-  S233  1  0.37467111  -0.01185036  0.54619777  1
  S2-  S234  1  0.36724068  0.24093721  0.03280264  1
  S2-  S235  1  0.38158673  0.24207643  0.54655518  1
  S2-  S236  1  0.36507075  0.49706636  0.04314543  1
  S2-  S237  1  0.38173546  0.49180184  0.55016320  1
  S2-  S238  1  0.36499663  0.74143351  0.04447652  1
  S2-  S239  1  0.38270823  0.73936478  0.53726585  1
  S2-  S240  1  0.61657175  0.00063544  0.04919338  1
  S2-  S241  1  0.63122744  -0.01555826  0.54450774  1
  S2-  S242  1  0.62309673  0.24405425  0.03927722  1
  S2-  S243  1  0.62617647  0.24168263  0.54241588  1
  S2-  S244  1  0.62592622  0.49525195  0.04929145  1
  S2-  S245  1  0.62858864  0.49079952  0.53293750  1
  S2-  S246  1  0.62577505  0.74010386  0.05934174  1
  S2-  S247  1  0.63358638  0.74278901  0.53880179  1
  S2-  S248  1  0.87302911  -0.00624976  0.05225321  1
  S2-  S249  1  0.88125671  -0.00819622  0.54383719  1
  S2-  S250  1  0.87098419  0.24367422  0.04155103  1
  S2-  S251  1  0.88105785  0.23850954  0.55256256  1
  S2-  S252  1  0.87365706  0.49009291  0.05372823  1
  S2-  S253  1  0.87838947  0.49028913  0.54636968  1
  S2-  S254  1  0.87161910  0.74915513  0.05485129  1
  S2-  S255  1  0.88088377  0.73675468  0.53509101  1
