# generated using pymatgen
data_La12Ce14Pr13Nd13Sm12(BiS2)64
_symmetry_space_group_name_H-M   'P 1'
_cell_length_a   16.08713881
_cell_length_b   16.10215415
_cell_length_c   27.18699202
_cell_angle_alpha   90.03139340
_cell_angle_beta   89.91259010
_cell_angle_gamma   89.93523895
_symmetry_Int_Tables_number   1
_chemical_formula_structural   La12Ce14Pr13Nd13Sm12(BiS2)64
_chemical_formula_sum   'La12 Ce14 Pr13 Nd13 Sm12 Bi64 S128'
_cell_volume   7042.43910381
_cell_formula_units_Z   1
loop_
 _symmetry_equiv_pos_site_id
 _symmetry_equiv_pos_as_xyz
  1  'x, y, z'
loop_
 _atom_type_symbol
 _atom_type_oxidation_number
  La3+  3.0
  Ce3+  3.0
  Pr3+  3.0
  Nd3+  3.0
  Sm3+  3.0
  Bi2+  2.0
  S2-  -2.0
loop_
 _atom_site_type_symbol
 _atom_site_label
 _atom_site_symmetry_multiplicity
 _atom_site_fract_x
 _atom_site_fract_y
 _atom_site_fract_z
 _atom_site_occupancy
  La3+  La0  1  0.01171443  0.39693974  0.57382884  1
  La3+  La1  1  0.74240295  0.36985314  0.06982124  1
  La3+  La2  1  0.87173623  0.26762163  0.41116700  1
  La3+  La3  1  0.75513655  0.39927804  0.60073691  1
  La3+  La4  1  0.13024499  0.27237966  0.42361300  1
  La3+  La5  1  0.74392776  0.63714915  0.10134326  1
  La3+  La6  1  -0.00371331  0.87487846  0.06643889  1
  La3+  La7  1  0.88439965  0.51608260  0.43814709  1
  La3+  La8  1  -0.01696500  0.12063168  0.10192389  1
  La3+  La9  1  0.26105118  0.90030819  0.59804246  1
  La3+  La10  1  0.89178351  0.76698635  0.41699062  1
  La3+  La11  1  0.00936383  0.65126678  0.56983949  1
  Ce3+  Ce12  1  0.24431717  0.12537952  0.07452135  1
  Ce3+  Ce13  1  0.61669334  0.25156441  0.93954670  1
  Ce3+  Ce14  1  0.48508913  0.11719668  0.05597170  1
  Ce3+  Ce15  1  0.25619601  0.39226214  0.55979925  1
  Ce3+  Ce16  1  0.86819028  0.74652467  0.93757116  1
  Ce3+  Ce17  1  0.11652673  0.00238697  0.93530062  1
  Ce3+  Ce18  1  0.74257077  0.11837139  0.05063923  1
  Ce3+  Ce19  1  0.63561759  0.27061823  0.45633587  1
  Ce3+  Ce20  1  0.11893509  0.49445630  0.94045246  1
  Ce3+  Ce21  1  0.38222360  0.77129925  0.43723694  1
  Ce3+  Ce22  1  0.24692020  0.61988258  0.05939445  1
  Ce3+  Ce23  1  0.75874642  0.89154638  0.55561346  1
  Ce3+  Ce24  1  0.37486930  0.73840373  0.92215655  1
  Ce3+  Ce25  1  0.62288464  0.49754905  0.94558822  1
  Pr3+  Pr26  1  0.75893985  0.14304657  0.57261096  1
  Pr3+  Pr27  1  0.00662483  0.14771847  0.56199637  1
  Pr3+  Pr28  1  0.63582865  0.02385218  0.44249730  1
  Pr3+  Pr29  1  0.87064647  -0.00213699  0.92643461  1
  Pr3+  Pr30  1  0.37120562  0.49340070  0.93393902  1
  Pr3+  Pr31  1  0.36508083  -0.01076159  0.92116207  1
  Pr3+  Pr32  1  -0.01384958  0.37558524  0.06804841  1
  Pr3+  Pr33  1  0.50126992  0.39793562  0.57204076  1
  Pr3+  Pr34  1  0.23634006  0.37701851  0.07884350  1
  Pr3+  Pr35  1  0.13214085  0.51858666  0.43818993  1
  Pr3+  Pr36  1  0.63710144  0.51232397  0.43994867  1
  Pr3+  Pr37  1  0.50563331  0.64368371  0.55186186  1
  Pr3+  Pr38  1  0.61809554  -0.00133801  0.92788013  1
  Nd3+  Nd39  1  0.13176649  0.02211649  0.44586214  1
  Nd3+  Nd40  1  0.88493694  0.01707562  0.43304522  1
  Nd3+  Nd41  1  -0.01179864  0.62350475  0.05562252  1
  Nd3+  Nd42  1  0.49643801  0.37437162  0.07224720  1
  Nd3+  Nd43  1  0.38260499  0.01891063  0.43698736  1
  Nd3+  Nd44  1  0.11921138  0.74698548  0.93552724  1
  Nd3+  Nd45  1  0.63373241  0.77001935  0.43719471  1
  Nd3+  Nd46  1  0.38299597  0.51540723  0.43117663  1
  Nd3+  Nd47  1  0.87058249  0.24916234  0.93435789  1
  Nd3+  Nd48  1  0.50672120  0.89462180  0.56344178  1
  Nd3+  Nd49  1  0.38178888  0.27285202  0.42527458  1
  Nd3+  Nd50  1  0.36553507  0.25088513  0.94277807  1
  Nd3+  Nd51  1  0.24548659  0.87531736  0.05961185  1
  Sm3+  Sm52  1  0.49541806  0.62422817  0.05854883  1
  Sm3+  Sm53  1  0.86635577  0.49764549  0.93930072  1
  Sm3+  Sm54  1  0.25791056  0.14470130  0.56056089  1
  Sm3+  Sm55  1  0.50244480  0.14343630  0.55747896  1
  Sm3+  Sm56  1  0.00567226  0.89357693  0.56295917  1
  Sm3+  Sm57  1  0.75894130  0.64284974  0.55914263  1
  Sm3+  Sm58  1  0.25845454  0.64650442  0.55425442  1
  Sm3+  Sm59  1  0.74207167  0.87368297  0.05126592  1
  Sm3+  Sm60  1  0.61804326  0.74454188  0.93781699  1
  Sm3+  Sm61  1  0.48649155  0.87011703  0.05579290  1
  Sm3+  Sm62  1  0.13444093  0.77276595  0.44370852  1
  Sm3+  Sm63  1  0.11499875  0.24724269  0.95392186  1
  Bi2+  Bi64  1  -0.01298356  0.11570680  0.28775505  1
  Bi2+  Bi65  1  0.07227247  0.12478327  0.78489847  1
  Bi2+  Bi66  1  -0.00063624  0.39071896  0.28615614  1
  Bi2+  Bi67  1  0.00209838  0.36848172  0.81021662  1
  Bi2+  Bi68  1  0.01826701  0.64041098  0.28673808  1
  Bi2+  Bi69  1  0.00906158  0.61960206  0.80952739  1
  Bi2+  Bi70  1  0.00588073  0.86109882  0.27361470  1
  Bi2+  Bi71  1  -0.03594229  0.87246992  0.79352373  1
  Bi2+  Bi72  1  0.22540071  0.10645828  0.28822370  1
  Bi2+  Bi73  1  0.27244649  0.14398235  0.78382416  1
  Bi2+  Bi74  1  0.26638107  0.39061910  0.29728512  1
  Bi2+  Bi75  1  0.27563463  0.33931552  0.80068891  1
  Bi2+  Bi76  1  0.26937328  0.58840494  0.32214701  1
  Bi2+  Bi77  1  0.30908735  0.62224002  0.75353357  1
  Bi2+  Bi78  1  0.26446949  0.78029031  0.28830241  1
  Bi2+  Bi79  1  0.20974509  0.88582588  0.79328248  1
  Bi2+  Bi80  1  0.49492758  0.11623282  0.29537685  1
  Bi2+  Bi81  1  0.46928507  0.13432600  0.79133926  1
  Bi2+  Bi82  1  0.53407231  0.30962218  0.30342739  1
  Bi2+  Bi83  1  0.46882132  0.40901652  0.77016083  1
  Bi2+  Bi84  1  0.44112107  0.59836493  0.26367213  1
  Bi2+  Bi85  1  0.51712559  0.59556280  0.80675835  1
  Bi2+  Bi86  1  0.52021695  0.87716417  0.27723709  1
  Bi2+  Bi87  1  0.47811917  0.86705874  0.78330618  1
  Bi2+  Bi88  1  0.72215582  0.11925689  0.28455756  1
  Bi2+  Bi89  1  0.68262686  0.10808059  0.77837996  1
  Bi2+  Bi90  1  0.73172271  0.38848135  0.29162424  1
  Bi2+  Bi91  1  0.73928189  0.35849070  0.80049598  1
  Bi2+  Bi92  1  0.75453786  0.63610203  0.28532563  1
  Bi2+  Bi93  1  0.73413907  0.67439773  0.77355778  1
  Bi2+  Bi94  1  0.74880918  0.88950790  0.29355584  1
  Bi2+  Bi95  1  0.72275238  0.87293889  0.78505013  1
  Bi2+  Bi96  1  0.14755130  -0.02953832  0.21942051  1
  Bi2+  Bi97  1  0.06604173  -0.02563254  0.71237552  1
  Bi2+  Bi98  1  0.13724880  0.26833178  0.21116850  1
  Bi2+  Bi99  1  0.16116260  0.25511497  0.70681230  1
  Bi2+  Bi100  1  0.16108076  0.52814561  0.22657607  1
  Bi2+  Bi101  1  0.18684605  0.47011053  0.73492038  1
  Bi2+  Bi102  1  0.14389853  0.72101426  0.20171038  1
  Bi2+  Bi103  1  0.11232042  0.70225603  0.70472624  1
  Bi2+  Bi104  1  0.39275677  -0.02331245  0.20935308  1
  Bi2+  Bi105  1  0.38090032  0.01444585  0.71075495  1
  Bi2+  Bi106  1  0.41673732  0.24649912  0.21530766  1
  Bi2+  Bi107  1  0.35144883  0.26987034  0.65432149  1
  Bi2+  Bi108  1  0.40134285  0.44001396  0.19315186  1
  Bi2+  Bi109  1  0.36326430  0.46190658  0.67768331  1
  Bi2+  Bi110  1  0.34755373  0.71599382  0.19153770  1
  Bi2+  Bi111  1  0.46026415  0.72250400  0.70372860  1
  Bi2+  Bi112  1  0.58890546  -0.00016132  0.18804959  1
  Bi2+  Bi113  1  0.60318443  -0.02714718  0.70966824  1
  Bi2+  Bi114  1  0.60860644  0.20515168  0.19913169  1
  Bi2+  Bi115  1  0.52355708  0.25179969  0.70744391  1
  Bi2+  Bi116  1  0.58322303  0.49764072  0.20887221  1
  Bi2+  Bi117  1  0.62559062  0.53170954  0.71304039  1
  Bi2+  Bi118  1  0.60316814  0.80095987  0.18983055  1
  Bi2+  Bi119  1  0.64962839  0.77847205  0.68771000  1
  Bi2+  Bi120  1  0.81529474  -0.00066188  0.20664850  1
  Bi2+  Bi121  1  0.86715979  -0.00742151  0.72107547  1
  Bi2+  Bi122  1  0.81755666  0.26449133  0.21878018  1
  Bi2+  Bi123  1  0.89347077  0.23458938  0.71064733  1
  Bi2+  Bi124  1  0.91534623  0.50228827  0.20829721  1
  Bi2+  Bi125  1  0.88822587  0.50854506  0.71567594  1
  Bi2+  Bi126  1  0.87263549  0.75802349  0.22221160  1
  Bi2+  Bi127  1  0.87539611  0.75770126  0.70999999  1
  S2-  S128  1  -0.02313201  0.20136811  0.19784012  1
  S2-  S129  1  0.03340884  0.16200201  0.66202155  1
  S2-  S130  1  0.09287859  0.38867923  0.15144664  1
  S2-  S131  1  -0.05170649  0.37654322  0.67145534  1
  S2-  S132  1  -0.07877301  0.64104575  0.14766808  1
  S2-  S133  1  0.00751124  0.57356489  0.66416891  1
  S2-  S134  1  -0.05301682  0.96679887  0.14946609  1
  S2-  S135  1  0.00334758  0.78447315  0.64002855  1
  S2-  S136  1  0.14040526  0.09417489  0.15469324  1
  S2-  S137  1  0.26321905  0.05727403  0.64782497  1
  S2-  S138  1  0.26792483  0.26172573  0.15414206  1
  S2-  S139  1  0.15470474  0.39683685  0.64128849  1
  S2-  S140  1  0.26253079  0.52145629  0.14271881  1
  S2-  S141  1  0.24157154  0.65434991  0.65260911  1
  S2-  S142  1  0.13430611  0.86249710  0.14019018  1
  S2-  S143  1  0.19372275  0.85514088  0.69079189  1
  S2-  S144  1  0.38456175  0.08865254  0.13546902  1
  S2-  S145  1  0.51815999  0.09408826  0.65139079  1
  S2-  S146  1  0.61986090  0.36117865  0.14654721  1
  S2-  S147  1  0.60166302  0.39457689  0.65467932  1
  S2-  S148  1  0.57472451  0.64283096  0.14664712  1
  S2-  S149  1  0.49547783  0.57878367  0.64544906  1
  S2-  S150  1  0.37084055  0.86134006  0.13264063  1
  S2-  S151  1  0.41334837  0.87196982  0.64772410  1
  S2-  S152  1  0.80454193  0.13376701  0.14112813  1
  S2-  S153  1  0.77603826  0.12106425  0.67346075  1
  S2-  S154  1  0.86493111  0.37270633  0.14450762  1
  S2-  S155  1  0.76783759  0.33784433  0.70422274  1
  S2-  S156  1  0.75088675  0.54315984  0.18961964  1
  S2-  S157  1  0.76360644  0.55899121  0.64809047  1
  S2-  S158  1  0.75782639  0.80244602  0.14270817  1
  S2-  S159  1  0.80390639  0.87975893  0.64934039  1
  S2-  S160  1  0.10669564  0.02842773  0.34622196  1
  S2-  S161  1  0.22523337  0.01584496  0.85586979  1
  S2-  S162  1  0.01371874  0.24617967  0.34421613  1
  S2-  S163  1  0.09632431  0.26005453  0.85353149  1
  S2-  S164  1  0.11779932  0.42174227  0.35360000  1
  S2-  S165  1  0.11670371  0.50487883  0.84118974  1
  S2-  S166  1  0.05580035  0.76810694  0.35543970  1
  S2-  S167  1  0.12621260  0.74018029  0.83420476  1
  S2-  S168  1  0.36023497  0.03954359  0.33781792  1
  S2-  S169  1  0.50104341  -0.00135552  0.85075562  1
  S2-  S170  1  0.26044160  0.24524133  0.35051603  1
  S2-  S171  1  0.40516526  0.35871320  0.86483443  1
  S2-  S172  1  0.41472640  0.40143077  0.35587880  1
  S2-  S173  1  0.35736456  0.60414570  0.85321061  1
  S2-  S174  1  0.41359968  0.80725100  0.34408100  1
  S2-  S175  1  0.34293340  0.84966845  0.84782760  1
  S2-  S176  1  0.62546472  0.00256004  0.34264118  1
  S2-  S177  1  0.74262136  0.00786015  0.85117738  1
  S2-  S178  1  0.68756265  0.26723410  0.36340237  1
  S2-  S179  1  0.63647104  0.23771621  0.84064334  1
  S2-  S180  1  0.65767198  0.52231700  0.33851906  1
  S2-  S181  1  0.63995547  0.47736362  0.84760450  1
  S2-  S182  1  0.67811059  0.75464817  0.34082032  1
  S2-  S183  1  0.53478846  0.74670762  0.85189334  1
  S2-  S184  1  0.88573091  -0.09603347  0.35105140  1
  S2-  S185  1  0.99696646  0.01084751  0.85300418  1
  S2-  S186  1  0.85688673  0.11970998  0.35222092  1
  S2-  S187  1  0.87225919  0.25915926  0.83185324  1
  S2-  S188  1  0.86917431  0.41350564  0.35255986  1
  S2-  S189  1  0.88853074  0.49402885  0.83900153  1
  S2-  S190  1  0.88112873  0.62794300  0.35251596  1
  S2-  S191  1  0.88422500  0.72683193  0.84090129  1
  S2-  S192  1  0.00288138  0.14456483  0.45611365  1
  S2-  S193  1  -0.00836256  0.12807183  0.95092646  1
  S2-  S194  1  0.00587882  0.39039309  0.46197540  1
  S2-  S195  1  -0.00986922  0.37541310  0.95829741  1
  S2-  S196  1  0.01286988  0.64632867  0.45877752  1
  S2-  S197  1  -0.00789401  0.61965311  0.94986727  1
  S2-  S198  1  0.01000134  0.89488599  0.45925278  1
  S2-  S199  1  -0.00615609  0.86864410  0.95382748  1
  S2-  S200  1  0.25922076  0.14230784  0.45618889  1
  S2-  S201  1  0.24237580  0.13104746  0.95861279  1
  S2-  S202  1  0.25938762  0.39564335  0.45408999  1
  S2-  S203  1  0.24064915  0.37287591  0.96174487  1
  S2-  S204  1  0.25802196  0.64619841  0.44925322  1
  S2-  S205  1  0.24127349  0.61887459  0.95381461  1
  S2-  S206  1  0.25601844  0.89641888  0.44153049  1
  S2-  S207  1  0.23793832  0.86996241  0.95469166  1
  S2-  S208  1  0.50601618  0.14651027  0.45110768  1
  S2-  S209  1  0.49131108  0.12692016  0.94948362  1
  S2-  S210  1  0.50958667  0.39334336  0.46305529  1
  S2-  S211  1  0.50004846  0.37450397  0.96662736  1
  S2-  S212  1  0.50903626  0.64189059  0.44355078  1
  S2-  S213  1  0.49794032  0.61820389  0.95507450  1
  S2-  S214  1  0.51002723  0.89599769  0.45537669  1
  S2-  S215  1  0.49571586  0.86972696  0.95311858  1
  S2-  S216  1  0.76157279  0.14409331  0.46511153  1
  S2-  S217  1  0.74273132  0.12733364  0.94780799  1
  S2-  S218  1  0.75951272  0.38991093  0.46370634  1
  S2-  S219  1  0.74618457  0.37186694  0.95699712  1
  S2-  S220  1  0.75586448  0.64443873  0.45536177  1
  S2-  S221  1  0.74398950  0.62304691  0.94055546  1
  S2-  S222  1  0.75707274  0.89362772  0.45106392  1
  S2-  S223  1  0.74089329  0.86816832  0.94660075  1
  S2-  S224  1  0.11642067  0.00276237  0.04205443  1
  S2-  S225  1  0.13158719  0.01529814  0.55161408  1
  S2-  S226  1  0.10760028  0.24330324  0.05568612  1
  S2-  S227  1  0.13576514  0.26451898  0.54190036  1
  S2-  S228  1  0.11341220  0.50207109  0.04634017  1
  S2-  S229  1  0.13554199  0.52598298  0.54446354  1
  S2-  S230  1  0.11908032  0.74051927  0.04313482  1
  S2-  S231  1  0.14339655  0.77908038  0.54708139  1
  S2-  S232  1  0.36846744  -0.00627740  0.02926237  1
  S2-  S233  1  0.38187324  0.01694199  0.54374435  1
  S2-  S234  1  0.37162684  0.25402308  0.04721424  1
  S2-  S235  1  0.38281623  0.26690719  0.53735483  1
  S2-  S236  1  0.37636209  0.49776172  0.04330762  1
  S2-  S237  1  0.37834953  0.52064058  0.53770440  1
  S2-  S238  1  0.37064195  0.74088308  0.03418904  1
  S2-  S239  1  0.37955315  0.77036889  0.54319961  1
  S2-  S240  1  0.61401160  -0.00694900  0.04024968  1
  S2-  S241  1  0.63153096  0.01847231  0.54971441  1
  S2-  S242  1  0.61437736  0.24011233  0.04526131  1
  S2-  S243  1  0.62895949  0.26438911  0.56099784  1
  S2-  S244  1  0.62326557  0.50544801  0.05123575  1
  S2-  S245  1  0.63413611  0.52017520  0.54644324  1
  S2-  S246  1  0.61731107  0.75063890  0.04098591  1
  S2-  S247  1  0.63214229  0.76731618  0.54493675  1
  S2-  S248  1  0.86399047  -0.00626251  0.03471933  1
  S2-  S249  1  0.88468237  0.01680779  0.54925428  1
  S2-  S250  1  0.86997829  0.24222673  0.04222520  1
  S2-  S251  1  0.87797899  0.27138271  0.56761200  1
  S2-  S252  1  0.85776176  0.50730235  0.04450542  1
  S2-  S253  1  0.88364641  0.52133740  0.54928840  1
  S2-  S254  1  0.86459493  0.74923035  0.04178177  1
  S2-  S255  1  0.87993356  0.76820528  0.53846144  1
