# generated using pymatgen
data_La12Ce14Pr13Nd13Sm12(BiS2)64
_symmetry_space_group_name_H-M   'P 1'
_cell_length_a   16.12089229
_cell_length_b   16.12852379
_cell_length_c   27.39956637
_cell_angle_alpha   89.74878763
_cell_angle_beta   89.69077470
_cell_angle_gamma   90.02381176
_symmetry_Int_Tables_number   1
_chemical_formula_structural   La12Ce14Pr13Nd13Sm12(BiS2)64
_chemical_formula_sum   'La12 Ce14 Pr13 Nd13 Sm12 Bi64 S128'
_cell_volume   7123.88407532
_cell_formula_units_Z   1
loop_
 _symmetry_equiv_pos_site_id
 _symmetry_equiv_pos_as_xyz
  1  'x, y, z'
loop_
 _atom_type_symbol
 _atom_type_oxidation_number
  La3+  3.0
  Ce3+  3.0
  Pr3+  3.0
  Nd3+  3.0
  Sm3+  3.0
  Bi2+  2.0
  S2-  -2.0
loop_
 _atom_site_type_symbol
 _atom_site_label
 _atom_site_symmetry_multiplicity
 _atom_site_fract_x
 _atom_site_fract_y
 _atom_site_fract_z
 _atom_site_occupancy
  La3+  La0  1  0.61879478  0.25017761  0.43886662  1
  La3+  La1  1  0.88743657  -0.01019641  0.90887395  1
  La3+  La2  1  0.25027166  0.86878603  0.06941837  1
  La3+  La3  1  -0.00711515  0.62409776  0.57506142  1
  La3+  La4  1  0.37657383  0.24104986  0.89378138  1
  La3+  La5  1  0.74103656  0.61908226  0.06713715  1
  La3+  La6  1  -0.00843806  0.86454247  0.06569177  1
  La3+  La7  1  0.50525195  0.11074480  0.09488185  1
  La3+  La8  1  0.74896812  0.12815858  0.59634717  1
  La3+  La9  1  0.37016679  0.50244317  0.44044892  1
  La3+  La10  1  0.62633056  0.00693230  0.91774588  1
  La3+  La11  1  0.12022132  0.25644231  0.42346868  1
  Ce3+  Ce12  1  0.61638919  0.00183846  0.44791817  1
  Ce3+  Ce13  1  0.12209350  -0.00693885  0.42661435  1
  Ce3+  Ce14  1  0.11898376  0.50500037  0.43938666  1
  Ce3+  Ce15  1  0.74186969  0.87707536  0.55674736  1
  Ce3+  Ce16  1  0.49293267  0.62364715  0.57563628  1
  Ce3+  Ce17  1  0.87010424  0.75057792  0.44418772  1
  Ce3+  Ce18  1  0.13056692  0.49595074  0.94796815  1
  Ce3+  Ce19  1  0.49596496  0.36771711  0.56311107  1
  Ce3+  Ce20  1  0.38039703  -0.00126687  0.42788746  1
  Ce3+  Ce21  1  0.12684910  0.74551421  0.94315284  1
  Ce3+  Ce22  1  0.49345366  0.87758441  0.56609005  1
  Ce3+  Ce23  1  0.50140148  0.61853976  0.05792091  1
  Ce3+  Ce24  1  0.12988175  0.24432671  0.94439828  1
  Ce3+  Ce25  1  0.74484663  0.12066831  0.05308800  1
  Pr3+  Pr26  1  -0.00796914  0.12461104  0.55109122  1
  Pr3+  Pr27  1  0.62400756  0.25013120  0.93121199  1
  Pr3+  Pr28  1  0.24369742  0.62247606  0.57237669  1
  Pr3+  Pr29  1  0.74778272  0.87365564  0.04526165  1
  Pr3+  Pr30  1  -0.00100678  0.37051867  0.05630748  1
  Pr3+  Pr31  1  0.36608068  0.49718122  0.93192057  1
  Pr3+  Pr32  1  -0.00803541  0.37144967  0.55331606  1
  Pr3+  Pr33  1  0.74221817  0.62622810  0.57875297  1
  Pr3+  Pr34  1  0.24301188  0.37253677  0.56401470  1
  Pr3+  Pr35  1  0.24436936  0.11877261  0.55371208  1
  Pr3+  Pr36  1  0.86662829  0.25059133  0.43383529  1
  Pr3+  Pr37  1  0.87538074  0.73751632  0.92695055  1
  Pr3+  Pr38  1  0.87797461  0.24550349  0.93984706  1
  Nd3+  Nd39  1  0.61964091  0.49269902  0.92906773  1
  Nd3+  Nd40  1  0.74250067  0.37113670  0.56496567  1
  Nd3+  Nd41  1  -0.01027317  0.87978021  0.56180941  1
  Nd3+  Nd42  1  -0.00881604  0.61762592  0.06618794  1
  Nd3+  Nd43  1  0.12824423  -0.00351212  0.94160546  1
  Nd3+  Nd44  1  0.36974265  0.24883937  0.43869514  1
  Nd3+  Nd45  1  0.37676406  0.00106271  0.94369411  1
  Nd3+  Nd46  1  0.25297915  0.36514012  0.06464245  1
  Nd3+  Nd47  1  0.24512892  0.87570934  0.55903566  1
  Nd3+  Nd48  1  0.62019240  0.74862074  0.44909314  1
  Nd3+  Nd49  1  0.48622572  0.12005860  0.57603851  1
  Nd3+  Nd50  1  0.49627361  0.36547423  0.05645156  1
  Nd3+  Nd51  1  0.24749514  0.11495602  0.07300306  1
  Sm3+  Sm52  1  0.86983306  -0.00011045  0.43905306  1
  Sm3+  Sm53  1  0.74391017  0.36705280  0.05247840  1
  Sm3+  Sm54  1  0.86757091  0.50320282  0.44597894  1
  Sm3+  Sm55  1  0.24899061  0.62433811  0.06991120  1
  Sm3+  Sm56  1  0.37039404  0.75153263  0.44558009  1
  Sm3+  Sm57  1  0.50189639  0.87487265  0.05138745  1
  Sm3+  Sm58  1  0.87458106  0.49990256  0.93699417  1
  Sm3+  Sm59  1  -0.00181872  0.11975396  0.06008100  1
  Sm3+  Sm60  1  0.11939752  0.75114732  0.45009766  1
  Sm3+  Sm61  1  0.37587125  0.74800026  0.94491657  1
  Sm3+  Sm62  1  0.62358207  0.74572309  0.93672737  1
  Sm3+  Sm63  1  0.61965237  0.50231223  0.44987930  1
  Bi2+  Bi64  1  -0.04048764  0.14858188  0.26011282  1
  Bi2+  Bi65  1  -0.01005252  0.18437980  0.81056992  1
  Bi2+  Bi66  1  0.02393197  0.40423787  0.27542069  1
  Bi2+  Bi67  1  0.04683689  0.37264408  0.79023505  1
  Bi2+  Bi68  1  0.01705760  0.59836729  0.28570373  1
  Bi2+  Bi69  1  0.00076059  0.60623263  0.77614354  1
  Bi2+  Bi70  1  -0.02459988  0.84452615  0.29987235  1
  Bi2+  Bi71  1  0.00502337  0.80193176  0.76239176  1
  Bi2+  Bi72  1  0.22968004  0.10458685  0.26771735  1
  Bi2+  Bi73  1  0.24500488  0.11765506  0.78608666  1
  Bi2+  Bi74  1  0.25106805  0.34774073  0.30157544  1
  Bi2+  Bi75  1  0.24214225  0.39163773  0.79851690  1
  Bi2+  Bi76  1  0.20969446  0.61711079  0.30800073  1
  Bi2+  Bi77  1  0.21378568  0.63864376  0.78151670  1
  Bi2+  Bi78  1  0.24763490  0.86711331  0.30193783  1
  Bi2+  Bi79  1  0.23011628  0.87681298  0.79894253  1
  Bi2+  Bi80  1  0.48445908  0.11625871  0.29857127  1
  Bi2+  Bi81  1  0.50500655  0.08918802  0.78626389  1
  Bi2+  Bi82  1  0.50318912  0.36784953  0.30344178  1
  Bi2+  Bi83  1  0.52947899  0.48682589  0.79690333  1
  Bi2+  Bi84  1  0.47994545  0.67004721  0.29710615  1
  Bi2+  Bi85  1  0.41281034  0.64057094  0.79568781  1
  Bi2+  Bi86  1  0.51158998  0.84999392  0.23667799  1
  Bi2+  Bi87  1  0.44324293  0.88961344  0.77785675  1
  Bi2+  Bi88  1  0.75809850  0.16430230  0.30472900  1
  Bi2+  Bi89  1  0.74417147  0.13785974  0.77586380  1
  Bi2+  Bi90  1  0.75610717  0.41213210  0.28974808  1
  Bi2+  Bi91  1  0.77219087  0.39089537  0.79647301  1
  Bi2+  Bi92  1  0.74735135  0.67737522  0.28690583  1
  Bi2+  Bi93  1  0.72397756  0.57836792  0.80957721  1
  Bi2+  Bi94  1  0.70274156  0.87159925  0.29217629  1
  Bi2+  Bi95  1  0.75362234  0.84621235  0.80103512  1
  Bi2+  Bi96  1  0.10069318  -0.00255482  0.21535031  1
  Bi2+  Bi97  1  0.08848808  0.00567305  0.75926832  1
  Bi2+  Bi98  1  0.09120074  0.27556674  0.19717572  1
  Bi2+  Bi99  1  0.11130292  0.19408570  0.71647209  1
  Bi2+  Bi100  1  0.16203578  0.52663689  0.20954535  1
  Bi2+  Bi101  1  0.13561157  0.48102773  0.70207662  1
  Bi2+  Bi102  1  0.15903516  0.74668275  0.22654345  1
  Bi2+  Bi103  1  0.23573536  0.78329854  0.69971202  1
  Bi2+  Bi104  1  0.37124384  -0.03144778  0.20734533  1
  Bi2+  Bi105  1  0.33496448  0.00181456  0.69889838  1
  Bi2+  Bi106  1  0.36138103  0.28133113  0.19804550  1
  Bi2+  Bi107  1  0.39543366  0.26369094  0.69725335  1
  Bi2+  Bi108  1  0.35566111  0.53498371  0.24177756  1
  Bi2+  Bi109  1  0.38133618  0.49916829  0.71969324  1
  Bi2+  Bi110  1  0.41335656  0.69521388  0.18987925  1
  Bi2+  Bi111  1  0.42933184  0.77030789  0.68555971  1
  Bi2+  Bi112  1  0.65927035  0.04022682  0.23666414  1
  Bi2+  Bi113  1  0.61939064  -0.08925577  0.70151830  1
  Bi2+  Bi114  1  0.61772553  0.27968846  0.19217992  1
  Bi2+  Bi115  1  0.62670180  0.31579724  0.70975475  1
  Bi2+  Bi116  1  0.61950950  0.54216206  0.25465244  1
  Bi2+  Bi117  1  0.70807918  0.49050669  0.70058324  1
  Bi2+  Bi118  1  0.66598274  0.74890695  0.19090934  1
  Bi2+  Bi119  1  0.60262670  0.72145887  0.73337455  1
  Bi2+  Bi120  1  0.84495844  -0.01234272  0.24379082  1
  Bi2+  Bi121  1  0.86822017  -0.03937655  0.69567653  1
  Bi2+  Bi122  1  0.80862176  0.27117499  0.21286622  1
  Bi2+  Bi123  1  0.92042868  0.24172549  0.70499587  1
  Bi2+  Bi124  1  0.88548999  0.50217819  0.21747962  1
  Bi2+  Bi125  1  0.90620609  0.45748183  0.71861154  1
  Bi2+  Bi126  1  0.91310600  0.75329871  0.19081266  1
  Bi2+  Bi127  1  0.84002884  0.70718049  0.73471139  1
  S2-  S128  1  0.01552492  0.13275735  0.15722582  1
  S2-  S129  1  -0.08314649  0.10547670  0.64217455  1
  S2-  S130  1  -0.01383985  0.39184514  0.15483531  1
  S2-  S131  1  0.01473639  0.36905623  0.65165535  1
  S2-  S132  1  0.04757700  0.68772356  0.15309327  1
  S2-  S133  1  0.11959495  0.61426588  0.64625059  1
  S2-  S134  1  0.00871396  0.89924573  0.16469794  1
  S2-  S135  1  -0.01481307  0.86321048  0.66114832  1
  S2-  S136  1  0.23079534  0.18880445  0.16577729  1
  S2-  S137  1  0.33139851  0.13967433  0.63970782  1
  S2-  S138  1  0.23852514  0.39668669  0.16243794  1
  S2-  S139  1  0.26301755  0.37066119  0.66372232  1
  S2-  S140  1  0.26146791  0.74244908  0.14361242  1
  S2-  S141  1  0.36800863  0.61243497  0.64619625  1
  S2-  S142  1  0.24320726  0.98183842  0.14754697  1
  S2-  S143  1  0.21078468  0.94460566  0.64732129  1
  S2-  S144  1  0.44670001  0.14253792  0.19342381  1
  S2-  S145  1  0.54043368  0.19504893  0.66223341  1
  S2-  S146  1  0.49167901  0.37461284  0.15744153  1
  S2-  S147  1  0.49298512  0.40237292  0.65890009  1
  S2-  S148  1  0.60529511  0.61120727  0.13534734  1
  S2-  S149  1  0.61241795  0.62194825  0.65068721  1
  S2-  S150  1  0.50738193  0.94381429  0.14070513  1
  S2-  S151  1  0.48844974  0.98033732  0.64408677  1
  S2-  S152  1  0.66445098  0.12379660  0.14072797  1
  S2-  S153  1  0.71347833  0.05386734  0.68763033  1
  S2-  S154  1  0.72072906  0.38820703  0.14865404  1
  S2-  S155  1  0.76073949  0.27919718  0.64951195  1
  S2-  S156  1  0.86016556  0.61265668  0.14051894  1
  S2-  S157  1  0.86998028  0.63105938  0.64832620  1
  S2-  S158  1  0.78312823  0.84149595  0.14196678  1
  S2-  S159  1  0.76123778  0.84928480  0.65230615  1
  S2-  S160  1  0.12714629  0.00097156  0.32698053  1
  S2-  S161  1  0.04016098  0.02031244  0.85555419  1
  S2-  S162  1  0.16106163  0.21417366  0.32789319  1
  S2-  S163  1  0.21113445  0.24330097  0.85707298  1
  S2-  S164  1  0.12863174  0.40759637  0.35834870  1
  S2-  S165  1  0.21585113  0.52552038  0.86408848  1
  S2-  S166  1  0.11496551  0.79745134  0.35623317  1
  S2-  S167  1  0.12579023  0.76241052  0.84568633  1
  S2-  S168  1  0.34128461  0.02641741  0.33150016  1
  S2-  S169  1  0.36516188  0.06731000  0.85151582  1
  S2-  S170  1  0.38811154  0.24844366  0.33909494  1
  S2-  S171  1  0.43981909  0.23543629  0.79157688  1
  S2-  S172  1  0.37446038  0.46073531  0.34295223  1
  S2-  S173  1  0.38591981  0.40385782  0.84725265  1
  S2-  S174  1  0.36851032  0.78350992  0.34868125  1
  S2-  S175  1  0.36142040  0.77955180  0.84948197  1
  S2-  S176  1  0.53255664  0.00758798  0.36301606  1
  S2-  S177  1  0.57757053  -0.06122958  0.82901979  1
  S2-  S178  1  0.60144579  0.24006946  0.33843229  1
  S2-  S179  1  0.62431168  0.14745028  0.84705124  1
  S2-  S180  1  0.60628660  0.47716449  0.35353890  1
  S2-  S181  1  0.62082921  0.37418073  0.85492923  1
  S2-  S182  1  0.61740976  0.74663402  0.35008229  1
  S2-  S183  1  0.63584653  0.72339361  0.83988787  1
  S2-  S184  1  0.90050427  -0.02840038  0.34388376  1
  S2-  S185  1  0.78570272  0.00927224  0.82738782  1
  S2-  S186  1  0.91087758  0.23934908  0.33751997  1
  S2-  S187  1  0.82958225  0.24081134  0.84336638  1
  S2-  S188  1  0.86516795  0.48431311  0.34909739  1
  S2-  S189  1  0.88548383  0.60316250  0.85803581  1
  S2-  S190  1  0.88250205  0.72991992  0.34806360  1
  S2-  S191  1  0.89987060  0.84072790  0.84573190  1
  S2-  S192  1  -0.00407968  0.12344943  0.44406000  1
  S2-  S193  1  0.00049677  0.12115028  0.95738526  1
  S2-  S194  1  -0.01042654  0.37771226  0.44929672  1
  S2-  S195  1  0.00066336  0.37500508  0.94856266  1
  S2-  S196  1  -0.00537227  0.62579136  0.45923211  1
  S2-  S197  1  0.00454987  0.61748094  0.95837310  1
  S2-  S198  1  -0.00605198  0.87618074  0.45581830  1
  S2-  S199  1  0.00202039  0.87017279  0.95635034  1
  S2-  S200  1  0.24494869  0.12353323  0.44658786  1
  S2-  S201  1  0.24991477  0.11987959  0.96286664  1
  S2-  S202  1  0.24654639  0.37477385  0.45680151  1
  S2-  S203  1  0.25227341  0.36786457  0.95997975  1
  S2-  S204  1  0.24386624  0.62949282  0.45921220  1
  S2-  S205  1  0.25376843  0.62732546  0.96592078  1
  S2-  S206  1  0.24689920  0.87441281  0.45297563  1
  S2-  S207  1  0.25208948  0.87207667  0.95860945  1
  S2-  S208  1  0.49252590  0.12819452  0.46186179  1
  S2-  S209  1  0.49379503  0.12942152  0.94465710  1
  S2-  S210  1  0.49514610  0.37589704  0.45609405  1
  S2-  S211  1  0.48933197  0.36914796  0.95245485  1
  S2-  S212  1  0.49475563  0.62637978  0.45949260  1
  S2-  S213  1  0.49777069  0.62109677  0.94859822  1
  S2-  S214  1  0.49562800  0.87064829  0.45937601  1
  S2-  S215  1  0.50021593  0.87124866  0.94729207  1
  S2-  S216  1  0.74550892  0.12131236  0.44262242  1
  S2-  S217  1  0.76011624  0.11644224  0.94934516  1
  S2-  S218  1  0.74423628  0.37841029  0.45573262  1
  S2-  S219  1  0.75476239  0.37434825  0.94977693  1
  S2-  S220  1  0.74401027  0.62357476  0.46090611  1
  S2-  S221  1  0.74238678  0.61727271  0.95493582  1
  S2-  S222  1  0.74442053  0.87691438  0.44952102  1
  S2-  S223  1  0.74806347  0.87003199  0.94045842  1
  S2-  S224  1  0.11820501  -0.00511818  0.04691358  1
  S2-  S225  1  0.11548232  -0.00065869  0.53711208  1
  S2-  S226  1  0.12348455  0.24415617  0.05011512  1
  S2-  S227  1  0.11932311  0.24722576  0.54118587  1
  S2-  S228  1  0.12714734  0.49870776  0.05403296  1
  S2-  S229  1  0.11832451  0.49644845  0.54385236  1
  S2-  S230  1  0.12329782  0.74340693  0.04620536  1
  S2-  S231  1  0.11677590  0.75568695  0.55252920  1
  S2-  S232  1  0.37848154  -0.00102669  0.04712317  1
  S2-  S233  1  0.36903586  -0.00331916  0.53733477  1
  S2-  S234  1  0.37687503  0.23742130  0.06443061  1
  S2-  S235  1  0.36861528  0.25077697  0.54336254  1
  S2-  S236  1  0.37080899  0.49885935  0.05004879  1
  S2-  S237  1  0.36942613  0.49529272  0.54709304  1
  S2-  S238  1  0.38219544  0.74692781  0.04689763  1
  S2-  S239  1  0.36769793  0.75130621  0.54856428  1
  S2-  S240  1  0.62157076  -0.00147998  0.03245718  1
  S2-  S241  1  0.62526552  0.00778713  0.55162897  1
  S2-  S242  1  0.62018806  0.24453863  0.03915481  1
  S2-  S243  1  0.62292314  0.24434678  0.54669834  1
  S2-  S244  1  0.62054158  0.48815961  0.03484685  1
  S2-  S245  1  0.61941042  0.49603851  0.55165652  1
  S2-  S246  1  0.62064375  0.75018299  0.03983733  1
  S2-  S247  1  0.61706499  0.75287547  0.55339926  1
  S2-  S248  1  0.87413567  -0.00069102  0.05266505  1
  S2-  S249  1  0.86271521  0.00269493  0.54234065  1
  S2-  S250  1  0.87284463  0.24537370  0.04841883  1
  S2-  S251  1  0.86497798  0.24640163  0.53993645  1
  S2-  S252  1  0.86897651  0.48964811  0.04035845  1
  S2-  S253  1  0.86576367  0.49619995  0.55057494  1
  S2-  S254  1  0.87016941  0.74212378  0.03490216  1
  S2-  S255  1  0.86859762  0.75290398  0.54759396  1
