# generated using pymatgen
data_La12Ce14Pr13Nd13Sm12(BiS2)64
_symmetry_space_group_name_H-M   'P 1'
_cell_length_a   16.10204969
_cell_length_b   16.10768588
_cell_length_c   27.40633688
_cell_angle_alpha   89.74545695
_cell_angle_beta   90.20451111
_cell_angle_gamma   89.96997653
_symmetry_Int_Tables_number   1
_chemical_formula_structural   La12Ce14Pr13Nd13Sm12(BiS2)64
_chemical_formula_sum   'La12 Ce14 Pr13 Nd13 Sm12 Bi64 S128'
_cell_volume   7108.17629034
_cell_formula_units_Z   1
loop_
 _symmetry_equiv_pos_site_id
 _symmetry_equiv_pos_as_xyz
  1  'x, y, z'
loop_
 _atom_type_symbol
 _atom_type_oxidation_number
  La3+  3.0
  Ce3+  3.0
  Pr3+  3.0
  Nd3+  3.0
  Sm3+  3.0
  Bi2+  2.0
  S2-  -2.0
loop_
 _atom_site_type_symbol
 _atom_site_label
 _atom_site_symmetry_multiplicity
 _atom_site_fract_x
 _atom_site_fract_y
 _atom_site_fract_z
 _atom_site_occupancy
  La3+  La0  1  0.51471435  0.87189510  0.58384544  1
  La3+  La1  1  0.60698683  0.25951081  0.93263245  1
  La3+  La2  1  0.09927031  0.77940683  0.91561423  1
  La3+  La3  1  0.12752752  0.24864231  0.41963188  1
  La3+  La4  1  0.60798441  0.00856808  0.93653491  1
  La3+  La5  1  0.12925944  -0.01952568  0.40109922  1
  La3+  La6  1  -0.01800232  0.13635954  0.08569877  1
  La3+  La7  1  0.00623029  0.85978777  0.58040214  1
  La3+  La8  1  0.86932247  0.24694400  0.39229092  1
  La3+  La9  1  -0.02477173  0.87004157  0.08414336  1
  La3+  La10  1  0.47471382  0.88661403  0.07376631  1
  La3+  La11  1  0.50343155  0.61074173  0.61068338  1
  Ce3+  Ce12  1  0.25772045  0.60910221  0.56675418  1
  Ce3+  Ce13  1  0.62547712  0.24094304  0.43749889  1
  Ce3+  Ce14  1  -0.02355859  0.63406127  0.05276483  1
  Ce3+  Ce15  1  0.13221963  0.49009906  0.44314211  1
  Ce3+  Ce16  1  0.73379130  0.13326900  0.06428960  1
  Ce3+  Ce17  1  0.22912595  0.64018181  0.04887540  1
  Ce3+  Ce18  1  0.85461524  0.75242097  0.93317907  1
  Ce3+  Ce19  1  0.25896003  0.36221947  0.56956237  1
  Ce3+  Ce20  1  0.72362059  0.63405697  0.05832561  1
  Ce3+  Ce21  1  0.47970624  0.63582265  0.05231487  1
  Ce3+  Ce22  1  0.50615336  0.36447185  0.55567455  1
  Ce3+  Ce23  1  0.75299902  0.36530617  0.55638763  1
  Ce3+  Ce24  1  0.00360415  0.36708848  0.55981078  1
  Ce3+  Ce25  1  0.48449493  0.13509031  0.05524804  1
  Pr3+  Pr26  1  0.87985205  0.49120389  0.43508112  1
  Pr3+  Pr27  1  0.23368904  0.38402738  0.05978656  1
  Pr3+  Pr28  1  0.62988522  -0.00557581  0.43690629  1
  Pr3+  Pr29  1  0.00756656  0.11520097  0.55388070  1
  Pr3+  Pr30  1  0.88402344  0.74512376  0.44277697  1
  Pr3+  Pr31  1  0.37671000  -0.01041632  0.44432468  1
  Pr3+  Pr32  1  0.85543249  0.50948727  0.93224487  1
  Pr3+  Pr33  1  -0.02654048  0.38256444  0.07119299  1
  Pr3+  Pr34  1  0.25162371  0.14262237  0.09668447  1
  Pr3+  Pr35  1  0.35476906  0.76894709  0.92777466  1
  Pr3+  Pr36  1  0.25183569  0.11340482  0.55485610  1
  Pr3+  Pr37  1  0.00431216  0.61036086  0.56626852  1
  Pr3+  Pr38  1  0.37325084  0.24379335  0.43171920  1
  Nd3+  Nd39  1  0.10556053  0.25707870  0.94825611  1
  Nd3+  Nd40  1  0.35315670  0.51122919  0.93506659  1
  Nd3+  Nd41  1  0.85899233  0.25913205  0.93079019  1
  Nd3+  Nd42  1  0.74750138  0.61745666  0.55849808  1
  Nd3+  Nd43  1  0.23006388  0.87469278  0.07369103  1
  Nd3+  Nd44  1  0.48162399  0.38332503  0.06586156  1
  Nd3+  Nd45  1  0.62872059  0.49167428  0.43940959  1
  Nd3+  Nd46  1  0.13176707  0.74283486  0.44450221  1
  Nd3+  Nd47  1  0.60097952  0.50811409  0.93500837  1
  Nd3+  Nd48  1  0.10594748  0.50889457  0.94440924  1
  Nd3+  Nd49  1  0.86275591  0.00680968  0.94805230  1
  Nd3+  Nd50  1  0.60326811  0.76181856  0.93805844  1
  Nd3+  Nd51  1  0.72788820  0.38350086  0.06200714  1
  Sm3+  Sm52  1  0.38142289  0.49360243  0.44667221  1
  Sm3+  Sm53  1  0.10512016  0.01032373  0.96407925  1
  Sm3+  Sm54  1  0.88844974  -0.00814408  0.44295152  1
  Sm3+  Sm55  1  0.72527748  0.88333806  0.06458222  1
  Sm3+  Sm56  1  0.34970032  0.00809829  0.94429634  1
  Sm3+  Sm57  1  0.75844266  0.11784103  0.54856487  1
  Sm3+  Sm58  1  0.38208923  0.74256508  0.45285564  1
  Sm3+  Sm59  1  0.62645124  0.74303006  0.43964456  1
  Sm3+  Sm60  1  0.35777857  0.25736084  0.93351175  1
  Sm3+  Sm61  1  0.50442101  0.11549560  0.56262721  1
  Sm3+  Sm62  1  0.25737166  0.85484163  0.57262033  1
  Sm3+  Sm63  1  0.75199169  0.86728709  0.55308165  1
  Bi2+  Bi64  1  -0.01519033  0.09097839  0.27818750  1
  Bi2+  Bi65  1  0.01693684  0.08858551  0.82493294  1
  Bi2+  Bi66  1  0.01169012  0.38331399  0.28687421  1
  Bi2+  Bi67  1  0.01139545  0.38141679  0.79233522  1
  Bi2+  Bi68  1  -0.04891201  0.60156952  0.28822564  1
  Bi2+  Bi69  1  -0.01686399  0.65610152  0.80292506  1
  Bi2+  Bi70  1  -0.00243089  0.84533046  0.28796313  1
  Bi2+  Bi71  1  0.03814465  0.88845479  0.78662564  1
  Bi2+  Bi72  1  0.31212695  0.09854547  0.29774885  1
  Bi2+  Bi73  1  0.29431600  0.12728252  0.82639891  1
  Bi2+  Bi74  1  0.26666690  0.38253863  0.29034355  1
  Bi2+  Bi75  1  0.25986750  0.31600383  0.80928070  1
  Bi2+  Bi76  1  0.21418332  0.61836254  0.28948577  1
  Bi2+  Bi77  1  0.24427324  0.50687259  0.80051742  1
  Bi2+  Bi78  1  0.27443791  0.81702999  0.29492425  1
  Bi2+  Bi79  1  0.28328204  0.95485913  0.76829483  1
  Bi2+  Bi80  1  0.48685178  0.18159272  0.32734937  1
  Bi2+  Bi81  1  0.53382066  0.12421288  0.79641385  1
  Bi2+  Bi82  1  0.51378190  0.37758220  0.30445846  1
  Bi2+  Bi83  1  0.53399745  0.31912025  0.77202388  1
  Bi2+  Bi84  1  0.39223814  0.59376941  0.24183458  1
  Bi2+  Bi85  1  0.51158832  0.59748357  0.80442137  1
  Bi2+  Bi86  1  0.50863069  0.82908968  0.29888037  1
  Bi2+  Bi87  1  0.49711673  0.85037544  0.81134394  1
  Bi2+  Bi88  1  0.66690989  0.12938698  0.28975725  1
  Bi2+  Bi89  1  0.82671754  0.16222723  0.77958351  1
  Bi2+  Bi90  1  0.72772476  0.40285648  0.28406272  1
  Bi2+  Bi91  1  0.75009709  0.36821989  0.79783683  1
  Bi2+  Bi92  1  0.74594804  0.59041646  0.25145329  1
  Bi2+  Bi93  1  0.76155824  0.61359445  0.74702220  1
  Bi2+  Bi94  1  0.73200916  0.86061601  0.28596093  1
  Bi2+  Bi95  1  0.77626722  0.89494686  0.75481170  1
  Bi2+  Bi96  1  0.16963489  -0.03135954  0.21408204  1
  Bi2+  Bi97  1  0.15253446  0.09880184  0.74541130  1
  Bi2+  Bi98  1  0.13133571  0.23279594  0.21223947  1
  Bi2+  Bi99  1  0.16524579  0.28586716  0.70036994  1
  Bi2+  Bi100  1  0.11778074  0.50521174  0.21362524  1
  Bi2+  Bi101  1  0.12505264  0.48726951  0.71321527  1
  Bi2+  Bi102  1  0.11114030  0.71237426  0.20897506  1
  Bi2+  Bi103  1  0.14269553  0.79197064  0.70290316  1
  Bi2+  Bi104  1  0.48300838  0.01195437  0.25847276  1
  Bi2+  Bi105  1  0.38594047  0.10602849  0.71994178  1
  Bi2+  Bi106  1  0.44222100  0.27741311  0.21539042  1
  Bi2+  Bi107  1  0.48890625  0.25135056  0.66712781  1
  Bi2+  Bi108  1  0.35605557  0.43900861  0.17523567  1
  Bi2+  Bi109  1  0.34211455  0.37330928  0.70866437  1
  Bi2+  Bi110  1  0.37059151  0.77221449  0.19688694  1
  Bi2+  Bi111  1  0.36331521  0.73049335  0.72721035  1
  Bi2+  Bi112  1  0.59937040  0.07127987  0.17275770  1
  Bi2+  Bi113  1  0.63297142  0.00328364  0.70732758  1
  Bi2+  Bi114  1  0.64325070  0.25892478  0.20131294  1
  Bi2+  Bi115  1  0.67161826  0.21173743  0.70747772  1
  Bi2+  Bi116  1  0.55945466  0.51622401  0.20618787  1
  Bi2+  Bi117  1  0.63742563  0.47320415  0.70780492  1
  Bi2+  Bi118  1  0.61400978  0.76694050  0.21128428  1
  Bi2+  Bi119  1  0.63702646  0.76216263  0.71653961  1
  Bi2+  Bi120  1  0.77014471  -0.00285868  0.20771875  1
  Bi2+  Bi121  1  0.89228601  0.02282311  0.69948274  1
  Bi2+  Bi122  1  0.85959655  0.25461013  0.20975959  1
  Bi2+  Bi123  1  0.94057910  0.27022361  0.70810452  1
  Bi2+  Bi124  1  0.92173878  0.50601518  0.19270058  1
  Bi2+  Bi125  1  0.88135026  0.46695645  0.71312339  1
  Bi2+  Bi126  1  0.85272769  0.74147074  0.20758044  1
  Bi2+  Bi127  1  0.88221067  0.75135627  0.71128851  1
  S2-  S128  1  0.04997916  0.08667551  0.18024513  1
  S2-  S129  1  -0.00371196  0.13849706  0.65439333  1
  S2-  S130  1  0.00330008  0.27868980  0.15343859  1
  S2-  S131  1  0.00234817  0.47904711  0.63845958  1
  S2-  S132  1  -0.01936181  0.70703770  0.13976260  1
  S2-  S133  1  0.00812297  0.71483081  0.64800338  1
  S2-  S134  1  0.04349821  0.88037929  0.18437926  1
  S2-  S135  1  0.02195507  0.92177878  0.67730962  1
  S2-  S136  1  0.25224642  0.10986626  0.19768237  1
  S2-  S137  1  0.26865825  0.17909995  0.64754811  1
  S2-  S138  1  0.23415152  0.30074933  0.14826682  1
  S2-  S139  1  0.25686847  0.48153090  0.64222577  1
  S2-  S140  1  0.23387050  0.72132488  0.13609169  1
  S2-  S141  1  0.24965411  0.70300738  0.65044368  1
  S2-  S142  1  0.34880774  0.91090741  0.14720683  1
  S2-  S143  1  0.26106499  0.90008336  0.66840969  1
  S2-  S144  1  0.42137453  0.16299180  0.14193969  1
  S2-  S145  1  0.50287626  0.01658734  0.64594130  1
  S2-  S146  1  0.60642298  0.39368739  0.13847725  1
  S2-  S147  1  0.51885042  0.43840960  0.64410752  1
  S2-  S148  1  0.54709410  0.64784897  0.14192651  1
  S2-  S149  1  0.44125998  0.59245768  0.71199205  1
  S2-  S150  1  0.60700899  0.88883766  0.14303838  1
  S2-  S151  1  0.48775270  0.76861310  0.66365961  1
  S2-  S152  1  0.83266214  0.13256831  0.14812132  1
  S2-  S153  1  0.74986166  0.09954062  0.64629522  1
  S2-  S154  1  0.83503027  0.38425693  0.14205878  1
  S2-  S155  1  0.75542206  0.38410101  0.65361683  1
  S2-  S156  1  0.77495790  0.61413601  0.15098993  1
  S2-  S157  1  0.66977641  0.62271065  0.64800113  1
  S2-  S158  1  0.82797460  0.87607868  0.14493153  1
  S2-  S159  1  0.67728891  0.87006093  0.64075372  1
  S2-  S160  1  0.14586741  0.04856510  0.30689406  1
  S2-  S161  1  0.10981504  -0.04905228  0.87072723  1
  S2-  S162  1  0.02014752  0.23174206  0.33819068  1
  S2-  S163  1  0.04063494  0.24692233  0.85619152  1
  S2-  S164  1  0.13352397  0.41417710  0.35641861  1
  S2-  S165  1  0.08196285  0.52318193  0.84638150  1
  S2-  S166  1  0.12267212  0.82091430  0.35482661  1
  S2-  S167  1  0.13516177  0.74994112  0.81122873  1
  S2-  S168  1  0.30333740  -0.04150900  0.35578278  1
  S2-  S169  1  0.35446603  -0.08809329  0.86210964  1
  S2-  S170  1  0.26292115  0.24385698  0.35061021  1
  S2-  S171  1  0.47944169  0.26151585  0.85983642  1
  S2-  S172  1  0.37298348  0.45237988  0.35043710  1
  S2-  S173  1  0.40979134  0.48816392  0.84271608  1
  S2-  S174  1  0.38918394  0.74005987  0.35360351  1
  S2-  S175  1  0.38408204  0.71168481  0.83095652  1
  S2-  S176  1  0.62872408  -0.02948935  0.33844951  1
  S2-  S177  1  0.59854004  -0.02223272  0.83806543  1
  S2-  S178  1  0.69893785  0.27015527  0.35138009  1
  S2-  S179  1  0.72807165  0.23769234  0.85867011  1
  S2-  S180  1  0.62194871  0.49803325  0.34010176  1
  S2-  S181  1  0.63746637  0.49045722  0.83901771  1
  S2-  S182  1  0.64451151  0.74113886  0.34193523  1
  S2-  S183  1  0.61014832  0.73928459  0.83893158  1
  S2-  S184  1  0.95671938  -0.02846649  0.35357873  1
  S2-  S185  1  0.85624185  0.03776922  0.84916652  1
  S2-  S186  1  0.84277425  0.15450936  0.30229332  1
  S2-  S187  1  0.87514333  0.38959326  0.85962305  1
  S2-  S188  1  0.87461050  0.40688933  0.34691964  1
  S2-  S189  1  0.84805566  0.62591164  0.85395227  1
  S2-  S190  1  0.90481598  0.74066797  0.34284967  1
  S2-  S191  1  0.94741113  0.80355805  0.85619977  1
  S2-  S192  1  0.00995618  0.11248925  0.44820167  1
  S2-  S193  1  -0.01757714  0.13315740  0.96668071  1
  S2-  S194  1  0.00066003  0.36608844  0.45460717  1
  S2-  S195  1  -0.01524237  0.38415055  0.96378051  1
  S2-  S196  1  0.00607926  0.61598611  0.45427722  1
  S2-  S197  1  -0.01258780  0.63669351  0.95031383  1
  S2-  S198  1  0.00817123  0.86728200  0.46492134  1
  S2-  S199  1  -0.01784687  0.88578556  0.96978876  1
  S2-  S200  1  0.24649823  0.11100790  0.44936743  1
  S2-  S201  1  0.23016079  0.13379230  0.95108783  1
  S2-  S202  1  0.25825526  0.36984230  0.46148915  1
  S2-  S203  1  0.23233854  0.38246181  0.95144540  1
  S2-  S204  1  0.25764535  0.61705995  0.45557182  1
  S2-  S205  1  0.22812996  0.63997808  0.94233438  1
  S2-  S206  1  0.25499203  0.86237492  0.46535232  1
  S2-  S207  1  0.22915358  0.88482033  0.96615746  1
  S2-  S208  1  0.50144633  0.11559596  0.45729047  1
  S2-  S209  1  0.47674359  0.12827765  0.95121283  1
  S2-  S210  1  0.50359963  0.36667675  0.45057320  1
  S2-  S211  1  0.47636027  0.38608511  0.95897845  1
  S2-  S212  1  0.50518380  0.61802084  0.44533614  1
  S2-  S213  1  0.47819334  0.63658638  0.94736303  1
  S2-  S214  1  0.50603040  0.86686507  0.45426507  1
  S2-  S215  1  0.48059337  0.88756406  0.96106849  1
  S2-  S216  1  0.76246443  0.11627245  0.44389798  1
  S2-  S217  1  0.73485144  0.12999447  0.95885419  1
  S2-  S218  1  0.75466537  0.36612016  0.45300065  1
  S2-  S219  1  0.72779757  0.38670950  0.95579704  1
  S2-  S220  1  0.75383499  0.61992146  0.44968501  1
  S2-  S221  1  0.72225481  0.63299871  0.95254028  1
  S2-  S222  1  0.75684015  0.86912661  0.44883446  1
  S2-  S223  1  0.73343450  0.88246291  0.95161030  1
  S2-  S224  1  0.11279635  0.00815160  0.06573726  1
  S2-  S225  1  0.13176857  -0.01401416  0.56172451  1
  S2-  S226  1  0.11372664  0.25205515  0.05104638  1
  S2-  S227  1  0.12901754  0.24444116  0.54355318  1
  S2-  S228  1  0.10599243  0.50895006  0.05163423  1
  S2-  S229  1  0.13187146  0.48793587  0.54397165  1
  S2-  S230  1  0.10277150  0.75831510  0.04025022  1
  S2-  S231  1  0.13149295  0.73695912  0.54787451  1
  S2-  S232  1  0.35066094  0.01706215  0.04624003  1
  S2-  S233  1  0.37763756  -0.01295528  0.55007680  1
  S2-  S234  1  0.35814226  0.26082810  0.03805254  1
  S2-  S235  1  0.38160085  0.23812520  0.53932396  1
  S2-  S236  1  0.35579061  0.51193712  0.04192443  1
  S2-  S237  1  0.38900894  0.49470659  0.54861282  1
  S2-  S238  1  0.35833683  0.75955676  0.03779527  1
  S2-  S239  1  0.38789393  0.73649558  0.55494030  1
  S2-  S240  1  0.60695367  0.00981611  0.04269630  1
  S2-  S241  1  0.63266220  -0.00340575  0.54108239  1
  S2-  S242  1  0.60576697  0.25721663  0.04167997  1
  S2-  S243  1  0.63072016  0.23640040  0.54478963  1
  S2-  S244  1  0.60167615  0.51030392  0.04019925  1
  S2-  S245  1  0.62793846  0.49299503  0.54343973  1
  S2-  S246  1  0.60309261  0.76262252  0.04190592  1
  S2-  S247  1  0.62740869  0.74327832  0.54302284  1
  S2-  S248  1  0.85691633  0.00519971  0.05152567  1
  S2-  S249  1  0.87851841  -0.01191741  0.54760191  1
  S2-  S250  1  0.85419666  0.25805803  0.04047234  1
  S2-  S251  1  0.87878351  0.24171443  0.55078541  1
  S2-  S252  1  0.85227259  0.51172302  0.03954118  1
  S2-  S253  1  0.87279160  0.49406311  0.54131092  1
  S2-  S254  1  0.84710247  0.75552869  0.03978625  1
  S2-  S255  1  0.87316719  0.74143174  0.54870777  1
