# generated using pymatgen
data_La12Ce14Pr13Nd13Sm12(BiS2)64
_symmetry_space_group_name_H-M   'P 1'
_cell_length_a   16.11467487
_cell_length_b   16.10696267
_cell_length_c   27.22378415
_cell_angle_alpha   89.93310293
_cell_angle_beta   89.89797084
_cell_angle_gamma   89.85153097
_symmetry_Int_Tables_number   1
_chemical_formula_structural   La12Ce14Pr13Nd13Sm12(BiS2)64
_chemical_formula_sum   'La12 Ce14 Pr13 Nd13 Sm12 Bi64 S128'
_cell_volume   7066.12396366
_cell_formula_units_Z   1
loop_
 _symmetry_equiv_pos_site_id
 _symmetry_equiv_pos_as_xyz
  1  'x, y, z'
loop_
 _atom_type_symbol
 _atom_type_oxidation_number
  La3+  3.0
  Ce3+  3.0
  Pr3+  3.0
  Nd3+  3.0
  Sm3+  3.0
  Bi2+  2.0
  S2-  -2.0
loop_
 _atom_site_type_symbol
 _atom_site_label
 _atom_site_symmetry_multiplicity
 _atom_site_fract_x
 _atom_site_fract_y
 _atom_site_fract_z
 _atom_site_occupancy
  La3+  La0  1  0.36319448  0.00160011  0.92774732  1
  La3+  La1  1  0.49269200  0.36866301  0.07106917  1
  La3+  La2  1  0.87001361  0.01019616  0.92431975  1
  La3+  La3  1  0.22976515  0.85682786  0.58017403  1
  La3+  La4  1  0.86409059  0.25710258  0.92680430  1
  La3+  La5  1  0.76216057  0.38466952  0.11309273  1
  La3+  La6  1  0.37311287  0.75283539  0.90716795  1
  La3+  La7  1  0.61313268  0.25852451  0.92322025  1
  La3+  La8  1  0.21987682  0.12748745  0.58720170  1
  La3+  La9  1  -0.02553528  0.61305164  0.56458445  1
  La3+  La10  1  0.23825485  0.88111634  0.07412092  1
  La3+  La11  1  0.10319681  0.48779067  0.41646223  1
  Ce3+  Ce12  1  -0.00538506  0.37929970  0.05743437  1
  Ce3+  Ce13  1  0.49339195  0.62806499  0.06155800  1
  Ce3+  Ce14  1  0.84867705  -0.00598060  0.45303583  1
  Ce3+  Ce15  1  0.48092472  0.11496494  0.56378535  1
  Ce3+  Ce16  1  0.74987833  0.87976741  0.05358441  1
  Ce3+  Ce17  1  -0.02079086  0.86868963  0.57051722  1
  Ce3+  Ce18  1  0.12225894  0.25515115  0.94325263  1
  Ce3+  Ce19  1  0.72729567  0.61771077  0.57162970  1
  Ce3+  Ce20  1  0.61768056  0.00017152  0.93435259  1
  Ce3+  Ce21  1  0.35040053  0.24136360  0.44644687  1
  Ce3+  Ce22  1  0.22223030  0.36970778  0.56191747  1
  Ce3+  Ce23  1  0.47239362  0.61993187  0.55385637  1
  Ce3+  Ce24  1  0.24382878  0.63495713  0.06358891  1
  Ce3+  Ce25  1  0.72092348  0.36505341  0.56290531  1
  Pr3+  Pr26  1  0.11854673  0.00179177  0.93883377  1
  Pr3+  Pr27  1  0.37033220  0.50607607  0.93620242  1
  Pr3+  Pr28  1  0.24823797  0.37892446  0.06542687  1
  Pr3+  Pr29  1  -0.01182409  0.13473336  0.05906260  1
  Pr3+  Pr30  1  0.49287911  0.87722023  0.05858431  1
  Pr3+  Pr31  1  0.86754107  0.49773938  0.92889569  1
  Pr3+  Pr32  1  0.12288144  0.50521426  0.94147137  1
  Pr3+  Pr33  1  -0.01262731  0.88241136  0.06539480  1
  Pr3+  Pr34  1  0.34621572  -0.00833040  0.44797857  1
  Pr3+  Pr35  1  0.74594867  0.62493691  0.05462854  1
  Pr3+  Pr36  1  0.11931057  0.75174873  0.92869200  1
  Pr3+  Pr37  1  0.72063239  0.11021964  0.58422051  1
  Pr3+  Pr38  1  0.85307472  0.74457876  0.44182040  1
  Nd3+  Nd39  1  0.73919368  0.13927481  0.05461788  1
  Nd3+  Nd40  1  0.34000429  0.74352350  0.42808996  1
  Nd3+  Nd41  1  0.60308614  0.49059687  0.43175235  1
  Nd3+  Nd42  1  0.87088964  0.75237042  0.92607884  1
  Nd3+  Nd43  1  0.84540295  0.49635296  0.43563242  1
  Nd3+  Nd44  1  0.61181211  -0.01046373  0.42769463  1
  Nd3+  Nd45  1  0.59977060  0.23814221  0.43537517  1
  Nd3+  Nd46  1  0.49108458  0.11931107  0.05666362  1
  Nd3+  Nd47  1  0.84617027  0.24061441  0.44314291  1
  Nd3+  Nd48  1  -0.02721556  0.36457790  0.55567042  1
  Nd3+  Nd49  1  0.10221782  -0.00720543  0.44613975  1
  Nd3+  Nd50  1  -0.00843357  0.62685084  0.05620963  1
  Nd3+  Nd51  1  0.47508436  0.36908196  0.56152706  1
  Sm3+  Sm52  1  0.09516678  0.74374014  0.43510109  1
  Sm3+  Sm53  1  0.61678658  0.50128830  0.94827762  1
  Sm3+  Sm54  1  0.47454102  0.86927750  0.55442262  1
  Sm3+  Sm55  1  0.21575262  0.61402186  0.55915792  1
  Sm3+  Sm56  1  0.72249309  0.86576764  0.56982839  1
  Sm3+  Sm57  1  0.61897849  0.75171679  0.94312829  1
  Sm3+  Sm58  1  -0.02402752  0.11958126  0.55728604  1
  Sm3+  Sm59  1  0.24376862  0.12598541  0.06150452  1
  Sm3+  Sm60  1  0.34860549  0.49417636  0.44424413  1
  Sm3+  Sm61  1  0.10033122  0.24418601  0.43600566  1
  Sm3+  Sm62  1  0.37054003  0.24866398  0.93060364  1
  Sm3+  Sm63  1  0.60062837  0.74456038  0.44438353  1
  Bi2+  Bi64  1  0.07981879  0.13433104  0.29953274  1
  Bi2+  Bi65  1  -0.01381974  0.03340645  0.79367316  1
  Bi2+  Bi66  1  0.02499783  0.41961108  0.27454263  1
  Bi2+  Bi67  1  0.03932139  0.44212281  0.81837341  1
  Bi2+  Bi68  1  -0.05438221  0.65725825  0.28607466  1
  Bi2+  Bi69  1  -0.00382789  0.62336155  0.78268742  1
  Bi2+  Bi70  1  -0.01287594  0.95784488  0.29221215  1
  Bi2+  Bi71  1  0.02448767  0.83715095  0.76542297  1
  Bi2+  Bi72  1  0.29299437  0.12353928  0.29439082  1
  Bi2+  Bi73  1  0.22203295  0.12646186  0.78582377  1
  Bi2+  Bi74  1  0.23656373  0.32730505  0.28238681  1
  Bi2+  Bi75  1  0.29254572  0.38308873  0.79715692  1
  Bi2+  Bi76  1  0.22051782  0.59539016  0.27038363  1
  Bi2+  Bi77  1  0.26490305  0.58180671  0.77430762  1
  Bi2+  Bi78  1  0.26923084  0.86834674  0.30741358  1
  Bi2+  Bi79  1  0.25306422  0.88104592  0.78231157  1
  Bi2+  Bi80  1  0.47793550  0.14069019  0.25036911  1
  Bi2+  Bi81  1  0.45618721  0.14674231  0.77338574  1
  Bi2+  Bi82  1  0.49554911  0.33056164  0.28449910  1
  Bi2+  Bi83  1  0.48824260  0.39201208  0.78191651  1
  Bi2+  Bi84  1  0.58753921  0.61466292  0.31005527  1
  Bi2+  Bi85  1  0.52706104  0.59941410  0.79089646  1
  Bi2+  Bi86  1  0.51877786  0.88627617  0.28517804  1
  Bi2+  Bi87  1  0.49733264  0.83657783  0.77672978  1
  Bi2+  Bi88  1  0.73024813  0.13056920  0.30582418  1
  Bi2+  Bi89  1  0.75808254  0.09335548  0.79429576  1
  Bi2+  Bi90  1  0.76298132  0.38446720  0.31594778  1
  Bi2+  Bi91  1  0.74085155  0.38901493  0.79291512  1
  Bi2+  Bi92  1  0.72242870  0.70268140  0.23573164  1
  Bi2+  Bi93  1  0.80281854  0.58523532  0.81231500  1
  Bi2+  Bi94  1  0.77284126  0.83551454  0.31552297  1
  Bi2+  Bi95  1  0.75900134  0.77340702  0.79479669  1
  Bi2+  Bi96  1  0.12313795  -0.00184258  0.21009987  1
  Bi2+  Bi97  1  0.07303202  0.01716517  0.69117545  1
  Bi2+  Bi98  1  0.14347260  0.22833993  0.19151016  1
  Bi2+  Bi99  1  0.11935873  0.30786159  0.75514309  1
  Bi2+  Bi100  1  0.16618254  0.42946395  0.19265739  1
  Bi2+  Bi101  1  0.18382686  0.46538152  0.69181230  1
  Bi2+  Bi102  1  0.15548228  0.73727515  0.19925538  1
  Bi2+  Bi103  1  0.14454487  0.71130628  0.70487229  1
  Bi2+  Bi104  1  0.37070998  -0.05921640  0.20256502  1
  Bi2+  Bi105  1  0.41233069  0.00997597  0.70114767  1
  Bi2+  Bi106  1  0.34488843  0.23082891  0.18495326  1
  Bi2+  Bi107  1  0.37476620  0.27627128  0.70209823  1
  Bi2+  Bi108  1  0.41995565  0.51104618  0.28650320  1
  Bi2+  Bi109  1  0.38105516  0.48990332  0.69620938  1
  Bi2+  Bi110  1  0.44263573  0.69174583  0.23822044  1
  Bi2+  Bi111  1  0.41109348  0.75169859  0.69031227  1
  Bi2+  Bi112  1  0.67301848  -0.02294784  0.23163044  1
  Bi2+  Bi113  1  0.66078157  -0.07564945  0.74492493  1
  Bi2+  Bi114  1  0.63671428  0.24224832  0.21155089  1
  Bi2+  Bi115  1  0.63699895  0.24339147  0.69993159  1
  Bi2+  Bi116  1  0.62616343  0.51263733  0.21183881  1
  Bi2+  Bi117  1  0.67314042  0.55115181  0.72342597  1
  Bi2+  Bi118  1  0.58731871  0.82202081  0.18358118  1
  Bi2+  Bi119  1  0.68342410  0.73593426  0.68768863  1
  Bi2+  Bi120  1  0.85567702  0.04443603  0.21769346  1
  Bi2+  Bi121  1  0.89258978  -0.06162844  0.69268276  1
  Bi2+  Bi122  1  0.95778127  0.21132147  0.21989750  1
  Bi2+  Bi123  1  0.89581504  0.26122180  0.69882114  1
  Bi2+  Bi124  1  0.92131108  0.53092919  0.19795790  1
  Bi2+  Bi125  1  0.90290534  0.48658727  0.71761892  1
  Bi2+  Bi126  1  0.89621665  0.81629435  0.22423225  1
  Bi2+  Bi127  1  0.88053863  0.74676115  0.69553604  1
  S2-  S128  1  -0.01233148  0.06518738  0.15232544  1
  S2-  S129  1  0.01548940  0.16376229  0.64967525  1
  S2-  S130  1  -0.06723558  0.37141423  0.14784504  1
  S2-  S131  1  -0.00887607  0.38887088  0.65451065  1
  S2-  S132  1  0.00997410  0.64972579  0.15613191  1
  S2-  S133  1  0.09829600  0.59478060  0.63882931  1
  S2-  S134  1  0.09908755  0.86812558  0.14481915  1
  S2-  S135  1  0.09152263  0.85025695  0.64514421  1
  S2-  S136  1  0.25438847  0.02664274  0.14369106  1
  S2-  S137  1  0.23524988  0.07758623  0.68479840  1
  S2-  S138  1  0.36196790  0.37963766  0.14316191  1
  S2-  S139  1  0.22748861  0.27993297  0.64568623  1
  S2-  S140  1  0.23034016  0.58651670  0.16063545  1
  S2-  S141  1  0.27457841  0.70154227  0.63751073  1
  S2-  S142  1  0.29462398  0.79526725  0.16173654  1
  S2-  S143  1  0.30132624  0.88847249  0.67924739  1
  S2-  S144  1  0.50609662  0.19240012  0.14655916  1
  S2-  S145  1  0.57421127  0.12325506  0.64651348  1
  S2-  S146  1  0.59715184  0.38429702  0.15341753  1
  S2-  S147  1  0.52550796  0.35017871  0.65644739  1
  S2-  S148  1  0.49587149  0.60640582  0.15988967  1
  S2-  S149  1  0.48809560  0.60928831  0.65173885  1
  S2-  S150  1  0.48859369  0.97840640  0.14124008  1
  S2-  S151  1  0.50312713  0.89177786  0.65127552  1
  S2-  S152  1  0.75483175  0.21213571  0.14540301  1
  S2-  S153  1  0.78447410  0.15025553  0.68242390  1
  S2-  S154  1  0.76361876  0.40596882  0.22169278  1
  S2-  S155  1  0.75799717  0.35201412  0.65949661  1
  S2-  S156  1  0.76726359  0.58077916  0.15080064  1
  S2-  S157  1  0.85412597  0.59493748  0.64226386  1
  S2-  S158  1  0.85066860  0.87186001  0.13233401  1
  S2-  S159  1  0.72916597  0.95961594  0.65201592  1
  S2-  S160  1  0.13301681  -0.04216765  0.34927544  1
  S2-  S161  1  0.15291026  -0.00792009  0.83860109  1
  S2-  S162  1  0.10992834  0.34228062  0.35424910  1
  S2-  S163  1  0.11829685  0.22606294  0.84632649  1
  S2-  S164  1  0.08655948  0.57535484  0.32555097  1
  S2-  S165  1  0.13544427  0.57650472  0.84942063  1
  S2-  S166  1  0.20676547  0.74812585  0.35831063  1
  S2-  S167  1  0.22848814  0.76917638  0.84665269  1
  S2-  S168  1  0.36586472  0.00074257  0.34713453  1
  S2-  S169  1  0.33936937  0.12691166  0.85274324  1
  S2-  S170  1  0.36315599  0.26224949  0.34925306  1
  S2-  S171  1  0.48328251  0.26656451  0.85179492  1
  S2-  S172  1  0.28583850  0.50813418  0.35299402  1
  S2-  S173  1  0.38400362  0.60260223  0.85032444  1
  S2-  S174  1  0.40458209  0.77209076  0.33356025  1
  S2-  S175  1  0.38626833  0.90079483  0.84404390  1
  S2-  S176  1  0.59240951  0.11882873  0.35994427  1
  S2-  S177  1  0.61828525  0.01653571  0.83588721  1
  S2-  S178  1  0.60282950  0.35788387  0.35868677  1
  S2-  S179  1  0.70322318  0.24366345  0.83095308  1
  S2-  S180  1  0.72205416  0.53777556  0.36090406  1
  S2-  S181  1  0.60230891  0.46989223  0.85041611  1
  S2-  S182  1  0.61898907  0.84603849  0.36424211  1
  S2-  S183  1  0.56249355  0.73732078  0.85021058  1
  S2-  S184  1  0.78074542  -0.00868998  0.36423750  1
  S2-  S185  1  0.84590875  -0.05010711  0.82945596  1
  S2-  S186  1  0.84728428  0.23827547  0.34279967  1
  S2-  S187  1  0.89205817  0.14630908  0.84750408  1
  S2-  S188  1  0.90940674  0.46293105  0.34237871  1
  S2-  S189  1  0.88121734  0.37920846  0.85010910  1
  S2-  S190  1  0.96725889  0.75537832  0.36227977  1
  S2-  S191  1  0.99272972  0.76104621  0.85436253  1
  S2-  S192  1  -0.02323382  0.11925228  0.45046566  1
  S2-  S193  1  -0.00287846  0.13236705  0.95336164  1
  S2-  S194  1  -0.02810024  0.36415026  0.45099329  1
  S2-  S195  1  -0.00193262  0.37923942  0.95361939  1
  S2-  S196  1  -0.02432942  0.61274258  0.45463304  1
  S2-  S197  1  -0.01018610  0.62273934  0.95037175  1
  S2-  S198  1  -0.02385939  0.87333549  0.46309143  1
  S2-  S199  1  -0.01037015  0.88175488  0.95378552  1
  S2-  S200  1  0.22235798  0.12104095  0.45382556  1
  S2-  S201  1  0.24083426  0.12969316  0.95799488  1
  S2-  S202  1  0.22855891  0.36721034  0.45608896  1
  S2-  S203  1  0.24885042  0.37747859  0.95265121  1
  S2-  S204  1  0.22083507  0.61568525  0.45558933  1
  S2-  S205  1  0.24750938  0.63174600  0.95670004  1
  S2-  S206  1  0.22147799  0.86753406  0.46491796  1
  S2-  S207  1  0.24249266  0.87637689  0.95646504  1
  S2-  S208  1  0.47310244  0.11446419  0.45898342  1
  S2-  S209  1  0.49325581  0.12262847  0.94884740  1
  S2-  S210  1  0.47173910  0.37118182  0.45542062  1
  S2-  S211  1  0.48878428  0.38103648  0.95829261  1
  S2-  S212  1  0.47531469  0.61881578  0.44611459  1
  S2-  S213  1  0.49611897  0.63010598  0.95675770  1
  S2-  S214  1  0.47407516  0.86819278  0.45202669  1
  S2-  S215  1  0.49542581  0.87373914  0.95208214  1
  S2-  S216  1  0.72532626  0.11704956  0.46696259  1
  S2-  S217  1  0.73852816  0.12780094  0.94750487  1
  S2-  S218  1  0.72591878  0.36615245  0.45757522  1
  S2-  S219  1  0.73756181  0.38126900  0.94598044  1
  S2-  S220  1  0.72461504  0.62612150  0.46527073  1
  S2-  S221  1  0.74211654  0.62747714  0.94693866  1
  S2-  S222  1  0.72860374  0.86505524  0.46702133  1
  S2-  S223  1  0.74413102  0.87428241  0.94605331  1
  S2-  S224  1  0.11396300  0.00974471  0.04436233  1
  S2-  S225  1  0.10431867  -0.00034216  0.55234686  1
  S2-  S226  1  0.12166588  0.25377566  0.05080515  1
  S2-  S227  1  0.09984588  0.24303101  0.54014596  1
  S2-  S228  1  0.12034525  0.50373775  0.04855874  1
  S2-  S229  1  0.09811933  0.48538528  0.53508018  1
  S2-  S230  1  0.11369095  0.75114220  0.04059380  1
  S2-  S231  1  0.09746413  0.74050260  0.54012238  1
  S2-  S232  1  0.36422435  0.00110941  0.03704944  1
  S2-  S233  1  0.34735809  -0.00502568  0.55582653  1
  S2-  S234  1  0.36522835  0.24575656  0.03784085  1
  S2-  S235  1  0.35376866  0.24035743  0.55114608  1
  S2-  S236  1  0.36805114  0.50814646  0.04416373  1
  S2-  S237  1  0.34720117  0.49461905  0.54948422  1
  S2-  S238  1  0.37137860  0.75296732  0.04960828  1
  S2-  S239  1  0.35494808  0.74457052  0.53509241  1
  S2-  S240  1  0.62408454  0.00201684  0.04250536  1
  S2-  S241  1  0.60158449  -0.01230974  0.54206150  1
  S2-  S242  1  0.61083622  0.24826548  0.03541817  1
  S2-  S243  1  0.59874217  0.24398320  0.54308263  1
  S2-  S244  1  0.62070772  0.50181298  0.05065898  1
  S2-  S245  1  0.60020833  0.49436079  0.54617496  1
  S2-  S246  1  0.62279275  0.75329767  0.04773381  1
  S2-  S247  1  0.59881592  0.74470063  0.54901542  1
  S2-  S248  1  0.86493927  0.01177513  0.03605269  1
  S2-  S249  1  0.85448034  -0.00508780  0.55605492  1
  S2-  S250  1  0.86542206  0.26109160  0.03929862  1
  S2-  S251  1  0.84783406  0.23787814  0.55053249  1
  S2-  S252  1  0.86769785  0.49917059  0.04083289  1
  S2-  S253  1  0.84594755  0.48643165  0.54242336  1
  S2-  S254  1  0.86957785  0.74908640  0.03351720  1
  S2-  S255  1  0.85068082  0.74808826  0.54995458  1
