# generated using pymatgen
data_La12Ce14Pr13Nd13Sm12(BiS2)64
_symmetry_space_group_name_H-M   'P 1'
_cell_length_a   16.19768161
_cell_length_b   16.16859901
_cell_length_c   27.05819243
_cell_angle_alpha   90.15094900
_cell_angle_beta   89.97781054
_cell_angle_gamma   90.01625190
_symmetry_Int_Tables_number   1
_chemical_formula_structural   La12Ce14Pr13Nd13Sm12(BiS2)64
_chemical_formula_sum   'La12 Ce14 Pr13 Nd13 Sm12 Bi64 S128'
_cell_volume   7086.34793806
_cell_formula_units_Z   1
loop_
 _symmetry_equiv_pos_site_id
 _symmetry_equiv_pos_as_xyz
  1  'x, y, z'
loop_
 _atom_type_symbol
 _atom_type_oxidation_number
  La3+  3.0
  Ce3+  3.0
  Pr3+  3.0
  Nd3+  3.0
  Sm3+  3.0
  Bi2+  2.0
  S2-  -2.0
loop_
 _atom_site_type_symbol
 _atom_site_label
 _atom_site_symmetry_multiplicity
 _atom_site_fract_x
 _atom_site_fract_y
 _atom_site_fract_z
 _atom_site_occupancy
  La3+  La0  1  0.50093948  0.13090480  0.55679614  1
  La3+  La1  1  0.00452830  0.38625952  0.59303490  1
  La3+  La2  1  0.75149563  0.63027761  0.11384048  1
  La3+  La3  1  -0.00601788  0.35726818  0.06923597  1
  La3+  La4  1  0.24939524  0.89216115  0.58546059  1
  La3+  La5  1  0.88378774  0.51059032  0.41509753  1
  La3+  La6  1  0.87449092  0.23524495  0.90027146  1
  La3+  La7  1  0.62157654  -0.01419790  0.92995515  1
  La3+  La8  1  0.12114757  -0.01045642  0.93843828  1
  La3+  La9  1  0.61432746  0.23477280  0.92114949  1
  La3+  La10  1  0.36838633  0.25942544  0.40364773  1
  La3+  La11  1  0.36974296  -0.00396656  0.41530260  1
  Ce3+  Ce12  1  0.74645058  0.12092119  0.05611307  1
  Ce3+  Ce13  1  0.37292617  0.23720940  0.93243034  1
  Ce3+  Ce14  1  0.74952403  0.86338575  0.05691466  1
  Ce3+  Ce15  1  0.00006486  0.88378174  0.56942487  1
  Ce3+  Ce16  1  0.62292207  0.00842871  0.44055557  1
  Ce3+  Ce17  1  0.50623423  0.61620646  0.06004206  1
  Ce3+  Ce18  1  -0.00483810  0.11740944  0.06389877  1
  Ce3+  Ce19  1  0.37663639  0.76002213  0.44998864  1
  Ce3+  Ce20  1  0.75721356  0.63040541  0.55344561  1
  Ce3+  Ce21  1  0.49993133  0.11278622  0.05674130  1
  Ce3+  Ce22  1  0.50211604  0.86480214  0.06102880  1
  Ce3+  Ce23  1  0.50214668  0.38201620  0.55979084  1
  Ce3+  Ce24  1  0.87405808  0.73267057  0.94219332  1
  Ce3+  Ce25  1  0.25448258  0.13058399  0.55674135  1
  Pr3+  Pr26  1  0.50988846  0.88164277  0.56655632  1
  Pr3+  Pr27  1  0.11337277  0.73276485  0.92516290  1
  Pr3+  Pr28  1  0.24635766  0.61493827  0.06201857  1
  Pr3+  Pr29  1  0.87129637  0.48493276  0.94272583  1
  Pr3+  Pr30  1  0.62220289  0.73937342  0.93174089  1
  Pr3+  Pr31  1  0.63014211  0.25952088  0.43529431  1
  Pr3+  Pr32  1  0.00311503  0.60570647  0.07388809  1
  Pr3+  Pr33  1  0.37008207  0.73625339  0.94312445  1
  Pr3+  Pr34  1  0.88225519  0.76256950  0.42833131  1
  Pr3+  Pr35  1  0.25366661  0.36167156  0.06021189  1
  Pr3+  Pr36  1  0.11973944  0.48397092  0.93949041  1
  Pr3+  Pr37  1  0.00175144  0.63081093  0.56489300  1
  Pr3+  Pr38  1  0.12749492  0.50780920  0.43644798  1
  Nd3+  Nd39  1  0.74526929  0.38685705  0.57179534  1
  Nd3+  Nd40  1  0.87236601  -0.00688830  0.94150843  1
  Nd3+  Nd41  1  0.12248489  0.23820390  0.94120443  1
  Nd3+  Nd42  1  0.74627600  0.36292245  0.06141528  1
  Nd3+  Nd43  1  0.12752208  0.00674004  0.44230703  1
  Nd3+  Nd44  1  0.25253431  0.11172186  0.06131752  1
  Nd3+  Nd45  1  0.50270711  0.63474971  0.55870978  1
  Nd3+  Nd46  1  0.87792412  0.00438196  0.43831137  1
  Nd3+  Nd47  1  0.25239415  0.38325359  0.56218312  1
  Nd3+  Nd48  1  0.62416350  0.48718695  0.93959361  1
  Nd3+  Nd49  1  0.87740449  0.26289150  0.44549024  1
  Nd3+  Nd50  1  -0.00164996  0.86109456  0.05690095  1
  Nd3+  Nd51  1  0.37828661  0.50768392  0.44091324  1
  Sm3+  Sm52  1  0.37123923  0.48943245  0.94689123  1
  Sm3+  Sm53  1  0.62707840  0.50578317  0.44286366  1
  Sm3+  Sm54  1  0.75447186  0.88179490  0.55744583  1
  Sm3+  Sm55  1  0.49924172  0.36230511  0.05628010  1
  Sm3+  Sm56  1  0.24681162  0.86382726  0.05618629  1
  Sm3+  Sm57  1  0.12817255  0.75974616  0.44927217  1
  Sm3+  Sm58  1  0.12677530  0.25813477  0.44708058  1
  Sm3+  Sm59  1  0.36948132  -0.01442860  0.94013815  1
  Sm3+  Sm60  1  -0.00051997  0.13367103  0.55391312  1
  Sm3+  Sm61  1  0.75465448  0.13562874  0.55397570  1
  Sm3+  Sm62  1  0.25085335  0.63375420  0.55922476  1
  Sm3+  Sm63  1  0.62779427  0.75717083  0.43860050  1
  Bi2+  Bi64  1  -0.00047787  0.10628832  0.28104456  1
  Bi2+  Bi65  1  0.02214771  0.09699481  0.79535139  1
  Bi2+  Bi66  1  -0.03736576  0.34466174  0.29848319  1
  Bi2+  Bi67  1  0.00889475  0.38478879  0.79427935  1
  Bi2+  Bi68  1  0.03409402  0.63035846  0.29480708  1
  Bi2+  Bi69  1  -0.01594007  0.66012161  0.75970242  1
  Bi2+  Bi70  1  0.01738538  0.91321178  0.30111970  1
  Bi2+  Bi71  1  -0.02756078  0.84947313  0.79484989  1
  Bi2+  Bi72  1  0.24423957  0.11846126  0.29070678  1
  Bi2+  Bi73  1  0.28155543  0.19593506  0.80270985  1
  Bi2+  Bi74  1  0.24031292  0.43297879  0.28600093  1
  Bi2+  Bi75  1  0.23801435  0.38923566  0.80291854  1
  Bi2+  Bi76  1  0.23549753  0.63063073  0.30660706  1
  Bi2+  Bi77  1  0.33298769  0.60278562  0.79213573  1
  Bi2+  Bi78  1  0.22767830  0.83958441  0.30165744  1
  Bi2+  Bi79  1  0.26322530  0.88508831  0.80542708  1
  Bi2+  Bi80  1  0.51839695  0.13063416  0.28817428  1
  Bi2+  Bi81  1  0.47851741  0.11354341  0.78566312  1
  Bi2+  Bi82  1  0.47485213  0.45261999  0.27589272  1
  Bi2+  Bi83  1  0.48379269  0.37180759  0.77649140  1
  Bi2+  Bi84  1  0.43605941  0.63159189  0.31554575  1
  Bi2+  Bi85  1  0.53534873  0.66693998  0.81338626  1
  Bi2+  Bi86  1  0.49085034  0.88742652  0.29073307  1
  Bi2+  Bi87  1  0.54891989  0.85025031  0.76528685  1
  Bi2+  Bi88  1  0.73745220  0.10255484  0.28467272  1
  Bi2+  Bi89  1  0.74564774  0.04244416  0.78279473  1
  Bi2+  Bi90  1  0.70847765  0.35044434  0.29919588  1
  Bi2+  Bi91  1  0.75367306  0.38595694  0.79656136  1
  Bi2+  Bi92  1  0.71833173  0.62101654  0.31677928  1
  Bi2+  Bi93  1  0.72972406  0.65229187  0.78637566  1
  Bi2+  Bi94  1  0.76111232  0.89562570  0.27618627  1
  Bi2+  Bi95  1  0.77262587  0.84612619  0.78999219  1
  Bi2+  Bi96  1  0.09837821  -0.01505046  0.20849497  1
  Bi2+  Bi97  1  0.12078361  0.03452016  0.70899970  1
  Bi2+  Bi98  1  0.11833046  0.26268913  0.25794528  1
  Bi2+  Bi99  1  0.16718239  0.25041220  0.71568971  1
  Bi2+  Bi100  1  0.12520078  0.52147622  0.21278028  1
  Bi2+  Bi101  1  0.14145778  0.51916163  0.71326907  1
  Bi2+  Bi102  1  0.14229916  0.79002950  0.20220826  1
  Bi2+  Bi103  1  0.13905610  0.76302649  0.71671890  1
  Bi2+  Bi104  1  0.37857652  0.00513304  0.18874769  1
  Bi2+  Bi105  1  0.35576347  -0.00092748  0.72470650  1
  Bi2+  Bi106  1  0.37195615  0.25929718  0.19516594  1
  Bi2+  Bi107  1  0.36169793  0.26598554  0.70296982  1
  Bi2+  Bi108  1  0.33989234  0.53906804  0.20374583  1
  Bi2+  Bi109  1  0.34883291  0.46202994  0.70847371  1
  Bi2+  Bi110  1  0.34854353  0.73285573  0.21550979  1
  Bi2+  Bi111  1  0.40752186  0.73447647  0.72157576  1
  Bi2+  Bi112  1  0.65519801  -0.00827106  0.19829345  1
  Bi2+  Bi113  1  0.61755598  0.00403648  0.69517292  1
  Bi2+  Bi114  1  0.63458143  0.21618940  0.20939565  1
  Bi2+  Bi115  1  0.64146234  0.25008042  0.69583881  1
  Bi2+  Bi116  1  0.60752819  0.47780096  0.20044033  1
  Bi2+  Bi117  1  0.59960997  0.52103726  0.74504516  1
  Bi2+  Bi118  1  0.53887788  0.72730335  0.23770030  1
  Bi2+  Bi119  1  0.63684693  0.71222085  0.68766585  1
  Bi2+  Bi120  1  0.84935761  0.03474990  0.19914195  1
  Bi2+  Bi121  1  0.89043800  -0.02825587  0.71573299  1
  Bi2+  Bi122  1  0.87674694  0.23559045  0.20954002  1
  Bi2+  Bi123  1  0.87865875  0.21529994  0.70060682  1
  Bi2+  Bi124  1  0.87643621  0.50233784  0.21576038  1
  Bi2+  Bi125  1  0.85538463  0.51274450  0.70912260  1
  Bi2+  Bi126  1  0.87267223  0.76819537  0.21795846  1
  Bi2+  Bi127  1  0.90325425  0.78490460  0.68651949  1
  S2-  S128  1  -0.00170090  0.22407027  0.14224177  1
  S2-  S129  1  -0.00095583  0.11389518  0.65197148  1
  S2-  S130  1  -0.00274359  0.45783935  0.15310208  1
  S2-  S131  1  -0.00489730  0.32418329  0.69204423  1
  S2-  S132  1  -0.08531291  0.64411800  0.15876448  1
  S2-  S133  1  -0.00947905  0.53489712  0.64989216  1
  S2-  S134  1  -0.00048462  0.86267118  0.15765347  1
  S2-  S135  1  0.09869672  0.89040879  0.65118120  1
  S2-  S136  1  0.26838959  0.13136059  0.16142486  1
  S2-  S137  1  0.26184054  0.04778920  0.64424988  1
  S2-  S138  1  0.26093175  0.35673141  0.16113740  1
  S2-  S139  1  0.16407141  0.38684634  0.64801547  1
  S2-  S140  1  0.14004014  0.64365159  0.14045064  1
  S2-  S141  1  0.19783494  0.63110749  0.65427249  1
  S2-  S142  1  0.26761834  0.90261302  0.15215415  1
  S2-  S143  1  0.28700277  0.82551399  0.68048613  1
  S2-  S144  1  0.48481337  0.13337746  0.15573487  1
  S2-  S145  1  0.52561899  0.15690485  0.65791974  1
  S2-  S146  1  0.50734009  0.35520816  0.15556380  1
  S2-  S147  1  0.59284160  0.37685084  0.64252948  1
  S2-  S148  1  0.58056090  0.62827802  0.14932892  1
  S2-  S149  1  0.49668040  0.62222418  0.65793191  1
  S2-  S150  1  0.51249448  0.90715368  0.15704602  1
  S2-  S151  1  0.47031917  0.94230502  0.65896634  1
  S2-  S152  1  0.74282939  0.23312537  0.13571932  1
  S2-  S153  1  0.74407914  0.12596097  0.65241466  1
  S2-  S154  1  0.75036440  0.45760811  0.15107251  1
  S2-  S155  1  0.79359153  0.36006467  0.66831755  1
  S2-  S156  1  0.76100744  0.63429329  0.22434325  1
  S2-  S157  1  0.75363317  0.59025545  0.64964725  1
  S2-  S158  1  0.75202988  0.80334121  0.14821903  1
  S2-  S159  1  0.67312429  0.87371977  0.64461940  1
  S2-  S160  1  0.21234061  -0.00851399  0.35623211  1
  S2-  S161  1  0.14551933  0.00724664  0.83842200  1
  S2-  S162  1  0.19182888  0.24915611  0.35586194  1
  S2-  S163  1  0.04993699  0.24232941  0.85093681  1
  S2-  S164  1  0.03078997  0.48872721  0.35224098  1
  S2-  S165  1  0.12406638  0.50342373  0.83841976  1
  S2-  S166  1  0.07339790  0.77258522  0.35523324  1
  S2-  S167  1  0.16389130  0.76681912  0.82718003  1
  S2-  S168  1  0.38940550  0.02409844  0.30824445  1
  S2-  S169  1  0.39129624  -0.00959202  0.84179580  1
  S2-  S170  1  0.37815167  0.22421954  0.30023646  1
  S2-  S171  1  0.47415871  0.24616693  0.85179768  1
  S2-  S172  1  0.36958383  0.41481228  0.35655008  1
  S2-  S173  1  0.38003907  0.47054915  0.84910097  1
  S2-  S174  1  0.37252868  0.83596546  0.36186459  1
  S2-  S175  1  0.37015341  0.76036722  0.84283545  1
  S2-  S176  1  0.58658581  -0.00497713  0.34524915  1
  S2-  S177  1  0.61131348  0.08092561  0.84349665  1
  S2-  S178  1  0.57507147  0.26573215  0.34022970  1
  S2-  S179  1  0.72474392  0.25225785  0.84568668  1
  S2-  S180  1  0.61851178  0.48167308  0.34475383  1
  S2-  S181  1  0.61028825  0.44374117  0.84250033  1
  S2-  S182  1  0.66562702  0.77162305  0.34231477  1
  S2-  S183  1  0.61697337  0.85894920  0.85524338  1
  S2-  S184  1  0.87443207  -0.10171112  0.35855551  1
  S2-  S185  1  0.88021792  0.07291015  0.85168924  1
  S2-  S186  1  0.83524392  0.25964867  0.34818734  1
  S2-  S187  1  0.88646897  0.27595897  0.79299121  1
  S2-  S188  1  0.82279759  0.46620684  0.31789376  1
  S2-  S189  1  0.88559651  0.47377752  0.84000170  1
  S2-  S190  1  0.87986979  0.65633503  0.34775508  1
  S2-  S191  1  0.96952660  0.70795896  0.86110242  1
  S2-  S192  1  0.00145771  0.13325873  0.44732574  1
  S2-  S193  1  -0.00106440  0.11518111  0.95704467  1
  S2-  S194  1  0.00459863  0.37860233  0.45559420  1
  S2-  S195  1  -0.00337921  0.35956398  0.95585739  1
  S2-  S196  1  0.00470253  0.63487133  0.45722632  1
  S2-  S197  1  -0.00060539  0.60665997  0.96368598  1
  S2-  S198  1  0.00491356  0.88461689  0.46191954  1
  S2-  S199  1  -0.00446163  0.86599664  0.94989814  1
  S2-  S200  1  0.25563480  0.13392273  0.45246252  1
  S2-  S201  1  0.24900033  0.11278005  0.95243906  1
  S2-  S202  1  0.25029402  0.38105124  0.45682239  1
  S2-  S203  1  0.24989630  0.36244933  0.95151406  1
  S2-  S204  1  0.25199736  0.63408842  0.45356697  1
  S2-  S205  1  0.24486388  0.61171246  0.95236478  1
  S2-  S206  1  0.24819220  0.88099195  0.46572491  1
  S2-  S207  1  0.24490422  0.86172896  0.95057558  1
  S2-  S208  1  0.49397840  0.13454225  0.44552413  1
  S2-  S209  1  0.49013603  0.10777863  0.95204364  1
  S2-  S210  1  0.50170693  0.38182268  0.45390209  1
  S2-  S211  1  0.49359142  0.36838791  0.95256295  1
  S2-  S212  1  0.50448086  0.63256887  0.45157325  1
  S2-  S213  1  0.49683355  0.61166695  0.95245270  1
  S2-  S214  1  0.50592770  0.88014198  0.45748882  1
  S2-  S215  1  0.49149503  0.86253042  0.95445526  1
  S2-  S216  1  0.75443702  0.13021355  0.44812427  1
  S2-  S217  1  0.74726365  0.11392144  0.95114312  1
  S2-  S218  1  0.75290826  0.38689764  0.45489498  1
  S2-  S219  1  0.74684617  0.36248693  0.95279947  1
  S2-  S220  1  0.75098038  0.63111997  0.44822774  1
  S2-  S221  1  0.74640741  0.61332477  0.93745454  1
  S2-  S222  1  0.74769628  0.88287796  0.45432958  1
  S2-  S223  1  0.75491045  0.86263210  0.95036844  1
  S2-  S224  1  0.12352553  -0.01041966  0.04860531  1
  S2-  S225  1  0.12208602  0.01256294  0.54643814  1
  S2-  S226  1  0.13069514  0.23637661  0.04740379  1
  S2-  S227  1  0.12418961  0.25443619  0.55153056  1
  S2-  S228  1  0.12901900  0.48201456  0.04718587  1
  S2-  S229  1  0.12868276  0.50917784  0.54390544  1
  S2-  S230  1  0.12468522  0.74408460  0.03631561  1
  S2-  S231  1  0.12713656  0.75675954  0.55282493  1
  S2-  S232  1  0.37324640  -0.01440186  0.04536550  1
  S2-  S233  1  0.37969126  0.00456931  0.54093334  1
  S2-  S234  1  0.37587539  0.23720625  0.04261534  1
  S2-  S235  1  0.37591467  0.25905718  0.55334456  1
  S2-  S236  1  0.37693469  0.49187043  0.05248452  1
  S2-  S237  1  0.37534952  0.51015334  0.54901372  1
  S2-  S238  1  0.37240214  0.73990130  0.05219298  1
  S2-  S239  1  0.37604842  0.75824033  0.55666525  1
  S2-  S240  1  0.62554104  -0.01041446  0.04246835  1
  S2-  S241  1  0.63286052  0.00976245  0.54598155  1
  S2-  S242  1  0.61669955  0.23912023  0.03558913  1
  S2-  S243  1  0.63106450  0.25556569  0.54218832  1
  S2-  S244  1  0.62002763  0.48567394  0.04530094  1
  S2-  S245  1  0.62561407  0.51136802  0.54675074  1
  S2-  S246  1  0.62571689  0.74085869  0.04046744  1
  S2-  S247  1  0.63087910  0.75461716  0.54350321  1
  S2-  S248  1  0.87369164  -0.01014729  0.04895315  1
  S2-  S249  1  0.87522240  0.00817793  0.54604272  1
  S2-  S250  1  0.87195623  0.23656683  0.03867529  1
  S2-  S251  1  0.87826755  0.26083829  0.55269511  1
  S2-  S252  1  0.86948383  0.48922485  0.04862342  1
  S2-  S253  1  0.87668679  0.50189745  0.54455669  1
  S2-  S254  1  0.87354363  0.73783543  0.04673551  1
  S2-  S255  1  0.87685698  0.75881940  0.54284048  1
