# generated using pymatgen
data_La12Ce14Pr13Nd13Sm12(BiS2)64
_symmetry_space_group_name_H-M   'P 1'
_cell_length_a   16.05157028
_cell_length_b   16.12143986
_cell_length_c   27.30587372
_cell_angle_alpha   90.32481460
_cell_angle_beta   89.46180965
_cell_angle_gamma   89.96918872
_symmetry_Int_Tables_number   1
_chemical_formula_structural   La12Ce14Pr13Nd13Sm12(BiS2)64
_chemical_formula_sum   'La12 Ce14 Pr13 Nd13 Sm12 Bi64 S128'
_cell_volume   7065.63526744
_cell_formula_units_Z   1
loop_
 _symmetry_equiv_pos_site_id
 _symmetry_equiv_pos_as_xyz
  1  'x, y, z'
loop_
 _atom_type_symbol
 _atom_type_oxidation_number
  La3+  3.0
  Ce3+  3.0
  Pr3+  3.0
  Nd3+  3.0
  Sm3+  3.0
  Bi2+  2.0
  S2-  -2.0
loop_
 _atom_site_type_symbol
 _atom_site_label
 _atom_site_symmetry_multiplicity
 _atom_site_fract_x
 _atom_site_fract_y
 _atom_site_fract_z
 _atom_site_occupancy
  La3+  La0  1  0.36110065  0.75399522  0.91672230  1
  La3+  La1  1  0.10913007  0.74151045  0.88496220  1
  La3+  La2  1  0.88180830  0.50164311  0.40294886  1
  La3+  La3  1  -0.02011243  0.12243325  0.07162413  1
  La3+  La4  1  0.26065244  0.62479331  0.57155877  1
  La3+  La5  1  0.51804547  0.62738291  0.57712795  1
  La3+  La6  1  0.75684902  0.87792968  0.57116727  1
  La3+  La7  1  0.72549809  0.37791294  0.08130420  1
  La3+  La8  1  0.25385969  0.36862103  0.61304738  1
  La3+  La9  1  0.86176956  0.77073241  0.37972776  1
  La3+  La10  1  0.09916559  0.00264572  0.92274052  1
  La3+  La11  1  0.64684184  -0.01106981  0.42244119  1
  Ce3+  Ce12  1  0.36197339  0.49227913  0.92255607  1
  Ce3+  Ce13  1  -0.02032833  0.62498217  0.06087032  1
  Ce3+  Ce14  1  0.75827831  0.12131558  0.54900638  1
  Ce3+  Ce15  1  0.11926427  0.74045532  0.44477405  1
  Ce3+  Ce16  1  0.00447365  0.37149288  0.56739979  1
  Ce3+  Ce17  1  0.25286467  0.87094750  0.55889481  1
  Ce3+  Ce18  1  0.10531627  0.24446378  0.94268916  1
  Ce3+  Ce19  1  0.89063138  0.25442866  0.43236990  1
  Ce3+  Ce20  1  0.10701977  0.50216548  0.94075104  1
  Ce3+  Ce21  1  0.47453213  0.37574856  0.06771871  1
  Ce3+  Ce22  1  0.12797568  0.49522455  0.44965756  1
  Ce3+  Ce23  1  0.50591627  0.37173329  0.56538979  1
  Ce3+  Ce24  1  0.25499604  0.12624778  0.56109454  1
  Ce3+  Ce25  1  0.38352484  0.49620109  0.44919569  1
  Pr3+  Pr26  1  0.72984720  0.12252631  0.07136924  1
  Pr3+  Pr27  1  0.50704967  0.87608648  0.56157357  1
  Pr3+  Pr28  1  0.23176694  0.12326690  0.06764049  1
  Pr3+  Pr29  1  0.85660307  0.73920153  0.93111737  1
  Pr3+  Pr30  1  0.12983694  -0.00832402  0.44058934  1
  Pr3+  Pr31  1  0.50433370  0.12236762  0.54863536  1
  Pr3+  Pr32  1  0.60649313  0.74648341  0.93374061  1
  Pr3+  Pr33  1  0.62684920  0.74382117  0.43268761  1
  Pr3+  Pr34  1  0.36013988  0.24515397  0.93255709  1
  Pr3+  Pr35  1  0.37856400  0.24807433  0.43198020  1
  Pr3+  Pr36  1  0.72803035  0.87110377  0.05760705  1
  Pr3+  Pr37  1  0.00131135  0.61903908  0.56325910  1
  Pr3+  Pr38  1  0.85665774  -0.00171416  0.93672061  1
  Nd3+  Nd39  1  0.89109915  -0.00809518  0.43852874  1
  Nd3+  Nd40  1  0.23608008  0.62648542  0.05184212  1
  Nd3+  Nd41  1  0.22788532  0.87467131  0.04617440  1
  Nd3+  Nd42  1  0.72024951  0.62886834  0.07371458  1
  Nd3+  Nd43  1  0.37982512  0.74242650  0.43645127  1
  Nd3+  Nd44  1  0.23369082  0.37306190  0.04811495  1
  Nd3+  Nd45  1  0.75174980  0.37263841  0.56200387  1
  Nd3+  Nd46  1  0.62518264  0.49539079  0.42996097  1
  Nd3+  Nd47  1  0.85370310  0.25441018  0.93941671  1
  Nd3+  Nd48  1  -0.02187155  0.37693798  0.06348926  1
  Nd3+  Nd49  1  0.38285108  -0.00554232  0.43980322  1
  Nd3+  Nd50  1  0.47048715  0.87184324  0.06531354  1
  Nd3+  Nd51  1  -0.00000364  0.87217069  0.57730721  1
  Sm3+  Sm52  1  0.35759660  -0.00110748  0.93784811  1
  Sm3+  Sm53  1  0.60745969  0.24881492  0.95166300  1
  Sm3+  Sm54  1  0.60726599  0.00040054  0.94485260  1
  Sm3+  Sm55  1  0.00641608  0.12576223  0.56023519  1
  Sm3+  Sm56  1  0.60708142  0.49749632  0.94710406  1
  Sm3+  Sm57  1  0.47401224  0.62511292  0.05756944  1
  Sm3+  Sm58  1  0.75798199  0.62266968  0.54487241  1
  Sm3+  Sm59  1  -0.01881015  0.87010677  0.05139812  1
  Sm3+  Sm60  1  0.48281754  0.12367415  0.07102879  1
  Sm3+  Sm61  1  0.13421139  0.25030960  0.44378699  1
  Sm3+  Sm62  1  0.85408010  0.49678624  0.94196048  1
  Sm3+  Sm63  1  0.63568024  0.25046098  0.43889361  1
  Bi2+  Bi64  1  0.01919166  0.11207798  0.29401148  1
  Bi2+  Bi65  1  -0.03563510  0.16709975  0.81320124  1
  Bi2+  Bi66  1  0.02053254  0.36240838  0.29419778  1
  Bi2+  Bi67  1  -0.03000017  0.35745967  0.78673891  1
  Bi2+  Bi68  1  0.03902962  0.63175040  0.28987786  1
  Bi2+  Bi69  1  -0.04373007  0.62716089  0.79538095  1
  Bi2+  Bi70  1  0.05002804  0.92098753  0.26659154  1
  Bi2+  Bi71  1  0.00576994  0.89218669  0.77439462  1
  Bi2+  Bi72  1  0.24237662  0.12155680  0.28456569  1
  Bi2+  Bi73  1  0.33524227  0.11962961  0.82173023  1
  Bi2+  Bi74  1  0.28911173  0.39692310  0.32663396  1
  Bi2+  Bi75  1  0.24838891  0.28995937  0.79851574  1
  Bi2+  Bi76  1  0.26585910  0.66621966  0.32951581  1
  Bi2+  Bi77  1  0.23200023  0.58009968  0.78053180  1
  Bi2+  Bi78  1  0.22780192  0.85302015  0.30206575  1
  Bi2+  Bi79  1  0.26455976  0.86931642  0.77672758  1
  Bi2+  Bi80  1  0.44584327  0.17025969  0.29406190  1
  Bi2+  Bi81  1  0.53012210  0.08344081  0.80724049  1
  Bi2+  Bi82  1  0.48155923  0.36350791  0.30617623  1
  Bi2+  Bi83  1  0.51861223  0.29192454  0.78661731  1
  Bi2+  Bi84  1  0.44891305  0.62528791  0.28652010  1
  Bi2+  Bi85  1  0.55633556  0.62158772  0.78859744  1
  Bi2+  Bi86  1  0.44397526  0.87273252  0.29302305  1
  Bi2+  Bi87  1  0.50234559  0.88238586  0.78584609  1
  Bi2+  Bi88  1  0.82307055  0.15565142  0.27111760  1
  Bi2+  Bi89  1  0.77478497  0.17704285  0.78813673  1
  Bi2+  Bi90  1  0.74800728  0.36232917  0.27758291  1
  Bi2+  Bi91  1  0.70995394  0.38410152  0.80008503  1
  Bi2+  Bi92  1  0.73216639  0.61250188  0.27212081  1
  Bi2+  Bi93  1  0.72402916  0.71398406  0.80803731  1
  Bi2+  Bi94  1  0.71928656  0.88516983  0.28126903  1
  Bi2+  Bi95  1  0.75628418  0.90107085  0.77825453  1
  Bi2+  Bi96  1  0.19271186  -0.00637655  0.19619916  1
  Bi2+  Bi97  1  0.20366861  0.04863164  0.74479191  1
  Bi2+  Bi98  1  0.20323354  0.29820623  0.23682617  1
  Bi2+  Bi99  1  0.12143963  0.22274457  0.72052676  1
  Bi2+  Bi100  1  0.19847292  0.51747758  0.25254115  1
  Bi2+  Bi101  1  0.02958161  0.49546573  0.71278006  1
  Bi2+  Bi102  1  0.18741922  0.71276025  0.22310375  1
  Bi2+  Bi103  1  0.12753133  0.74074282  0.67903938  1
  Bi2+  Bi104  1  0.38356765  0.03077020  0.21916632  1
  Bi2+  Bi105  1  0.38726456  -0.00775463  0.71414571  1
  Bi2+  Bi106  1  0.39151498  0.28779352  0.19510891  1
  Bi2+  Bi107  1  0.40988461  0.19539991  0.70150552  1
  Bi2+  Bi108  1  0.37590857  0.50017245  0.19628987  1
  Bi2+  Bi109  1  0.41551176  0.44176111  0.73865793  1
  Bi2+  Bi110  1  0.37884444  0.76777128  0.19653392  1
  Bi2+  Bi111  1  0.38271673  0.70065434  0.69997253  1
  Bi2+  Bi112  1  0.64437187  0.07958464  0.25613935  1
  Bi2+  Bi113  1  0.63155551  0.00060822  0.70743730  1
  Bi2+  Bi114  1  0.58536195  0.24132007  0.21010570  1
  Bi2+  Bi115  1  0.66516192  0.25868721  0.70486183  1
  Bi2+  Bi116  1  0.56774425  0.51482638  0.21910482  1
  Bi2+  Bi117  1  0.64141442  0.52492871  0.70383800  1
  Bi2+  Bi118  1  0.61786034  0.76609462  0.20088379  1
  Bi2+  Bi119  1  0.64801155  0.80524325  0.69712067  1
  Bi2+  Bi120  1  0.89677034  0.00977925  0.20688056  1
  Bi2+  Bi121  1  0.87859533  0.09792280  0.69968398  1
  Bi2+  Bi122  1  0.99139318  0.22080547  0.20075591  1
  Bi2+  Bi123  1  0.85885430  0.29348036  0.68469086  1
  Bi2+  Bi124  1  0.90909850  0.49294367  0.19510570  1
  Bi2+  Bi125  1  0.83187886  0.48032510  0.72512112  1
  Bi2+  Bi126  1  0.88444798  0.75723944  0.18655713  1
  Bi2+  Bi127  1  0.83729437  0.74858306  0.71103627  1
  S2-  S128  1  0.10872803  0.11588224  0.14368725  1
  S2-  S129  1  0.02886086  0.11548442  0.65848917  1
  S2-  S130  1  0.01884300  0.38016640  0.16044154  1
  S2-  S131  1  0.08808190  0.35996746  0.65358983  1
  S2-  S132  1  0.00119079  0.63184066  0.15881473  1
  S2-  S133  1  -0.01641798  0.63903249  0.66451953  1
  S2-  S134  1  -0.01646490  0.88890582  0.15032194  1
  S2-  S135  1  0.06970823  0.89136914  0.67282374  1
  S2-  S136  1  0.35911752  0.13476381  0.14100346  1
  S2-  S137  1  0.25908413  0.20141116  0.64957596  1
  S2-  S138  1  0.26754718  0.38078115  0.14482462  1
  S2-  S139  1  0.25887898  0.40941842  0.72396903  1
  S2-  S140  1  0.34717559  0.63043957  0.13024216  1
  S2-  S141  1  0.24223474  0.59912930  0.67259417  1
  S2-  S142  1  0.29543534  0.87343447  0.13867061  1
  S2-  S143  1  0.27980894  0.81496193  0.64911869  1
  S2-  S144  1  0.60477337  0.11126892  0.14681210  1
  S2-  S145  1  0.50293273  0.07008155  0.64494545  1
  S2-  S146  1  0.58147998  0.38867747  0.14795782  1
  S2-  S147  1  0.41828024  0.34684678  0.65192126  1
  S2-  S148  1  0.57736314  0.63566477  0.14029685  1
  S2-  S149  1  0.46150386  0.56518504  0.66951473  1
  S2-  S150  1  0.51821090  0.87481236  0.16222332  1
  S2-  S151  1  0.49894826  0.77306760  0.64404167  1
  S2-  S152  1  0.85132354  0.13483368  0.14463810  1
  S2-  S153  1  0.74320688  0.04266413  0.63569537  1
  S2-  S154  1  0.80176493  0.37591375  0.17428571  1
  S2-  S155  1  0.63226455  0.38383586  0.63795814  1
  S2-  S156  1  0.78572699  0.61204855  0.16818015  1
  S2-  S157  1  0.68240676  0.63111355  0.63556928  1
  S2-  S158  1  0.74305429  0.85642622  0.15783212  1
  S2-  S159  1  0.86868885  0.87000184  0.65094455  1
  S2-  S160  1  0.01712524  -0.02211709  0.36304910  1
  S2-  S161  1  0.12864755  -0.09515549  0.83867222  1
  S2-  S162  1  0.02937983  0.24603881  0.36408671  1
  S2-  S163  1  0.11474315  0.15008904  0.86141006  1
  S2-  S164  1  0.05472404  0.48765554  0.35849088  1
  S2-  S165  1  0.09974967  0.56231085  0.84847571  1
  S2-  S166  1  0.03845658  0.74787793  0.35869825  1
  S2-  S167  1  0.08802624  0.73604387  0.77223669  1
  S2-  S168  1  0.32374151  -0.02622251  0.34786379  1
  S2-  S169  1  0.37172545  -0.09041020  0.85276253  1
  S2-  S170  1  0.24770306  0.24064770  0.36295014  1
  S2-  S171  1  0.38692276  0.35046003  0.85270906  1
  S2-  S172  1  0.48346251  0.50804722  0.36559420  1
  S2-  S173  1  0.36830307  0.54906285  0.82690928  1
  S2-  S174  1  0.49016938  0.75017438  0.35734674  1
  S2-  S175  1  0.26359446  0.72375562  0.83201738  1
  S2-  S176  1  0.57315422  -0.02461352  0.33029800  1
  S2-  S177  1  0.63368793  -0.03532658  0.84895082  1
  S2-  S178  1  0.63171825  0.28933633  0.34345240  1
  S2-  S179  1  0.62964963  0.21568357  0.85554061  1
  S2-  S180  1  0.71320784  0.49590403  0.33974096  1
  S2-  S181  1  0.60173134  0.49091865  0.84767622  1
  S2-  S182  1  0.69965549  0.74381398  0.33755705  1
  S2-  S183  1  0.50478195  0.74579493  0.85163332  1
  S2-  S184  1  0.79296245  -0.05017092  0.35832081  1
  S2-  S185  1  0.94334291  0.00379146  0.84842644  1
  S2-  S186  1  0.86650433  0.35349068  0.34610432  1
  S2-  S187  1  0.84783956  0.37536437  0.86599523  1
  S2-  S188  1  0.87840145  0.61579963  0.32461859  1
  S2-  S189  1  0.83252331  0.59934501  0.86224390  1
  S2-  S190  1  0.87792818  0.81621432  0.27495357  1
  S2-  S191  1  0.94621940  0.77661109  0.84511949  1
  S2-  S192  1  0.00990731  0.12272693  0.45852593  1
  S2-  S193  1  -0.02656891  0.12915781  0.96124128  1
  S2-  S194  1  0.00371495  0.37593260  0.46354762  1
  S2-  S195  1  -0.01550175  0.37473029  0.95710121  1
  S2-  S196  1  -0.00096997  0.61356800  0.45847788  1
  S2-  S197  1  -0.01801828  0.62075428  0.95547138  1
  S2-  S198  1  0.00763154  0.86890288  0.46860482  1
  S2-  S199  1  -0.01868805  0.86948370  0.95031167  1
  S2-  S200  1  0.25492388  0.11690434  0.45636488  1
  S2-  S201  1  0.23546003  0.12231424  0.95892064  1
  S2-  S202  1  0.25575655  0.37581252  0.45725008  1
  S2-  S203  1  0.22911620  0.37169460  0.94315449  1
  S2-  S204  1  0.25479188  0.62047864  0.46164826  1
  S2-  S205  1  0.23346757  0.62304992  0.94712291  1
  S2-  S206  1  0.25310629  0.86504544  0.45375632  1
  S2-  S207  1  0.22938941  0.87524603  0.94420325  1
  S2-  S208  1  0.50956836  0.12163627  0.44114243  1
  S2-  S209  1  0.48466701  0.12209209  0.95797994  1
  S2-  S210  1  0.50660637  0.36534376  0.45764049  1
  S2-  S211  1  0.48678708  0.37145584  0.95889332  1
  S2-  S212  1  0.50494228  0.62301891  0.46492834  1
  S2-  S213  1  0.48193486  0.61873135  0.95159543  1
  S2-  S214  1  0.50613647  0.87523080  0.45443124  1
  S2-  S215  1  0.48650761  0.87975966  0.95692088  1
  S2-  S216  1  0.76311220  0.12677712  0.44240594  1
  S2-  S217  1  0.73266690  0.12404707  0.95937946  1
  S2-  S218  1  0.75658260  0.37463225  0.45566561  1
  S2-  S219  1  0.72602697  0.37461659  0.96704819  1
  S2-  S220  1  0.75777733  0.62096355  0.44323051  1
  S2-  S221  1  0.72619364  0.62155298  0.96439501  1
  S2-  S222  1  0.76361670  0.86123675  0.45791736  1
  S2-  S223  1  0.73252214  0.87164934  0.95034394  1
  S2-  S224  1  0.10259346  -0.00411662  0.03699126  1
  S2-  S225  1  0.12965844  -0.00068632  0.55034832  1
  S2-  S226  1  0.10607246  0.25279830  0.04799370  1
  S2-  S227  1  0.13113092  0.24877790  0.54786281  1
  S2-  S228  1  0.10972068  0.49954158  0.04803203  1
  S2-  S229  1  0.13463903  0.49487647  0.55719645  1
  S2-  S230  1  0.10848898  0.74879835  0.05388765  1
  S2-  S231  1  0.12746613  0.74586962  0.55243269  1
  S2-  S232  1  0.35904749  0.00036322  0.04122709  1
  S2-  S233  1  0.37664958  -0.00379715  0.54604732  1
  S2-  S234  1  0.35950654  0.24845691  0.03925475  1
  S2-  S235  1  0.37943401  0.24593121  0.54010019  1
  S2-  S236  1  0.35700049  0.49657678  0.03266768  1
  S2-  S237  1  0.37805742  0.49344495  0.55559741  1
  S2-  S238  1  0.35619665  0.75196489  0.02959687  1
  S2-  S239  1  0.38206052  0.74982693  0.54150447  1
  S2-  S240  1  0.60234551  -0.00419569  0.04755693  1
  S2-  S241  1  0.63096850  -0.00215130  0.53259728  1
  S2-  S242  1  0.60325132  0.24883133  0.05262748  1
  S2-  S243  1  0.63180982  0.24240344  0.54294959  1
  S2-  S244  1  0.60101185  0.50171102  0.04836286  1
  S2-  S245  1  0.63094369  0.49745674  0.53646126  1
  S2-  S246  1  0.59921857  0.75170479  0.04046247  1
  S2-  S247  1  0.63454192  0.75401004  0.53964957  1
  S2-  S248  1  0.85449049  -0.00595289  0.04438476  1
  S2-  S249  1  0.88713112  0.00133497  0.54407492  1
  S2-  S250  1  0.85186877  0.25607761  0.04629395  1
  S2-  S251  1  0.88069262  0.24720271  0.54467263  1
  S2-  S252  1  0.85199985  0.50128325  0.04969005  1
  S2-  S253  1  0.87377696  0.49588932  0.56469105  1
  S2-  S254  1  0.85413797  0.74650733  0.04436344  1
  S2-  S255  1  0.87724237  0.74258373  0.55496191  1
