# generated using pymatgen
data_La12Ce14Pr13Nd13Sm12(BiS2)64
_symmetry_space_group_name_H-M   'P 1'
_cell_length_a   16.10613737
_cell_length_b   16.09612415
_cell_length_c   27.28135620
_cell_angle_alpha   90.10958219
_cell_angle_beta   90.07580448
_cell_angle_gamma   90.07459298
_symmetry_Int_Tables_number   1
_chemical_formula_structural   La12Ce14Pr13Nd13Sm12(BiS2)64
_chemical_formula_sum   'La12 Ce14 Pr13 Nd13 Sm12 Bi64 S128'
_cell_volume   7072.56787974
_cell_formula_units_Z   1
loop_
 _symmetry_equiv_pos_site_id
 _symmetry_equiv_pos_as_xyz
  1  'x, y, z'
loop_
 _atom_type_symbol
 _atom_type_oxidation_number
  La3+  3.0
  Ce3+  3.0
  Pr3+  3.0
  Nd3+  3.0
  Sm3+  3.0
  Bi2+  2.0
  S2-  -2.0
loop_
 _atom_site_type_symbol
 _atom_site_label
 _atom_site_symmetry_multiplicity
 _atom_site_fract_x
 _atom_site_fract_y
 _atom_site_fract_z
 _atom_site_occupancy
  La3+  La0  1  0.50777788  0.36472693  0.57016761  1
  La3+  La1  1  0.86781340  0.75147186  0.93360091  1
  La3+  La2  1  0.50148973  0.62630304  0.57144896  1
  La3+  La3  1  0.23914542  0.38609776  0.07615806  1
  La3+  La4  1  0.11206572  0.00716041  0.92400634  1
  La3+  La5  1  0.88487586  0.48439181  0.39501774  1
  La3+  La6  1  0.48787464  0.38586121  0.08656368  1
  La3+  La7  1  0.00518978  0.37664324  0.57068737  1
  La3+  La8  1  -0.00881960  0.10449535  0.59613571  1
  La3+  La9  1  0.37669305  0.49573973  0.91714106  1
  La3+  La10  1  0.25839775  0.37175268  0.57569498  1
  La3+  La11  1  0.23263631  0.63749084  0.61520939  1
  Ce3+  Ce12  1  0.87110751  0.50691199  0.95134066  1
  Ce3+  Ce13  1  0.24646501  0.88502454  0.04806582  1
  Ce3+  Ce14  1  0.36851698  0.01168008  0.92807071  1
  Ce3+  Ce15  1  0.74465078  0.63653481  0.07280043  1
  Ce3+  Ce16  1  0.74441024  0.12499970  0.06858151  1
  Ce3+  Ce17  1  -0.00612207  0.88382400  0.05761893  1
  Ce3+  Ce18  1  0.62921527  0.25002333  0.43559636  1
  Ce3+  Ce19  1  0.24502837  0.62791260  0.05444059  1
  Ce3+  Ce20  1  0.37768742  0.74599993  0.43724999  1
  Ce3+  Ce21  1  0.24957913  0.87415437  0.55319465  1
  Ce3+  Ce22  1  0.62008230  0.74399050  0.43084147  1
  Ce3+  Ce23  1  0.61648283  0.75174871  0.94183088  1
  Ce3+  Ce24  1  -0.00573828  0.12860013  0.05947592  1
  Ce3+  Ce25  1  0.24955449  0.12412068  0.56539328  1
  Pr3+  Pr26  1  0.61609234  0.26048856  0.95212852  1
  Pr3+  Pr27  1  0.75588713  0.87425688  0.55730353  1
  Pr3+  Pr28  1  0.86275939  0.00789408  0.92961603  1
  Pr3+  Pr29  1  0.11972639  0.25734378  0.94228856  1
  Pr3+  Pr30  1  0.37086630  0.24315972  0.42348132  1
  Pr3+  Pr31  1  0.12197198  0.24930488  0.44621242  1
  Pr3+  Pr32  1  0.86810745  0.74595332  0.41739015  1
  Pr3+  Pr33  1  0.75205838  0.63315337  0.56326668  1
  Pr3+  Pr34  1  0.87969602  -0.00242104  0.42254912  1
  Pr3+  Pr35  1  0.49885013  0.12189912  0.55422459  1
  Pr3+  Pr36  1  0.36882071  0.75419980  0.93762351  1
  Pr3+  Pr37  1  -0.00551453  0.64134940  0.07577492  1
  Pr3+  Pr38  1  0.62709475  0.49715684  0.43711979  1
  Nd3+  Nd39  1  0.75015718  0.37583819  0.56191009  1
  Nd3+  Nd40  1  0.74250684  0.88090787  0.06002029  1
  Nd3+  Nd41  1  0.36631827  0.25311223  0.94398833  1
  Nd3+  Nd42  1  0.49839404  0.87397909  0.55694550  1
  Nd3+  Nd43  1  0.11848178  0.75304414  0.94213142  1
  Nd3+  Nd44  1  0.00081388  0.62349460  0.55173096  1
  Nd3+  Nd45  1  0.37481784  0.49567666  0.44804751  1
  Nd3+  Nd46  1  0.24228917  0.12033485  0.07046973  1
  Nd3+  Nd47  1  0.62012133  0.00860976  0.93001412  1
  Nd3+  Nd48  1  0.49318239  0.13209156  0.06017033  1
  Nd3+  Nd49  1  0.49303418  0.88356827  0.05301630  1
  Nd3+  Nd50  1  0.11017237  0.50491159  0.93590832  1
  Nd3+  Nd51  1  0.86695219  0.25704736  0.94582608  1
  Sm3+  Sm52  1  0.00312061  0.87029864  0.55024434  1
  Sm3+  Sm53  1  0.12403206  0.74498335  0.43609955  1
  Sm3+  Sm54  1  0.12723529  0.49725920  0.44274863  1
  Sm3+  Sm55  1  0.75593335  0.12094664  0.55362852  1
  Sm3+  Sm56  1  0.74502769  0.38416245  0.06344775  1
  Sm3+  Sm57  1  0.37342524  -0.00150204  0.43291819  1
  Sm3+  Sm58  1  0.12484586  -0.00014763  0.43853838  1
  Sm3+  Sm59  1  0.49072354  0.62927428  0.06223246  1
  Sm3+  Sm60  1  0.61723790  0.50515141  0.94865310  1
  Sm3+  Sm61  1  -0.00439032  0.38103834  0.06859661  1
  Sm3+  Sm62  1  0.62796991  -0.00197424  0.44391037  1
  Sm3+  Sm63  1  0.87872752  0.24969862  0.45057083  1
  Bi2+  Bi64  1  -0.01817500  0.12867928  0.28300255  1
  Bi2+  Bi65  1  0.02939298  0.12868220  0.80112090  1
  Bi2+  Bi66  1  0.03314163  0.34728212  0.29422860  1
  Bi2+  Bi67  1  -0.07232828  0.37375652  0.80464521  1
  Bi2+  Bi68  1  0.03407589  0.62726177  0.28375502  1
  Bi2+  Bi69  1  -0.02462505  0.67249665  0.81013229  1
  Bi2+  Bi70  1  0.00084929  0.88200905  0.27804067  1
  Bi2+  Bi71  1  -0.05554212  0.88506979  0.76714206  1
  Bi2+  Bi72  1  0.23507633  0.01122407  0.30571993  1
  Bi2+  Bi73  1  0.28600385  0.10497339  0.76876351  1
  Bi2+  Bi74  1  0.25246177  0.39367540  0.31127419  1
  Bi2+  Bi75  1  0.24958759  0.36883648  0.80112916  1
  Bi2+  Bi76  1  0.24861012  0.61797246  0.28580235  1
  Bi2+  Bi77  1  0.23245854  0.64484888  0.81872717  1
  Bi2+  Bi78  1  0.25963480  0.81906601  0.30004177  1
  Bi2+  Bi79  1  0.29586475  0.89919887  0.77504457  1
  Bi2+  Bi80  1  0.50579410  0.05724731  0.29124728  1
  Bi2+  Bi81  1  0.51653796  0.12069962  0.80561605  1
  Bi2+  Bi82  1  0.51274027  0.41156189  0.31221819  1
  Bi2+  Bi83  1  0.53323534  0.35618530  0.79746935  1
  Bi2+  Bi84  1  0.47869423  0.67037015  0.26020939  1
  Bi2+  Bi85  1  0.51232297  0.63238341  0.79516198  1
  Bi2+  Bi86  1  0.45780142  0.86578481  0.29385861  1
  Bi2+  Bi87  1  0.47771947  0.93055816  0.82046070  1
  Bi2+  Bi88  1  0.79368368  0.08809837  0.30592993  1
  Bi2+  Bi89  1  0.76579861  0.12635885  0.76876195  1
  Bi2+  Bi90  1  0.75780058  0.29070488  0.29536464  1
  Bi2+  Bi91  1  0.73606275  0.42794102  0.80712997  1
  Bi2+  Bi92  1  0.73971032  0.62431514  0.28826079  1
  Bi2+  Bi93  1  0.76239059  0.63044563  0.79167029  1
  Bi2+  Bi94  1  0.74127626  0.88503976  0.28183954  1
  Bi2+  Bi95  1  0.66828655  0.90873176  0.78649916  1
  Bi2+  Bi96  1  0.14642299  -0.04783422  0.20952161  1
  Bi2+  Bi97  1  0.15592428  0.03611107  0.68113074  1
  Bi2+  Bi98  1  0.12157437  0.19370962  0.21162266  1
  Bi2+  Bi99  1  0.13433086  0.28006248  0.71727583  1
  Bi2+  Bi100  1  0.15335119  0.47499382  0.22179287  1
  Bi2+  Bi101  1  0.09756385  0.52346205  0.71923795  1
  Bi2+  Bi102  1  0.13826468  0.75443999  0.20729420  1
  Bi2+  Bi103  1  0.11975706  0.86051245  0.71809884  1
  Bi2+  Bi104  1  0.39712459  -0.02738031  0.20211879  1
  Bi2+  Bi105  1  0.34922608  -0.00575650  0.66478239  1
  Bi2+  Bi106  1  0.39483710  0.24651404  0.21678536  1
  Bi2+  Bi107  1  0.39087174  0.24030070  0.70940685  1
  Bi2+  Bi108  1  0.38085090  0.50571868  0.21260680  1
  Bi2+  Bi109  1  0.36941876  0.50809991  0.71114358  1
  Bi2+  Bi110  1  0.32568683  0.70803214  0.18815452  1
  Bi2+  Bi111  1  0.41725773  0.81361417  0.70087683  1
  Bi2+  Bi112  1  0.61629802  0.04022014  0.20060444  1
  Bi2+  Bi113  1  0.53400524  -0.00175459  0.71317324  1
  Bi2+  Bi114  1  0.76342099  0.17456670  0.19899941  1
  Bi2+  Bi115  1  0.64071178  0.24258708  0.71187196  1
  Bi2+  Bi116  1  0.62576845  0.45531695  0.20727668  1
  Bi2+  Bi117  1  0.63092538  0.49889323  0.71637975  1
  Bi2+  Bi118  1  0.61296284  0.78820101  0.21639294  1
  Bi2+  Bi119  1  0.67418302  0.74604635  0.70803096  1
  Bi2+  Bi120  1  0.88095494  -0.00019138  0.21368945  1
  Bi2+  Bi121  1  0.79876445  -0.03421255  0.70738795  1
  Bi2+  Bi122  1  0.94191991  0.27760583  0.19633185  1
  Bi2+  Bi123  1  0.82758628  0.29502067  0.71705421  1
  Bi2+  Bi124  1  0.86984801  0.46614612  0.20687395  1
  Bi2+  Bi125  1  0.83968832  0.49902933  0.71177971  1
  Bi2+  Bi126  1  0.87408320  0.72508441  0.20001956  1
  Bi2+  Bi127  1  0.89909908  0.69194792  0.70569058  1
  S2-  S128  1  0.04490654  0.07392168  0.14687715  1
  S2-  S129  1  0.02753826  0.15816993  0.69390440  1
  S2-  S130  1  0.10470701  0.37653453  0.14549714  1
  S2-  S131  1  0.03230223  0.38120871  0.67085348  1
  S2-  S132  1  -0.02822120  0.57977507  0.17152468  1
  S2-  S133  1  0.05333801  0.63438057  0.64785595  1
  S2-  S134  1  -0.01497104  0.79669319  0.14330910  1
  S2-  S135  1  0.01335057  0.93656433  0.64178464  1
  S2-  S136  1  0.26219721  0.18179415  0.16609671  1
  S2-  S137  1  0.25192332  0.23437201  0.64374866  1
  S2-  S138  1  0.34914479  0.36784965  0.15651090  1
  S2-  S139  1  0.22390741  0.47284652  0.65870183  1
  S2-  S140  1  0.24175631  0.55787342  0.14306078  1
  S2-  S141  1  0.21924135  0.64036544  0.72447776  1
  S2-  S142  1  0.26149709  0.97040619  0.13299951  1
  S2-  S143  1  0.23082868  0.80920574  0.64304491  1
  S2-  S144  1  0.47182918  0.12027391  0.15871430  1
  S2-  S145  1  0.51397032  0.19409040  0.64550241  1
  S2-  S146  1  0.53728467  0.32540037  0.18144144  1
  S2-  S147  1  0.40874172  0.37731317  0.65458024  1
  S2-  S148  1  0.50647910  0.54136972  0.14708426  1
  S2-  S149  1  0.40054753  0.64258520  0.65616924  1
  S2-  S150  1  0.50346859  0.86369615  0.15144538  1
  S2-  S151  1  0.55964917  0.84251590  0.64926664  1
  S2-  S152  1  0.74504937  -0.00458015  0.13791470  1
  S2-  S153  1  0.82712509  0.08703199  0.64004362  1
  S2-  S154  1  0.74420810  0.36419953  0.16109265  1
  S2-  S155  1  0.64314686  0.37676701  0.64221993  1
  S2-  S156  1  0.74403400  0.56830729  0.16631683  1
  S2-  S157  1  0.63551130  0.62280574  0.64234588  1
  S2-  S158  1  0.74852180  0.77325554  0.14187139  1
  S2-  S159  1  0.79440228  0.76914019  0.63567526  1
  S2-  S160  1  0.06518438  0.00986941  0.34609454  1
  S2-  S161  1  0.16834948  0.03614710  0.82932359  1
  S2-  S162  1  0.15736463  0.26374816  0.34703645  1
  S2-  S163  1  0.12851675  0.26132875  0.84033622  1
  S2-  S164  1  0.04985097  0.48859496  0.35263260  1
  S2-  S165  1  0.15354063  0.49342442  0.83814692  1
  S2-  S166  1  0.07350341  0.75603372  0.34164083  1
  S2-  S167  1  0.10520765  0.76595607  0.84326990  1
  S2-  S168  1  0.36208652  0.09818895  0.35432409  1
  S2-  S169  1  0.36656411  0.13669010  0.86062214  1
  S2-  S170  1  0.37923313  0.29074104  0.32206322  1
  S2-  S171  1  0.38631092  0.34324969  0.85909281  1
  S2-  S172  1  0.38657727  0.50032475  0.34706044  1
  S2-  S173  1  0.34380326  0.51945921  0.81251449  1
  S2-  S174  1  0.48773070  0.73228693  0.36093035  1
  S2-  S175  1  0.39158759  0.71436870  0.84022552  1
  S2-  S176  1  0.64330470  -0.00346222  0.34590287  1
  S2-  S177  1  0.73738221  0.02431254  0.85566154  1
  S2-  S178  1  0.60888183  0.26366976  0.33848969  1
  S2-  S179  1  0.61734579  0.24316846  0.85139984  1
  S2-  S180  1  0.60896097  0.53630570  0.33790611  1
  S2-  S181  1  0.53766014  0.50126856  0.86094643  1
  S2-  S182  1  0.71318783  0.75176956  0.34853618  1
  S2-  S183  1  0.62855046  0.71254927  0.84625683  1
  S2-  S184  1  0.87659829  -0.12081168  0.34741410  1
  S2-  S185  1  0.97354899  0.00272220  0.85014920  1
  S2-  S186  1  0.89737352  0.30690231  0.35933049  1
  S2-  S187  1  0.89846774  0.22343240  0.84921554  1
  S2-  S188  1  0.79739628  0.46213528  0.30387599  1
  S2-  S189  1  0.95413662  0.51811008  0.86602308  1
  S2-  S190  1  0.88639882  0.63516979  0.33728127  1
  S2-  S191  1  0.85917854  0.80026917  0.83682174  1
  S2-  S192  1  -0.00206199  0.12440927  0.44798107  1
  S2-  S193  1  -0.00887485  0.13373825  0.95478362  1
  S2-  S194  1  -0.00090208  0.37787975  0.46271664  1
  S2-  S195  1  -0.00745306  0.37805983  0.96347603  1
  S2-  S196  1  0.00191354  0.61979613  0.44806436  1
  S2-  S197  1  -0.00519433  0.63424581  0.96550667  1
  S2-  S198  1  0.00490775  0.87269315  0.44815873  1
  S2-  S199  1  -0.00758564  0.87697843  0.95161526  1
  S2-  S200  1  0.24622421  0.12162826  0.45672401  1
  S2-  S201  1  0.23965493  0.12861646  0.95890712  1
  S2-  S202  1  0.25014851  0.37155291  0.45810715  1
  S2-  S203  1  0.24127492  0.38494903  0.95849988  1
  S2-  S204  1  0.24922586  0.62270265  0.43881103  1
  S2-  S205  1  0.24481986  0.62526011  0.94796436  1
  S2-  S206  1  0.24822314  0.87371338  0.44471934  1
  S2-  S207  1  0.24396365  0.88117001  0.94155457  1
  S2-  S208  1  0.50396082  0.12204672  0.44810811  1
  S2-  S209  1  0.49801804  0.13050625  0.95528338  1
  S2-  S210  1  0.49922510  0.36841087  0.45333251  1
  S2-  S211  1  0.49402703  0.38245724  0.96890514  1
  S2-  S212  1  0.49897964  0.61835723  0.46044415  1
  S2-  S213  1  0.49154146  0.62807547  0.95852539  1
  S2-  S214  1  0.50002581  0.88104214  0.45066942  1
  S2-  S215  1  0.49485130  0.88177806  0.94731363  1
  S2-  S216  1  0.75452036  0.12360127  0.44915790  1
  S2-  S217  1  0.74228350  0.13500955  0.96152034  1
  S2-  S218  1  0.75632406  0.37550398  0.45423883  1
  S2-  S219  1  0.74427615  0.38425574  0.95789636  1
  S2-  S220  1  0.75495032  0.61643224  0.45123973  1
  S2-  S221  1  0.74188342  0.62752152  0.95812964  1
  S2-  S222  1  0.74920711  0.87728401  0.45173306  1
  S2-  S223  1  0.73946110  0.87817061  0.95269042  1
  S2-  S224  1  0.11696166  0.00330907  0.03507886  1
  S2-  S225  1  0.12357556  -0.00017590  0.54202862  1
  S2-  S226  1  0.11901865  0.25060689  0.04902874  1
  S2-  S227  1  0.11400802  0.23862304  0.55287015  1
  S2-  S228  1  0.10995545  0.51115678  0.04459372  1
  S2-  S229  1  0.13076756  0.50293161  0.54640542  1
  S2-  S230  1  0.12446306  0.75896935  0.04807311  1
  S2-  S231  1  0.12601137  0.74685882  0.53978732  1
  S2-  S232  1  0.37315949  0.00829671  0.03518071  1
  S2-  S233  1  0.37393461  -0.00174167  0.53716416  1
  S2-  S234  1  0.36493381  0.25156275  0.05063463  1
  S2-  S235  1  0.37578891  0.24416369  0.53694198  1
  S2-  S236  1  0.36946676  0.50760474  0.04443692  1
  S2-  S237  1  0.38165686  0.49597526  0.55150847  1
  S2-  S238  1  0.36996103  0.75573872  0.04526558  1
  S2-  S239  1  0.37393431  0.75120092  0.54310948  1
  S2-  S240  1  0.61613469  0.00672437  0.03836798  1
  S2-  S241  1  0.62924022  -0.00068189  0.54959988  1
  S2-  S242  1  0.62223349  0.25645959  0.05853688  1
  S2-  S243  1  0.63413818  0.24161382  0.54109107  1
  S2-  S244  1  0.62318808  0.50779474  0.05101745  1
  S2-  S245  1  0.62810737  0.49851756  0.54234871  1
  S2-  S246  1  0.61304093  0.75377541  0.04648894  1
  S2-  S247  1  0.62606166  0.75464230  0.53692890  1
  S2-  S248  1  0.87062703  0.00530029  0.03898706  1
  S2-  S249  1  0.88120292  -0.00444349  0.53388594  1
  S2-  S250  1  0.86839042  0.25734747  0.05347192  1
  S2-  S251  1  0.87732265  0.24798795  0.55555294  1
  S2-  S252  1  0.87153623  0.50587816  0.05631588  1
  S2-  S253  1  0.87393585  0.50100073  0.56440494  1
  S2-  S254  1  0.86932369  0.75737749  0.04057590  1
  S2-  S255  1  0.88226858  0.74995174  0.53032910  1
