# generated using pymatgen
data_La12Ce14Pr13Nd13Sm12(BiS2)64
_symmetry_space_group_name_H-M   'P 1'
_cell_length_a   16.11903610
_cell_length_b   16.13901863
_cell_length_c   27.28715917
_cell_angle_alpha   90.03822066
_cell_angle_beta   90.00635732
_cell_angle_gamma   89.97733299
_symmetry_Int_Tables_number   1
_chemical_formula_structural   La12Ce14Pr13Nd13Sm12(BiS2)64
_chemical_formula_sum   'La12 Ce14 Pr13 Nd13 Sm12 Bi64 S128'
_cell_volume   7098.62741088
_cell_formula_units_Z   1
loop_
 _symmetry_equiv_pos_site_id
 _symmetry_equiv_pos_as_xyz
  1  'x, y, z'
loop_
 _atom_type_symbol
 _atom_type_oxidation_number
  La3+  3.0
  Ce3+  3.0
  Pr3+  3.0
  Nd3+  3.0
  Sm3+  3.0
  Bi2+  2.0
  S2-  -2.0
loop_
 _atom_site_type_symbol
 _atom_site_label
 _atom_site_symmetry_multiplicity
 _atom_site_fract_x
 _atom_site_fract_y
 _atom_site_fract_z
 _atom_site_occupancy
  La3+  La0  1  0.01521976  0.59896302  0.10298409  1
  La3+  La1  1  0.39156551  -0.01078941  0.91416579  1
  La3+  La2  1  0.12788549  0.75241368  0.42649401  1
  La3+  La3  1  0.62850966  0.49932050  0.43090085  1
  La3+  La4  1  0.39254275  0.25054570  0.92197067  1
  La3+  La5  1  0.25692391  0.86896467  0.59412843  1
  La3+  La6  1  0.86687817  0.73569009  0.38594333  1
  La3+  La7  1  0.75710392  0.61427977  0.07649262  1
  La3+  La8  1  0.62217375  -0.00289499  0.42556841  1
  La3+  La9  1  0.12643609  0.49792635  0.43252660  1
  La3+  La10  1  0.50697908  0.11761622  0.09874851  1
  La3+  La11  1  0.14029408  0.23471337  0.91417948  1
  Ce3+  Ce12  1  0.75970784  0.36586871  0.05363191  1
  Ce3+  Ce13  1  0.49863217  0.12507919  0.55466981  1
  Ce3+  Ce14  1  0.50369528  0.62215561  0.55762374  1
  Ce3+  Ce15  1  0.87558677  0.24435935  0.43466090  1
  Ce3+  Ce16  1  0.87651524  0.49937531  0.44558796  1
  Ce3+  Ce17  1  0.12730574  0.24681005  0.44805687  1
  Ce3+  Ce18  1  0.75769700  0.11921681  0.05683761  1
  Ce3+  Ce19  1  0.63450166  0.74234187  0.95299300  1
  Ce3+  Ce20  1  0.38852287  0.74589539  0.93743067  1
  Ce3+  Ce21  1  0.75061682  0.62344307  0.55670022  1
  Ce3+  Ce22  1  0.50876077  0.87505158  0.05643925  1
  Ce3+  Ce23  1  0.01232370  0.36532175  0.05217960  1
  Ce3+  Ce24  1  0.37186348  0.74846610  0.44110636  1
  Ce3+  Ce25  1  0.88548718  0.49960005  0.94188354  1
  Pr3+  Pr26  1  0.74984491  0.37228789  0.56761524  1
  Pr3+  Pr27  1  0.00112970  0.37131086  0.55527666  1
  Pr3+  Pr28  1  0.87673468  -0.00304679  0.43317082  1
  Pr3+  Pr29  1  0.26626028  0.87250136  0.05982128  1
  Pr3+  Pr30  1  0.37361413  -0.00224114  0.43430653  1
  Pr3+  Pr31  1  0.87851322  0.24375019  0.92573877  1
  Pr3+  Pr32  1  0.01966955  0.88113636  0.08076233  1
  Pr3+  Pr33  1  0.00273160  0.62776331  0.55694564  1
  Pr3+  Pr34  1  0.25235476  0.37648528  0.57310087  1
  Pr3+  Pr35  1  0.13415123  -0.01466541  0.93037729  1
  Pr3+  Pr36  1  0.62493106  0.25159287  0.43931743  1
  Pr3+  Pr37  1  0.25794827  0.36611961  0.05401863  1
  Pr3+  Pr38  1  0.64295596  -0.00590477  0.93120962  1
  Nd3+  Nd39  1  0.25903940  0.61934016  0.05973985  1
  Nd3+  Nd40  1  0.63519930  0.49996576  0.93871797  1
  Nd3+  Nd41  1  0.00068207  0.87286907  0.55752972  1
  Nd3+  Nd42  1  0.01208871  0.11995549  0.04838151  1
  Nd3+  Nd43  1  0.49963100  0.38193764  0.58844124  1
  Nd3+  Nd44  1  0.75923027  0.87159292  0.06967579  1
  Nd3+  Nd45  1  0.50883897  0.36553441  0.05873280  1
  Nd3+  Nd46  1  0.50913463  0.61758812  0.07242488  1
  Nd3+  Nd47  1  0.88607591  -0.02182242  0.93674832  1
  Nd3+  Nd48  1  0.74762290  0.12430200  0.55595201  1
  Nd3+  Nd49  1  0.62663133  0.74981682  0.43938550  1
  Nd3+  Nd50  1  0.74803432  0.87652233  0.56084256  1
  Nd3+  Nd51  1  0.13252931  0.49144892  0.92973740  1
  Sm3+  Sm52  1  0.13465875  0.74721541  0.94858937  1
  Sm3+  Sm53  1  0.50287109  0.87504959  0.56199759  1
  Sm3+  Sm54  1  0.26760402  0.11942386  0.04646045  1
  Sm3+  Sm55  1  0.25214894  0.62272628  0.56491822  1
  Sm3+  Sm56  1  0.37527097  0.49830682  0.44307254  1
  Sm3+  Sm57  1  0.37893066  0.49835310  0.93986914  1
  Sm3+  Sm58  1  0.88719974  0.73925916  0.95416808  1
  Sm3+  Sm59  1  0.12903207  -0.00275496  0.45024390  1
  Sm3+  Sm60  1  0.37337967  0.25179550  0.44000766  1
  Sm3+  Sm61  1  0.25609931  0.12264941  0.56336058  1
  Sm3+  Sm62  1  0.00200064  0.12089742  0.56171994  1
  Sm3+  Sm63  1  0.63192404  0.24368478  0.93424018  1
  Bi2+  Bi64  1  0.02569261  0.16315077  0.30125501  1
  Bi2+  Bi65  1  -0.02095715  0.14805795  0.76802411  1
  Bi2+  Bi66  1  -0.02078781  0.36125123  0.29496632  1
  Bi2+  Bi67  1  -0.04731673  0.33263093  0.80439920  1
  Bi2+  Bi68  1  0.00198398  0.59687643  0.29219458  1
  Bi2+  Bi69  1  -0.01971276  0.53531766  0.79977858  1
  Bi2+  Bi70  1  0.01871000  0.89463578  0.28576341  1
  Bi2+  Bi71  1  -0.01368146  0.87334828  0.79386796  1
  Bi2+  Bi72  1  0.26601134  0.04112063  0.30432135  1
  Bi2+  Bi73  1  0.23771643  0.15094524  0.76864660  1
  Bi2+  Bi74  1  0.17791347  0.38852856  0.30992056  1
  Bi2+  Bi75  1  0.25509802  0.40075600  0.79962789  1
  Bi2+  Bi76  1  0.28615931  0.62591973  0.28778244  1
  Bi2+  Bi77  1  0.26365040  0.65878507  0.77704633  1
  Bi2+  Bi78  1  0.28086913  0.85522882  0.27676394  1
  Bi2+  Bi79  1  0.23559561  0.92058227  0.80186418  1
  Bi2+  Bi80  1  0.50478700  0.14143603  0.30624723  1
  Bi2+  Bi81  1  0.57117639  0.12003291  0.78482738  1
  Bi2+  Bi82  1  0.37121202  0.38289957  0.27386282  1
  Bi2+  Bi83  1  0.51713319  0.37885658  0.78640053  1
  Bi2+  Bi84  1  0.47809124  0.67328027  0.29955291  1
  Bi2+  Bi85  1  0.45564436  0.61411322  0.78666135  1
  Bi2+  Bi86  1  0.48697596  0.86604501  0.27920596  1
  Bi2+  Bi87  1  0.50648348  0.81648534  0.79061940  1
  Bi2+  Bi88  1  0.76846035  0.13588928  0.28361077  1
  Bi2+  Bi89  1  0.78487049  0.14234524  0.78014762  1
  Bi2+  Bi90  1  0.78801387  0.32505965  0.31476567  1
  Bi2+  Bi91  1  0.76160862  0.38863380  0.79189949  1
  Bi2+  Bi92  1  0.71488754  0.60289145  0.29615398  1
  Bi2+  Bi93  1  0.74747736  0.68127416  0.79347745  1
  Bi2+  Bi94  1  0.75586686  0.87965006  0.27995265  1
  Bi2+  Bi95  1  0.73928041  0.88984407  0.80651952  1
  Bi2+  Bi96  1  0.13506825  0.08787229  0.21309998  1
  Bi2+  Bi97  1  0.07848173  0.01702179  0.70373016  1
  Bi2+  Bi98  1  0.08260314  0.26155195  0.16289275  1
  Bi2+  Bi99  1  0.10715052  0.28692631  0.72993269  1
  Bi2+  Bi100  1  0.16578106  0.45540743  0.20274243  1
  Bi2+  Bi101  1  0.09787041  0.50838385  0.70939010  1
  Bi2+  Bi102  1  0.15384400  0.75596864  0.19750687  1
  Bi2+  Bi103  1  0.07051830  0.70362323  0.76131253  1
  Bi2+  Bi104  1  0.33932007  -0.00260696  0.19987823  1
  Bi2+  Bi105  1  0.36873160  0.01294368  0.70669663  1
  Bi2+  Bi106  1  0.25480470  0.24948870  0.22149739  1
  Bi2+  Bi107  1  0.46883836  0.23876786  0.71410753  1
  Bi2+  Bi108  1  0.40266655  0.55125172  0.20125307  1
  Bi2+  Bi109  1  0.35817679  0.48452970  0.70912578  1
  Bi2+  Bi110  1  0.40947912  0.74522878  0.18841700  1
  Bi2+  Bi111  1  0.39665356  0.73006860  0.69849379  1
  Bi2+  Bi112  1  0.61570288  0.00259146  0.20781271  1
  Bi2+  Bi113  1  0.63148708  0.00529104  0.70309247  1
  Bi2+  Bi114  1  0.64145350  0.26598121  0.20195450  1
  Bi2+  Bi115  1  0.68523850  0.24768878  0.70101442  1
  Bi2+  Bi116  1  0.58053575  0.48667280  0.22218010  1
  Bi2+  Bi117  1  0.60575242  0.52291626  0.71454001  1
  Bi2+  Bi118  1  0.60054820  0.73364950  0.21657701  1
  Bi2+  Bi119  1  0.63107717  0.75299556  0.71079901  1
  Bi2+  Bi120  1  0.91727411  0.05683591  0.22046025  1
  Bi2+  Bi121  1  0.85294026  -0.08906457  0.71220509  1
  Bi2+  Bi122  1  0.89756639  0.24876556  0.20418751  1
  Bi2+  Bi123  1  0.85810439  0.34567349  0.68653514  1
  Bi2+  Bi124  1  0.83395738  0.44662048  0.22777209  1
  Bi2+  Bi125  1  0.82601741  0.53026773  0.71435879  1
  Bi2+  Bi126  1  0.86803874  0.74589940  0.18495223  1
  Bi2+  Bi127  1  0.88978451  0.72013491  0.71097131  1
  S2-  S128  1  0.01695888  0.03826139  0.13671657  1
  S2-  S129  1  -0.01334146  0.12920195  0.65929267  1
  S2-  S130  1  0.02746751  0.43415741  0.14296520  1
  S2-  S131  1  0.03280391  0.37064517  0.65392027  1
  S2-  S132  1  0.01757294  0.65502028  0.20303575  1
  S2-  S133  1  0.02087380  0.63406151  0.65746470  1
  S2-  S134  1  0.00856541  0.84656329  0.18209543  1
  S2-  S135  1  0.00387127  0.89041919  0.65739912  1
  S2-  S136  1  0.33960055  0.12534634  0.13698556  1
  S2-  S137  1  0.25737223  0.12094940  0.66179406  1
  S2-  S138  1  0.29214334  0.37284208  0.15290364  1
  S2-  S139  1  0.23292632  0.50760014  0.64185945  1
  S2-  S140  1  0.18433929  0.60468191  0.14836518  1
  S2-  S141  1  0.25409317  0.72020504  0.64686676  1
  S2-  S142  1  0.21108695  0.89821530  0.15334135  1
  S2-  S143  1  0.22529190  0.91710726  0.69948434  1
  S2-  S144  1  0.51396884  0.14733271  0.20887934  1
  S2-  S145  1  0.49882134  0.09820397  0.65133792  1
  S2-  S146  1  0.52519949  0.35123811  0.15906109  1
  S2-  S147  1  0.36771127  0.34081167  0.65206014  1
  S2-  S148  1  0.62377040  0.59892603  0.15006817  1
  S2-  S149  1  0.48606799  0.53552960  0.64244587  1
  S2-  S150  1  0.50481029  0.95506452  0.14440268  1
  S2-  S151  1  0.41023764  0.88558239  0.64610782  1
  S2-  S152  1  0.67566318  0.12275907  0.14309076  1
  S2-  S153  1  0.74577309  0.09069704  0.65355571  1
  S2-  S154  1  0.74813716  0.37409848  0.15186999  1
  S2-  S155  1  0.64001263  0.38720675  0.64877177  1
  S2-  S156  1  0.85401752  0.58346992  0.15775437  1
  S2-  S157  1  0.69229716  0.62705087  0.64851542  1
  S2-  S158  1  0.75204884  0.88666336  0.17051478  1
  S2-  S159  1  0.63015417  0.87750231  0.63650755  1
  S2-  S160  1  0.12517451  -0.02661731  0.35194314  1
  S2-  S161  1  0.14415236  0.06632903  0.83888188  1
  S2-  S162  1  0.16474501  0.23401774  0.35387672  1
  S2-  S163  1  0.11119386  0.37159567  0.85251747  1
  S2-  S164  1  0.14255078  0.56937187  0.34089958  1
  S2-  S165  1  0.22849573  0.54705180  0.84948647  1
  S2-  S166  1  0.03067305  0.75125743  0.34027257  1
  S2-  S167  1  0.12307015  0.84243542  0.86554875  1
  S2-  S168  1  0.48415909  -0.01151117  0.35457267  1
  S2-  S169  1  0.35958429  0.04046670  0.81327291  1
  S2-  S170  1  0.39533838  0.24543366  0.34170015  1
  S2-  S171  1  0.27648153  0.24340790  0.84471316  1
  S2-  S172  1  0.37145869  0.50244625  0.34416018  1
  S2-  S173  1  0.39935707  0.41606152  0.85480636  1
  S2-  S174  1  0.27037007  0.75354840  0.36026994  1
  S2-  S175  1  0.37005839  0.83662922  0.85260832  1
  S2-  S176  1  0.69683894  0.00322221  0.33174568  1
  S2-  S177  1  0.58195783  -0.03902224  0.83689965  1
  S2-  S178  1  0.62774264  0.24509552  0.33783851  1
  S2-  S179  1  0.52663274  0.24164055  0.85054442  1
  S2-  S180  1  0.61509546  0.49046945  0.32948716  1
  S2-  S181  1  0.63644222  0.47316414  0.83993068  1
  S2-  S182  1  0.69437946  0.76079149  0.34849742  1
  S2-  S183  1  0.61764684  0.72269369  0.85668370  1
  S2-  S184  1  0.88465419  -0.09824068  0.34685849  1
  S2-  S185  1  0.79082948  0.02080191  0.85635676  1
  S2-  S186  1  0.88844750  0.12797461  0.36084909  1
  S2-  S187  1  0.74617221  0.24828387  0.85669313  1
  S2-  S188  1  0.86270479  0.55807151  0.35384169  1
  S2-  S189  1  0.85568615  0.59101839  0.86041193  1
  S2-  S190  1  0.85015283  0.72134735  0.27761857  1
  S2-  S191  1  0.88995212  0.82999717  0.87010040  1
  S2-  S192  1  0.00632410  0.12096122  0.45882057  1
  S2-  S193  1  0.00332667  0.11538145  0.94139322  1
  S2-  S194  1  -0.00030338  0.37076712  0.44794391  1
  S2-  S195  1  0.00205117  0.36692243  0.94951122  1
  S2-  S196  1  -0.00162616  0.62728767  0.45078372  1
  S2-  S197  1  0.01490656  0.62437337  0.94830296  1
  S2-  S198  1  0.00488312  0.87756547  0.45460705  1
  S2-  S199  1  0.01077905  0.86493617  0.97197846  1
  S2-  S200  1  0.25327531  0.12351818  0.45729180  1
  S2-  S201  1  0.26671322  0.11221248  0.94379662  1
  S2-  S202  1  0.25260443  0.37425993  0.45820524  1
  S2-  S203  1  0.25972378  0.37260392  0.94991999  1
  S2-  S204  1  0.25208936  0.62050764  0.45842498  1
  S2-  S205  1  0.26078579  0.62625430  0.95560902  1
  S2-  S206  1  0.25194368  0.87758438  0.45880839  1
  S2-  S207  1  0.26423621  0.86790527  0.95591761  1
  S2-  S208  1  0.49747631  0.12862336  0.44984880  1
  S2-  S209  1  0.51303425  0.11336491  0.94097123  1
  S2-  S210  1  0.49749442  0.37523562  0.44382794  1
  S2-  S211  1  0.51433197  0.37643738  0.95444822  1
  S2-  S212  1  0.50049178  0.62312907  0.44894459  1
  S2-  S213  1  0.50652230  0.61716550  0.96040363  1
  S2-  S214  1  0.49913621  0.86957806  0.45493925  1
  S2-  S215  1  0.51330779  0.86847040  0.95245573  1
  S2-  S216  1  0.74687900  0.12414718  0.45116711  1
  S2-  S217  1  0.75983572  0.12088846  0.95537703  1
  S2-  S218  1  0.75304704  0.37331683  0.45678634  1
  S2-  S219  1  0.75877992  0.37432221  0.95042437  1
  S2-  S220  1  0.75303894  0.62761016  0.45259265  1
  S2-  S221  1  0.75896654  0.62158252  0.96795688  1
  S2-  S222  1  0.74984209  0.87429784  0.45593122  1
  S2-  S223  1  0.75882004  0.86340871  0.96387337  1
  S2-  S224  1  0.14220056  -0.00152993  0.03811568  1
  S2-  S225  1  0.13073825  -0.00075941  0.55548189  1
  S2-  S226  1  0.13864622  0.23895998  0.02906789  1
  S2-  S227  1  0.12939549  0.24438564  0.55512887  1
  S2-  S228  1  0.13499836  0.49486511  0.03771916  1
  S2-  S229  1  0.12289254  0.49830050  0.54051236  1
  S2-  S230  1  0.13503250  0.74559222  0.05251769  1
  S2-  S231  1  0.12787527  0.75208031  0.54457182  1
  S2-  S232  1  0.38853373  -0.00295224  0.03604778  1
  S2-  S233  1  0.37450095  -0.00118422  0.54321221  1
  S2-  S234  1  0.38804594  0.24462587  0.03650848  1
  S2-  S235  1  0.37612365  0.25018568  0.54498750  1
  S2-  S236  1  0.38511015  0.49524344  0.04662070  1
  S2-  S237  1  0.37759180  0.49628544  0.54443737  1
  S2-  S238  1  0.38710460  0.74177958  0.04678450  1
  S2-  S239  1  0.38023021  0.74704458  0.54511153  1
  S2-  S240  1  0.63640554  -0.00612460  0.04216153  1
  S2-  S241  1  0.62278174  0.00211633  0.53660166  1
  S2-  S242  1  0.63092816  0.24220670  0.04125987  1
  S2-  S243  1  0.62109737  0.25182119  0.54675515  1
  S2-  S244  1  0.63209584  0.49035039  0.04577150  1
  S2-  S245  1  0.62570236  0.49608946  0.53934559  1
  S2-  S246  1  0.63170099  0.74761183  0.05836926  1
  S2-  S247  1  0.62504758  0.74736172  0.54325383  1
  S2-  S248  1  0.88210691  -0.00656718  0.04483351  1
  S2-  S249  1  0.87493094  0.00049600  0.54691359  1
  S2-  S250  1  0.88462717  0.24185952  0.03927120  1
  S2-  S251  1  0.87680274  0.24425941  0.54557664  1
  S2-  S252  1  0.88785317  0.49135980  0.04629019  1
  S2-  S253  1  0.87671541  0.49812722  0.55233842  1
  S2-  S254  1  0.88956957  0.74549850  0.06024525  1
  S2-  S255  1  0.87257514  0.75164436  0.55946411  1
