# generated using pymatgen
data_La12Ce14Pr13Nd13Sm12(BiS2)64
_symmetry_space_group_name_H-M   'P 1'
_cell_length_a   16.22653717
_cell_length_b   16.22382839
_cell_length_c   27.09284412
_cell_angle_alpha   89.85300255
_cell_angle_beta   90.10560423
_cell_angle_gamma   90.02295750
_symmetry_Int_Tables_number   1
_chemical_formula_structural   La12Ce14Pr13Nd13Sm12(BiS2)64
_chemical_formula_sum   'La12 Ce14 Pr13 Nd13 Sm12 Bi64 S128'
_cell_volume   7132.33264873
_cell_formula_units_Z   1
loop_
 _symmetry_equiv_pos_site_id
 _symmetry_equiv_pos_as_xyz
  1  'x, y, z'
loop_
 _atom_type_symbol
 _atom_type_oxidation_number
  La3+  3.0
  Ce3+  3.0
  Pr3+  3.0
  Nd3+  3.0
  Sm3+  3.0
  Bi2+  2.0
  S2-  -2.0
loop_
 _atom_site_type_symbol
 _atom_site_label
 _atom_site_symmetry_multiplicity
 _atom_site_fract_x
 _atom_site_fract_y
 _atom_site_fract_z
 _atom_site_occupancy
  La3+  La0  1  0.62345833  0.50397413  0.93421210  1
  La3+  La1  1  0.00233890  0.37564224  0.06633960  1
  La3+  La2  1  0.26402744  0.63397977  0.08376496  1
  La3+  La3  1  0.62225666  0.25097817  0.93277172  1
  La3+  La4  1  0.49728030  0.86652589  0.56388429  1
  La3+  La5  1  0.24019528  0.61617904  0.58459786  1
  La3+  La6  1  0.87681614  0.75978584  0.92671820  1
  La3+  La7  1  0.00064815  0.36032450  0.57275221  1
  La3+  La8  1  0.51527194  0.37087650  0.09852552  1
  La3+  La9  1  0.36048234  0.23315169  0.41332053  1
  La3+  La10  1  0.00344208  0.12478916  0.05965653  1
  La3+  La11  1  0.87203908  0.73867958  0.43179212  1
  Ce3+  Ce12  1  0.74835356  0.36467141  0.55000890  1
  Ce3+  Ce13  1  0.36995450  0.73903859  0.44945298  1
  Ce3+  Ce14  1  0.87553882  0.49259175  0.45027059  1
  Ce3+  Ce15  1  0.75018508  0.37360565  0.05440092  1
  Ce3+  Ce16  1  0.50097013  0.12787940  0.06346248  1
  Ce3+  Ce17  1  0.24816588  0.86703740  0.56671554  1
  Ce3+  Ce18  1  0.74864646  0.62748931  0.05927409  1
  Ce3+  Ce19  1  0.74878016  0.61745369  0.55869557  1
  Ce3+  Ce20  1  0.12831767  0.00176277  0.94471525  1
  Ce3+  Ce21  1  0.62309805  -0.00924957  0.44379122  1
  Ce3+  Ce22  1  0.87820735  0.50420541  0.94538724  1
  Ce3+  Ce23  1  0.11303361  0.25301119  0.42588524  1
  Ce3+  Ce24  1  0.00313314  0.87257226  0.05586987  1
  Ce3+  Ce25  1  0.25482461  0.12836589  0.05959886  1
  Pr3+  Pr26  1  0.49870698  0.61018575  0.56844330  1
  Pr3+  Pr27  1  0.37515530  0.25434683  0.94469713  1
  Pr3+  Pr28  1  0.24929174  0.36614574  0.55613223  1
  Pr3+  Pr29  1  0.62099026  0.49077037  0.43658240  1
  Pr3+  Pr30  1  0.75246627  0.87517758  0.05913228  1
  Pr3+  Pr31  1  0.37053232  -0.01441680  0.43361330  1
  Pr3+  Pr32  1  -0.00169041  0.11586439  0.56125464  1
  Pr3+  Pr33  1  0.24917583  0.11953817  0.56123835  1
  Pr3+  Pr34  1  0.00170196  0.62811640  0.06229863  1
  Pr3+  Pr35  1  0.51124044  0.62574459  0.07018850  1
  Pr3+  Pr36  1  0.36992205  0.50235255  0.42601898  1
  Pr3+  Pr37  1  0.49656534  0.36417790  0.54729802  1
  Pr3+  Pr38  1  0.12116235  0.49983259  0.43878040  1
  Nd3+  Nd39  1  0.61935297  0.23930123  0.43167275  1
  Nd3+  Nd40  1  0.62311912  0.75276371  0.93511831  1
  Nd3+  Nd41  1  -0.00265481  0.86728895  0.55800798  1
  Nd3+  Nd42  1  0.12788274  0.50414623  0.94409303  1
  Nd3+  Nd43  1  0.75096965  0.12788771  0.05182333  1
  Nd3+  Nd44  1  0.87624730  -0.00764319  0.43909485  1
  Nd3+  Nd45  1  0.25386820  0.37607995  0.07156646  1
  Nd3+  Nd46  1  -0.00630426  0.62576455  0.57348644  1
  Nd3+  Nd47  1  0.87882831  0.25501469  0.93607049  1
  Nd3+  Nd48  1  0.50254482  0.87698525  0.05656793  1
  Nd3+  Nd49  1  0.87413766  0.24264802  0.43357106  1
  Nd3+  Nd50  1  0.62057946  0.74098273  0.44120803  1
  Nd3+  Nd51  1  0.49698210  0.11787544  0.55629555  1
  Sm3+  Sm52  1  0.12377123  -0.00875415  0.44321392  1
  Sm3+  Sm53  1  0.12410480  0.73978307  0.44185762  1
  Sm3+  Sm54  1  0.12983328  0.74889193  0.94365145  1
  Sm3+  Sm55  1  0.37571095  0.50212916  0.95355094  1
  Sm3+  Sm56  1  0.87835882  0.00132345  0.93943006  1
  Sm3+  Sm57  1  0.74886407  0.11776406  0.55249561  1
  Sm3+  Sm58  1  0.74839288  0.86598626  0.55622731  1
  Sm3+  Sm59  1  0.12690918  0.25343072  0.94425503  1
  Sm3+  Sm60  1  0.25304187  0.87532451  0.05509297  1
  Sm3+  Sm61  1  0.62392638  0.00166320  0.94594256  1
  Sm3+  Sm62  1  0.37571066  0.00151448  0.94477025  1
  Sm3+  Sm63  1  0.37596503  0.74741262  0.94140785  1
  Bi2+  Bi64  1  0.01600445  0.12427036  0.27573769  1
  Bi2+  Bi65  1  0.02677680  0.09934176  0.76667690  1
  Bi2+  Bi66  1  -0.02257258  0.38111635  0.30097620  1
  Bi2+  Bi67  1  0.00602357  0.36010468  0.80469065  1
  Bi2+  Bi68  1  -0.01557472  0.62547259  0.29303060  1
  Bi2+  Bi69  1  0.01224539  0.61320120  0.80414217  1
  Bi2+  Bi70  1  0.05073690  0.86569824  0.29747587  1
  Bi2+  Bi71  1  0.00621573  0.90771972  0.78599088  1
  Bi2+  Bi72  1  0.24582310  0.07368303  0.28282228  1
  Bi2+  Bi73  1  0.22638398  0.11316710  0.76507197  1
  Bi2+  Bi74  1  0.24629049  0.34897529  0.29174961  1
  Bi2+  Bi75  1  0.25757842  0.31513486  0.77787840  1
  Bi2+  Bi76  1  0.23619911  0.68814436  0.29688030  1
  Bi2+  Bi77  1  0.25254340  0.62262146  0.81694415  1
  Bi2+  Bi78  1  0.24846314  0.87421552  0.31982016  1
  Bi2+  Bi79  1  0.22599818  0.90740843  0.76440542  1
  Bi2+  Bi80  1  0.52319945  0.11735080  0.29412936  1
  Bi2+  Bi81  1  0.47811869  0.11637922  0.78803533  1
  Bi2+  Bi82  1  0.51230536  0.38406471  0.29497048  1
  Bi2+  Bi83  1  0.49716900  0.36199089  0.79179275  1
  Bi2+  Bi84  1  0.50094480  0.71726016  0.29993209  1
  Bi2+  Bi85  1  0.48247885  0.63760835  0.80272061  1
  Bi2+  Bi86  1  0.44177178  0.89937615  0.30733027  1
  Bi2+  Bi87  1  0.48482018  0.92474102  0.79212287  1
  Bi2+  Bi88  1  0.79344115  0.12799297  0.28269563  1
  Bi2+  Bi89  1  0.75246277  0.12253632  0.75648251  1
  Bi2+  Bi90  1  0.78698319  0.38750452  0.27630842  1
  Bi2+  Bi91  1  0.75821102  0.33968347  0.78763129  1
  Bi2+  Bi92  1  0.77143427  0.67471618  0.29205065  1
  Bi2+  Bi93  1  0.73504720  0.66027800  0.78995016  1
  Bi2+  Bi94  1  0.72099026  0.94278095  0.27224567  1
  Bi2+  Bi95  1  0.74440346  0.93148074  0.78327316  1
  Bi2+  Bi96  1  0.11237667  -0.01452519  0.21395551  1
  Bi2+  Bi97  1  0.13420500  0.01528671  0.67568692  1
  Bi2+  Bi98  1  0.10168934  0.25562393  0.20729893  1
  Bi2+  Bi99  1  0.12418695  0.27909834  0.69871704  1
  Bi2+  Bi100  1  0.12632573  0.49679941  0.21077812  1
  Bi2+  Bi101  1  0.14106717  0.49833232  0.71191404  1
  Bi2+  Bi102  1  0.11605909  0.76215670  0.20255268  1
  Bi2+  Bi103  1  0.11193384  0.77846819  0.71404597  1
  Bi2+  Bi104  1  0.37604234  0.00978647  0.20337419  1
  Bi2+  Bi105  1  0.33067639  0.00090192  0.66592485  1
  Bi2+  Bi106  1  0.36568347  0.20253796  0.21181747  1
  Bi2+  Bi107  1  0.37871619  0.18800549  0.69793053  1
  Bi2+  Bi108  1  0.36957236  0.53202291  0.22118104  1
  Bi2+  Bi109  1  0.37383851  0.45202627  0.72169441  1
  Bi2+  Bi110  1  0.38084606  0.78592933  0.21558666  1
  Bi2+  Bi111  1  0.38070698  0.82749721  0.71001423  1
  Bi2+  Bi112  1  0.56618399  -0.00936392  0.20825104  1
  Bi2+  Bi113  1  0.59670656  0.02164992  0.71459998  1
  Bi2+  Bi114  1  0.64823814  0.23254925  0.20779719  1
  Bi2+  Bi115  1  0.59871200  0.30571534  0.69744119  1
  Bi2+  Bi116  1  0.65534976  0.52290333  0.24412048  1
  Bi2+  Bi117  1  0.64528668  0.50637072  0.73808148  1
  Bi2+  Bi118  1  0.63163191  0.73910887  0.20776262  1
  Bi2+  Bi119  1  0.63473728  0.73868636  0.69655247  1
  Bi2+  Bi120  1  0.89939816  -0.01348339  0.23208752  1
  Bi2+  Bi121  1  0.88544268  -0.00054651  0.70909703  1
  Bi2+  Bi122  1  0.83803896  0.25615550  0.19417687  1
  Bi2+  Bi123  1  0.85792522  0.26116973  0.69938496  1
  Bi2+  Bi124  1  0.84446429  0.54441038  0.21133111  1
  Bi2+  Bi125  1  0.83942630  0.50562917  0.74919275  1
  Bi2+  Bi126  1  0.87602467  0.73385499  0.19391857  1
  Bi2+  Bi127  1  0.85621834  0.75360042  0.70975093  1
  S2-  S128  1  -0.01706795  0.17647372  0.15435319  1
  S2-  S129  1  -0.00347423  0.21911475  0.64163384  1
  S2-  S130  1  0.01731022  0.38757200  0.16645865  1
  S2-  S131  1  0.01649457  0.42087510  0.67147198  1
  S2-  S132  1  0.02740414  0.61915908  0.16197449  1
  S2-  S133  1  0.09879776  0.61813845  0.65346444  1
  S2-  S134  1  -0.01217984  0.85121014  0.15187288  1
  S2-  S135  1  -0.01443681  0.78614943  0.64616916  1
  S2-  S136  1  0.23049764  0.17948866  0.15199526  1
  S2-  S137  1  0.25326356  0.24495742  0.63394016  1
  S2-  S138  1  0.25647604  0.40643558  0.17157715  1
  S2-  S139  1  0.26279957  0.46670190  0.64085082  1
  S2-  S140  1  0.22505340  0.61229498  0.18285655  1
  S2-  S141  1  0.31212001  0.60410180  0.72868692  1
  S2-  S142  1  0.24972864  0.81618137  0.14757270  1
  S2-  S143  1  0.24844968  0.76811909  0.64780678  1
  S2-  S144  1  0.50522532  0.21597808  0.14955094  1
  S2-  S145  1  0.54146325  0.15321422  0.65139910  1
  S2-  S146  1  0.49089217  0.43843792  0.19249093  1
  S2-  S147  1  0.49134776  0.39719973  0.64650340  1
  S2-  S148  1  0.40848898  0.63848215  0.15066048  1
  S2-  S149  1  0.52730985  0.63083022  0.66862478  1
  S2-  S150  1  0.51813083  0.84376969  0.15385561  1
  S2-  S151  1  0.53576535  0.86133647  0.66260838  1
  S2-  S152  1  0.74698316  0.12336165  0.15133972  1
  S2-  S153  1  0.79046824  0.11920161  0.64846634  1
  S2-  S154  1  0.67936641  0.36325432  0.14323790  1
  S2-  S155  1  0.74849744  0.35756223  0.64791957  1
  S2-  S156  1  0.64601799  0.62039921  0.14002565  1
  S2-  S157  1  0.79792676  0.63175997  0.65233488  1
  S2-  S158  1  0.75445932  0.83149595  0.15683071  1
  S2-  S159  1  0.75685061  0.85487914  0.65480697  1
  S2-  S160  1  0.07750293  0.01133554  0.34961783  1
  S2-  S161  1  0.10459603  0.01213446  0.84850539  1
  S2-  S162  1  0.21278961  0.22048169  0.34833879  1
  S2-  S163  1  0.12199380  0.27273049  0.84668313  1
  S2-  S164  1  0.11767416  0.40796195  0.34983022  1
  S2-  S165  1  0.12976229  0.49910463  0.84307237  1
  S2-  S166  1  0.12193742  0.63218559  0.36247083  1
  S2-  S167  1  0.11731402  0.73012965  0.84581377  1
  S2-  S168  1  0.37842607  0.08334483  0.35074273  1
  S2-  S169  1  0.37340039  0.01589503  0.84657660  1
  S2-  S170  1  0.39920121  0.27247449  0.31152610  1
  S2-  S171  1  0.38476807  0.26888177  0.84381388  1
  S2-  S172  1  0.36231955  0.46489253  0.32343170  1
  S2-  S173  1  0.37409105  0.52730449  0.85543061  1
  S2-  S174  1  0.36809927  0.65487450  0.36406857  1
  S2-  S175  1  0.36903110  0.74275243  0.84263212  1
  S2-  S176  1  0.60842262  0.00150304  0.34675820  1
  S2-  S177  1  0.62468811  -0.00406937  0.84852969  1
  S2-  S178  1  0.61259858  0.25600109  0.33245279  1
  S2-  S179  1  0.62638226  0.26339832  0.83257824  1
  S2-  S180  1  0.59303970  0.51931275  0.33804929  1
  S2-  S181  1  0.58787831  0.50330524  0.83489216  1
  S2-  S182  1  0.65459036  0.76329327  0.34423989  1
  S2-  S183  1  0.59454961  0.73921416  0.83630442  1
  S2-  S184  1  0.84940296  -0.01063772  0.34092716  1
  S2-  S185  1  0.87187549  -0.08875875  0.85669738  1
  S2-  S186  1  0.98121840  0.24095728  0.35601645  1
  S2-  S187  1  0.89726424  0.25284101  0.83677334  1
  S2-  S188  1  0.90802057  0.52167106  0.35618972  1
  S2-  S189  1  0.90033174  0.48584143  0.84845452  1
  S2-  S190  1  0.91378859  0.76373027  0.33505697  1
  S2-  S191  1  0.89240964  0.70660177  0.83056082  1
  S2-  S192  1  -0.00208866  0.11344766  0.45512976  1
  S2-  S193  1  0.00119151  0.12791645  0.95051638  1
  S2-  S194  1  -0.00707669  0.37006270  0.46113458  1
  S2-  S195  1  0.00403722  0.37672131  0.95725949  1
  S2-  S196  1  -0.00470268  0.62127943  0.46495325  1
  S2-  S197  1  0.00321460  0.62911386  0.95418219  1
  S2-  S198  1  0.00005421  0.86632135  0.45128347  1
  S2-  S199  1  0.00768322  0.87613479  0.95135114  1
  S2-  S200  1  0.24418565  0.10979795  0.45431924  1
  S2-  S201  1  0.25092789  0.12765222  0.95133150  1
  S2-  S202  1  0.25117706  0.37235118  0.44832762  1
  S2-  S203  1  0.24998384  0.37834393  0.95937277  1
  S2-  S204  1  0.24526663  0.62038407  0.46800441  1
  S2-  S205  1  0.25338013  0.62752810  0.96424217  1
  S2-  S206  1  0.24438182  0.86439484  0.45786721  1
  S2-  S207  1  0.25381926  0.87427774  0.94907566  1
  S2-  S208  1  0.49903128  0.11490579  0.45017664  1
  S2-  S209  1  0.49851269  0.12379430  0.95390237  1
  S2-  S210  1  0.49434864  0.36463791  0.43948993  1
  S2-  S211  1  0.49839101  0.37967343  0.94898403  1
  S2-  S212  1  0.50128782  0.61698367  0.45927973  1
  S2-  S213  1  0.49903366  0.62801836  0.95823245  1
  S2-  S214  1  0.49798672  0.86464711  0.45446369  1
  S2-  S215  1  0.49832540  0.87734054  0.94954505  1
  S2-  S216  1  0.74962827  0.11759437  0.44581247  1
  S2-  S217  1  0.75347519  0.12406064  0.94380099  1
  S2-  S218  1  0.74744564  0.36518102  0.44165915  1
  S2-  S219  1  0.75186465  0.37683279  0.94582376  1
  S2-  S220  1  0.74548293  0.61563846  0.45012304  1
  S2-  S221  1  0.75070172  0.63011011  0.94853423  1
  S2-  S222  1  0.74922294  0.86744082  0.45046890  1
  S2-  S223  1  0.74571937  0.87922985  0.95227305  1
  S2-  S224  1  0.13056538  -0.00123587  0.05290126  1
  S2-  S225  1  0.12250722  -0.00915458  0.54769394  1
  S2-  S226  1  0.12871652  0.25302740  0.04867638  1
  S2-  S227  1  0.12199977  0.24001529  0.53550794  1
  S2-  S228  1  0.13101914  0.50368086  0.05314498  1
  S2-  S229  1  0.11640856  0.49193158  0.54715291  1
  S2-  S230  1  0.12992715  0.74986618  0.04850801  1
  S2-  S231  1  0.11996214  0.74513284  0.54514122  1
  S2-  S232  1  0.37602910  -0.00034256  0.05060940  1
  S2-  S233  1  0.37490172  -0.00808602  0.54172540  1
  S2-  S234  1  0.37842490  0.25638002  0.05125372  1
  S2-  S235  1  0.37663464  0.23892548  0.53241688  1
  S2-  S236  1  0.38404520  0.49308733  0.05836004  1
  S2-  S237  1  0.37713113  0.49230393  0.53761509  1
  S2-  S238  1  0.38001778  0.75552928  0.04570440  1
  S2-  S239  1  0.37687511  0.73745799  0.55433475  1
  S2-  S240  1  0.62678905  0.00244215  0.05127085  1
  S2-  S241  1  0.62628480  -0.00674060  0.55141261  1
  S2-  S242  1  0.62533397  0.24947776  0.04031403  1
  S2-  S243  1  0.62517421  0.23916305  0.53892525  1
  S2-  S244  1  0.62524042  0.49480447  0.04232112  1
  S2-  S245  1  0.62518221  0.49028353  0.54536184  1
  S2-  S246  1  0.62688474  0.75465147  0.04140216  1
  S2-  S247  1  0.62466337  0.74150615  0.54870439  1
  S2-  S248  1  0.87659961  0.00081266  0.04570295  1
  S2-  S249  1  0.87110158  -0.00899907  0.54649617  1
  S2-  S250  1  0.87562207  0.25099419  0.04294006  1
  S2-  S251  1  0.87056253  0.23987373  0.53924043  1
  S2-  S252  1  0.87475507  0.50216687  0.05304334  1
  S2-  S253  1  0.87414332  0.49135295  0.55595871  1
  S2-  S254  1  0.87581917  0.75062917  0.03994311  1
  S2-  S255  1  0.86953105  0.74532075  0.54092266  1
