# generated using pymatgen
data_La12Ce14Pr13Nd13Sm12(BiS2)64
_symmetry_space_group_name_H-M   'P 1'
_cell_length_a   16.05745309
_cell_length_b   16.12696549
_cell_length_c   27.17669653
_cell_angle_alpha   90.29036245
_cell_angle_beta   90.09142367
_cell_angle_gamma   89.86013293
_symmetry_Int_Tables_number   1
_chemical_formula_structural   La12Ce14Pr13Nd13Sm12(BiS2)64
_chemical_formula_sum   'La12 Ce14 Pr13 Nd13 Sm12 Bi64 S128'
_cell_volume   7037.50259726
_cell_formula_units_Z   1
loop_
 _symmetry_equiv_pos_site_id
 _symmetry_equiv_pos_as_xyz
  1  'x, y, z'
loop_
 _atom_type_symbol
 _atom_type_oxidation_number
  La3+  3.0
  Ce3+  3.0
  Pr3+  3.0
  Nd3+  3.0
  Sm3+  3.0
  Bi2+  2.0
  S2-  -2.0
loop_
 _atom_site_type_symbol
 _atom_site_label
 _atom_site_symmetry_multiplicity
 _atom_site_fract_x
 _atom_site_fract_y
 _atom_site_fract_z
 _atom_site_occupancy
  La3+  La0  1  0.86002684  0.24515237  0.39969847  1
  La3+  La1  1  0.49278620  0.88718832  0.11804604  1
  La3+  La2  1  0.13012925  0.51185809  0.91829224  1
  La3+  La3  1  0.49000895  0.86756074  0.57567037  1
  La3+  La4  1  0.35882944  0.73690252  0.43151869  1
  La3+  La5  1  0.37518195  0.25249072  0.89875357  1
  La3+  La6  1  0.74579974  0.86651705  0.57347878  1
  La3+  La7  1  0.87802757  0.51346339  0.91946905  1
  La3+  La8  1  0.48634461  0.61368250  0.58352264  1
  La3+  La9  1  0.85218660  -0.01173555  0.42218004  1
  La3+  La10  1  0.11485491  0.24838283  0.42466710  1
  La3+  La11  1  0.50613986  0.13992352  0.07314377  1
  Ce3+  Ce12  1  0.62530093  0.00950534  0.94883250  1
  Ce3+  Ce13  1  0.73712210  0.11919762  0.55267548  1
  Ce3+  Ce14  1  0.60481626  -0.00398107  0.44083050  1
  Ce3+  Ce15  1  0.25567877  0.88420651  0.05815754  1
  Ce3+  Ce16  1  0.50304477  0.38457486  0.05540112  1
  Ce3+  Ce17  1  0.11721736  -0.00336953  0.43361464  1
  Ce3+  Ce18  1  -0.01136540  0.36800335  0.55797159  1
  Ce3+  Ce19  1  0.00225893  0.14266038  0.07123274  1
  Ce3+  Ce20  1  0.86156411  0.49236761  0.43454233  1
  Ce3+  Ce21  1  0.47793899  0.11981040  0.57484114  1
  Ce3+  Ce22  1  -0.00268606  0.88416220  0.06934171  1
  Ce3+  Ce23  1  0.38014862  0.50945419  0.92213577  1
  Ce3+  Ce24  1  0.23418642  0.36755026  0.56518309  1
  Ce3+  Ce25  1  0.23543654  0.11998236  0.56172001  1
  Pr3+  Pr26  1  0.36516347  0.24158190  0.44389774  1
  Pr3+  Pr27  1  0.75351184  0.39317614  0.06491692  1
  Pr3+  Pr28  1  0.62615569  0.77102203  0.92597579  1
  Pr3+  Pr29  1  0.25441653  0.13998309  0.06728914  1
  Pr3+  Pr30  1  0.12753389  0.76001526  0.94073263  1
  Pr3+  Pr31  1  0.24087816  0.86787783  0.56395624  1
  Pr3+  Pr32  1  0.50719480  0.63790797  0.05596408  1
  Pr3+  Pr33  1  -0.00998356  0.11918270  0.55517193  1
  Pr3+  Pr34  1  0.25401915  0.38748578  0.04973002  1
  Pr3+  Pr35  1  0.36548074  0.49420734  0.44478444  1
  Pr3+  Pr36  1  0.61195090  0.74416234  0.44437336  1
  Pr3+  Pr37  1  0.86363754  0.74086700  0.43096454  1
  Pr3+  Pr38  1  -0.00128645  0.39129326  0.07162840  1
  Nd3+  Nd39  1  0.11961560  0.26014052  0.93554758  1
  Nd3+  Nd40  1  0.62583507  0.50871140  0.92347288  1
  Nd3+  Nd41  1  -0.01112899  0.61655101  0.56808153  1
  Nd3+  Nd42  1  0.61316024  0.49203170  0.44898578  1
  Nd3+  Nd43  1  0.62920096  0.26050093  0.93942220  1
  Nd3+  Nd44  1  0.23706434  0.61468143  0.56737177  1
  Nd3+  Nd45  1  0.12747638  0.01284601  0.95384303  1
  Nd3+  Nd46  1  0.87954370  0.00594237  0.93530750  1
  Nd3+  Nd47  1  0.73827786  0.36758890  0.56649933  1
  Nd3+  Nd48  1  0.48581655  0.36121802  0.61010750  1
  Nd3+  Nd49  1  0.38008950  0.76113282  0.93627234  1
  Nd3+  Nd50  1  -0.01243513  0.86764593  0.55527859  1
  Nd3+  Nd51  1  0.37874348  0.01514878  0.94589096  1
  Sm3+  Sm52  1  0.75140288  0.88193132  0.06823123  1
  Sm3+  Sm53  1  0.00347044  0.63143760  0.06005923  1
  Sm3+  Sm54  1  0.10925160  0.49140244  0.43628995  1
  Sm3+  Sm55  1  0.61017106  0.24485793  0.44917028  1
  Sm3+  Sm56  1  0.75749822  0.13399205  0.05662211  1
  Sm3+  Sm57  1  0.87984673  0.26266405  0.94075344  1
  Sm3+  Sm58  1  0.87805110  0.76285843  0.93553882  1
  Sm3+  Sm59  1  0.25731444  0.63496805  0.05428547  1
  Sm3+  Sm60  1  0.73662706  0.61830886  0.56962172  1
  Sm3+  Sm61  1  0.11255456  0.74000274  0.44007971  1
  Sm3+  Sm62  1  0.36342766  -0.01460111  0.43074531  1
  Sm3+  Sm63  1  0.75102328  0.63786527  0.04576506  1
  Bi2+  Bi64  1  0.01131463  0.08566585  0.28657969  1
  Bi2+  Bi65  1  -0.02405199  0.13593107  0.78530508  1
  Bi2+  Bi66  1  -0.02592117  0.41756921  0.29442054  1
  Bi2+  Bi67  1  -0.06273641  0.36239437  0.78795412  1
  Bi2+  Bi68  1  0.00411034  0.61319634  0.34506706  1
  Bi2+  Bi69  1  0.00758295  0.65363629  0.77623607  1
  Bi2+  Bi70  1  0.02325188  0.80500025  0.30302222  1
  Bi2+  Bi71  1  -0.00171561  0.86646874  0.78244297  1
  Bi2+  Bi72  1  0.29246327  0.11737341  0.30070535  1
  Bi2+  Bi73  1  0.21901426  0.09835177  0.79993954  1
  Bi2+  Bi74  1  0.23314928  0.41705649  0.28136527  1
  Bi2+  Bi75  1  0.18713813  0.38951313  0.78603418  1
  Bi2+  Bi76  1  0.25596426  0.61081316  0.29058425  1
  Bi2+  Bi77  1  0.22991201  0.69851479  0.78137148  1
  Bi2+  Bi78  1  0.26067716  0.86076684  0.29223178  1
  Bi2+  Bi79  1  0.21319612  0.89503901  0.79645060  1
  Bi2+  Bi80  1  0.54984016  0.13506811  0.28138611  1
  Bi2+  Bi81  1  0.53509927  0.08432111  0.81194155  1
  Bi2+  Bi82  1  0.42934258  0.37677227  0.27864377  1
  Bi2+  Bi83  1  0.52947583  0.36546249  0.77874678  1
  Bi2+  Bi84  1  0.51057129  0.60387465  0.29170306  1
  Bi2+  Bi85  1  0.51187460  0.62982811  0.78880816  1
  Bi2+  Bi86  1  0.54222707  0.89837849  0.31509283  1
  Bi2+  Bi87  1  0.50281503  0.88329834  0.79506130  1
  Bi2+  Bi88  1  0.73917243  0.19044474  0.28611964  1
  Bi2+  Bi89  1  0.78217207  0.12322594  0.81080625  1
  Bi2+  Bi90  1  0.69184916  0.48443005  0.26305108  1
  Bi2+  Bi91  1  0.74956112  0.32091316  0.82082786  1
  Bi2+  Bi92  1  0.81582626  0.61810358  0.31507545  1
  Bi2+  Bi93  1  0.81413800  0.59767183  0.77180078  1
  Bi2+  Bi94  1  0.74510054  0.79930166  0.29638000  1
  Bi2+  Bi95  1  0.81725589  0.94412306  0.77002900  1
  Bi2+  Bi96  1  0.10383127  -0.06197907  0.23068635  1
  Bi2+  Bi97  1  0.09794406  0.00491374  0.70781489  1
  Bi2+  Bi98  1  0.15979842  0.27047846  0.21532961  1
  Bi2+  Bi99  1  0.08411038  0.25119221  0.71022413  1
  Bi2+  Bi100  1  0.08913294  0.56454658  0.23641530  1
  Bi2+  Bi101  1  0.07702108  0.49976671  0.70987118  1
  Bi2+  Bi102  1  0.08074400  0.75167313  0.19404677  1
  Bi2+  Bi103  1  0.15410881  0.82333916  0.68483016  1
  Bi2+  Bi104  1  0.36720154  0.00960268  0.21721109  1
  Bi2+  Bi105  1  0.37047922  -0.02144451  0.73085867  1
  Bi2+  Bi106  1  0.35606392  0.25942593  0.19548677  1
  Bi2+  Bi107  1  0.35690714  0.22017122  0.71054102  1
  Bi2+  Bi108  1  0.41749271  0.51940110  0.20004934  1
  Bi2+  Bi109  1  0.32420606  0.48696436  0.72435261  1
  Bi2+  Bi110  1  0.35856000  0.73168755  0.20531143  1
  Bi2+  Bi111  1  0.36491260  0.74933981  0.70932037  1
  Bi2+  Bi112  1  0.69452428  0.03723871  0.22122912  1
  Bi2+  Bi113  1  0.56763843  0.00637672  0.71311362  1
  Bi2+  Bi114  1  0.60866930  0.31704305  0.22128231  1
  Bi2+  Bi115  1  0.72272485  0.23147255  0.71791331  1
  Bi2+  Bi116  1  0.59845619  0.48674549  0.16048986  1
  Bi2+  Bi117  1  0.69910262  0.48437110  0.71636222  1
  Bi2+  Bi118  1  0.65406918  0.73105052  0.20260447  1
  Bi2+  Bi119  1  0.64834122  0.74443269  0.70519257  1
  Bi2+  Bi120  1  0.88236193  -0.02392148  0.22459748  1
  Bi2+  Bi121  1  0.90311457  0.05386749  0.68607533  1
  Bi2+  Bi122  1  0.88952804  0.23423572  0.19761036  1
  Bi2+  Bi123  1  0.89517289  0.30759325  0.67611516  1
  Bi2+  Bi124  1  0.87421245  0.52999488  0.19907787  1
  Bi2+  Bi125  1  0.88337975  0.50341374  0.66591104  1
  Bi2+  Bi126  1  0.88759593  0.74362797  0.21675142  1
  Bi2+  Bi127  1  0.96836447  0.76253403  0.68297841  1
  S2-  S128  1  -0.03632092  0.08566877  0.16346653  1
  S2-  S129  1  0.10728236  0.13150137  0.63546023  1
  S2-  S130  1  0.03053759  0.27231794  0.14647018  1
  S2-  S131  1  0.10170884  0.36885550  0.63639087  1
  S2-  S132  1  0.01686586  0.52685942  0.13976299  1
  S2-  S133  1  0.11216332  0.61206973  0.64174096  1
  S2-  S134  1  -0.12106346  0.87204516  0.14159952  1
  S2-  S135  1  -0.10889565  0.90033390  0.63787136  1
  S2-  S136  1  0.24283555  0.12778018  0.16954020  1
  S2-  S137  1  0.33277303  0.10339516  0.64369225  1
  S2-  S138  1  0.24322615  0.37245041  0.15269612  1
  S2-  S139  1  0.31888710  0.35863685  0.65417405  1
  S2-  S140  1  0.28414267  0.61700287  0.15257682  1
  S2-  S141  1  0.33700271  0.60617982  0.65261582  1
  S2-  S142  1  0.31432384  0.87805382  0.14951054  1
  S2-  S143  1  0.35110500  0.88528865  0.64521468  1
  S2-  S144  1  0.49510042  0.05103381  0.16096641  1
  S2-  S145  1  0.49815122  0.21212466  0.66331502  1
  S2-  S146  1  0.50547279  0.28139307  0.14107574  1
  S2-  S147  1  0.47791225  0.46082828  0.69881804  1
  S2-  S148  1  0.50776834  0.71505606  0.14759755  1
  S2-  S149  1  0.62908150  0.59454882  0.65359653  1
  S2-  S150  1  0.47298695  0.87349098  0.22793204  1
  S2-  S151  1  0.49965996  0.74464949  0.65454541  1
  S2-  S152  1  0.74554589  0.15717026  0.15516501  1
  S2-  S153  1  0.74545821  0.10265128  0.65076209  1
  S2-  S154  1  0.84989716  0.38163912  0.15013261  1
  S2-  S155  1  0.65259672  0.35911089  0.65514364  1
  S2-  S156  1  0.74029450  0.60872019  0.14433180  1
  S2-  S157  1  0.77387084  0.72789975  0.64713179  1
  S2-  S158  1  0.66065341  0.87320055  0.15474610  1
  S2-  S159  1  0.63026542  0.89193649  0.65130068  1
  S2-  S160  1  0.23244961  -0.01695930  0.35850872  1
  S2-  S161  1  0.10422500  0.00557005  0.85504557  1
  S2-  S162  1  0.13775588  0.15907473  0.33623744  1
  S2-  S163  1  0.20964406  0.24381705  0.84829619  1
  S2-  S164  1  0.12037825  0.38754974  0.35498455  1
  S2-  S165  1  0.00387791  0.47033744  0.84923235  1
  S2-  S166  1  0.21040800  0.73750687  0.35693433  1
  S2-  S167  1  0.12269104  0.66534048  0.85540219  1
  S2-  S168  1  0.48283618  0.04115820  0.36006539  1
  S2-  S169  1  0.37303415  0.08862396  0.85430934  1
  S2-  S170  1  0.35224260  0.25251085  0.34157341  1
  S2-  S171  1  0.38084450  0.32094195  0.79899699  1
  S2-  S172  1  0.38218245  0.59896656  0.36159181  1
  S2-  S173  1  0.26162135  0.49767364  0.84364071  1
  S2-  S174  1  0.39199388  0.85174413  0.35626712  1
  S2-  S175  1  0.38292138  0.70598205  0.83980488  1
  S2-  S176  1  0.68723035  -0.03829316  0.35677453  1
  S2-  S177  1  0.62508323  -0.05950855  0.85719436  1
  S2-  S178  1  0.61767027  0.24893735  0.34826888  1
  S2-  S179  1  0.54379039  0.24168676  0.85213778  1
  S2-  S180  1  0.59598857  0.49429885  0.34719687  1
  S2-  S181  1  0.50458734  0.49505581  0.84789893  1
  S2-  S182  1  0.59218111  0.73362648  0.34210515  1
  S2-  S183  1  0.63260813  0.71111287  0.82721698  1
  S2-  S184  1  0.86448653  0.09548608  0.34223271  1
  S2-  S185  1  0.87799293  -0.11506314  0.86068458  1
  S2-  S186  1  0.95459199  0.25712800  0.29836322  1
  S2-  S187  1  0.98849983  0.24616310  0.86275908  1
  S2-  S188  1  0.83433581  0.40085658  0.35165994  1
  S2-  S189  1  0.74250859  0.49077020  0.84685568  1
  S2-  S190  1  0.87757544  0.85551154  0.35194967  1
  S2-  S191  1  0.88526205  0.66154056  0.85335793  1
  S2-  S192  1  -0.01284972  0.12153516  0.44591600  1
  S2-  S193  1  -0.00181779  0.13036166  0.96270682  1
  S2-  S194  1  -0.01978491  0.36582364  0.45063119  1
  S2-  S195  1  0.00025375  0.38590567  0.96134815  1
  S2-  S196  1  -0.01199664  0.61617316  0.45998944  1
  S2-  S197  1  0.00233925  0.63696063  0.95721926  1
  S2-  S198  1  -0.00565296  0.86732141  0.45056118  1
  S2-  S199  1  0.00515055  0.88444668  0.96198422  1
  S2-  S200  1  0.24045917  0.11844116  0.45470540  1
  S2-  S201  1  0.25097785  0.13672874  0.95967621  1
  S2-  S202  1  0.24062199  0.37128006  0.45580755  1
  S2-  S203  1  0.25672855  0.37940881  0.94501840  1
  S2-  S204  1  0.23023584  0.61129409  0.45940181  1
  S2-  S205  1  0.25763296  0.63631493  0.95124567  1
  S2-  S206  1  0.23372862  0.86449683  0.45869923  1
  S2-  S207  1  0.25388657  0.88681920  0.95056613  1
  S2-  S208  1  0.48806202  0.12362451  0.46661358  1
  S2-  S209  1  0.50443445  0.13608414  0.96206052  1
  S2-  S210  1  0.48853241  0.36861177  0.44636774  1
  S2-  S211  1  0.49926120  0.37925955  0.95080330  1
  S2-  S212  1  0.49177928  0.61700629  0.46638641  1
  S2-  S213  1  0.50574077  0.63864297  0.94833221  1
  S2-  S214  1  0.48798701  0.86761328  0.46309353  1
  S2-  S215  1  0.49747651  0.88767463  0.95057745  1
  S2-  S216  1  0.73637030  0.12629189  0.44750948  1
  S2-  S217  1  0.75566928  0.13376196  0.95107685  1
  S2-  S218  1  0.73671050  0.36373112  0.45863230  1
  S2-  S219  1  0.75467662  0.38350742  0.95598667  1
  S2-  S220  1  0.73825223  0.61704671  0.45693672  1
  S2-  S221  1  0.74763558  0.64087848  0.94448418  1
  S2-  S222  1  0.73769178  0.86346721  0.46191736  1
  S2-  S223  1  0.75364986  0.88549349  0.96078867  1
  S2-  S224  1  0.12726775  0.00948431  0.06062810  1
  S2-  S225  1  0.11275949  -0.01039635  0.54147268  1
  S2-  S226  1  0.12964801  0.26152375  0.04242654  1
  S2-  S227  1  0.11197909  0.24562613  0.53300594  1
  S2-  S228  1  0.13316775  0.51623918  0.03690922  1
  S2-  S229  1  0.10971804  0.49248919  0.53860806  1
  S2-  S230  1  0.12865909  0.75760234  0.04943027  1
  S2-  S231  1  0.11206876  0.74357394  0.54400240  1
  S2-  S232  1  0.37843350  0.00995595  0.05169229  1
  S2-  S233  1  0.36047255  -0.00568325  0.53773855  1
  S2-  S234  1  0.37662402  0.26100426  0.04642753  1
  S2-  S235  1  0.36326935  0.24850529  0.54952796  1
  S2-  S236  1  0.38120229  0.51207887  0.03889189  1
  S2-  S237  1  0.36632550  0.48484163  0.55102614  1
  S2-  S238  1  0.37842921  0.76064122  0.04299947  1
  S2-  S239  1  0.35927521  0.73800392  0.54499808  1
  S2-  S240  1  0.63315708  0.01146228  0.05367565  1
  S2-  S241  1  0.61008359  -0.00064015  0.54762872  1
  S2-  S242  1  0.63702318  0.26176790  0.04522356  1
  S2-  S243  1  0.60935029  0.24496100  0.55222376  1
  S2-  S244  1  0.62875193  0.51103221  0.03188724  1
  S2-  S245  1  0.60996118  0.48643520  0.55258409  1
  S2-  S246  1  0.63139335  0.76165025  0.03833007  1
  S2-  S247  1  0.61682629  0.73960416  0.54939653  1
  S2-  S248  1  0.87732685  0.00975838  0.04375418  1
  S2-  S249  1  0.86402221  -0.00208355  0.53299903  1
  S2-  S250  1  0.87524017  0.26082318  0.04436044  1
  S2-  S251  1  0.86365342  0.24267342  0.55022431  1
  S2-  S252  1  0.87544403  0.51657222  0.03752008  1
  S2-  S253  1  0.86107400  0.49408738  0.54331481  1
  S2-  S254  1  0.87906446  0.75423317  0.04207510  1
  S2-  S255  1  0.86870709  0.73735956  0.53869532  1
