# generated using pymatgen
data_La12Ce14Pr13Nd13Sm12(BiS2)64
_symmetry_space_group_name_H-M   'P 1'
_cell_length_a   16.13907745
_cell_length_b   16.16180282
_cell_length_c   27.25150888
_cell_angle_alpha   90.31445782
_cell_angle_beta   89.79993662
_cell_angle_gamma   89.98434848
_symmetry_Int_Tables_number   1
_chemical_formula_structural   La12Ce14Pr13Nd13Sm12(BiS2)64
_chemical_formula_sum   'La12 Ce14 Pr13 Nd13 Sm12 Bi64 S128'
_cell_volume   7108.03988657
_cell_formula_units_Z   1
loop_
 _symmetry_equiv_pos_site_id
 _symmetry_equiv_pos_as_xyz
  1  'x, y, z'
loop_
 _atom_type_symbol
 _atom_type_oxidation_number
  La3+  3.0
  Ce3+  3.0
  Pr3+  3.0
  Nd3+  3.0
  Sm3+  3.0
  Bi2+  2.0
  S2-  -2.0
loop_
 _atom_site_type_symbol
 _atom_site_label
 _atom_site_symmetry_multiplicity
 _atom_site_fract_x
 _atom_site_fract_y
 _atom_site_fract_z
 _atom_site_occupancy
  La3+  La0  1  0.50830214  0.87991518  0.57979826  1
  La3+  La1  1  0.88792907  0.00778659  0.42977404  1
  La3+  La2  1  0.12452648  0.49723578  0.92609966  1
  La3+  La3  1  0.52023083  0.13619990  0.58915201  1
  La3+  La4  1  0.25578254  0.87093599  0.07003636  1
  La3+  La5  1  0.15019350  0.48712832  0.40617393  1
  La3+  La6  1  0.24503358  0.61650826  0.08706908  1
  La3+  La7  1  0.39340567  0.01675784  0.43123094  1
  La3+  La8  1  0.12467765  -0.01688773  0.93046447  1
  La3+  La9  1  0.62040790  0.24663752  0.91488204  1
  La3+  La10  1  0.25848458  0.63057009  0.56019677  1
  La3+  La11  1  0.87472564  -0.01977619  0.93095034  1
  Ce3+  Ce12  1  0.49909089  0.36884854  0.05415627  1
  Ce3+  Ce13  1  0.62127247  -0.01392298  0.92673053  1
  Ce3+  Ce14  1  0.76474829  0.88345198  0.55574466  1
  Ce3+  Ce15  1  0.76168978  0.13172910  0.55928659  1
  Ce3+  Ce16  1  0.38665824  0.75829560  0.44142898  1
  Ce3+  Ce17  1  0.63782792  0.50687257  0.43151613  1
  Ce3+  Ce18  1  0.37144769  0.49444866  0.93649788  1
  Ce3+  Ce19  1  0.26289429  0.12764697  0.56639517  1
  Ce3+  Ce20  1  0.01141255  0.38123405  0.55185437  1
  Ce3+  Ce21  1  0.87666609  0.23882496  0.94055006  1
  Ce3+  Ce22  1  -0.00034769  0.36801939  0.06191493  1
  Ce3+  Ce23  1  0.13791192  0.75967156  0.43588777  1
  Ce3+  Ce24  1  0.63306990  0.76138930  0.43838343  1
  Ce3+  Ce25  1  0.37312128  0.24228315  0.93730295  1
  Pr3+  Pr26  1  0.37277259  0.73872885  0.93335765  1
  Pr3+  Pr27  1  0.63077681  0.26169781  0.43344021  1
  Pr3+  Pr28  1  -0.00281438  0.87318139  0.07937043  1
  Pr3+  Pr29  1  0.74526661  0.11741682  0.05020006  1
  Pr3+  Pr30  1  0.74763980  0.61444992  0.07137746  1
  Pr3+  Pr31  1  0.01823143  0.88188264  0.57132701  1
  Pr3+  Pr32  1  0.01312217  0.62873535  0.55125866  1
  Pr3+  Pr33  1  -0.00237199  0.11423977  0.06086909  1
  Pr3+  Pr34  1  -0.00539308  0.61683120  0.07349268  1
  Pr3+  Pr35  1  0.52583487  0.38335986  0.57717469  1
  Pr3+  Pr36  1  0.76346922  0.63449169  0.55306783  1
  Pr3+  Pr37  1  0.01131275  0.13192970  0.55872885  1
  Pr3+  Pr38  1  0.51509475  0.63362020  0.56300352  1
  Nd3+  Nd39  1  0.87459040  0.73987046  0.95020759  1
  Nd3+  Nd40  1  0.88642531  0.25401855  0.42896652  1
  Nd3+  Nd41  1  0.24867893  0.37019887  0.05978888  1
  Nd3+  Nd42  1  0.49821501  0.86596548  0.05547982  1
  Nd3+  Nd43  1  0.25282344  0.11235036  0.05699249  1
  Nd3+  Nd44  1  0.37566694  -0.01040349  0.91587624  1
  Nd3+  Nd45  1  0.88821513  0.76137420  0.43257878  1
  Nd3+  Nd46  1  0.89074046  0.50885694  0.43385938  1
  Nd3+  Nd47  1  0.26251521  0.38165671  0.56850036  1
  Nd3+  Nd48  1  0.13990332  0.00551325  0.43648039  1
  Nd3+  Nd49  1  0.74404216  0.86746563  0.06637371  1
  Nd3+  Nd50  1  0.12501700  0.23670742  0.94458914  1
  Nd3+  Nd51  1  0.38720431  0.50355753  0.44743744  1
  Sm3+  Sm52  1  0.49857363  0.11716689  0.04830863  1
  Sm3+  Sm53  1  0.39035187  0.25473524  0.45486887  1
  Sm3+  Sm54  1  0.12491988  0.74211957  0.94801595  1
  Sm3+  Sm55  1  0.62697465  0.49162420  0.93198109  1
  Sm3+  Sm56  1  0.49582614  0.61663416  0.05605633  1
  Sm3+  Sm57  1  0.62554679  0.74097092  0.93711018  1
  Sm3+  Sm58  1  0.87657410  0.49006017  0.94331987  1
  Sm3+  Sm59  1  0.76182158  0.38280337  0.55000651  1
  Sm3+  Sm60  1  0.63575697  0.00800404  0.44675642  1
  Sm3+  Sm61  1  0.26409821  0.88537725  0.56274611  1
  Sm3+  Sm62  1  0.13991322  0.25536224  0.44781221  1
  Sm3+  Sm63  1  0.74529608  0.36640029  0.05191472  1
  Bi2+  Bi64  1  0.02260229  0.15109776  0.28766192  1
  Bi2+  Bi65  1  0.00681694  0.16103558  0.80470935  1
  Bi2+  Bi66  1  -0.07427328  0.32460666  0.29662416  1
  Bi2+  Bi67  1  0.03188763  0.40356195  0.78290460  1
  Bi2+  Bi68  1  -0.05719174  0.59358730  0.27723239  1
  Bi2+  Bi69  1  -0.00079823  0.61987773  0.79066465  1
  Bi2+  Bi70  1  -0.02818042  0.86407590  0.28507004  1
  Bi2+  Bi71  1  0.00828462  0.91128223  0.80338087  1
  Bi2+  Bi72  1  0.27047154  0.13536211  0.29926663  1
  Bi2+  Bi73  1  0.27694023  0.20891096  0.79143848  1
  Bi2+  Bi74  1  0.25926933  0.33101141  0.28685474  1
  Bi2+  Bi75  1  0.22171173  0.45102486  0.75946306  1
  Bi2+  Bi76  1  0.29961536  0.64104871  0.33115427  1
  Bi2+  Bi77  1  0.27458329  0.64116187  0.81405681  1
  Bi2+  Bi78  1  0.23830679  0.87661838  0.30964749  1
  Bi2+  Bi79  1  0.24913316  0.83497609  0.78252786  1
  Bi2+  Bi80  1  0.49661563  0.20643309  0.28074484  1
  Bi2+  Bi81  1  0.50113338  0.12499141  0.78481389  1
  Bi2+  Bi82  1  0.53174940  0.40053666  0.26139921  1
  Bi2+  Bi83  1  0.48903133  0.46388916  0.80280904  1
  Bi2+  Bi84  1  0.52132602  0.62070390  0.26140033  1
  Bi2+  Bi85  1  0.47341875  0.65932249  0.81723825  1
  Bi2+  Bi86  1  0.54790825  0.87882219  0.21384427  1
  Bi2+  Bi87  1  0.52189501  0.86317586  0.78836494  1
  Bi2+  Bi88  1  0.74306252  0.06395917  0.30503345  1
  Bi2+  Bi89  1  0.74049602  0.14275549  0.74602432  1
  Bi2+  Bi90  1  0.73376315  0.32209539  0.29505733  1
  Bi2+  Bi91  1  0.76147254  0.47196724  0.80531951  1
  Bi2+  Bi92  1  0.70443917  0.58916704  0.29361416  1
  Bi2+  Bi93  1  0.68392899  0.64548625  0.82627599  1
  Bi2+  Bi94  1  0.69706638  0.86121872  0.28973227  1
  Bi2+  Bi95  1  0.76856853  0.91363947  0.79707093  1
  Bi2+  Bi96  1  0.12605476  0.03311971  0.21743271  1
  Bi2+  Bi97  1  0.09617929  0.00901512  0.69056094  1
  Bi2+  Bi98  1  0.15075586  0.22478853  0.20635456  1
  Bi2+  Bi99  1  0.04322338  0.25948847  0.70828994  1
  Bi2+  Bi100  1  0.12375644  0.48555396  0.21695991  1
  Bi2+  Bi101  1  0.12917228  0.52700058  0.66892139  1
  Bi2+  Bi102  1  0.12069082  0.73376523  0.22359054  1
  Bi2+  Bi103  1  0.14024930  0.70904521  0.72450693  1
  Bi2+  Bi104  1  0.36300977  0.01008273  0.20590108  1
  Bi2+  Bi105  1  0.34152624  -0.00320847  0.71637781  1
  Bi2+  Bi106  1  0.34882024  0.22462125  0.20160646  1
  Bi2+  Bi107  1  0.38207811  0.33981133  0.72872288  1
  Bi2+  Bi108  1  0.38181371  0.49160636  0.20663687  1
  Bi2+  Bi109  1  0.40816024  0.54124686  0.70251229  1
  Bi2+  Bi110  1  0.37007531  0.74852718  0.20882935  1
  Bi2+  Bi111  1  0.41942787  0.75489634  0.71432736  1
  Bi2+  Bi112  1  0.59099793  0.06768700  0.21408967  1
  Bi2+  Bi113  1  0.63769600  -0.04824155  0.71319387  1
  Bi2+  Bi114  1  0.65640734  0.25134471  0.19714738  1
  Bi2+  Bi115  1  0.63425047  0.29233242  0.71084464  1
  Bi2+  Bi116  1  0.64837604  0.52328688  0.18862359  1
  Bi2+  Bi117  1  0.59786728  0.50619441  0.70631750  1
  Bi2+  Bi118  1  0.60837575  0.71269306  0.16001786  1
  Bi2+  Bi119  1  0.67421116  0.68763052  0.71117880  1
  Bi2+  Bi120  1  0.86060628  0.00575064  0.20860186  1
  Bi2+  Bi121  1  0.85158363  0.00226832  0.69419249  1
  Bi2+  Bi122  1  0.87456350  0.19854088  0.21275476  1
  Bi2+  Bi123  1  0.84277937  0.32112702  0.74551578  1
  Bi2+  Bi124  1  0.87441384  0.45814232  0.20677370  1
  Bi2+  Bi125  1  0.87840359  0.52361636  0.71798925  1
  Bi2+  Bi126  1  0.78302840  0.72109161  0.21214335  1
  Bi2+  Bi127  1  0.84083854  0.73275736  0.77347066  1
  S2-  S128  1  0.00090445  0.01726909  0.14423988  1
  S2-  S129  1  -0.03427110  0.12933245  0.65659369  1
  S2-  S130  1  0.01035512  0.39558833  0.15911091  1
  S2-  S131  1  0.00524567  0.40232656  0.64836175  1
  S2-  S132  1  0.09812669  0.60735014  0.15480046  1
  S2-  S133  1  0.03443192  0.66226303  0.64942513  1
  S2-  S134  1  0.00510887  0.81269124  0.18035251  1
  S2-  S135  1  -0.03332648  0.89472810  0.67176649  1
  S2-  S136  1  0.24314737  0.01079755  0.13957002  1
  S2-  S137  1  0.23437514  0.10311678  0.66347935  1
  S2-  S138  1  0.24617656  0.45835588  0.14597340  1
  S2-  S139  1  0.24662920  0.35796583  0.66654408  1
  S2-  S140  1  0.25178676  0.60998935  0.24242469  1
  S2-  S141  1  0.27544117  0.63804981  0.66047824  1
  S2-  S142  1  0.23805866  0.76395057  0.15121719  1
  S2-  S143  1  0.15510418  0.88592433  0.64204531  1
  S2-  S144  1  0.46746876  0.11449146  0.14573776  1
  S2-  S145  1  0.48148860  0.05370941  0.68214822  1
  S2-  S146  1  0.48701584  0.39359997  0.15068947  1
  S2-  S147  1  0.49559228  0.27321408  0.65509562  1
  S2-  S148  1  0.40078021  0.62186925  0.14019252  1
  S2-  S149  1  0.54088848  0.73914472  0.64422576  1
  S2-  S150  1  0.40854742  0.87838381  0.14179503  1
  S2-  S151  1  0.36838619  0.87867980  0.64511950  1
  S2-  S152  1  0.74890323  0.11428701  0.15074157  1
  S2-  S153  1  0.68168468  0.14881685  0.64534759  1
  S2-  S154  1  0.74698210  0.37933276  0.15015795  1
  S2-  S155  1  0.67876868  0.39887920  0.63605572  1
  S2-  S156  1  0.86507902  0.60957507  0.14954722  1
  S2-  S157  1  0.79850419  0.62269202  0.65136842  1
  S2-  S158  1  0.78510325  0.88171368  0.16401542  1
  S2-  S159  1  0.75147800  0.87485964  0.65320132  1
  S2-  S160  1  0.09459170  -0.04809107  0.34466259  1
  S2-  S161  1  0.10788036  0.04008654  0.82979870  1
  S2-  S162  1  0.14678008  0.32043271  0.35815819  1
  S2-  S163  1  0.14157032  0.25956595  0.84563951  1
  S2-  S164  1  0.06944390  0.51951375  0.31804496  1
  S2-  S165  1  0.12353842  0.63981287  0.86390024  1
  S2-  S166  1  0.14835239  0.73531449  0.33803620  1
  S2-  S167  1  0.11703710  0.84607601  0.86209467  1
  S2-  S168  1  0.34646651  -0.01116537  0.33426791  1
  S2-  S169  1  0.32624437  0.06311629  0.81914542  1
  S2-  S170  1  0.40776560  0.18189156  0.36590069  1
  S2-  S171  1  0.43298720  0.24801026  0.84461760  1
  S2-  S172  1  0.31450993  0.47669176  0.35735459  1
  S2-  S173  1  0.26863157  0.48049020  0.85781790  1
  S2-  S174  1  0.38254605  0.78518261  0.34341383  1
  S2-  S175  1  0.35935751  0.84900431  0.85342579  1
  S2-  S176  1  0.61112469  -0.02256953  0.34964704  1
  S2-  S177  1  0.51212846  0.00260681  0.84917002  1
  S2-  S178  1  0.65404953  0.18959215  0.34108826  1
  S2-  S179  1  0.64634099  0.14834105  0.83155536  1
  S2-  S180  1  0.59868355  0.40069520  0.35926330  1
  S2-  S181  1  0.62683486  0.38693258  0.85096045  1
  S2-  S182  1  0.62927144  0.73350043  0.34156430  1
  S2-  S183  1  0.64663789  0.85128669  0.85964044  1
  S2-  S184  1  0.85476544  -0.08179435  0.34235124  1
  S2-  S185  1  0.89158625  0.03697578  0.83412213  1
  S2-  S186  1  0.88757807  0.13296193  0.35573765  1
  S2-  S187  1  0.87855671  0.26511651  0.84574530  1
  S2-  S188  1  0.83153329  0.50980501  0.34114782  1
  S2-  S189  1  0.97476866  0.48719324  0.86262832  1
  S2-  S190  1  0.91733133  0.73148087  0.33518293  1
  S2-  S191  1  0.88959393  0.82623413  0.86382712  1
  S2-  S192  1  0.01739343  0.13402802  0.45221006  1
  S2-  S193  1  -0.00127399  0.11250493  0.95377431  1
  S2-  S194  1  0.00982868  0.37929758  0.44632715  1
  S2-  S195  1  0.00012762  0.36131029  0.95756179  1
  S2-  S196  1  0.01589448  0.62910485  0.44447845  1
  S2-  S197  1  -0.00652449  0.61680146  0.96545654  1
  S2-  S198  1  0.01260523  0.88203473  0.45628565  1
  S2-  S199  1  -0.00200481  0.86316178  0.96913247  1
  S2-  S200  1  0.26057277  0.13298427  0.45870189  1
  S2-  S201  1  0.25172418  0.11354336  0.94987056  1
  S2-  S202  1  0.26644408  0.37469886  0.46251465  1
  S2-  S203  1  0.24635596  0.36312660  0.95562151  1
  S2-  S204  1  0.25992839  0.62738409  0.45229444  1
  S2-  S205  1  0.25116372  0.61819741  0.96251957  1
  S2-  S206  1  0.26503801  0.88531794  0.45532610  1
  S2-  S207  1  0.25138779  0.86429249  0.95995927  1
  S2-  S208  1  0.51790568  0.13264594  0.46600970  1
  S2-  S209  1  0.49935531  0.12041718  0.94648730  1
  S2-  S210  1  0.50777299  0.38129269  0.46745184  1
  S2-  S211  1  0.49733204  0.37177877  0.95010049  1
  S2-  S212  1  0.51062975  0.62962157  0.45276875  1
  S2-  S213  1  0.50397148  0.61432115  0.95064484  1
  S2-  S214  1  0.51025744  0.88478851  0.45826057  1
  S2-  S215  1  0.50074499  0.86204062  0.95190026  1
  S2-  S216  1  0.75844338  0.13233155  0.45472134  1
  S2-  S217  1  0.74938824  0.11379457  0.94443236  1
  S2-  S218  1  0.76558216  0.38106147  0.44690703  1
  S2-  S219  1  0.75236709  0.36680033  0.94912206  1
  S2-  S220  1  0.76341960  0.63467170  0.44645252  1
  S2-  S221  1  0.75084470  0.61304440  0.95841335  1
  S2-  S222  1  0.75907146  0.88168419  0.45111211  1
  S2-  S223  1  0.74685050  0.86378733  0.96137015  1
  S2-  S224  1  0.12403790  -0.00638388  0.03981474  1
  S2-  S225  1  0.13703073  0.00834649  0.54323139  1
  S2-  S226  1  0.12640483  0.23851136  0.05217750  1
  S2-  S227  1  0.13794817  0.25676001  0.55311837  1
  S2-  S228  1  0.12126314  0.48892195  0.04190010  1
  S2-  S229  1  0.13781542  0.50105083  0.53931154  1
  S2-  S230  1  0.11777189  0.74388302  0.05158787  1
  S2-  S231  1  0.13887345  0.75791475  0.54270081  1
  S2-  S232  1  0.38023476  -0.00470536  0.03269625  1
  S2-  S233  1  0.39097283  0.01153371  0.54740366  1
  S2-  S234  1  0.37337315  0.24224486  0.04504514  1
  S2-  S235  1  0.38495256  0.25479486  0.55671919  1
  S2-  S236  1  0.37531001  0.49110875  0.04062537  1
  S2-  S237  1  0.39102489  0.50443478  0.55497852  1
  S2-  S238  1  0.37853762  0.74052965  0.03994151  1
  S2-  S239  1  0.38605601  0.75310974  0.54647022  1
  S2-  S240  1  0.62033270  -0.00734631  0.04477414  1
  S2-  S241  1  0.63566221  0.00399464  0.55211781  1
  S2-  S242  1  0.62156278  0.24329881  0.03814551  1
  S2-  S243  1  0.64055568  0.25830318  0.54141230  1
  S2-  S244  1  0.62425997  0.49276870  0.04032276  1
  S2-  S245  1  0.63959029  0.51122270  0.53835929  1
  S2-  S246  1  0.62386865  0.73989744  0.04121355  1
  S2-  S247  1  0.63943668  0.75951697  0.54248514  1
  S2-  S248  1  0.86835598  -0.00966106  0.04399757  1
  S2-  S249  1  0.88855279  0.00643705  0.54263623  1
  S2-  S250  1  0.87166423  0.24260736  0.04941860  1
  S2-  S251  1  0.88439958  0.25789543  0.54081389  1
  S2-  S252  1  0.87089997  0.48662272  0.04653276  1
  S2-  S253  1  0.88519461  0.50501762  0.54128934  1
  S2-  S254  1  0.86955794  0.74624168  0.05494803  1
  S2-  S255  1  0.89120507  0.75827241  0.54192945  1
