# generated using pymatgen
data_La12Ce14Pr13Nd13Sm12(BiS2)64
_symmetry_space_group_name_H-M   'P 1'
_cell_length_a   16.07634402
_cell_length_b   16.07085145
_cell_length_c   27.35535653
_cell_angle_alpha   90.15826856
_cell_angle_beta   90.07178158
_cell_angle_gamma   90.10964147
_symmetry_Int_Tables_number   1
_chemical_formula_structural   La12Ce14Pr13Nd13Sm12(BiS2)64
_chemical_formula_sum   'La12 Ce14 Pr13 Nd13 Sm12 Bi64 S128'
_cell_volume   7067.49909393
_cell_formula_units_Z   1
loop_
 _symmetry_equiv_pos_site_id
 _symmetry_equiv_pos_as_xyz
  1  'x, y, z'
loop_
 _atom_type_symbol
 _atom_type_oxidation_number
  La3+  3.0
  Ce3+  3.0
  Pr3+  3.0
  Nd3+  3.0
  Sm3+  3.0
  Bi2+  2.0
  S2-  -2.0
loop_
 _atom_site_type_symbol
 _atom_site_label
 _atom_site_symmetry_multiplicity
 _atom_site_fract_x
 _atom_site_fract_y
 _atom_site_fract_z
 _atom_site_occupancy
  La3+  La0  1  0.87291654  0.74244980  0.42707691  1
  La3+  La1  1  0.26610945  0.38186491  0.57798561  1
  La3+  La2  1  0.00859282  0.37682953  0.11373150  1
  La3+  La3  1  0.25870219  0.89325910  0.07275910  1
  La3+  La4  1  0.49886279  0.63395466  0.59637148  1
  La3+  La5  1  0.88081410  0.00225786  0.42632677  1
  La3+  La6  1  0.88427208  0.77282401  0.90505997  1
  La3+  La7  1  0.76341594  0.89770214  0.06177139  1
  La3+  La8  1  0.12494972  0.26312435  0.39575570  1
  La3+  La9  1  0.75201278  0.40004738  0.06607000  1
  La3+  La10  1  -0.00452258  0.37431467  0.58237268  1
  La3+  La11  1  0.13056367  0.01746786  0.93657886  1
  Ce3+  Ce12  1  0.50620299  0.88060372  0.56045426  1
  Ce3+  Ce13  1  0.25482949  0.63122236  0.55846935  1
  Ce3+  Ce14  1  0.25552854  0.39573649  0.06231275  1
  Ce3+  Ce15  1  0.75371054  0.88029419  0.56256326  1
  Ce3+  Ce16  1  0.25428850  0.14915121  0.05855249  1
  Ce3+  Ce17  1  0.50561801  0.38085041  0.54983053  1
  Ce3+  Ce18  1  0.12632399  0.75331463  0.44462792  1
  Ce3+  Ce19  1  0.50725463  0.14125155  0.05435223  1
  Ce3+  Ce20  1  0.74653774  0.38612507  0.57452190  1
  Ce3+  Ce21  1  0.37672746  0.25171943  0.43520219  1
  Ce3+  Ce22  1  0.63078515  0.27178797  0.93482302  1
  Ce3+  Ce23  1  0.37141104  0.00917155  0.42953271  1
  Ce3+  Ce24  1  0.63410185  0.52450795  0.92439371  1
  Ce3+  Ce25  1  0.01076905  0.89596853  0.06607575  1
  Pr3+  Pr26  1  0.75766709  0.63427165  0.57513688  1
  Pr3+  Pr27  1  0.00524278  0.13185553  0.55580779  1
  Pr3+  Pr28  1  0.49788173  0.12742877  0.57055785  1
  Pr3+  Pr29  1  0.00500913  0.63920498  0.06302421  1
  Pr3+  Pr30  1  0.25353719  0.13121146  0.55687354  1
  Pr3+  Pr31  1  0.62386966  0.01300254  0.92313608  1
  Pr3+  Pr32  1  0.25701254  0.88215120  0.55876242  1
  Pr3+  Pr33  1  0.50846879  0.64608943  0.05632498  1
  Pr3+  Pr34  1  0.38024354  0.51777055  0.93304780  1
  Pr3+  Pr35  1  0.63077712  0.50977141  0.44099383  1
  Pr3+  Pr36  1  0.62932243  0.00482636  0.43203303  1
  Pr3+  Pr37  1  0.88081356  0.49709063  0.44692120  1
  Pr3+  Pr38  1  0.37511740  0.50197650  0.43752390  1
  Nd3+  Nd39  1  0.12980513  0.77075120  0.93653711  1
  Nd3+  Nd40  1  0.37988133  0.01808214  0.93760268  1
  Nd3+  Nd41  1  0.37578917  0.75477357  0.43875481  1
  Nd3+  Nd42  1  0.00311378  0.63300505  0.56680270  1
  Nd3+  Nd43  1  0.75792860  0.14552156  0.05052397  1
  Nd3+  Nd44  1  0.62569778  0.76928545  0.92942124  1
  Nd3+  Nd45  1  0.62701607  0.75978582  0.43579033  1
  Nd3+  Nd46  1  0.51510553  0.90021967  0.07783081  1
  Nd3+  Nd47  1  0.51016887  0.39778806  0.05620182  1
  Nd3+  Nd48  1  0.25598701  0.64318265  0.05087526  1
  Nd3+  Nd49  1  0.88018734  0.01751141  0.92927659  1
  Nd3+  Nd50  1  0.12568865  0.51863161  0.94172081  1
  Nd3+  Nd51  1  0.38080401  0.77206185  0.93469133  1
  Sm3+  Sm52  1  0.37911986  0.27067441  0.94137702  1
  Sm3+  Sm53  1  0.12682265  0.00703021  0.43065950  1
  Sm3+  Sm54  1  0.12862827  0.27309147  0.94170951  1
  Sm3+  Sm55  1  0.12597029  0.49500390  0.45422706  1
  Sm3+  Sm56  1  0.75760106  0.64710877  0.04670069  1
  Sm3+  Sm57  1  0.87974036  0.27246101  0.94321742  1
  Sm3+  Sm58  1  0.87295681  0.25439321  0.44262612  1
  Sm3+  Sm59  1  0.00155122  0.88280304  0.55708053  1
  Sm3+  Sm60  1  0.75157015  0.12488439  0.56626336  1
  Sm3+  Sm61  1  0.63124228  0.25208260  0.44271224  1
  Sm3+  Sm62  1  0.88120992  0.51870735  0.93875077  1
  Sm3+  Sm63  1  0.00615508  0.14635422  0.05154696  1
  Bi2+  Bi64  1  -0.04264472  0.14384835  0.28590724  1
  Bi2+  Bi65  1  -0.09274093  0.11991699  0.79566762  1
  Bi2+  Bi66  1  -0.01723707  0.42408520  0.30879079  1
  Bi2+  Bi67  1  -0.00193674  0.33937261  0.78526012  1
  Bi2+  Bi68  1  0.03998595  0.63672052  0.30161330  1
  Bi2+  Bi69  1  0.02586863  0.59754166  0.79643728  1
  Bi2+  Bi70  1  -0.00546666  0.89671741  0.28367185  1
  Bi2+  Bi71  1  0.07323179  0.87908999  0.78401533  1
  Bi2+  Bi72  1  0.32620582  0.12840322  0.29657034  1
  Bi2+  Bi73  1  0.24934941  0.01498051  0.82022434  1
  Bi2+  Bi74  1  0.31970773  0.38333547  0.26844534  1
  Bi2+  Bi75  1  0.24453195  0.36245729  0.80462549  1
  Bi2+  Bi76  1  0.26100467  0.64594024  0.28899516  1
  Bi2+  Bi77  1  0.26657758  0.62302670  0.79460979  1
  Bi2+  Bi78  1  0.22203145  0.87125422  0.28861859  1
  Bi2+  Bi79  1  0.25401743  0.81911842  0.82537299  1
  Bi2+  Bi80  1  0.50099688  0.13198120  0.34420211  1
  Bi2+  Bi81  1  0.50785876  0.12221904  0.78244768  1
  Bi2+  Bi82  1  0.53001294  0.32823739  0.28535711  1
  Bi2+  Bi83  1  0.46694851  0.29393409  0.73132610  1
  Bi2+  Bi84  1  0.51421896  0.53436284  0.29535457  1
  Bi2+  Bi85  1  0.51837584  0.60325873  0.79490230  1
  Bi2+  Bi86  1  0.46349664  0.92055541  0.30750006  1
  Bi2+  Bi87  1  0.51043743  0.87071000  0.78780493  1
  Bi2+  Bi88  1  0.69094368  0.15703869  0.29595569  1
  Bi2+  Bi89  1  0.71418116  0.08391194  0.80339822  1
  Bi2+  Bi90  1  0.72742747  0.36652528  0.28116450  1
  Bi2+  Bi91  1  0.71690991  0.34596463  0.79108572  1
  Bi2+  Bi92  1  0.73361119  0.71220058  0.26609908  1
  Bi2+  Bi93  1  0.76041949  0.57676418  0.78404868  1
  Bi2+  Bi94  1  0.74525529  0.90484458  0.29271060  1
  Bi2+  Bi95  1  0.76510571  0.87942447  0.77792534  1
  Bi2+  Bi96  1  0.04213525  0.00254821  0.19590607  1
  Bi2+  Bi97  1  0.16553379  0.00900143  0.71229249  1
  Bi2+  Bi98  1  0.14379004  0.23621651  0.20772385  1
  Bi2+  Bi99  1  0.08144229  0.18402989  0.73720670  1
  Bi2+  Bi100  1  0.17893849  0.50650892  0.22813060  1
  Bi2+  Bi101  1  0.13911374  0.52278379  0.71215402  1
  Bi2+  Bi102  1  0.11076216  0.69026582  0.19818666  1
  Bi2+  Bi103  1  0.13139983  0.71801439  0.72067564  1
  Bi2+  Bi104  1  0.33830323  -0.02469083  0.22422914  1
  Bi2+  Bi105  1  0.37501368  0.00481777  0.70017304  1
  Bi2+  Bi106  1  0.37885076  0.25001189  0.18881036  1
  Bi2+  Bi107  1  0.29073228  0.16651170  0.74162181  1
  Bi2+  Bi108  1  0.44411508  0.43874909  0.18183686  1
  Bi2+  Bi109  1  0.36797441  0.48651669  0.70425541  1
  Bi2+  Bi110  1  0.38445367  0.72898165  0.20817735  1
  Bi2+  Bi111  1  0.33065270  0.75766176  0.72075238  1
  Bi2+  Bi112  1  0.58346701  -0.04207243  0.21880133  1
  Bi2+  Bi113  1  0.63640290  -0.00265069  0.71024634  1
  Bi2+  Bi114  1  0.55003126  0.16827037  0.21517553  1
  Bi2+  Bi115  1  0.61387151  0.20109945  0.67611173  1
  Bi2+  Bi116  1  0.61520328  0.54246880  0.19242200  1
  Bi2+  Bi117  1  0.61661812  0.40823357  0.69871182  1
  Bi2+  Bi118  1  0.53755808  0.72465483  0.27729602  1
  Bi2+  Bi119  1  0.62345814  0.77351357  0.71455072  1
  Bi2+  Bi120  1  0.77814694  0.00435761  0.19540844  1
  Bi2+  Bi121  1  0.90336066  0.00230120  0.70239803  1
  Bi2+  Bi122  1  0.85140998  0.25447375  0.21775809  1
  Bi2+  Bi123  1  0.79874579  0.21607760  0.71610603  1
  Bi2+  Bi124  1  0.86709042  0.54134768  0.20646492  1
  Bi2+  Bi125  1  0.87341118  0.47335129  0.70751744  1
  Bi2+  Bi126  1  0.91970907  0.73649854  0.22428664  1
  Bi2+  Bi127  1  0.89062362  0.74901415  0.70752626  1
  S2-  S128  1  0.01729511  0.16445804  0.14866976  1
  S2-  S129  1  -0.00109175  0.11829141  0.65719204  1
  S2-  S130  1  0.00783432  0.33768914  0.21925507  1
  S2-  S131  1  0.02844314  0.40283046  0.68409620  1
  S2-  S132  1  -0.00036313  0.54585737  0.14934637  1
  S2-  S133  1  -0.07654095  0.61945253  0.65533170  1
  S2-  S134  1  -0.09779943  0.92912607  0.14156182  1
  S2-  S135  1  -0.02009817  0.87372913  0.65522221  1
  S2-  S136  1  0.26033618  0.12978752  0.15597974  1
  S2-  S137  1  0.35063851  0.14371452  0.64150162  1
  S2-  S138  1  0.17842661  0.38813012  0.15058957  1
  S2-  S139  1  0.23860640  0.39037389  0.68188618  1
  S2-  S140  1  0.25984874  0.64644877  0.14986997  1
  S2-  S141  1  0.33305141  0.62768378  0.64546200  1
  S2-  S142  1  0.13059536  0.89492046  0.14401578  1
  S2-  S143  1  0.25763472  0.88217543  0.65957998  1
  S2-  S144  1  0.51605109  0.05237339  0.13726727  1
  S2-  S145  1  0.50739251  -0.00576645  0.63776278  1
  S2-  S146  1  0.61418127  0.40110982  0.13738153  1
  S2-  S147  1  0.42441429  0.37561713  0.63666114  1
  S2-  S148  1  0.51515680  0.67764539  0.15529853  1
  S2-  S149  1  0.53189061  0.56667785  0.69325041  1
  S2-  S150  1  0.38307846  0.87416663  0.14568281  1
  S2-  S151  1  0.50607576  0.78579670  0.64785785  1
  S2-  S152  1  0.75604037  0.15706426  0.15048121  1
  S2-  S153  1  0.76614116  0.00072502  0.63753103  1
  S2-  S154  1  0.84352543  0.39142128  0.15247702  1
  S2-  S155  1  0.85250654  0.33571059  0.64872364  1
  S2-  S156  1  0.75044252  0.61480009  0.14407011  1
  S2-  S157  1  0.73354283  0.50971578  0.64905193  1
  S2-  S158  1  0.65659661  0.88132568  0.14121563  1
  S2-  S159  1  0.75600780  0.76773756  0.64423946  1
  S2-  S160  1  0.01160522  0.02514706  0.35345612  1
  S2-  S161  1  0.07401916  0.02171157  0.84175522  1
  S2-  S162  1  0.12192138  0.18464957  0.29716862  1
  S2-  S163  1  0.12827854  0.26317784  0.84247674  1
  S2-  S164  1  0.11981205  0.43232378  0.36165748  1
  S2-  S165  1  0.13681183  0.49059924  0.84286646  1
  S2-  S166  1  0.10270943  0.78952781  0.34936422  1
  S2-  S167  1  0.03820236  0.74762166  0.85240416  1
  S2-  S168  1  0.24554265  0.00331176  0.35502461  1
  S2-  S169  1  0.47464206  0.00766438  0.85336288  1
  S2-  S170  1  0.29039996  0.27421454  0.35136188  1
  S2-  S171  1  0.36066766  0.27706300  0.84412368  1
  S2-  S172  1  0.34894352  0.51835286  0.33811610  1
  S2-  S173  1  0.38353111  0.51076904  0.83190217  1
  S2-  S174  1  0.34501392  0.77794982  0.34115611  1
  S2-  S175  1  0.46582950  0.74759228  0.84745031  1
  S2-  S176  1  0.60589944  -0.11969709  0.35752161  1
  S2-  S177  1  0.64346174  -0.11837274  0.85260406  1
  S2-  S178  1  0.74519243  0.26893871  0.36857112  1
  S2-  S179  1  0.62073769  0.22398525  0.84149948  1
  S2-  S180  1  0.66322549  0.48174354  0.34267433  1
  S2-  S181  1  0.60758888  0.45193880  0.83490529  1
  S2-  S182  1  0.73243848  0.70023748  0.36328501  1
  S2-  S183  1  0.64483038  0.65091190  0.85131434  1
  S2-  S184  1  0.75356877  0.04111280  0.35762963  1
  S2-  S185  1  0.87781780  -0.08014194  0.84705471  1
  S2-  S186  1  0.95959295  0.27301003  0.35567195  1
  S2-  S187  1  0.88304207  0.28042796  0.84377945  1
  S2-  S188  1  0.91033213  0.56270594  0.35373691  1
  S2-  S189  1  0.88762122  0.51105020  0.83878593  1
  S2-  S190  1  0.87789989  0.86285812  0.35344667  1
  S2-  S191  1  0.83768080  0.71454220  0.80748762  1
  S2-  S192  1  0.00987105  0.13973895  0.45264143  1
  S2-  S193  1  0.00377048  0.14900303  0.94714652  1
  S2-  S194  1  0.00478417  0.37388095  0.46943120  1
  S2-  S195  1  0.00347457  0.39328543  0.94526535  1
  S2-  S196  1  0.00673015  0.62568276  0.46144593  1
  S2-  S197  1  0.00151558  0.64287878  0.95447424  1
  S2-  S198  1  0.00759282  0.87875932  0.45478860  1
  S2-  S199  1  0.00424992  0.89190261  0.95550459  1
  S2-  S200  1  0.24296546  0.13680119  0.45149224  1
  S2-  S201  1  0.25469951  0.14854626  0.95113036  1
  S2-  S202  1  0.25199212  0.37843818  0.46433663  1
  S2-  S203  1  0.25385975  0.39411480  0.95420865  1
  S2-  S204  1  0.24836712  0.62622686  0.45223660  1
  S2-  S205  1  0.25374017  0.64326484  0.94481605  1
  S2-  S206  1  0.24946449  0.87940501  0.45386727  1
  S2-  S207  1  0.25599973  0.89336189  0.95905870  1
  S2-  S208  1  0.50352159  0.13063836  0.45964733  1
  S2-  S209  1  0.50274108  0.14706690  0.94945353  1
  S2-  S210  1  0.50614068  0.37796948  0.44371322  1
  S2-  S211  1  0.50388297  0.39344066  0.94919879  1
  S2-  S212  1  0.50026434  0.63084407  0.43569081  1
  S2-  S213  1  0.50269550  0.64123575  0.95112103  1
  S2-  S214  1  0.49293935  0.88276874  0.45452148  1
  S2-  S215  1  0.50213350  0.89390401  0.96023180  1
  S2-  S216  1  0.75280546  0.13098829  0.46407320  1
  S2-  S217  1  0.75670943  0.14376870  0.94450116  1
  S2-  S218  1  0.74920714  0.38156534  0.46721360  1
  S2-  S219  1  0.75667177  0.39555448  0.95054551  1
  S2-  S220  1  0.75750382  0.62235547  0.46852180  1
  S2-  S221  1  0.76626610  0.64977569  0.94471917  1
  S2-  S222  1  0.75325081  0.87854924  0.45747655  1
  S2-  S223  1  0.76004458  0.89168752  0.95277796  1
  S2-  S224  1  0.13117894  0.02507925  0.04375445  1
  S2-  S225  1  0.12888985  0.00415452  0.54522278  1
  S2-  S226  1  0.12624199  0.27378477  0.04585367  1
  S2-  S227  1  0.13316561  0.25748167  0.57203256  1
  S2-  S228  1  0.13146171  0.51691513  0.04612853  1
  S2-  S229  1  0.12910355  0.50441136  0.55959188  1
  S2-  S230  1  0.13084838  0.76494700  0.04214618  1
  S2-  S231  1  0.12822517  0.75781629  0.55402181  1
  S2-  S232  1  0.37747946  0.02236702  0.04274077  1
  S2-  S233  1  0.37671785  0.00541044  0.53689531  1
  S2-  S234  1  0.38337714  0.27238867  0.04647520  1
  S2-  S235  1  0.38133102  0.25466622  0.53872803  1
  S2-  S236  1  0.38164078  0.51896994  0.04203957  1
  S2-  S237  1  0.38526947  0.51357575  0.54265687  1
  S2-  S238  1  0.38138234  0.76659652  0.04030462  1
  S2-  S239  1  0.37922461  0.75420222  0.54394292  1
  S2-  S240  1  0.63442129  0.02141824  0.03347737  1
  S2-  S241  1  0.62886577  0.00635222  0.53909590  1
  S2-  S242  1  0.63043729  0.26679352  0.04066792  1
  S2-  S243  1  0.62892226  0.25268964  0.54798947  1
  S2-  S244  1  0.63169598  0.52431890  0.03240746  1
  S2-  S245  1  0.61701295  0.51500334  0.54838463  1
  S2-  S246  1  0.63322528  0.76808158  0.03716844  1
  S2-  S247  1  0.62251897  0.75005964  0.54177236  1
  S2-  S248  1  0.88500869  0.02632786  0.03503724  1
  S2-  S249  1  0.88299332  0.00633064  0.53914550  1
  S2-  S250  1  0.88470068  0.27213317  0.04699272  1
  S2-  S251  1  0.87280768  0.24839648  0.54668634  1
  S2-  S252  1  0.87787061  0.51986177  0.04127988  1
  S2-  S253  1  0.88158679  0.50457608  0.55223722  1
  S2-  S254  1  0.88323829  0.76592883  0.05281656  1
  S2-  S255  1  0.88409136  0.75758420  0.54128896  1
