# generated using pymatgen
data_La12Ce14Pr13Nd13Sm12(BiS2)64
_symmetry_space_group_name_H-M   'P 1'
_cell_length_a   16.05232219
_cell_length_b   16.14358146
_cell_length_c   27.30432727
_cell_angle_alpha   90.16882789
_cell_angle_beta   89.98649874
_cell_angle_gamma   90.06980419
_symmetry_Int_Tables_number   1
_chemical_formula_structural   La12Ce14Pr13Nd13Sm12(BiS2)64
_chemical_formula_sum   'La12 Ce14 Pr13 Nd13 Sm12 Bi64 S128'
_cell_volume   7075.66102407
_cell_formula_units_Z   1
loop_
 _symmetry_equiv_pos_site_id
 _symmetry_equiv_pos_as_xyz
  1  'x, y, z'
loop_
 _atom_type_symbol
 _atom_type_oxidation_number
  La3+  3.0
  Ce3+  3.0
  Pr3+  3.0
  Nd3+  3.0
  Sm3+  3.0
  Bi2+  2.0
  S2-  -2.0
loop_
 _atom_site_type_symbol
 _atom_site_label
 _atom_site_symmetry_multiplicity
 _atom_site_fract_x
 _atom_site_fract_y
 _atom_site_fract_z
 _atom_site_occupancy
  La3+  La0  1  0.22531121  0.14349955  0.57317732  1
  La3+  La1  1  0.72453149  0.14976255  0.57272621  1
  La3+  La2  1  0.73073819  0.88286939  0.60599783  1
  La3+  La3  1  0.85720247  0.51429350  0.42653510  1
  La3+  La4  1  0.10194497  0.26456495  0.43701943  1
  La3+  La5  1  0.90310362  0.75745101  0.90887654  1
  La3+  La6  1  0.63941031  0.01294067  0.91876216  1
  La3+  La7  1  0.22736996  0.89492337  0.56911508  1
  La3+  La8  1  0.09741785  0.76507323  0.42313121  1
  La3+  La9  1  0.52397421  0.88747912  0.07504805  1
  La3+  La10  1  0.01138496  0.87826143  0.07489085  1
  La3+  La11  1  0.89196512  0.50545531  0.91322251  1
  Ce3+  Ce12  1  0.51213997  0.38192040  0.05329999  1
  Ce3+  Ce13  1  0.34897011  0.01559167  0.44263993  1
  Ce3+  Ce14  1  0.76474023  0.88009488  0.04390775  1
  Ce3+  Ce15  1  -0.01724548  0.88813225  0.56716712  1
  Ce3+  Ce16  1  0.51182213  0.12823785  0.05943656  1
  Ce3+  Ce17  1  0.26715272  0.88718317  0.06702283  1
  Ce3+  Ce18  1  0.14128087  0.50582098  0.93928966  1
  Ce3+  Ce19  1  0.63561595  0.75770900  0.93375651  1
  Ce3+  Ce20  1  0.13868739  0.25595671  0.94863259  1
  Ce3+  Ce21  1  0.63775244  0.50820390  0.92891310  1
  Ce3+  Ce22  1  0.85737562  0.01452508  0.44916373  1
  Ce3+  Ce23  1  0.63755952  0.25686905  0.94079134  1
  Ce3+  Ce24  1  0.35278156  0.76920487  0.43891246  1
  Ce3+  Ce25  1  -0.02710227  0.39235642  0.56234320  1
  Pr3+  Pr26  1  0.60048678  0.26034030  0.42440158  1
  Pr3+  Pr27  1  0.38833677  0.01210201  0.92264013  1
  Pr3+  Pr28  1  0.89260725  0.25523300  0.93903761  1
  Pr3+  Pr29  1  0.26464345  0.37867619  0.07116805  1
  Pr3+  Pr30  1  0.00803229  0.38167524  0.06967703  1
  Pr3+  Pr31  1  0.47979484  0.64410467  0.56201814  1
  Pr3+  Pr32  1  0.34844479  0.26405825  0.43748036  1
  Pr3+  Pr33  1  0.35316831  0.51535514  0.44572169  1
  Pr3+  Pr34  1  0.60440693  0.77217997  0.43285703  1
  Pr3+  Pr35  1  0.13740602  0.00550045  0.93775120  1
  Pr3+  Pr36  1  0.48346950  0.89198629  0.56382997  1
  Pr3+  Pr37  1  0.01515740  0.62990229  0.06665439  1
  Pr3+  Pr38  1  0.51475998  0.63157011  0.05876525  1
  Nd3+  Nd39  1  0.60797244  0.01388346  0.43982705  1
  Nd3+  Nd40  1  0.09723827  0.01549746  0.43473775  1
  Nd3+  Nd41  1  0.76084160  0.12916331  0.06080351  1
  Nd3+  Nd42  1  0.72604314  0.39222816  0.55314576  1
  Nd3+  Nd43  1  0.60135954  0.52266063  0.43397859  1
  Nd3+  Nd44  1  0.85257844  0.76195398  0.43911789  1
  Nd3+  Nd45  1  0.25515924  0.12772580  0.07724388  1
  Nd3+  Nd46  1  0.00822151  0.13496501  0.07356045  1
  Nd3+  Nd47  1  0.76648979  0.63296272  0.04869618  1
  Nd3+  Nd48  1  -0.03059225  0.13823341  0.57148116  1
  Nd3+  Nd49  1  0.26252120  0.63723610  0.07559377  1
  Nd3+  Nd50  1  0.22805485  0.38752176  0.57207666  1
  Nd3+  Nd51  1  0.89187069  0.00770659  0.93376852  1
  Sm3+  Sm52  1  0.10347466  0.51516608  0.45013429  1
  Sm3+  Sm53  1  0.85612110  0.26245687  0.43422035  1
  Sm3+  Sm54  1  0.38534725  0.25380363  0.94494321  1
  Sm3+  Sm55  1  0.22878047  0.64235496  0.55297910  1
  Sm3+  Sm56  1  0.48049475  0.39166500  0.55501784  1
  Sm3+  Sm57  1  0.38777207  0.75985220  0.94761066  1
  Sm3+  Sm58  1  0.72957274  0.64472063  0.56204698  1
  Sm3+  Sm59  1  -0.02148344  0.64209638  0.55954974  1
  Sm3+  Sm60  1  0.38214280  0.50748990  0.94133585  1
  Sm3+  Sm61  1  0.76219496  0.38443343  0.05195064  1
  Sm3+  Sm62  1  0.13944762  0.75552647  0.94754406  1
  Sm3+  Sm63  1  0.48363138  0.14204341  0.56095589  1
  Bi2+  Bi64  1  -0.02273896  0.13323646  0.28941483  1
  Bi2+  Bi65  1  0.01430654  0.15056891  0.79795100  1
  Bi2+  Bi66  1  -0.07599573  0.40063373  0.30406461  1
  Bi2+  Bi67  1  -0.01195933  0.41090333  0.76281131  1
  Bi2+  Bi68  1  -0.00741875  0.64129949  0.30338535  1
  Bi2+  Bi69  1  0.03837452  0.59792874  0.78604556  1
  Bi2+  Bi70  1  0.03775376  0.89308856  0.30312749  1
  Bi2+  Bi71  1  0.02802793  0.87761608  0.78986262  1
  Bi2+  Bi72  1  0.29592083  0.13186612  0.31346369  1
  Bi2+  Bi73  1  0.30092290  0.10235206  0.78286874  1
  Bi2+  Bi74  1  0.28902809  0.38901742  0.29208947  1
  Bi2+  Bi75  1  0.25729030  0.38998764  0.79653539  1
  Bi2+  Bi76  1  0.24034083  0.56618108  0.22745812  1
  Bi2+  Bi77  1  0.26259181  0.64640218  0.79295452  1
  Bi2+  Bi78  1  0.33318991  0.87557225  0.28144302  1
  Bi2+  Bi79  1  0.25551973  0.86583806  0.78434827  1
  Bi2+  Bi80  1  0.56243415  0.09504297  0.27105066  1
  Bi2+  Bi81  1  0.43412163  0.14021792  0.69883882  1
  Bi2+  Bi82  1  0.53598173  0.32557128  0.28749537  1
  Bi2+  Bi83  1  0.44077185  0.32249604  0.81644156  1
  Bi2+  Bi84  1  0.50072011  0.57756183  0.29142875  1
  Bi2+  Bi85  1  0.50597369  0.50855587  0.81415110  1
  Bi2+  Bi86  1  0.52431720  0.82105170  0.29547067  1
  Bi2+  Bi87  1  0.45840886  0.86788756  0.78709902  1
  Bi2+  Bi88  1  0.77832253  0.11554359  0.29855815  1
  Bi2+  Bi89  1  0.75694591  0.14117731  0.78870306  1
  Bi2+  Bi90  1  0.75238320  0.30864979  0.31142284  1
  Bi2+  Bi91  1  0.75211403  0.37734806  0.76538520  1
  Bi2+  Bi92  1  0.77929558  0.57275056  0.24976259  1
  Bi2+  Bi93  1  0.77054981  0.57899430  0.76685243  1
  Bi2+  Bi94  1  0.76114078  0.86810092  0.27410263  1
  Bi2+  Bi95  1  0.70805907  0.88243456  0.79765769  1
  Bi2+  Bi96  1  0.17919736  0.00429555  0.22431010  1
  Bi2+  Bi97  1  0.13490905  -0.00053445  0.71218832  1
  Bi2+  Bi98  1  0.11809457  0.23417216  0.21585333  1
  Bi2+  Bi99  1  0.17475705  0.23686305  0.74592493  1
  Bi2+  Bi100  1  0.10224237  0.41960440  0.23926341  1
  Bi2+  Bi101  1  0.17247966  0.51074002  0.71527617  1
  Bi2+  Bi102  1  0.13122701  0.74767070  0.20103290  1
  Bi2+  Bi103  1  0.12913630  0.75690353  0.71857886  1
  Bi2+  Bi104  1  0.40786137  0.01990482  0.21817885  1
  Bi2+  Bi105  1  0.36763960  -0.10678828  0.68386570  1
  Bi2+  Bi106  1  0.38098884  0.23787311  0.21643121  1
  Bi2+  Bi107  1  0.38628125  0.32553024  0.68455053  1
  Bi2+  Bi108  1  0.36704703  0.43561841  0.18867355  1
  Bi2+  Bi109  1  0.37202484  0.51030157  0.71761092  1
  Bi2+  Bi110  1  0.39197880  0.68882702  0.20282924  1
  Bi2+  Bi111  1  0.38181180  0.70053719  0.68330818  1
  Bi2+  Bi112  1  0.68403196  -0.00137174  0.20063596  1
  Bi2+  Bi113  1  0.57319538  0.01051241  0.71436449  1
  Bi2+  Bi114  1  0.57902642  0.23080192  0.18722896  1
  Bi2+  Bi115  1  0.60048301  0.25355970  0.76316680  1
  Bi2+  Bi116  1  0.66946054  0.41449730  0.21791399  1
  Bi2+  Bi117  1  0.60485953  0.50114313  0.71145647  1
  Bi2+  Bi118  1  0.63251606  0.73905525  0.19205286  1
  Bi2+  Bi119  1  0.53562907  0.68616228  0.76259460  1
  Bi2+  Bi120  1  0.88933143  -0.00392452  0.22269699  1
  Bi2+  Bi121  1  0.90286253  0.00941644  0.71058831  1
  Bi2+  Bi122  1  0.86055633  0.25980085  0.21224029  1
  Bi2+  Bi123  1  0.87835203  0.26724418  0.69397853  1
  Bi2+  Bi124  1  0.93152114  0.48297756  0.19774118  1
  Bi2+  Bi125  1  0.87417321  0.49133098  0.68204527  1
  Bi2+  Bi126  1  0.86671970  0.74294125  0.21669080  1
  Bi2+  Bi127  1  0.86495814  0.73925513  0.71438429  1
  S2-  S128  1  0.11628927  0.10520627  0.15174398  1
  S2-  S129  1  0.03483509  0.10629185  0.66410522  1
  S2-  S130  1  -0.00489260  0.26736462  0.14720503  1
  S2-  S131  1  0.01013523  0.37138334  0.65719988  1
  S2-  S132  1  -0.01842159  0.74357922  0.14550950  1
  S2-  S133  1  -0.03612166  0.63563419  0.65861233  1
  S2-  S134  1  0.09152912  0.90091040  0.17103090  1
  S2-  S135  1  -0.10562514  0.87503323  0.65321208  1
  S2-  S136  1  0.29150209  -0.00203621  0.14414313  1
  S2-  S137  1  0.25610878  0.02196703  0.64569889  1
  S2-  S138  1  0.25680272  0.26122634  0.14892894  1
  S2-  S139  1  0.22604651  0.27112191  0.64664959  1
  S2-  S140  1  0.13500576  0.60285250  0.14420236  1
  S2-  S141  1  0.21370880  0.65164608  0.65020322  1
  S2-  S142  1  0.27056054  0.77199141  0.14710195  1
  S2-  S143  1  0.10449612  0.86908496  0.64209559  1
  S2-  S144  1  0.52422349  0.03160481  0.13910739  1
  S2-  S145  1  0.58622997  0.14068227  0.64166440  1
  S2-  S146  1  0.52978044  0.39438420  0.14986203  1
  S2-  S147  1  0.53794781  0.38605962  0.64753055  1
  S2-  S148  1  0.53308588  0.61548526  0.16004328  1
  S2-  S149  1  0.54110896  0.64125630  0.65614232  1
  S2-  S150  1  0.48931899  0.81905102  0.17074181  1
  S2-  S151  1  0.56734084  0.88221354  0.65246662  1
  S2-  S152  1  0.82025634  0.12091106  0.15508903  1
  S2-  S153  1  0.83111632  0.12011359  0.65253335  1
  S2-  S154  1  0.79509620  0.38977021  0.14847403  1
  S2-  S155  1  0.74977908  0.30952374  0.63874534  1
  S2-  S156  1  0.76260126  0.64178650  0.14934910  1
  S2-  S157  1  0.74417525  0.72143610  0.65096428  1
  S2-  S158  1  0.69351308  0.87363306  0.13321419  1
  S2-  S159  1  0.73518471  0.95188905  0.70851871  1
  S2-  S160  1  0.17211046  0.03137211  0.33898102  1
  S2-  S161  1  0.01437989  0.01414164  0.85971055  1
  S2-  S162  1  0.22330736  0.26965081  0.36199693  1
  S2-  S163  1  0.13543419  0.22542223  0.85172411  1
  S2-  S164  1  0.06623797  0.52910424  0.35466696  1
  S2-  S165  1  0.03955097  0.47137046  0.85736348  1
  S2-  S166  1  0.14277066  0.77325792  0.32129052  1
  S2-  S167  1  0.06915571  0.76812105  0.85746956  1
  S2-  S168  1  0.39323116  0.00583045  0.34744539  1
  S2-  S169  1  0.25040936  -0.00683102  0.85668078  1
  S2-  S170  1  0.45859917  0.25282575  0.35923676  1
  S2-  S171  1  0.38672967  0.16612892  0.85944364  1
  S2-  S172  1  0.36694133  0.51012150  0.34539657  1
  S2-  S173  1  0.26619744  0.52034969  0.86728332  1
  S2-  S174  1  0.37377118  0.74989711  0.34109344  1
  S2-  S175  1  0.35899153  0.74883961  0.84947651  1
  S2-  S176  1  0.61165168  -0.09975505  0.35804558  1
  S2-  S177  1  0.51562593  -0.01854036  0.84715259  1
  S2-  S178  1  0.63273248  0.12194992  0.36065982  1
  S2-  S179  1  0.63441877  0.17335799  0.85489505  1
  S2-  S180  1  0.59825205  0.47263124  0.33877909  1
  S2-  S181  1  0.73980013  0.47944857  0.85009370  1
  S2-  S182  1  0.59219033  0.67918081  0.34404500  1
  S2-  S183  1  0.64256921  0.73451606  0.83623966  1
  S2-  S184  1  0.95657511  0.01215221  0.36607293  1
  S2-  S185  1  0.78075436  0.01559049  0.84993632  1
  S2-  S186  1  0.97902538  0.26201475  0.35997194  1
  S2-  S187  1  0.88422325  0.23484938  0.83839251  1
  S2-  S188  1  0.83443450  0.61288087  0.34489081  1
  S2-  S189  1  0.89407555  0.62748727  0.83783545  1
  S2-  S190  1  0.95177939  0.78525659  0.35698931  1
  S2-  S191  1  0.85628899  0.82481962  0.81167088  1
  S2-  S192  1  -0.02304824  0.14200967  0.46396735  1
  S2-  S193  1  0.01282852  0.13299295  0.96460304  1
  S2-  S194  1  -0.02227604  0.39370241  0.45683323  1
  S2-  S195  1  0.01277012  0.37985990  0.96218780  1
  S2-  S196  1  -0.02087466  0.63677318  0.45650562  1
  S2-  S197  1  0.01610464  0.62948145  0.95675011  1
  S2-  S198  1  -0.01991419  0.88762472  0.46263260  1
  S2-  S199  1  0.01245972  0.87920286  0.96120675  1
  S2-  S200  1  0.22485433  0.13659807  0.46272632  1
  S2-  S201  1  0.26106312  0.13388593  0.96463083  1
  S2-  S202  1  0.22649226  0.39440571  0.46502928  1
  S2-  S203  1  0.26606340  0.37779904  0.96184840  1
  S2-  S204  1  0.22632877  0.64009077  0.44766529  1
  S2-  S205  1  0.26507925  0.63622328  0.96735016  1
  S2-  S206  1  0.22443596  0.89016485  0.45280322  1
  S2-  S207  1  0.26289581  0.87715462  0.95862211  1
  S2-  S208  1  0.47829163  0.13540493  0.45875173  1
  S2-  S209  1  0.51343413  0.13500056  0.95649631  1
  S2-  S210  1  0.48000933  0.39361316  0.45220837  1
  S2-  S211  1  0.50965756  0.38280492  0.94842592  1
  S2-  S212  1  0.47688805  0.64286645  0.45486248  1
  S2-  S213  1  0.50842106  0.63011713  0.94971877  1
  S2-  S214  1  0.47550016  0.89158528  0.45696795  1
  S2-  S215  1  0.51309427  0.87833389  0.95411305  1
  S2-  S216  1  0.73707025  0.14333593  0.46061898  1
  S2-  S217  1  0.76697956  0.13405700  0.95526851  1
  S2-  S218  1  0.72927024  0.38976922  0.44659116  1
  S2-  S219  1  0.76531626  0.37956151  0.94962741  1
  S2-  S220  1  0.72808157  0.63984717  0.45563878  1
  S2-  S221  1  0.76480478  0.63336167  0.94353009  1
  S2-  S222  1  0.73768863  0.88944656  0.45070195  1
  S2-  S223  1  0.76800695  0.87589223  0.94106570  1
  S2-  S224  1  0.13410543  0.00378929  0.04548008  1
  S2-  S225  1  0.09934256  0.01946429  0.54427660  1
  S2-  S226  1  0.13467298  0.25779557  0.05078099  1
  S2-  S227  1  0.09714812  0.26747624  0.54725860  1
  S2-  S228  1  0.13998615  0.49852442  0.04588320  1
  S2-  S229  1  0.10476544  0.51639933  0.55488048  1
  S2-  S230  1  0.13954477  0.75845024  0.04882067  1
  S2-  S231  1  0.10493811  0.75815707  0.53808220  1
  S2-  S232  1  0.39167430  0.00612533  0.03779987  1
  S2-  S233  1  0.36096434  0.01897418  0.54649666  1
  S2-  S234  1  0.39050040  0.25453442  0.04968692  1
  S2-  S235  1  0.35919135  0.26623854  0.54542455  1
  S2-  S236  1  0.38525887  0.50840537  0.04746619  1
  S2-  S237  1  0.35286553  0.51478610  0.55427721  1
  S2-  S238  1  0.39488637  0.75911468  0.04979651  1
  S2-  S239  1  0.35155266  0.76767533  0.54629766  1
  S2-  S240  1  0.64262513  0.00769506  0.03238925  1
  S2-  S241  1  0.61023081  0.01215181  0.54593920  1
  S2-  S242  1  0.64008655  0.25760292  0.04705321  1
  S2-  S243  1  0.60009401  0.27006991  0.53431354  1
  S2-  S244  1  0.63966419  0.50638348  0.03868941  1
  S2-  S245  1  0.60490888  0.51855974  0.54238322  1
  S2-  S246  1  0.63805860  0.75377006  0.03848477  1
  S2-  S247  1  0.60914872  0.76583261  0.54307396  1
  S2-  S248  1  0.88835779  0.00654066  0.04717603  1
  S2-  S249  1  0.84952059  0.00813458  0.55247500  1
  S2-  S250  1  0.88132145  0.25727865  0.04489248  1
  S2-  S251  1  0.85644417  0.26805131  0.53844054  1
  S2-  S252  1  0.88766442  0.50623586  0.04362098  1
  S2-  S253  1  0.85101486  0.51959120  0.54102814  1
  S2-  S254  1  0.88774344  0.75540426  0.03794078  1
  S2-  S255  1  0.85510700  0.76211113  0.54442088  1
