# generated using pymatgen
data_La12Ce14Pr13Nd13Sm12(BiS2)64
_symmetry_space_group_name_H-M   'P 1'
_cell_length_a   16.13014812
_cell_length_b   16.05334245
_cell_length_c   27.15888791
_cell_angle_alpha   89.51539331
_cell_angle_beta   90.27833833
_cell_angle_gamma   90.21830885
_symmetry_Int_Tables_number   1
_chemical_formula_structural   La12Ce14Pr13Nd13Sm12(BiS2)64
_chemical_formula_sum   'La12 Ce14 Pr13 Nd13 Sm12 Bi64 S128'
_cell_volume   7032.21377395
_cell_formula_units_Z   1
loop_
 _symmetry_equiv_pos_site_id
 _symmetry_equiv_pos_as_xyz
  1  'x, y, z'
loop_
 _atom_type_symbol
 _atom_type_oxidation_number
  La3+  3.0
  Ce3+  3.0
  Pr3+  3.0
  Nd3+  3.0
  Sm3+  3.0
  Bi2+  2.0
  S2-  -2.0
loop_
 _atom_site_type_symbol
 _atom_site_label
 _atom_site_symmetry_multiplicity
 _atom_site_fract_x
 _atom_site_fract_y
 _atom_site_fract_z
 _atom_site_occupancy
  La3+  La0  1  0.50218364  0.12863089  0.59908803  1
  La3+  La1  1  0.01207238  0.36831219  0.08500979  1
  La3+  La2  1  0.61413993  0.76146680  0.42867682  1
  La3+  La3  1  0.11707287  0.76097314  0.43593409  1
  La3+  La4  1  0.87236272  0.75551595  0.39399683  1
  La3+  La5  1  0.51959405  0.12279678  0.05859098  1
  La3+  La6  1  0.27352083  0.12023321  0.06256734  1
  La3+  La7  1  0.39801502  -0.00591043  0.91035089  1
  La3+  La8  1  -0.00723175  0.37946047  0.56670536  1
  La3+  La9  1  0.39304455  0.25503936  0.91898102  1
  La3+  La10  1  0.90349294  0.74265987  0.90774517  1
  La3+  La11  1  -0.01402359  0.87124749  0.58953567  1
  Ce3+  Ce12  1  0.77220605  0.87107895  0.04934776  1
  Ce3+  Ce13  1  0.14121724  0.75014419  0.94528195  1
  Ce3+  Ce14  1  0.14097311  0.49929439  0.95700923  1
  Ce3+  Ce15  1  0.24378908  0.13879204  0.57825346  1
  Ce3+  Ce16  1  0.76958152  0.37746731  0.05899490  1
  Ce3+  Ce17  1  0.26866079  0.61825735  0.07705569  1
  Ce3+  Ce18  1  0.11541818  0.00276624  0.45682653  1
  Ce3+  Ce19  1  0.26845785  0.87989393  0.04930567  1
  Ce3+  Ce20  1  0.51749526  0.62601683  0.05871019  1
  Ce3+  Ce21  1  0.86575521  0.50617888  0.43812148  1
  Ce3+  Ce22  1  0.38984388  0.74904117  0.94024233  1
  Ce3+  Ce23  1  0.73816317  0.37532412  0.54667954  1
  Ce3+  Ce24  1  0.49336491  0.62518742  0.56710793  1
  Ce3+  Ce25  1  0.77180688  0.62724755  0.05867867  1
  Pr3+  Pr26  1  0.02153975  0.12491410  0.06145802  1
  Pr3+  Pr27  1  0.13774389  0.01078063  0.91674534  1
  Pr3+  Pr28  1  0.89238545  0.00420770  0.93577669  1
  Pr3+  Pr29  1  0.76432821  0.12010053  0.06729009  1
  Pr3+  Pr30  1  0.11135296  0.50822371  0.43022127  1
  Pr3+  Pr31  1  0.27352163  0.36835312  0.07484266  1
  Pr3+  Pr32  1  0.02190965  0.63387013  0.08953616  1
  Pr3+  Pr33  1  0.13478634  0.26383055  0.93074090  1
  Pr3+  Pr34  1  0.74341857  0.13102304  0.56555002  1
  Pr3+  Pr35  1  0.36472080  0.25355565  0.43362093  1
  Pr3+  Pr36  1  -0.01072388  0.62660365  0.56693167  1
  Pr3+  Pr37  1  0.36790465  0.50876856  0.43082364  1
  Pr3+  Pr38  1  0.49489002  0.87803236  0.56892875  1
  Nd3+  Nd39  1  0.61118654  0.24648767  0.42792955  1
  Nd3+  Nd40  1  0.36410839  0.75905623  0.44167179  1
  Nd3+  Nd41  1  0.51855548  0.37202717  0.06149963  1
  Nd3+  Nd42  1  0.02079740  0.87743499  0.06053950  1
  Nd3+  Nd43  1  0.11869234  0.25204920  0.43185423  1
  Nd3+  Nd44  1  0.86848060  -0.00044750  0.44163030  1
  Nd3+  Nd45  1  0.74396389  0.87676169  0.56028513  1
  Nd3+  Nd46  1  0.64241443  0.25305456  0.93219123  1
  Nd3+  Nd47  1  -0.00671678  0.13243689  0.56474983  1
  Nd3+  Nd48  1  0.49208659  0.38028472  0.56042851  1
  Nd3+  Nd49  1  0.24420338  0.38165104  0.55721193  1
  Nd3+  Nd50  1  0.87238636  0.25315993  0.42997316  1
  Nd3+  Nd51  1  0.61536065  0.50877403  0.43520779  1
  Sm3+  Sm52  1  0.39005948  0.50086232  0.94283838  1
  Sm3+  Sm53  1  0.64492568  0.00074113  0.93278426  1
  Sm3+  Sm54  1  0.36721045  0.00955521  0.45553689  1
  Sm3+  Sm55  1  0.24205670  0.88227731  0.57110016  1
  Sm3+  Sm56  1  0.64323263  0.50342773  0.94542689  1
  Sm3+  Sm57  1  0.61520626  0.00665108  0.44002250  1
  Sm3+  Sm58  1  0.74363055  0.63188677  0.55469131  1
  Sm3+  Sm59  1  0.51608927  0.87356936  0.05276683  1
  Sm3+  Sm60  1  0.89713982  0.50389866  0.94700842  1
  Sm3+  Sm61  1  0.64398958  0.74940520  0.94110665  1
  Sm3+  Sm62  1  0.24064954  0.63084889  0.55761850  1
  Sm3+  Sm63  1  0.89026695  0.25502012  0.94364649  1
  Bi2+  Bi64  1  0.02108193  0.10202163  0.29563566  1
  Bi2+  Bi65  1  -0.05427324  0.14449008  0.79698578  1
  Bi2+  Bi66  1  -0.07814982  0.35986056  0.28763630  1
  Bi2+  Bi67  1  -0.10096172  0.41880667  0.81019799  1
  Bi2+  Bi68  1  0.00501310  0.61535511  0.28555745  1
  Bi2+  Bi69  1  0.02965620  0.62041542  0.78928091  1
  Bi2+  Bi70  1  0.00126535  0.90042965  0.28946772  1
  Bi2+  Bi71  1  0.04031946  0.88441164  0.78620710  1
  Bi2+  Bi72  1  0.20144658  0.08978179  0.25137698  1
  Bi2+  Bi73  1  0.21981303  0.10110743  0.77626532  1
  Bi2+  Bi74  1  0.29702030  0.32528935  0.28328845  1
  Bi2+  Bi75  1  0.23325184  0.35652061  0.80110290  1
  Bi2+  Bi76  1  0.27718881  0.64171785  0.30357406  1
  Bi2+  Bi77  1  0.22176471  0.56827296  0.81015906  1
  Bi2+  Bi78  1  0.26316516  0.92012860  0.29915573  1
  Bi2+  Bi79  1  0.28351673  0.75462821  0.79233913  1
  Bi2+  Bi80  1  0.49898512  0.09568741  0.29972432  1
  Bi2+  Bi81  1  0.48575592  0.12375708  0.78652364  1
  Bi2+  Bi82  1  0.53143002  0.37140906  0.29627942  1
  Bi2+  Bi83  1  0.51746534  0.41384747  0.80066322  1
  Bi2+  Bi84  1  0.46750782  0.65459651  0.34362424  1
  Bi2+  Bi85  1  0.42307297  0.60537651  0.81364910  1
  Bi2+  Bi86  1  0.47005437  0.83221747  0.29054622  1
  Bi2+  Bi87  1  0.53044707  0.86385453  0.78203229  1
  Bi2+  Bi88  1  0.79029871  0.10644549  0.30038564  1
  Bi2+  Bi89  1  0.75516978  0.08982668  0.81423986  1
  Bi2+  Bi90  1  0.73801134  0.29687316  0.29149378  1
  Bi2+  Bi91  1  0.74409728  0.28964950  0.81264715  1
  Bi2+  Bi92  1  0.63222572  0.61694647  0.28158001  1
  Bi2+  Bi93  1  0.68139407  0.63450215  0.78161822  1
  Bi2+  Bi94  1  0.71375664  0.87928701  0.29103953  1
  Bi2+  Bi95  1  0.73500708  0.90200147  0.78768867  1
  Bi2+  Bi96  1  0.03668602  0.01190797  0.18673978  1
  Bi2+  Bi97  1  0.02114566  0.09031279  0.69625407  1
  Bi2+  Bi98  1  0.12823044  0.26278706  0.21854326  1
  Bi2+  Bi99  1  0.11908126  0.28587376  0.71748185  1
  Bi2+  Bi100  1  0.18871306  0.51219725  0.22147558  1
  Bi2+  Bi101  1  0.08447423  0.47580938  0.71872880  1
  Bi2+  Bi102  1  0.14571368  0.84712783  0.20848545  1
  Bi2+  Bi103  1  0.15546635  0.69656791  0.70891988  1
  Bi2+  Bi104  1  0.39194251  -0.05276690  0.18916798  1
  Bi2+  Bi105  1  0.34246189  -0.03995161  0.70308624  1
  Bi2+  Bi106  1  0.37434877  0.20271796  0.21109508  1
  Bi2+  Bi107  1  0.37511479  0.28682077  0.71283669  1
  Bi2+  Bi108  1  0.41842712  0.56510666  0.22239012  1
  Bi2+  Bi109  1  0.35281453  0.52034196  0.71369570  1
  Bi2+  Bi110  1  0.32573366  0.75850013  0.21220157  1
  Bi2+  Bi111  1  0.42841200  0.71140966  0.71305041  1
  Bi2+  Bi112  1  0.64187811  0.04260887  0.22924858  1
  Bi2+  Bi113  1  0.65028255  -0.11899942  0.68592387  1
  Bi2+  Bi114  1  0.60062428  0.27550096  0.19753079  1
  Bi2+  Bi115  1  0.64128353  0.27087890  0.71119141  1
  Bi2+  Bi116  1  0.58960680  0.47058948  0.20003135  1
  Bi2+  Bi117  1  0.60874030  0.49307828  0.70911205  1
  Bi2+  Bi118  1  0.59881246  0.77488892  0.21170742  1
  Bi2+  Bi119  1  0.61289301  0.68985200  0.67527643  1
  Bi2+  Bi120  1  0.83491429  0.02752939  0.19137960  1
  Bi2+  Bi121  1  0.82192250  0.10495428  0.69796671  1
  Bi2+  Bi122  1  0.86429336  0.22417899  0.20870651  1
  Bi2+  Bi123  1  0.85809309  0.30022215  0.71388910  1
  Bi2+  Bi124  1  0.80887121  0.49789984  0.21058626  1
  Bi2+  Bi125  1  0.80621890  0.51491807  0.72512639  1
  Bi2+  Bi126  1  0.85878518  0.74194736  0.19054933  1
  Bi2+  Bi127  1  0.87511968  0.75387779  0.70966092  1
  S2-  S128  1  0.01187855  0.21774853  0.14766586  1
  S2-  S129  1  0.00335849  0.25002837  0.64125804  1
  S2-  S130  1  0.08323197  0.41137437  0.17753836  1
  S2-  S131  1  -0.01247951  0.49733366  0.64174251  1
  S2-  S132  1  -0.05766787  0.58566957  0.18153581  1
  S2-  S133  1  0.00547802  0.72442885  0.65309177  1
  S2-  S134  1  0.01087378  0.79009952  0.14907216  1
  S2-  S135  1  0.03077291  0.92606118  0.68839830  1
  S2-  S136  1  0.24555043  0.23521811  0.14312290  1
  S2-  S137  1  0.22165238  0.05770207  0.66834543  1
  S2-  S138  1  0.30508551  0.48920170  0.15238641  1
  S2-  S139  1  0.24660114  0.28674099  0.64373272  1
  S2-  S140  1  0.16206084  0.63379413  0.15575997  1
  S2-  S141  1  0.22666268  0.56589648  0.65001719  1
  S2-  S142  1  0.24546831  0.96193874  0.13396279  1
  S2-  S143  1  0.25641529  0.83249910  0.66574829  1
  S2-  S144  1  0.40923563  0.09539072  0.13674287  1
  S2-  S145  1  0.41063541  0.13245835  0.69074819  1
  S2-  S146  1  0.45187387  0.32503901  0.14989889  1
  S2-  S147  1  0.50558043  0.29007451  0.64758916  1
  S2-  S148  1  0.49773550  0.66375035  0.15395063  1
  S2-  S149  1  0.47700941  0.50228620  0.63820756  1
  S2-  S150  1  0.54062654  0.90061091  0.14968138  1
  S2-  S151  1  0.50156609  0.96222521  0.65699237  1
  S2-  S152  1  0.63860885  0.12995632  0.13948433  1
  S2-  S153  1  0.65787678  0.13009859  0.65483305  1
  S2-  S154  1  0.84784456  0.37576945  0.14741180  1
  S2-  S155  1  0.74567347  0.36584511  0.64470896  1
  S2-  S156  1  0.73762873  0.62932808  0.15536614  1
  S2-  S157  1  0.79963576  0.63207952  0.65068532  1
  S2-  S158  1  0.77729590  0.88262252  0.14749030  1
  S2-  S159  1  0.83013286  0.87434275  0.65050342  1
  S2-  S160  1  0.10953144  -0.01340708  0.35861249  1
  S2-  S161  1  0.17722682  -0.05335501  0.81980170  1
  S2-  S162  1  0.23990587  0.23735358  0.35806503  1
  S2-  S163  1  0.14334231  0.15309930  0.85139416  1
  S2-  S164  1  0.14400803  0.52175035  0.32937783  1
  S2-  S165  1  0.13393315  0.41940777  0.86913436  1
  S2-  S166  1  0.03127577  0.75041609  0.34611452  1
  S2-  S167  1  0.06478801  0.74943003  0.85646035  1
  S2-  S168  1  0.37426238  0.00953061  0.35488392  1
  S2-  S169  1  0.36462775  0.01797737  0.80603756  1
  S2-  S170  1  0.47994539  0.23718848  0.35463114  1
  S2-  S171  1  0.34260809  0.21495212  0.81512655  1
  S2-  S172  1  0.38340395  0.43612301  0.33842985  1
  S2-  S173  1  0.37743888  0.40863966  0.85974800  1
  S2-  S174  1  0.25057015  0.77709252  0.36321605  1
  S2-  S175  1  0.40421106  0.82862967  0.85258410  1
  S2-  S176  1  0.59536910  -0.09926797  0.35765204  1
  S2-  S177  1  0.55318625  0.00206876  0.84800062  1
  S2-  S178  1  0.63881930  0.11316103  0.35943993  1
  S2-  S179  1  0.54080598  0.25489097  0.84980811  1
  S2-  S180  1  0.65529870  0.47915597  0.33915489  1
  S2-  S181  1  0.64513981  0.49650420  0.84704863  1
  S2-  S182  1  0.71404226  0.73339914  0.34617319  1
  S2-  S183  1  0.63896636  0.76568961  0.84239860  1
  S2-  S184  1  0.86304251  -0.08107378  0.35078503  1
  S2-  S185  1  0.98482789  -0.00103268  0.85091226  1
  S2-  S186  1  0.99644146  0.25243344  0.35589932  1
  S2-  S187  1  0.97299081  0.28062816  0.85879381  1
  S2-  S188  1  0.90875525  0.51090239  0.34276409  1
  S2-  S189  1  0.90002890  0.58412997  0.85732137  1
  S2-  S190  1  0.87345613  0.70764859  0.28439043  1
  S2-  S191  1  0.87130567  0.81286417  0.81195767  1
  S2-  S192  1  -0.00845530  0.12751652  0.45883334  1
  S2-  S193  1  0.01148716  0.13213085  0.95572667  1
  S2-  S194  1  -0.00838298  0.38113558  0.45487214  1
  S2-  S195  1  0.00876867  0.37896697  0.97148750  1
  S2-  S196  1  -0.01226700  0.63196144  0.45297052  1
  S2-  S197  1  0.01947278  0.62537751  0.96351219  1
  S2-  S198  1  -0.01061212  0.87782728  0.45977722  1
  S2-  S199  1  0.01288230  0.87322867  0.95449075  1
  S2-  S200  1  0.24070561  0.12677566  0.46639563  1
  S2-  S201  1  0.27554035  0.12488219  0.94554799  1
  S2-  S202  1  0.23964270  0.38535862  0.45058787  1
  S2-  S203  1  0.26925416  0.37827159  0.96513185  1
  S2-  S204  1  0.24099858  0.62852897  0.45355804  1
  S2-  S205  1  0.26729919  0.62423812  0.95872483  1
  S2-  S206  1  0.24528510  0.88438865  0.46692648  1
  S2-  S207  1  0.26407296  0.87636070  0.94399290  1
  S2-  S208  1  0.49193372  0.12584295  0.46013104  1
  S2-  S209  1  0.52320636  0.12391501  0.94948354  1
  S2-  S210  1  0.49435584  0.38244213  0.45244268  1
  S2-  S211  1  0.52088054  0.38159281  0.95534526  1
  S2-  S212  1  0.49203722  0.63235695  0.46016424  1
  S2-  S213  1  0.51838430  0.62576756  0.95104193  1
  S2-  S214  1  0.48636059  0.88232650  0.46194050  1
  S2-  S215  1  0.52428921  0.87209809  0.95000328  1
  S2-  S216  1  0.74897253  0.13053857  0.45746874  1
  S2-  S217  1  0.76562518  0.12795335  0.95509092  1
  S2-  S218  1  0.74194436  0.37391358  0.44151456  1
  S2-  S219  1  0.76852659  0.38155783  0.95227209  1
  S2-  S220  1  0.74428964  0.63097074  0.44989913  1
  S2-  S221  1  0.76837663  0.62787970  0.95155617  1
  S2-  S222  1  0.74242207  0.88083885  0.45565768  1
  S2-  S223  1  0.77019812  0.87230088  0.94184655  1
  S2-  S224  1  0.13972193  0.00179554  0.03156662  1
  S2-  S225  1  0.11406161  0.00154029  0.56141985  1
  S2-  S226  1  0.14277159  0.24961200  0.04016950  1
  S2-  S227  1  0.11982774  0.25588162  0.53878193  1
  S2-  S228  1  0.14100628  0.49613452  0.05943687  1
  S2-  S229  1  0.11998723  0.50570550  0.53908631  1
  S2-  S230  1  0.14721081  0.75269722  0.04945933  1
  S2-  S231  1  0.12180415  0.75627272  0.54903266  1
  S2-  S232  1  0.39738791  -0.00670910  0.02788613  1
  S2-  S233  1  0.36710571  0.00772616  0.56042187  1
  S2-  S234  1  0.39718483  0.24951705  0.03492642  1
  S2-  S235  1  0.36993864  0.25562069  0.54307647  1
  S2-  S236  1  0.39783823  0.49974190  0.04615686  1
  S2-  S237  1  0.36349538  0.50740226  0.53856693  1
  S2-  S238  1  0.39021844  0.75012300  0.04758815  1
  S2-  S239  1  0.36665719  0.75328270  0.55207611  1
  S2-  S240  1  0.64480966  -0.00700802  0.03752536  1
  S2-  S241  1  0.61937975  0.00439786  0.54660341  1
  S2-  S242  1  0.64657002  0.25447774  0.03937778  1
  S2-  S243  1  0.61550555  0.25130672  0.53864913  1
  S2-  S244  1  0.64312652  0.50106241  0.05074451  1
  S2-  S245  1  0.62058806  0.50649517  0.54275679  1
  S2-  S246  1  0.64218735  0.75073735  0.04623007  1
  S2-  S247  1  0.61776201  0.75385194  0.54292882  1
  S2-  S248  1  0.89321923  0.00115159  0.04438205  1
  S2-  S249  1  0.87008218  0.00655718  0.55017820  1
  S2-  S250  1  0.88537822  0.24483835  0.04705021  1
  S2-  S251  1  0.86680442  0.25405062  0.53918379  1
  S2-  S252  1  0.89537808  0.50573045  0.05154738  1
  S2-  S253  1  0.86046449  0.50279105  0.54240169  1
  S2-  S254  1  0.89568161  0.74866823  0.04584461  1
  S2-  S255  1  0.86625821  0.75230085  0.54777133  1
