# generated using pymatgen
data_La12Ce14Pr13Nd13Sm12(BiS2)64
_symmetry_space_group_name_H-M   'P 1'
_cell_length_a   16.04416704
_cell_length_b   16.08952906
_cell_length_c   27.44957611
_cell_angle_alpha   89.72486127
_cell_angle_beta   89.71036532
_cell_angle_gamma   89.85811740
_symmetry_Int_Tables_number   1
_chemical_formula_structural   La12Ce14Pr13Nd13Sm12(BiS2)64
_chemical_formula_sum   'La12 Ce14 Pr13 Nd13 Sm12 Bi64 S128'
_cell_volume   7085.72491151
_cell_formula_units_Z   1
loop_
 _symmetry_equiv_pos_site_id
 _symmetry_equiv_pos_as_xyz
  1  'x, y, z'
loop_
 _atom_type_symbol
 _atom_type_oxidation_number
  La3+  3.0
  Ce3+  3.0
  Pr3+  3.0
  Nd3+  3.0
  Sm3+  3.0
  Bi2+  2.0
  S2-  -2.0
loop_
 _atom_site_type_symbol
 _atom_site_label
 _atom_site_symmetry_multiplicity
 _atom_site_fract_x
 _atom_site_fract_y
 _atom_site_fract_z
 _atom_site_occupancy
  La3+  La0  1  0.88646036  0.25637762  0.90197723  1
  La3+  La1  1  0.01649435  0.38074828  0.06601049  1
  La3+  La2  1  0.14537710  0.25224455  0.42062275  1
  La3+  La3  1  0.01086608  0.62013412  0.57455888  1
  La3+  La4  1  0.75481761  0.36277016  0.60103998  1
  La3+  La5  1  0.01248022  0.13498607  0.10409153  1
  La3+  La6  1  0.76032986  0.14127352  0.07702470  1
  La3+  La7  1  0.89177003  -0.01030797  0.39813412  1
  La3+  La8  1  0.26924502  0.63719707  0.06784011  1
  La3+  La9  1  0.64554270  0.51622642  0.92704933  1
  La3+  La10  1  0.64715361  0.02522227  0.93050726  1
  La3+  La11  1  0.76870231  0.38563009  0.06149564  1
  Ce3+  Ce12  1  0.51421059  0.63493683  0.06153249  1
  Ce3+  Ce13  1  0.64230726  0.49688129  0.44599217  1
  Ce3+  Ce14  1  0.77204439  0.63540178  0.05551137  1
  Ce3+  Ce15  1  0.39149850  0.76650292  0.94469713  1
  Ce3+  Ce16  1  0.38756626  0.74562456  0.44727433  1
  Ce3+  Ce17  1  0.13680536  0.76496365  0.94370127  1
  Ce3+  Ce18  1  0.38789348  0.51686654  0.93836340  1
  Ce3+  Ce19  1  0.13933310  0.74707041  0.44145529  1
  Ce3+  Ce20  1  0.26740542  0.88752593  0.06728882  1
  Ce3+  Ce21  1  0.64252599  0.26455354  0.94016781  1
  Ce3+  Ce22  1  0.13547464  0.51356606  0.93943195  1
  Ce3+  Ce23  1  0.51788797  0.61826437  0.56908604  1
  Ce3+  Ce24  1  0.38749044  0.24689003  0.44418177  1
  Ce3+  Ce25  1  0.64141655  -0.00407058  0.43798321  1
  Pr3+  Pr26  1  0.38614523  0.26090420  0.92732212  1
  Pr3+  Pr27  1  0.13997721  0.49236841  0.44568346  1
  Pr3+  Pr28  1  0.26647279  0.13818217  0.07124160  1
  Pr3+  Pr29  1  0.01272053  0.35940792  0.57191608  1
  Pr3+  Pr30  1  0.26627993  0.38198567  0.05633439  1
  Pr3+  Pr31  1  0.01044625  0.12710622  0.54151201  1
  Pr3+  Pr32  1  0.52876431  0.89087573  0.06919504  1
  Pr3+  Pr33  1  0.88636363  0.25815580  0.40846842  1
  Pr3+  Pr34  1  0.26450484  0.62140034  0.57626161  1
  Pr3+  Pr35  1  0.89722517  0.76382300  0.93253674  1
  Pr3+  Pr36  1  0.77387350  0.88580634  0.06447426  1
  Pr3+  Pr37  1  0.01425675  0.63214201  0.07684698  1
  Pr3+  Pr38  1  0.13662174  0.01823340  0.95118684  1
  Nd3+  Nd39  1  0.76782208  0.87120780  0.55471635  1
  Nd3+  Nd40  1  0.89823913  0.74145780  0.43056764  1
  Nd3+  Nd41  1  0.76585731  0.12608731  0.54800221  1
  Nd3+  Nd42  1  0.64320572  0.74561713  0.44064413  1
  Nd3+  Nd43  1  0.13602703  0.26226326  0.93653969  1
  Nd3+  Nd44  1  0.51673000  0.12259453  0.55526980  1
  Nd3+  Nd45  1  0.01242328  0.87367418  0.55114421  1
  Nd3+  Nd46  1  0.26198404  0.87642693  0.56448202  1
  Nd3+  Nd47  1  0.02178116  0.88684830  0.08337233  1
  Nd3+  Nd48  1  0.25874073  0.36379660  0.57463090  1
  Nd3+  Nd49  1  0.64247598  0.24689665  0.43103489  1
  Nd3+  Nd50  1  0.25942121  0.11914932  0.56173327  1
  Nd3+  Nd51  1  0.64262572  0.76776051  0.94242441  1
  Sm3+  Sm52  1  0.89334679  0.01986617  0.95420525  1
  Sm3+  Sm53  1  0.14701582  0.00287131  0.41781980  1
  Sm3+  Sm54  1  0.38993950  0.49804653  0.44965822  1
  Sm3+  Sm55  1  0.39026006  0.01314034  0.94989546  1
  Sm3+  Sm56  1  0.88964391  0.49064075  0.45105865  1
  Sm3+  Sm57  1  0.89777484  0.51589523  0.92948314  1
  Sm3+  Sm58  1  0.51680373  0.13826179  0.05935565  1
  Sm3+  Sm59  1  0.51540079  0.37088635  0.55334261  1
  Sm3+  Sm60  1  0.51630251  0.87140134  0.55429908  1
  Sm3+  Sm61  1  0.51447389  0.38687273  0.04512822  1
  Sm3+  Sm62  1  0.76267250  0.61957744  0.56938919  1
  Sm3+  Sm63  1  0.38908893  -0.00481115  0.44065488  1
  Bi2+  Bi64  1  0.05123366  0.08619977  0.26847090  1
  Bi2+  Bi65  1  0.00593697  0.10901472  0.80119920  1
  Bi2+  Bi66  1  0.00891861  0.37699978  0.29210494  1
  Bi2+  Bi67  1  -0.02191198  0.39231565  0.79356783  1
  Bi2+  Bi68  1  -0.01094072  0.60397922  0.28631529  1
  Bi2+  Bi69  1  -0.00381511  0.65532838  0.79736192  1
  Bi2+  Bi70  1  -0.00805134  0.82714869  0.28882942  1
  Bi2+  Bi71  1  -0.02321180  0.89594863  0.79109901  1
  Bi2+  Bi72  1  0.28905813  0.12947218  0.28988518  1
  Bi2+  Bi73  1  0.25456344  0.11464482  0.78924941  1
  Bi2+  Bi74  1  0.28642241  0.39764435  0.29978084  1
  Bi2+  Bi75  1  0.23805606  0.36745392  0.78611094  1
  Bi2+  Bi76  1  0.23160752  0.64094033  0.26870276  1
  Bi2+  Bi77  1  0.19581057  0.64480127  0.81037763  1
  Bi2+  Bi78  1  0.21509502  0.82824533  0.30099642  1
  Bi2+  Bi79  1  0.24164695  0.83982108  0.79279305  1
  Bi2+  Bi80  1  0.49144922  0.13652820  0.28514719  1
  Bi2+  Bi81  1  0.45060483  0.15509039  0.80244150  1
  Bi2+  Bi82  1  0.49126064  0.33337176  0.28187997  1
  Bi2+  Bi83  1  0.44219976  0.34979569  0.79666294  1
  Bi2+  Bi84  1  0.50293271  0.59269367  0.30238897  1
  Bi2+  Bi85  1  0.38576182  0.63492137  0.77915198  1
  Bi2+  Bi86  1  0.40571980  0.88556939  0.29194646  1
  Bi2+  Bi87  1  0.48906073  0.89478755  0.79454230  1
  Bi2+  Bi88  1  0.68825533  0.12518539  0.28721195  1
  Bi2+  Bi89  1  0.69725339  0.08302985  0.77231379  1
  Bi2+  Bi90  1  0.74287461  0.41400257  0.29463954  1
  Bi2+  Bi91  1  0.70774188  0.35425440  0.79948414  1
  Bi2+  Bi92  1  0.79014083  0.60912257  0.30104457  1
  Bi2+  Bi93  1  0.72595239  0.61448158  0.78890992  1
  Bi2+  Bi94  1  0.70095334  0.87387663  0.29804664  1
  Bi2+  Bi95  1  0.78130574  0.87389451  0.79388272  1
  Bi2+  Bi96  1  0.27525491  -0.05009558  0.21237943  1
  Bi2+  Bi97  1  0.15456689  -0.01481221  0.72468025  1
  Bi2+  Bi98  1  0.14522288  0.26003838  0.21912420  1
  Bi2+  Bi99  1  0.13109124  0.25604457  0.70720913  1
  Bi2+  Bi100  1  0.13067567  0.50495267  0.21523168  1
  Bi2+  Bi101  1  0.15848177  0.51626487  0.72415197  1
  Bi2+  Bi102  1  0.08262240  0.74333665  0.20517660  1
  Bi2+  Bi103  1  0.11737608  0.78546631  0.70573221  1
  Bi2+  Bi104  1  0.39086031  0.10796159  0.18168119  1
  Bi2+  Bi105  1  0.36459835  -0.05866532  0.70863153  1
  Bi2+  Bi106  1  0.35860229  0.30321332  0.19273939  1
  Bi2+  Bi107  1  0.39293402  0.23828927  0.70516327  1
  Bi2+  Bi108  1  0.45983933  0.49621779  0.20926375  1
  Bi2+  Bi109  1  0.34884490  0.45395928  0.70274196  1
  Bi2+  Bi110  1  0.36273142  0.74672485  0.21103881  1
  Bi2+  Bi111  1  0.31350458  0.75209003  0.69384945  1
  Bi2+  Bi112  1  0.55802980  -0.01271200  0.19737448  1
  Bi2+  Bi113  1  0.62561366  -0.05288107  0.70071058  1
  Bi2+  Bi114  1  0.61957425  0.26623785  0.20436234  1
  Bi2+  Bi115  1  0.60785743  0.21357489  0.70193504  1
  Bi2+  Bi116  1  0.66431059  0.52004804  0.20493309  1
  Bi2+  Bi117  1  0.53404971  0.51741117  0.69520209  1
  Bi2+  Bi118  1  0.62973193  0.70233487  0.23861168  1
  Bi2+  Bi119  1  0.61349800  0.76271712  0.75044503  1
  Bi2+  Bi120  1  0.85562274  -0.02424678  0.20726328  1
  Bi2+  Bi121  1  0.87071033  0.02227436  0.72809883  1
  Bi2+  Bi122  1  0.87641500  0.25138492  0.22137429  1
  Bi2+  Bi123  1  0.88801995  0.23236695  0.69944964  1
  Bi2+  Bi124  1  0.86471371  0.49736445  0.20439633  1
  Bi2+  Bi125  1  0.85264449  0.51362026  0.71853788  1
  Bi2+  Bi126  1  0.84347365  0.73515589  0.22034072  1
  Bi2+  Bi127  1  0.86780203  0.77641787  0.70698562  1
  S2-  S128  1  0.00927550  0.00199947  0.17718150  1
  S2-  S129  1  0.02306838  0.18923611  0.63728545  1
  S2-  S130  1  0.00469933  0.28378422  0.16041575  1
  S2-  S131  1  -0.09133938  0.38696344  0.65462796  1
  S2-  S132  1  0.00595001  0.49155673  0.14572969  1
  S2-  S133  1  -0.12161954  0.63732919  0.64393515  1
  S2-  S134  1  -0.11614746  0.85293514  0.14500114  1
  S2-  S135  1  -0.00575002  0.85445781  0.64990852  1
  S2-  S136  1  0.17042288  0.14145827  0.15754407  1
  S2-  S137  1  0.26153768  0.22467544  0.64190881  1
  S2-  S138  1  0.22452262  0.38964852  0.15403509  1
  S2-  S139  1  0.13225792  0.38623430  0.64908465  1
  S2-  S140  1  0.15351638  0.63350570  0.14346779  1
  S2-  S141  1  0.13400480  0.62657500  0.64887784  1
  S2-  S142  1  0.16920019  0.87028864  0.14773816  1
  S2-  S143  1  0.24787715  0.99651587  0.63747928  1
  S2-  S144  1  0.61282492  0.13014105  0.14166010  1
  S2-  S145  1  0.50236955  0.11542680  0.65409467  1
  S2-  S146  1  0.51001000  0.36734190  0.14212158  1
  S2-  S147  1  0.56329732  0.36084636  0.64626019  1
  S2-  S148  1  0.40682426  0.62215629  0.14023936  1
  S2-  S149  1  0.40409563  0.61774422  0.64523330  1
  S2-  S150  1  0.44545603  0.86578409  0.15751834  1
  S2-  S151  1  0.50076398  0.86642762  0.65119663  1
  S2-  S152  1  0.85031161  0.12194711  0.16494305  1
  S2-  S153  1  0.75046117  0.19499826  0.63998315  1
  S2-  S154  1  0.75841299  0.31136933  0.15378129  1
  S2-  S155  1  0.72958280  0.41240124  0.70532262  1
  S2-  S156  1  0.85897800  0.63461353  0.13996341  1
  S2-  S157  1  0.63602833  0.61466843  0.64365753  1
  S2-  S158  1  0.66580140  0.90600404  0.14607651  1
  S2-  S159  1  0.74767869  0.85331112  0.65256039  1
  S2-  S160  1  0.03804696  -0.02806271  0.33897905  1
  S2-  S161  1  0.14024342  0.03695485  0.85028386  1
  S2-  S162  1  0.14510277  0.13238028  0.34478842  1
  S2-  S163  1  0.03939949  0.27369129  0.84950626  1
  S2-  S164  1  0.13994869  0.40200808  0.35803696  1
  S2-  S165  1  0.03811129  0.51445447  0.85765829  1
  S2-  S166  1  0.03749679  0.71053223  0.36464050  1
  S2-  S167  1  0.03386880  0.78760455  0.86420870  1
  S2-  S168  1  0.30436369  -0.00706348  0.35601832  1
  S2-  S169  1  0.39604093  0.01367887  0.85216625  1
  S2-  S170  1  0.30541389  0.25901711  0.35981797  1
  S2-  S171  1  0.25578750  0.24395181  0.85947098  1
  S2-  S172  1  0.36566791  0.51113117  0.35251213  1
  S2-  S173  1  0.37813062  0.50086809  0.84232727  1
  S2-  S174  1  0.35634155  0.75310642  0.35260655  1
  S2-  S175  1  0.39564669  0.77304701  0.84741974  1
  S2-  S176  1  0.60469137  -0.01406385  0.34249514  1
  S2-  S177  1  0.64048259  -0.04466618  0.84010396  1
  S2-  S178  1  0.73523695  0.25612570  0.34631070  1
  S2-  S179  1  0.66465631  0.20060368  0.85243434  1
  S2-  S180  1  0.61682336  0.49271512  0.34908169  1
  S2-  S181  1  0.62019197  0.49229291  0.82804394  1
  S2-  S182  1  0.61591133  0.75242189  0.34256910  1
  S2-  S183  1  0.63005003  0.70833156  0.84915413  1
  S2-  S184  1  0.81960094  0.03189539  0.30637854  1
  S2-  S185  1  0.88136599  0.08237059  0.86157472  1
  S2-  S186  1  0.95241530  0.21217411  0.31408561  1
  S2-  S187  1  0.85742959  0.26350141  0.79190112  1
  S2-  S188  1  0.89716667  0.41972237  0.35899390  1
  S2-  S189  1  0.83969626  0.42649063  0.85077251  1
  S2-  S190  1  0.85031598  0.83224854  0.34858490  1
  S2-  S191  1  0.86430618  0.64814107  0.85420702  1
  S2-  S192  1  0.00681805  0.12197823  0.43804958  1
  S2-  S193  1  0.01229441  0.14289891  0.95563446  1
  S2-  S194  1  0.01271919  0.36786676  0.46001084  1
  S2-  S195  1  0.01133185  0.38546469  0.95656230  1
  S2-  S196  1  0.01371694  0.61362637  0.46564230  1
  S2-  S197  1  0.01816451  0.63835216  0.96201556  1
  S2-  S198  1  0.01601114  0.87622259  0.44780803  1
  S2-  S199  1  0.01375588  0.89423720  0.96712099  1
  S2-  S200  1  0.26663075  0.11878684  0.45653505  1
  S2-  S201  1  0.26868649  0.13567222  0.96313171  1
  S2-  S202  1  0.27055226  0.37472414  0.46513747  1
  S2-  S203  1  0.26444054  0.39040781  0.95075818  1
  S2-  S204  1  0.26306203  0.62008888  0.46186811  1
  S2-  S205  1  0.26465133  0.64092948  0.95558748  1
  S2-  S206  1  0.26265610  0.87360935  0.45815624  1
  S2-  S207  1  0.26462227  0.89059732  0.95791617  1
  S2-  S208  1  0.51388130  0.12083608  0.44788596  1
  S2-  S209  1  0.51211982  0.13981799  0.95341697  1
  S2-  S210  1  0.51408760  0.37126950  0.44848702  1
  S2-  S211  1  0.51369702  0.38840074  0.94156616  1
  S2-  S212  1  0.51508043  0.62224358  0.45987327  1
  S2-  S213  1  0.51602430  0.63857972  0.95429727  1
  S2-  S214  1  0.51400705  0.87081175  0.44988659  1
  S2-  S215  1  0.51877744  0.89222731  0.95643324  1
  S2-  S216  1  0.76966810  0.11799630  0.44242132  1
  S2-  S217  1  0.76988021  0.14550208  0.96223336  1
  S2-  S218  1  0.76180952  0.37157132  0.45150193  1
  S2-  S219  1  0.76565932  0.38526293  0.95443923  1
  S2-  S220  1  0.76879095  0.62124817  0.45559944  1
  S2-  S221  1  0.76523448  0.63881380  0.95390211  1
  S2-  S222  1  0.76638670  0.87361768  0.45086447  1
  S2-  S223  1  0.77025093  0.89058374  0.95295856  1
  S2-  S224  1  0.14034320  0.01466433  0.05545278  1
  S2-  S225  1  0.13421564  -0.00191532  0.53354225  1
  S2-  S226  1  0.14150136  0.25721113  0.04509259  1
  S2-  S227  1  0.14262138  0.24547649  0.53319961  1
  S2-  S228  1  0.14427040  0.50967486  0.04258995  1
  S2-  S229  1  0.14052840  0.49477025  0.54925054  1
  S2-  S230  1  0.14019587  0.76378737  0.04559230  1
  S2-  S231  1  0.14060065  0.75076659  0.54680691  1
  S2-  S232  1  0.39456069  0.01202453  0.05319573  1
  S2-  S233  1  0.39361493  -0.00407548  0.54363134  1
  S2-  S234  1  0.39377674  0.25980679  0.03948762  1
  S2-  S235  1  0.39299547  0.24649072  0.54725370  1
  S2-  S236  1  0.39079885  0.50764067  0.04175036  1
  S2-  S237  1  0.38774810  0.48994187  0.55207647  1
  S2-  S238  1  0.39570569  0.76653057  0.04725036  1
  S2-  S239  1  0.38804348  0.75182273  0.55020203  1
  S2-  S240  1  0.64338856  0.01602691  0.03771591  1
  S2-  S241  1  0.64031670  -0.00354667  0.54487253  1
  S2-  S242  1  0.63590823  0.26488344  0.04282114  1
  S2-  S243  1  0.63804830  0.24828612  0.53684305  1
  S2-  S244  1  0.63894396  0.51141668  0.04163523  1
  S2-  S245  1  0.64650764  0.48835549  0.54879083  1
  S2-  S246  1  0.64339962  0.75769355  0.04866081  1
  S2-  S247  1  0.64083239  0.74856383  0.54532392  1
  S2-  S248  1  0.89542409  0.01490943  0.05571308  1
  S2-  S249  1  0.88802995  -0.00042776  0.55186820  1
  S2-  S250  1  0.89050776  0.25771036  0.05616777  1
  S2-  S251  1  0.88167551  0.25178061  0.53955719  1
  S2-  S252  1  0.89114359  0.50998005  0.03714426  1
  S2-  S253  1  0.88101273  0.49193807  0.55132638  1
  S2-  S254  1  0.89515477  0.75948538  0.03929050  1
  S2-  S255  1  0.88842403  0.74721166  0.53802200  1
