# generated using pymatgen
data_La12Ce14Pr13Nd13Sm12(BiS2)64
_symmetry_space_group_name_H-M   'P 1'
_cell_length_a   16.13626644
_cell_length_b   16.16416751
_cell_length_c   27.15598478
_cell_angle_alpha   90.01550360
_cell_angle_beta   90.17086650
_cell_angle_gamma   89.89977253
_symmetry_Int_Tables_number   1
_chemical_formula_structural   La12Ce14Pr13Nd13Sm12(BiS2)64
_chemical_formula_sum   'La12 Ce14 Pr13 Nd13 Sm12 Bi64 S128'
_cell_volume   7083.03428663
_cell_formula_units_Z   1
loop_
 _symmetry_equiv_pos_site_id
 _symmetry_equiv_pos_as_xyz
  1  'x, y, z'
loop_
 _atom_type_symbol
 _atom_type_oxidation_number
  La3+  3.0
  Ce3+  3.0
  Pr3+  3.0
  Nd3+  3.0
  Sm3+  3.0
  Bi2+  2.0
  S2-  -2.0
loop_
 _atom_site_type_symbol
 _atom_site_label
 _atom_site_symmetry_multiplicity
 _atom_site_fract_x
 _atom_site_fract_y
 _atom_site_fract_z
 _atom_site_occupancy
  La3+  La0  1  0.01904533  0.59853548  0.56762275  1
  La3+  La1  1  0.01658892  0.37060195  0.09068902  1
  La3+  La2  1  0.64017971  0.74516435  0.39451282  1
  La3+  La3  1  0.37714707  0.50217569  0.92896697  1
  La3+  La4  1  0.12722253  0.48270026  0.41134362  1
  La3+  La5  1  0.50473519  0.12571493  0.08202784  1
  La3+  La6  1  0.50245536  0.62375541  0.06324034  1
  La3+  La7  1  0.89313958  0.73666728  0.43352012  1
  La3+  La8  1  0.88095404  0.24656798  0.93642654  1
  La3+  La9  1  0.26221343  0.11092457  0.57682063  1
  La3+  La10  1  0.76779747  0.84901473  0.58273555  1
  La3+  La11  1  0.37640450  0.24188737  0.89386905  1
  Ce3+  Ce12  1  0.50977344  0.61292919  0.54955136  1
  Ce3+  Ce13  1  0.75703003  0.87025560  0.06314450  1
  Ce3+  Ce14  1  0.38545594  -0.01448111  0.43920676  1
  Ce3+  Ce15  1  0.49956506  0.37403922  0.05795129  1
  Ce3+  Ce16  1  0.63274175  0.22984388  0.44473176  1
  Ce3+  Ce17  1  0.12884374  0.00319010  0.94059211  1
  Ce3+  Ce18  1  0.62440684  0.24581149  0.94583543  1
  Ce3+  Ce19  1  0.00592929  0.12474817  0.06750870  1
  Ce3+  Ce20  1  0.75955022  0.61431012  0.55310459  1
  Ce3+  Ce21  1  0.12532641  0.74579473  0.92832478  1
  Ce3+  Ce22  1  0.75765631  0.10682732  0.56225786  1
  Ce3+  Ce23  1  0.25182098  0.62543722  0.05558211  1
  Ce3+  Ce24  1  0.26016462  0.85868199  0.56329895  1
  Ce3+  Ce25  1  0.88415939  0.49716816  0.95410865  1
  Pr3+  Pr26  1  0.25890902  0.37365176  0.05922785  1
  Pr3+  Pr27  1  0.63266915  0.75175200  0.93099147  1
  Pr3+  Pr28  1  0.50689239  0.10731536  0.57004064  1
  Pr3+  Pr29  1  0.13572342  0.73792517  0.43384267  1
  Pr3+  Pr30  1  0.39359561  0.23122391  0.42892981  1
  Pr3+  Pr31  1  0.88025812  0.23214872  0.43440794  1
  Pr3+  Pr32  1  0.38516215  0.75074892  0.93047787  1
  Pr3+  Pr33  1  0.38263386  0.00334007  0.94256939  1
  Pr3+  Pr34  1  0.50331086  0.86993127  0.07011342  1
  Pr3+  Pr35  1  0.13287329  0.23069365  0.43217013  1
  Pr3+  Pr36  1  0.75686510  0.62347203  0.06356109  1
  Pr3+  Pr37  1  0.75601242  0.12454867  0.07420816  1
  Pr3+  Pr38  1  0.25487019  0.12560104  0.05886328  1
  Nd3+  Nd39  1  0.00975290  0.35661548  0.55888226  1
  Nd3+  Nd40  1  0.13553805  -0.00918246  0.44246057  1
  Nd3+  Nd41  1  0.00697497  0.63479685  0.07008839  1
  Nd3+  Nd42  1  0.01213251  0.11770333  0.57333550  1
  Nd3+  Nd43  1  0.88387662  -0.01802616  0.44940059  1
  Nd3+  Nd44  1  0.39476419  0.48426892  0.42425870  1
  Nd3+  Nd45  1  0.75778695  0.37348989  0.05860085  1
  Nd3+  Nd46  1  0.26108918  0.36819775  0.55731433  1
  Nd3+  Nd47  1  0.87960378  0.74699494  0.92920693  1
  Nd3+  Nd48  1  0.63613609  0.48890770  0.43762454  1
  Nd3+  Nd49  1  0.62817756  0.49606225  0.94312752  1
  Nd3+  Nd50  1  0.25427165  0.87322502  0.05029826  1
  Nd3+  Nd51  1  0.38490146  0.73989475  0.42700666  1
  Sm3+  Sm52  1  0.50750335  0.85572923  0.55705933  1
  Sm3+  Sm53  1  0.01347847  0.85381769  0.56440949  1
  Sm3+  Sm54  1  0.12440057  0.24816503  0.93459595  1
  Sm3+  Sm55  1  0.75727754  0.35947926  0.55419393  1
  Sm3+  Sm56  1  0.88312115  0.48523040  0.44164105  1
  Sm3+  Sm57  1  0.63539372  -0.02214370  0.44925983  1
  Sm3+  Sm58  1  0.50765240  0.36205872  0.55729640  1
  Sm3+  Sm59  1  0.00485191  0.87362489  0.05317873  1
  Sm3+  Sm60  1  0.87755610  -0.00057759  0.94603873  1
  Sm3+  Sm61  1  0.12647161  0.49263485  0.94405759  1
  Sm3+  Sm62  1  0.62898375  0.00106965  0.95370346  1
  Sm3+  Sm63  1  0.26215027  0.60639368  0.54083333  1
  Bi2+  Bi64  1  -0.08603830  0.11693469  0.28732980  1
  Bi2+  Bi65  1  -0.04850800  0.14885941  0.79931494  1
  Bi2+  Bi66  1  0.01258046  0.38187711  0.29319685  1
  Bi2+  Bi67  1  -0.01977715  0.40628335  0.79095046  1
  Bi2+  Bi68  1  -0.08073423  0.65874687  0.29298563  1
  Bi2+  Bi69  1  -0.01248544  0.60241572  0.78461546  1
  Bi2+  Bi70  1  0.06246362  0.88806870  0.30653215  1
  Bi2+  Bi71  1  0.02735212  0.87483333  0.79112277  1
  Bi2+  Bi72  1  0.24275497  0.09176354  0.29314969  1
  Bi2+  Bi73  1  0.22371511  0.10843549  0.79059671  1
  Bi2+  Bi74  1  0.26310512  0.38965847  0.28885562  1
  Bi2+  Bi75  1  0.23718417  0.38844878  0.78887991  1
  Bi2+  Bi76  1  0.27660856  0.72698843  0.28166796  1
  Bi2+  Bi77  1  0.23394667  0.71035757  0.75809999  1
  Bi2+  Bi78  1  0.25075534  0.88049020  0.34836791  1
  Bi2+  Bi79  1  0.22333813  0.90609801  0.79192880  1
  Bi2+  Bi80  1  0.45975164  0.15699365  0.28048693  1
  Bi2+  Bi81  1  0.53151434  0.09448716  0.79538993  1
  Bi2+  Bi82  1  0.50386085  0.38001707  0.22942576  1
  Bi2+  Bi83  1  0.52272332  0.39284794  0.79936216  1
  Bi2+  Bi84  1  0.49658743  0.60642540  0.29492146  1
  Bi2+  Bi85  1  0.46005971  0.63316490  0.80117191  1
  Bi2+  Bi86  1  0.51330828  0.91027411  0.29029399  1
  Bi2+  Bi87  1  0.48470969  0.83717868  0.75821523  1
  Bi2+  Bi88  1  0.70272947  0.15232154  0.32396329  1
  Bi2+  Bi89  1  0.76707514  0.19900593  0.82183424  1
  Bi2+  Bi90  1  0.80147484  0.31796355  0.30703829  1
  Bi2+  Bi91  1  0.76330944  0.38491919  0.79524991  1
  Bi2+  Bi92  1  0.72016542  0.49214078  0.31151201  1
  Bi2+  Bi93  1  0.75636238  0.64039825  0.77888988  1
  Bi2+  Bi94  1  0.78632817  0.89953307  0.29458673  1
  Bi2+  Bi95  1  0.73421467  0.91149086  0.79787182  1
  Bi2+  Bi96  1  0.06211085  -0.00928416  0.20762810  1
  Bi2+  Bi97  1  0.06799798  0.02675891  0.72080989  1
  Bi2+  Bi98  1  0.10454474  0.18159612  0.23185790  1
  Bi2+  Bi99  1  0.11531961  0.28109957  0.69447354  1
  Bi2+  Bi100  1  0.13379267  0.51133112  0.20164252  1
  Bi2+  Bi101  1  0.12842357  0.55005302  0.70275279  1
  Bi2+  Bi102  1  0.13824970  0.79567555  0.21152560  1
  Bi2+  Bi103  1  0.11282803  0.82148037  0.69186768  1
  Bi2+  Bi104  1  0.32925655  -0.06229641  0.24337269  1
  Bi2+  Bi105  1  0.36455270  -0.01559471  0.71991738  1
  Bi2+  Bi106  1  0.30629743  0.25032849  0.18388108  1
  Bi2+  Bi107  1  0.41924853  0.26148013  0.69426095  1
  Bi2+  Bi108  1  0.39000020  0.53070592  0.20193443  1
  Bi2+  Bi109  1  0.38237920  0.51935731  0.69782601  1
  Bi2+  Bi110  1  0.39863221  0.77046841  0.19451867  1
  Bi2+  Bi111  1  0.35463804  0.77446644  0.67807465  1
  Bi2+  Bi112  1  0.68684999  0.03568008  0.23349590  1
  Bi2+  Bi113  1  0.64793397  0.04309405  0.70609711  1
  Bi2+  Bi114  1  0.65336060  0.25726858  0.22181765  1
  Bi2+  Bi115  1  0.63501336  0.22946476  0.73197872  1
  Bi2+  Bi116  1  0.65779151  0.48931814  0.20392841  1
  Bi2+  Bi117  1  0.66648565  0.49739818  0.71309654  1
  Bi2+  Bi118  1  0.64614872  0.75692686  0.20286268  1
  Bi2+  Bi119  1  0.59182173  0.68126884  0.71903132  1
  Bi2+  Bi120  1  0.87430904  0.04353200  0.18003613  1
  Bi2+  Bi121  1  0.87006206  0.01343156  0.72910643  1
  Bi2+  Bi122  1  0.84769871  0.23590414  0.19666065  1
  Bi2+  Bi123  1  0.85006908  0.26378938  0.71221184  1
  Bi2+  Bi124  1  0.87062266  0.53334828  0.21737286  1
  Bi2+  Bi125  1  0.86448835  0.50727642  0.71205231  1
  Bi2+  Bi126  1  0.91395395  0.84248819  0.21618669  1
  Bi2+  Bi127  1  0.83954395  0.78443100  0.71489798  1
  S2-  S128  1  0.00558310  0.22125490  0.14916849  1
  S2-  S129  1  -0.01805250  0.25041614  0.64168000  1
  S2-  S130  1  -0.01481268  0.41508295  0.19383750  1
  S2-  S131  1  0.04508146  0.46130405  0.63695774  1
  S2-  S132  1  0.00985458  0.60066019  0.16974884  1
  S2-  S133  1  0.04007447  0.67906425  0.65787944  1
  S2-  S134  1  0.00949046  0.78800106  0.13758382  1
  S2-  S135  1  -0.08278921  0.86812505  0.64608833  1
  S2-  S136  1  0.20891436  0.12512573  0.15707988  1
  S2-  S137  1  0.13771070  0.12459096  0.64909179  1
  S2-  S138  1  0.17884081  0.36554225  0.14944473  1
  S2-  S139  1  0.25927649  0.30327667  0.65334581  1
  S2-  S140  1  0.26317039  0.60560081  0.15412551  1
  S2-  S141  1  0.26158364  0.52806698  0.63089087  1
  S2-  S142  1  0.26582889  0.86971721  0.14982741  1
  S2-  S143  1  0.25346176  0.93864699  0.64926242  1
  S2-  S144  1  0.42263610  0.13640696  0.17503094  1
  S2-  S145  1  0.39562331  0.11439899  0.64810614  1
  S2-  S146  1  0.40411680  0.38390199  0.14096626  1
  S2-  S147  1  0.48545116  0.40702182  0.65310572  1
  S2-  S148  1  0.51755309  0.65093586  0.16284466  1
  S2-  S149  1  0.46877526  0.63438974  0.64528817  1
  S2-  S150  1  0.52526231  0.88083206  0.17118482  1
  S2-  S151  1  0.48043671  0.88676551  0.65353825  1
  S2-  S152  1  0.63931999  0.12480133  0.15192130  1
  S2-  S153  1  0.80153634  0.11243282  0.65744656  1
  S2-  S154  1  0.76589597  0.38409363  0.15777680  1
  S2-  S155  1  0.76244285  0.38097999  0.65204292  1
  S2-  S156  1  0.75617611  0.64223449  0.16400170  1
  S2-  S157  1  0.77530728  0.68458337  0.64069056  1
  S2-  S158  1  0.75142157  0.85783901  0.16127411  1
  S2-  S159  1  0.70589413  0.88922494  0.67894511  1
  S2-  S160  1  0.13140988  0.09701486  0.36214080  1
  S2-  S161  1  0.10308546  0.07298954  0.85265712  1
  S2-  S162  1  0.14819655  0.33731472  0.35223827  1
  S2-  S163  1  0.21481658  0.25373804  0.84874790  1
  S2-  S164  1  0.14545656  0.51801820  0.30381337  1
  S2-  S165  1  0.14679653  0.48384260  0.84387288  1
  S2-  S166  1  0.02330092  0.73364238  0.35515863  1
  S2-  S167  1  0.00520190  0.73749449  0.85472879  1
  S2-  S168  1  0.45418441  0.02385962  0.34910375  1
  S2-  S169  1  0.38179291  0.07870554  0.85122792  1
  S2-  S170  1  0.34005452  0.23851004  0.32883644  1
  S2-  S171  1  0.38101004  0.28026485  0.78604148  1
  S2-  S172  1  0.35298130  0.50744323  0.32751441  1
  S2-  S173  1  0.37308684  0.46722806  0.82977489  1
  S2-  S174  1  0.47574309  0.75880197  0.34211902  1
  S2-  S175  1  0.31479040  0.68088397  0.84680803  1
  S2-  S176  1  0.64652277  -0.08894815  0.35710197  1
  S2-  S177  1  0.61276401  -0.01461295  0.85493902  1
  S2-  S178  1  0.54441706  0.22434864  0.36059830  1
  S2-  S179  1  0.54662452  0.24539506  0.85768755  1
  S2-  S180  1  0.55639764  0.46954537  0.34972720  1
  S2-  S181  1  0.58345142  0.52021384  0.84709521  1
  S2-  S182  1  0.64067118  0.67737580  0.29430974  1
  S2-  S183  1  0.51475088  0.76608412  0.85566167  1
  S2-  S184  1  0.91608894  -0.02880144  0.35056610  1
  S2-  S185  1  0.86163307  -0.02067528  0.84783539  1
  S2-  S186  1  0.96988688  0.23955234  0.34817732  1
  S2-  S187  1  0.99795610  0.27658937  0.86221139  1
  S2-  S188  1  0.95516266  0.50670621  0.35253540  1
  S2-  S189  1  0.89439320  0.51251978  0.85709260  1
  S2-  S190  1  0.80391178  0.75118069  0.34631045  1
  S2-  S191  1  0.75713109  0.75898849  0.85603825  1
  S2-  S192  1  0.00403204  0.10988157  0.46375140  1
  S2-  S193  1  0.00129851  0.12072307  0.96064756  1
  S2-  S194  1  0.00209313  0.35997660  0.45349449  1
  S2-  S195  1  0.00655544  0.37493485  0.96727715  1
  S2-  S196  1  0.01249346  0.60578013  0.45704727  1
  S2-  S197  1  0.00706223  0.62147319  0.96057223  1
  S2-  S198  1  0.01508983  0.86500438  0.46004406  1
  S2-  S199  1  0.00304194  0.87776253  0.94997285  1
  S2-  S200  1  0.26806119  0.11087667  0.45894997  1
  S2-  S201  1  0.25574786  0.12718558  0.95295320  1
  S2-  S202  1  0.27264240  0.36077222  0.44788280  1
  S2-  S203  1  0.25482745  0.37230535  0.95080896  1
  S2-  S204  1  0.26147134  0.61094496  0.43598335  1
  S2-  S205  1  0.24711811  0.62136175  0.95165935  1
  S2-  S206  1  0.25943578  0.86141786  0.45945565  1
  S2-  S207  1  0.25514778  0.87415262  0.94322113  1
  S2-  S208  1  0.51341640  0.10376984  0.46377084  1
  S2-  S209  1  0.50593081  0.12161145  0.96603023  1
  S2-  S210  1  0.51318063  0.36020528  0.45482183  1
  S2-  S211  1  0.49970386  0.37370565  0.95308810  1
  S2-  S212  1  0.51372995  0.61869238  0.44357283  1
  S2-  S213  1  0.50723726  0.62389507  0.95545153  1
  S2-  S214  1  0.51009644  0.85904346  0.45320694  1
  S2-  S215  1  0.50585901  0.87743793  0.96196533  1
  S2-  S216  1  0.75655111  0.10391859  0.45566065  1
  S2-  S217  1  0.75382782  0.12183075  0.96323977  1
  S2-  S218  1  0.75664799  0.36034396  0.44901306  1
  S2-  S219  1  0.75368292  0.37226114  0.95190220  1
  S2-  S220  1  0.75921644  0.61283819  0.44640762  1
  S2-  S221  1  0.75402068  0.61969652  0.95586388  1
  S2-  S222  1  0.76015257  0.85780862  0.46335421  1
  S2-  S223  1  0.75502132  0.87836950  0.95777467  1
  S2-  S224  1  0.12855103  -0.00396606  0.04835439  1
  S2-  S225  1  0.13076851  -0.01589088  0.54874266  1
  S2-  S226  1  0.12979478  0.24729656  0.04190195  1
  S2-  S227  1  0.13843932  0.23874587  0.53961556  1
  S2-  S228  1  0.12749771  0.50222648  0.05014767  1
  S2-  S229  1  0.14135762  0.48340269  0.52484566  1
  S2-  S230  1  0.13065235  0.75172877  0.03658397  1
  S2-  S231  1  0.14011408  0.73187864  0.54252575  1
  S2-  S232  1  0.38014468  -0.00285231  0.05219518  1
  S2-  S233  1  0.38552618  -0.01884537  0.54540727  1
  S2-  S234  1  0.38109692  0.24524875  0.04967793  1
  S2-  S235  1  0.38832626  0.23943008  0.54241265  1
  S2-  S236  1  0.37783596  0.50291966  0.03894408  1
  S2-  S237  1  0.38973189  0.48655627  0.53260090  1
  S2-  S238  1  0.37841252  0.74889016  0.04222048  1
  S2-  S239  1  0.38261090  0.73438142  0.53546600  1
  S2-  S240  1  0.63067005  -0.00586376  0.05723165  1
  S2-  S241  1  0.63261904  -0.02051664  0.55458627  1
  S2-  S242  1  0.62931935  0.25353697  0.05261021  1
  S2-  S243  1  0.63163465  0.23632238  0.55511662  1
  S2-  S244  1  0.62957634  0.49721478  0.05100379  1
  S2-  S245  1  0.63384085  0.48528841  0.54561590  1
  S2-  S246  1  0.63038972  0.74823508  0.04665192  1
  S2-  S247  1  0.63081538  0.73674797  0.55233070  1
  S2-  S248  1  0.88114391  -0.00349479  0.05123971  1
  S2-  S249  1  0.88780807  -0.01181946  0.55355468  1
  S2-  S250  1  0.87841663  0.24794072  0.04791313  1
  S2-  S251  1  0.87511656  0.23443403  0.54138089  1
  S2-  S252  1  0.88546648  0.49872021  0.05988274  1
  S2-  S253  1  0.87957642  0.48283303  0.54641440  1
  S2-  S254  1  0.87894103  0.74904989  0.03937620  1
  S2-  S255  1  0.89588360  0.72898882  0.54252004  1
