# generated using pymatgen
data_La12Ce14Pr13Nd13Sm12(BiS2)64
_symmetry_space_group_name_H-M   'P 1'
_cell_length_a   16.05676711
_cell_length_b   16.08973837
_cell_length_c   27.38265061
_cell_angle_alpha   89.87481485
_cell_angle_beta   89.91157484
_cell_angle_gamma   90.07258004
_symmetry_Int_Tables_number   1
_chemical_formula_structural   La12Ce14Pr13Nd13Sm12(BiS2)64
_chemical_formula_sum   'La12 Ce14 Pr13 Nd13 Sm12 Bi64 S128'
_cell_volume   7074.25436254
_cell_formula_units_Z   1
loop_
 _symmetry_equiv_pos_site_id
 _symmetry_equiv_pos_as_xyz
  1  'x, y, z'
loop_
 _atom_type_symbol
 _atom_type_oxidation_number
  La3+  3.0
  Ce3+  3.0
  Pr3+  3.0
  Nd3+  3.0
  Sm3+  3.0
  Bi2+  2.0
  S2-  -2.0
loop_
 _atom_site_type_symbol
 _atom_site_label
 _atom_site_symmetry_multiplicity
 _atom_site_fract_x
 _atom_site_fract_y
 _atom_site_fract_z
 _atom_site_occupancy
  La3+  La0  1  0.49280414  0.39635466  0.58310203  1
  La3+  La1  1  0.49352249  0.13873858  0.58140613  1
  La3+  La2  1  -0.00943882  0.12084181  0.08545725  1
  La3+  La3  1  0.23983572  0.11633166  0.05597292  1
  La3+  La4  1  0.36621065  0.51593645  0.42215954  1
  La3+  La5  1  0.37010856  0.02118990  0.42976607  1
  La3+  La6  1  0.10567344  0.24298914  0.92386478  1
  La3+  La7  1  -0.02386074  0.61490169  0.07689145  1
  La3+  La8  1  0.48966477  0.61220718  0.07319374  1
  La3+  La9  1  0.62023633  0.76443079  0.42545682  1
  La3+  La10  1  0.61813650  0.01860380  0.42691107  1
  La3+  La11  1  0.36167546  0.23853290  0.91092701  1
  Ce3+  Ce12  1  0.24562866  0.14288651  0.56689064  1
  Ce3+  Ce13  1  0.36418494  0.74224998  0.94728758  1
  Ce3+  Ce14  1  0.74476509  0.39360025  0.56561254  1
  Ce3+  Ce15  1  0.50246649  0.89210574  0.56192583  1
  Ce3+  Ce16  1  0.61345131  0.49201014  0.93927487  1
  Ce3+  Ce17  1  0.49462742  0.63885080  0.55869948  1
  Ce3+  Ce18  1  0.87534609  0.51420805  0.43982109  1
  Ce3+  Ce19  1  0.61173679  0.74215979  0.94456520  1
  Ce3+  Ce20  1  -0.01019306  0.89362833  0.57601714  1
  Ce3+  Ce21  1  0.12246844  0.26777848  0.44252986  1
  Ce3+  Ce22  1  0.36570805  0.49242236  0.93767979  1
  Ce3+  Ce23  1  0.11780998  0.51794906  0.43568041  1
  Ce3+  Ce24  1  0.24826681  0.64074641  0.55970925  1
  Ce3+  Ce25  1  0.74412334  0.64016243  0.55405051  1
  Pr3+  Pr26  1  0.12021464  0.76882366  0.44705694  1
  Pr3+  Pr27  1  0.61573410  -0.01043280  0.93474932  1
  Pr3+  Pr28  1  0.36487767  -0.02042793  0.90721107  1
  Pr3+  Pr29  1  -0.00206986  0.14290815  0.57515870  1
  Pr3+  Pr30  1  -0.01537629  0.36818331  0.05924300  1
  Pr3+  Pr31  1  0.86158149  -0.01396901  0.92842180  1
  Pr3+  Pr32  1  0.61705795  0.26967128  0.43744412  1
  Pr3+  Pr33  1  0.11476455  -0.01045510  0.93332773  1
  Pr3+  Pr34  1  0.37004284  0.77087675  0.43193673  1
  Pr3+  Pr35  1  0.87253530  0.26829962  0.44848296  1
  Pr3+  Pr36  1  0.23637571  0.61517640  0.05939187  1
  Pr3+  Pr37  1  0.74454243  0.89180632  0.56458833  1
  Pr3+  Pr38  1  0.87198008  0.01899021  0.44204236  1
  Nd3+  Nd39  1  0.87217271  0.76881173  0.44248947  1
  Nd3+  Nd40  1  0.23601056  0.86797936  0.06365076  1
  Nd3+  Nd41  1  0.85538226  0.49643946  0.92908127  1
  Nd3+  Nd42  1  0.74255848  0.14414142  0.55902130  1
  Nd3+  Nd43  1  0.73970304  0.10688265  0.06882333  1
  Nd3+  Nd44  1  0.24924282  0.89529237  0.56253315  1
  Nd3+  Nd45  1  0.48432996  0.36054719  0.05423842  1
  Nd3+  Nd46  1  0.61584268  0.23878132  0.94369139  1
  Nd3+  Nd47  1  0.23598098  0.36219302  0.05329996  1
  Nd3+  Nd48  1  0.73885606  0.36087647  0.06130484  1
  Nd3+  Nd49  1  -0.00293153  0.64183944  0.56258239  1
  Nd3+  Nd50  1  0.48628629  0.87038559  0.06739346  1
  Nd3+  Nd51  1  0.48143162  0.11018059  0.06192540  1
  Sm3+  Sm52  1  0.10837899  0.49458779  0.94273723  1
  Sm3+  Sm53  1  0.73079615  0.61436647  0.06464563  1
  Sm3+  Sm54  1  0.86214508  0.73888312  0.93408938  1
  Sm3+  Sm55  1  -0.01532505  0.87110715  0.06072922  1
  Sm3+  Sm56  1  0.74043839  0.86794585  0.06067344  1
  Sm3+  Sm57  1  0.37302749  0.26961634  0.44039239  1
  Sm3+  Sm58  1  0.12066365  0.01975355  0.44541249  1
  Sm3+  Sm59  1  0.00045670  0.39396108  0.56748240  1
  Sm3+  Sm60  1  0.61769594  0.51547283  0.43611730  1
  Sm3+  Sm61  1  0.85709331  0.23883652  0.93247181  1
  Sm3+  Sm62  1  0.11027883  0.73950172  0.95370199  1
  Sm3+  Sm63  1  0.24600420  0.39275396  0.56604340  1
  Bi2+  Bi64  1  0.00524448  0.14140331  0.33359172  1
  Bi2+  Bi65  1  -0.02791400  0.08993410  0.81272254  1
  Bi2+  Bi66  1  -0.01660929  0.39314952  0.29139645  1
  Bi2+  Bi67  1  -0.05505142  0.38234532  0.78735153  1
  Bi2+  Bi68  1  0.00580961  0.67058884  0.30586815  1
  Bi2+  Bi69  1  0.04486848  0.63761137  0.80484748  1
  Bi2+  Bi70  1  0.05679474  0.79142615  0.21911811  1
  Bi2+  Bi71  1  -0.00775444  0.89858176  0.78040616  1
  Bi2+  Bi72  1  0.24241273  0.14242300  0.29643186  1
  Bi2+  Bi73  1  0.15816988  0.11408063  0.78462832  1
  Bi2+  Bi74  1  0.35311715  0.39253715  0.26356886  1
  Bi2+  Bi75  1  0.18789675  0.38102578  0.77759737  1
  Bi2+  Bi76  1  0.25279887  0.65660302  0.29416725  1
  Bi2+  Bi77  1  0.26312715  0.66698583  0.74901533  1
  Bi2+  Bi78  1  0.25568003  0.78602913  0.20717209  1
  Bi2+  Bi79  1  0.23228773  0.84552787  0.79199604  1
  Bi2+  Bi80  1  0.48699980  0.06150707  0.30202093  1
  Bi2+  Bi81  1  0.54385208  0.13913890  0.82537984  1
  Bi2+  Bi82  1  0.57221017  0.31052964  0.28462120  1
  Bi2+  Bi83  1  0.55182790  0.44297232  0.80424376  1
  Bi2+  Bi84  1  0.49383610  0.55643861  0.29557749  1
  Bi2+  Bi85  1  0.50802848  0.63807815  0.79693755  1
  Bi2+  Bi86  1  0.49394660  0.85364300  0.29203931  1
  Bi2+  Bi87  1  0.48800771  0.84489698  0.78495015  1
  Bi2+  Bi88  1  0.74722187  0.10725451  0.28575690  1
  Bi2+  Bi89  1  0.78739034  0.08366159  0.76913151  1
  Bi2+  Bi90  1  0.78248182  0.41067698  0.30412378  1
  Bi2+  Bi91  1  0.73944205  0.34974188  0.79413962  1
  Bi2+  Bi92  1  0.74519009  0.63007189  0.28621625  1
  Bi2+  Bi93  1  0.85118521  0.58703144  0.76301886  1
  Bi2+  Bi94  1  0.78405434  0.82993724  0.26056070  1
  Bi2+  Bi95  1  0.74760944  0.85880605  0.79714976  1
  Bi2+  Bi96  1  0.11732003  0.00842413  0.21207793  1
  Bi2+  Bi97  1  0.10898063  -0.02827545  0.69052551  1
  Bi2+  Bi98  1  0.12801313  0.26129736  0.20538817  1
  Bi2+  Bi99  1  0.08548517  0.25356426  0.71518939  1
  Bi2+  Bi100  1  0.16883995  0.45544550  0.26205867  1
  Bi2+  Bi101  1  0.06934259  0.49294210  0.71128134  1
  Bi2+  Bi102  1  0.09099100  0.59727443  0.19552995  1
  Bi2+  Bi103  1  0.08764614  0.77256319  0.70455835  1
  Bi2+  Bi104  1  0.37465499  0.03681547  0.20973369  1
  Bi2+  Bi105  1  0.35503652  0.01669254  0.71123559  1
  Bi2+  Bi106  1  0.44852621  0.24979528  0.20313214  1
  Bi2+  Bi107  1  0.40058558  0.26361935  0.72240104  1
  Bi2+  Bi108  1  0.41425828  0.55652678  0.19564625  1
  Bi2+  Bi109  1  0.37324919  0.51280799  0.70920201  1
  Bi2+  Bi110  1  0.44846433  0.76996407  0.18794948  1
  Bi2+  Bi111  1  0.43391558  0.72846154  0.69834914  1
  Bi2+  Bi112  1  0.61240766  0.01709719  0.21695701  1
  Bi2+  Bi113  1  0.61304323  -0.00810160  0.70594173  1
  Bi2+  Bi114  1  0.65654125  0.21051768  0.19860293  1
  Bi2+  Bi115  1  0.66619505  0.25691326  0.70516826  1
  Bi2+  Bi116  1  0.63968177  0.47808335  0.23255805  1
  Bi2+  Bi117  1  0.67788908  0.52752426  0.72133397  1
  Bi2+  Bi118  1  0.63651662  0.73722570  0.20840892  1
  Bi2+  Bi119  1  0.63055166  0.73813682  0.71387976  1
  Bi2+  Bi120  1  0.85478566  0.00069916  0.20869260  1
  Bi2+  Bi121  1  0.92273133  0.03865860  0.68793755  1
  Bi2+  Bi122  1  0.85765964  0.27317293  0.20857877  1
  Bi2+  Bi123  1  0.87661303  0.23369551  0.69677609  1
  Bi2+  Bi124  1  0.89606506  0.53097069  0.22479407  1
  Bi2+  Bi125  1  0.88198866  0.43238694  0.68117574  1
  Bi2+  Bi126  1  0.88364162  0.77803052  0.16863069  1
  Bi2+  Bi127  1  0.88718111  0.76423179  0.71570296  1
  S2-  S128  1  0.01111402  0.12639646  0.24106162  1
  S2-  S129  1  0.12650637  0.13844239  0.64493879  1
  S2-  S130  1  -0.00904127  0.27434648  0.14540215  1
  S2-  S131  1  0.11941352  0.38816472  0.64041505  1
  S2-  S132  1  -0.00814891  0.48118182  0.14369475  1
  S2-  S133  1  -0.00039860  0.64215275  0.66193856  1
  S2-  S134  1  -0.00678096  0.96746796  0.14442986  1
  S2-  S135  1  -0.13926276  0.88623029  0.64523374  1
  S2-  S136  1  0.14253333  0.12667264  0.14284341  1
  S2-  S137  1  0.33677542  0.14940224  0.65305340  1
  S2-  S138  1  0.22176704  0.35564522  0.15366486  1
  S2-  S139  1  0.34260607  0.38170682  0.65205773  1
  S2-  S140  1  0.26167540  0.59524541  0.15768286  1
  S2-  S141  1  0.24767972  0.60415945  0.65539672  1
  S2-  S142  1  0.24941599  0.93992450  0.15447548  1
  S2-  S143  1  0.26542557  0.90081635  0.66261609  1
  S2-  S144  1  0.36122098  0.15119532  0.13453882  1
  S2-  S145  1  0.49722133  0.11581093  0.73696804  1
  S2-  S146  1  0.47120663  0.40174526  0.15003596  1
  S2-  S147  1  0.51172908  0.26621994  0.65381464  1
  S2-  S148  1  0.61778609  0.60220587  0.14432529  1
  S2-  S149  1  0.49016716  0.54811764  0.64332165  1
  S2-  S150  1  0.49454004  0.99100440  0.14150871  1
  S2-  S151  1  0.47330602  0.98987809  0.64296090  1
  S2-  S152  1  0.84674244  0.13587728  0.14749254  1
  S2-  S153  1  0.66787550  0.11144561  0.64682342  1
  S2-  S154  1  0.74795140  0.37273813  0.16105435  1
  S2-  S155  1  0.65981779  0.40395565  0.65046049  1
  S2-  S156  1  0.83394974  0.62040746  0.14375490  1
  S2-  S157  1  0.73520727  0.64934486  0.65140510  1
  S2-  S158  1  0.72964785  0.96690530  0.14150186  1
  S2-  S159  1  0.62892377  0.86715438  0.63991627  1
  S2-  S160  1  0.13886104  0.02583863  0.34678484  1
  S2-  S161  1  0.21166619  -0.01950375  0.84679036  1
  S2-  S162  1  0.14354152  0.25828352  0.34384130  1
  S2-  S163  1  0.21550540  0.25387251  0.84254467  1
  S2-  S164  1  0.21606118  0.51882204  0.35388128  1
  S2-  S165  1  0.12358342  0.49727587  0.84435403  1
  S2-  S166  1  0.13201226  0.75739535  0.34691501  1
  S2-  S167  1  0.11956530  0.75392880  0.85557564  1
  S2-  S168  1  0.37217406  -0.10643576  0.35473162  1
  S2-  S169  1  0.38433221  0.11241219  0.84151852  1
  S2-  S170  1  0.36648067  0.15565133  0.35819495  1
  S2-  S171  1  0.46497100  0.29787654  0.82269343  1
  S2-  S172  1  0.38855193  0.37737228  0.35738847  1
  S2-  S173  1  0.40249067  0.52006407  0.84239597  1
  S2-  S174  1  0.38385296  0.65735766  0.35191124  1
  S2-  S175  1  0.36208306  0.81452403  0.85815963  1
  S2-  S176  1  0.62288199  -0.10968266  0.35254575  1
  S2-  S177  1  0.51969287  -0.03271603  0.84874918  1
  S2-  S178  1  0.61900587  0.14963221  0.35522894  1
  S2-  S179  1  0.72234080  0.23075549  0.86273150  1
  S2-  S180  1  0.63683852  0.39502301  0.36365614  1
  S2-  S181  1  0.71152530  0.48782730  0.85965707  1
  S2-  S182  1  0.61774478  0.62904603  0.35527347  1
  S2-  S183  1  0.66501466  0.74696756  0.85119264  1
  S2-  S184  1  0.87306395  0.02486892  0.34159134  1
  S2-  S185  1  0.73410390  0.00271717  0.85436913  1
  S2-  S186  1  0.88309681  0.27406977  0.34791942  1
  S2-  S187  1  0.96831494  0.25595254  0.85331548  1
  S2-  S188  1  0.98635558  0.51884005  0.36279781  1
  S2-  S189  1  0.89059239  0.62256858  0.86007231  1
  S2-  S190  1  0.86272638  0.75550293  0.34397981  1
  S2-  S191  1  0.88333888  0.85090171  0.85777280  1
  S2-  S192  1  -0.00224872  0.14252291  0.46365494  1
  S2-  S193  1  -0.01513738  0.11117166  0.94605372  1
  S2-  S194  1  -0.00194154  0.39050972  0.46302013  1
  S2-  S195  1  -0.01856580  0.37589580  0.95124042  1
  S2-  S196  1  -0.00521921  0.64499266  0.45850154  1
  S2-  S197  1  -0.01162186  0.61666873  0.96514800  1
  S2-  S198  1  -0.00392223  0.89452319  0.45937177  1
  S2-  S199  1  -0.00916138  0.86307940  0.95795314  1
  S2-  S200  1  0.24179907  0.14273631  0.45987834  1
  S2-  S201  1  0.23762381  0.11521538  0.94710351  1
  S2-  S202  1  0.24299374  0.39111028  0.45948941  1
  S2-  S203  1  0.23665114  0.37336392  0.94643037  1
  S2-  S204  1  0.24451863  0.64540621  0.45624766  1
  S2-  S205  1  0.23690708  0.61661139  0.95216687  1
  S2-  S206  1  0.24179444  0.89540507  0.45649832  1
  S2-  S207  1  0.23578523  0.86169176  0.95834128  1
  S2-  S208  1  0.49438709  0.14477740  0.46012306  1
  S2-  S209  1  0.49007044  0.11555871  0.95343424  1
  S2-  S210  1  0.49515776  0.39467889  0.46165158  1
  S2-  S211  1  0.49064195  0.36557213  0.94770013  1
  S2-  S212  1  0.49360773  0.64005830  0.45564710  1
  S2-  S213  1  0.48891064  0.61666652  0.96058491  1
  S2-  S214  1  0.49615521  0.89136611  0.45661303  1
  S2-  S215  1  0.48825974  0.86424818  0.96054858  1
  S2-  S216  1  0.74782698  0.14400882  0.45445763  1
  S2-  S217  1  0.74100193  0.11365677  0.96269948  1
  S2-  S218  1  0.75080827  0.39452943  0.46098996  1
  S2-  S219  1  0.73846052  0.36572814  0.95750517  1
  S2-  S220  1  0.75163754  0.63865647  0.44983668  1
  S2-  S221  1  0.73589259  0.61970950  0.96043833  1
  S2-  S222  1  0.74893730  0.89185570  0.45527180  1
  S2-  S223  1  0.73902068  0.86182868  0.95819956  1
  S2-  S224  1  0.11126389  -0.01133006  0.03973059  1
  S2-  S225  1  0.11740814  0.01211925  0.54900993  1
  S2-  S226  1  0.10985100  0.24335159  0.03343016  1
  S2-  S227  1  0.11950809  0.26729042  0.54562370  1
  S2-  S228  1  0.11479472  0.49135066  0.04543540  1
  S2-  S229  1  0.12006700  0.51945441  0.54406283  1
  S2-  S230  1  0.10813303  0.74229794  0.05890426  1
  S2-  S231  1  0.12026375  0.77019900  0.55489123  1
  S2-  S232  1  0.36086257  -0.01430913  0.03929881  1
  S2-  S233  1  0.36854797  0.01748830  0.54065390  1
  S2-  S234  1  0.36223949  0.24435778  0.02841515  1
  S2-  S235  1  0.36764923  0.26808667  0.54493936  1
  S2-  S236  1  0.36193801  0.48986767  0.04387363  1
  S2-  S237  1  0.36618369  0.51717855  0.54108082  1
  S2-  S238  1  0.36286359  0.74131006  0.05305935  1
  S2-  S239  1  0.37154048  0.76813833  0.54695467  1
  S2-  S240  1  0.61308284  -0.01121394  0.04048059  1
  S2-  S241  1  0.62305953  0.01777794  0.53746099  1
  S2-  S242  1  0.61137709  0.23572461  0.05022075  1
  S2-  S243  1  0.62221462  0.26908103  0.54499672  1
  S2-  S244  1  0.61251212  0.48400473  0.04444274  1
  S2-  S245  1  0.62211523  0.51745676  0.54095865  1
  S2-  S246  1  0.61267720  0.74693852  0.05103233  1
  S2-  S247  1  0.62124676  0.76071432  0.53622078  1
  S2-  S248  1  0.86445318  -0.01089929  0.03966886  1
  S2-  S249  1  0.87100627  0.02197308  0.54820454  1
  S2-  S250  1  0.86183246  0.23935130  0.03835686  1
  S2-  S251  1  0.87359515  0.26857292  0.55512863  1
  S2-  S252  1  0.85301453  0.49081573  0.04002941  1
  S2-  S253  1  0.87449693  0.51667507  0.54800055  1
  S2-  S254  1  0.85994056  0.74522597  0.04022766  1
  S2-  S255  1  0.87158255  0.76396895  0.54749933  1
