# generated using pymatgen
data_La12Ce14Pr13Nd13Sm12(BiS2)64
_symmetry_space_group_name_H-M   'P 1'
_cell_length_a   16.10630034
_cell_length_b   16.08917802
_cell_length_c   27.28204065
_cell_angle_alpha   89.91142866
_cell_angle_beta   90.24894750
_cell_angle_gamma   89.99550878
_symmetry_Int_Tables_number   1
_chemical_formula_structural   La12Ce14Pr13Nd13Sm12(BiS2)64
_chemical_formula_sum   'La12 Ce14 Pr13 Nd13 Sm12 Bi64 S128'
_cell_volume   7069.71460031
_cell_formula_units_Z   1
loop_
 _symmetry_equiv_pos_site_id
 _symmetry_equiv_pos_as_xyz
  1  'x, y, z'
loop_
 _atom_type_symbol
 _atom_type_oxidation_number
  La3+  3.0
  Ce3+  3.0
  Pr3+  3.0
  Nd3+  3.0
  Sm3+  3.0
  Bi2+  2.0
  S2-  -2.0
loop_
 _atom_site_type_symbol
 _atom_site_label
 _atom_site_symmetry_multiplicity
 _atom_site_fract_x
 _atom_site_fract_y
 _atom_site_fract_z
 _atom_site_occupancy
  La3+  La0  1  0.24799965  0.62643322  0.59422884  1
  La3+  La1  1  0.75694033  0.88701437  0.56444878  1
  La3+  La2  1  0.89038434  0.25221051  0.93271606  1
  La3+  La3  1  0.64875058  0.74871911  0.90670508  1
  La3+  La4  1  0.76095585  0.12654316  0.07587344  1
  La3+  La5  1  0.87141551  0.75457317  0.39522474  1
  La3+  La6  1  -0.00564377  0.63537478  0.56503772  1
  La3+  La7  1  0.24634598  0.88623067  0.57781563  1
  La3+  La8  1  0.36508403  0.51897912  0.44076331  1
  La3+  La9  1  0.50772981  0.62857570  0.60044993  1
  La3+  La10  1  0.50399861  0.37787355  0.57388828  1
  La3+  La11  1  0.14689118  0.72741518  0.40100128  1
  Ce3+  Ce12  1  0.88914838  0.49876862  0.94468329  1
  Ce3+  Ce13  1  0.64268908  0.25598614  0.93435726  1
  Ce3+  Ce14  1  0.26679365  0.62581248  0.06021774  1
  Ce3+  Ce15  1  0.26698851  0.12405795  0.06569139  1
  Ce3+  Ce16  1  0.62760268  0.75649044  0.44214828  1
  Ce3+  Ce17  1  0.26570169  0.86963740  0.05258656  1
  Ce3+  Ce18  1  0.62163254  0.50611317  0.44155151  1
  Ce3+  Ce19  1  0.13363820  0.50133269  0.94257017  1
  Ce3+  Ce20  1  0.37433051  0.75065482  0.46523752  1
  Ce3+  Ce21  1  0.75917173  0.86904382  0.06257788  1
  Ce3+  Ce22  1  0.38726866  0.25214536  0.93524971  1
  Ce3+  Ce23  1  0.74645551  0.13066491  0.54523799  1
  Ce3+  Ce24  1  0.51036214  0.37787867  0.05850744  1
  Ce3+  Ce25  1  0.24708659  0.13118300  0.55966079  1
  Pr3+  Pr26  1  0.87405165  0.25604378  0.42262178  1
  Pr3+  Pr27  1  0.13605439  0.75019734  0.93208895  1
  Pr3+  Pr28  1  0.38951655  0.00149390  0.93165437  1
  Pr3+  Pr29  1  0.61432257  0.25774215  0.42573726  1
  Pr3+  Pr30  1  0.51379977  0.12521951  0.06527728  1
  Pr3+  Pr31  1  0.12314420  -0.00643495  0.43222609  1
  Pr3+  Pr32  1  -0.00417173  0.88083923  0.54996726  1
  Pr3+  Pr33  1  0.02015130  0.62327148  0.09390539  1
  Pr3+  Pr34  1  0.01573926  0.11993765  0.08654584  1
  Pr3+  Pr35  1  0.76410533  0.37865122  0.06637305  1
  Pr3+  Pr36  1  0.12953312  0.25708584  0.43480847  1
  Pr3+  Pr37  1  0.01673038  0.37533860  0.07413296  1
  Pr3+  Pr38  1  0.61395362  0.00128549  0.43220709  1
  Nd3+  Nd39  1  0.63481411  0.49954180  0.93472832  1
  Nd3+  Nd40  1  0.50853255  0.87840662  0.58538651  1
  Nd3+  Nd41  1  0.01493685  0.87019551  0.07279059  1
  Nd3+  Nd42  1  0.37092446  -0.00301504  0.44350152  1
  Nd3+  Nd43  1  0.74642617  0.37744291  0.55486008  1
  Nd3+  Nd44  1  0.50000318  0.12645898  0.56544085  1
  Nd3+  Nd45  1  0.25057477  0.37966425  0.57174746  1
  Nd3+  Nd46  1  0.87693161  0.50846722  0.43869215  1
  Nd3+  Nd47  1  0.37249587  0.25937902  0.43980202  1
  Nd3+  Nd48  1  0.76272720  0.62564025  0.05883521  1
  Nd3+  Nd49  1  0.64313908  0.00480407  0.93694479  1
  Nd3+  Nd50  1  0.37924188  0.74857656  0.91316214  1
  Nd3+  Nd51  1  -0.00648114  0.37566336  0.55812143  1
  Sm3+  Sm52  1  0.88838693  0.75218887  0.94470072  1
  Sm3+  Sm53  1  0.13470321  0.00240021  0.94874038  1
  Sm3+  Sm54  1  0.86834189  0.00679316  0.42247561  1
  Sm3+  Sm55  1  0.12237966  0.50797967  0.45971678  1
  Sm3+  Sm56  1  0.38303244  0.49390222  0.92464418  1
  Sm3+  Sm57  1  0.26326447  0.37697021  0.05445787  1
  Sm3+  Sm58  1  0.50608305  0.62682981  0.04773886  1
  Sm3+  Sm59  1  0.74553344  0.63087762  0.55593339  1
  Sm3+  Sm60  1  0.51337284  0.87092942  0.04328271  1
  Sm3+  Sm61  1  0.13169321  0.24716333  0.94509858  1
  Sm3+  Sm62  1  0.88818816  0.00158267  0.95470490  1
  Sm3+  Sm63  1  -0.00329765  0.13161556  0.54682953  1
  Bi2+  Bi64  1  0.02968956  0.13478783  0.28778773  1
  Bi2+  Bi65  1  -0.02155477  0.19258175  0.76756932  1
  Bi2+  Bi66  1  0.05118963  0.33065544  0.31661475  1
  Bi2+  Bi67  1  0.03663915  0.37129302  0.80846757  1
  Bi2+  Bi68  1  0.01799107  0.59152901  0.29344080  1
  Bi2+  Bi69  1  -0.03959708  0.59251434  0.77054686  1
  Bi2+  Bi70  1  0.00327059  0.91504882  0.28616265  1
  Bi2+  Bi71  1  0.01957764  0.78909550  0.79773288  1
  Bi2+  Bi72  1  0.22182198  0.10944101  0.31571215  1
  Bi2+  Bi73  1  0.22372004  0.12752201  0.79255670  1
  Bi2+  Bi74  1  0.30038488  0.36171232  0.27876417  1
  Bi2+  Bi75  1  0.24246483  0.31798398  0.78744497  1
  Bi2+  Bi76  1  0.27875038  0.58306440  0.30179311  1
  Bi2+  Bi77  1  0.15380002  0.63518971  0.77458844  1
  Bi2+  Bi78  1  0.29111150  0.92749717  0.30480626  1
  Bi2+  Bi79  1  0.19602372  0.88943298  0.79706781  1
  Bi2+  Bi80  1  0.50910437  0.11652538  0.28958431  1
  Bi2+  Bi81  1  0.42270509  0.14615012  0.78845009  1
  Bi2+  Bi82  1  0.54591486  0.36983654  0.29690559  1
  Bi2+  Bi83  1  0.51383659  0.32182809  0.78987830  1
  Bi2+  Bi84  1  0.49146340  0.64423389  0.28651714  1
  Bi2+  Bi85  1  0.50489645  0.58848810  0.78496473  1
  Bi2+  Bi86  1  0.47337461  0.84554935  0.30425531  1
  Bi2+  Bi87  1  0.50259874  0.91524087  0.79801202  1
  Bi2+  Bi88  1  0.75623525  0.12627942  0.28152807  1
  Bi2+  Bi89  1  0.71576867  0.13568731  0.77848364  1
  Bi2+  Bi90  1  0.86988811  0.38988993  0.31295942  1
  Bi2+  Bi91  1  0.76782093  0.35386512  0.79424629  1
  Bi2+  Bi92  1  0.69370613  0.61724303  0.27941770  1
  Bi2+  Bi93  1  0.76383312  0.57091540  0.78317984  1
  Bi2+  Bi94  1  0.66428520  0.86964246  0.27774015  1
  Bi2+  Bi95  1  0.78668575  0.89723873  0.80166327  1
  Bi2+  Bi96  1  0.14716299  0.00824604  0.21529290  1
  Bi2+  Bi97  1  0.10099336  0.03050176  0.70886795  1
  Bi2+  Bi98  1  0.07256173  0.26317886  0.20015242  1
  Bi2+  Bi99  1  0.21658492  0.23785802  0.67867053  1
  Bi2+  Bi100  1  0.11565095  0.44805235  0.22966016  1
  Bi2+  Bi101  1  0.10851815  0.38999510  0.70238618  1
  Bi2+  Bi102  1  0.15480826  0.75839493  0.20290261  1
  Bi2+  Bi103  1  0.05959310  0.83404202  0.68321609  1
  Bi2+  Bi104  1  0.36328032  -0.00627200  0.20240048  1
  Bi2+  Bi105  1  0.35959006  0.01433903  0.71325198  1
  Bi2+  Bi106  1  0.35244266  0.18758411  0.23731891  1
  Bi2+  Bi107  1  0.40590963  0.27255114  0.69001203  1
  Bi2+  Bi108  1  0.36717938  0.47909569  0.18987954  1
  Bi2+  Bi109  1  0.35819763  0.49417572  0.72992922  1
  Bi2+  Bi110  1  0.40421504  0.74840388  0.20328778  1
  Bi2+  Bi111  1  0.35020646  0.74896965  0.73697845  1
  Bi2+  Bi112  1  0.56013270  -0.01193890  0.20763300  1
  Bi2+  Bi113  1  0.63885734  0.01323354  0.70435740  1
  Bi2+  Bi114  1  0.63697384  0.24316175  0.22181303  1
  Bi2+  Bi115  1  0.59235897  0.21268363  0.69792703  1
  Bi2+  Bi116  1  0.56482698  0.50918401  0.20886024  1
  Bi2+  Bi117  1  0.63568923  0.47413513  0.70962120  1
  Bi2+  Bi118  1  0.60081014  0.71320432  0.19342918  1
  Bi2+  Bi119  1  0.64818583  0.74271313  0.71451268  1
  Bi2+  Bi120  1  0.87530226  0.00580355  0.21610525  1
  Bi2+  Bi121  1  0.93624317  -0.00270575  0.76369524  1
  Bi2+  Bi122  1  0.87815938  0.28630732  0.21327421  1
  Bi2+  Bi123  1  0.85276475  0.19768856  0.68435820  1
  Bi2+  Bi124  1  0.84668041  0.48319555  0.21319360  1
  Bi2+  Bi125  1  0.85362484  0.45908805  0.70521895  1
  Bi2+  Bi126  1  0.85628898  0.75769331  0.20945612  1
  Bi2+  Bi127  1  0.89108711  0.74618688  0.70363263  1
  S2-  S128  1  -0.12407916  0.13905584  0.15351867  1
  S2-  S129  1  -0.01039453  0.12043953  0.64509214  1
  S2-  S130  1  -0.00094241  0.48205066  0.15549475  1
  S2-  S131  1  -0.05308002  0.34683125  0.65242904  1
  S2-  S132  1  -0.00068159  0.76211081  0.15522188  1
  S2-  S133  1  -0.05443312  0.59843992  0.66033203  1
  S2-  S134  1  0.01326711  0.97850252  0.15373514  1
  S2-  S135  1  -0.09518639  0.88216475  0.63799132  1
  S2-  S136  1  0.16286838  0.13600188  0.14653180  1
  S2-  S137  1  0.23373478  0.03591998  0.64145267  1
  S2-  S138  1  0.24564868  0.38376542  0.15223220  1
  S2-  S139  1  0.24101715  0.47426295  0.65741559  1
  S2-  S140  1  0.17536866  0.63034104  0.14601771  1
  S2-  S141  1  0.17063605  0.69181036  0.68550800  1
  S2-  S142  1  0.27194275  0.85453374  0.15015172  1
  S2-  S143  1  0.32298507  0.86387661  0.67369871  1
  S2-  S144  1  0.39006052  0.13071452  0.13823489  1
  S2-  S145  1  0.49493650  0.02047242  0.64676178  1
  S2-  S146  1  0.48729057  0.37108695  0.15583696  1
  S2-  S147  1  0.49224977  0.47714727  0.65981214  1
  S2-  S148  1  0.40042012  0.62597796  0.12800361  1
  S2-  S149  1  0.37055812  0.63316304  0.67104285  1
  S2-  S150  1  0.51855168  0.85225796  0.14182197  1
  S2-  S151  1  0.51227052  0.76831739  0.66857100  1
  S2-  S152  1  0.62923203  0.12645423  0.14725694  1
  S2-  S153  1  0.76292447  0.07410451  0.63750628  1
  S2-  S154  1  0.73493154  0.36383583  0.16601676  1
  S2-  S155  1  0.66070504  0.34786290  0.64030336  1
  S2-  S156  1  0.81088312  0.62346989  0.15586999  1
  S2-  S157  1  0.67834475  0.61845277  0.64786814  1
  S2-  S158  1  0.77870169  0.88586631  0.16038548  1
  S2-  S159  1  0.67134085  0.87438124  0.65226469  1
  S2-  S160  1  0.13988530  -0.11479387  0.35268249  1
  S2-  S161  1  0.13291431  0.01231224  0.84992791  1
  S2-  S162  1  0.25218074  0.27207173  0.36362311  1
  S2-  S163  1  0.02589020  0.22219902  0.86752622  1
  S2-  S164  1  0.14938254  0.54576450  0.36527195  1
  S2-  S165  1  0.14157756  0.49625723  0.84503169  1
  S2-  S166  1  0.16222702  0.70549582  0.29287080  1
  S2-  S167  1  0.23583768  0.74138182  0.84879057  1
  S2-  S168  1  0.47383910  -0.00008700  0.36206998  1
  S2-  S169  1  0.35668669  -0.06804834  0.84063580  1
  S2-  S170  1  0.48012701  0.24917776  0.35874125  1
  S2-  S171  1  0.37927763  0.35388537  0.85561528  1
  S2-  S172  1  0.38923097  0.46255711  0.34382694  1
  S2-  S173  1  0.36809820  0.55881799  0.83123688  1
  S2-  S174  1  0.31931785  0.68617733  0.37949813  1
  S2-  S175  1  0.45844929  0.74716528  0.82262993  1
  S2-  S176  1  0.68983680  0.00620019  0.33840032  1
  S2-  S177  1  0.61089869  0.03328881  0.83944634  1
  S2-  S178  1  0.68339147  0.27547168  0.32899882  1
  S2-  S179  1  0.62972848  0.37802210  0.85829497  1
  S2-  S180  1  0.63625895  0.49745994  0.34385966  1
  S2-  S181  1  0.64273609  0.59981068  0.85089469  1
  S2-  S182  1  0.70492395  0.75019678  0.35125490  1
  S2-  S183  1  0.63907706  0.81975772  0.81091782  1
  S2-  S184  1  0.87400867  -0.09121835  0.34250476  1
  S2-  S185  1  0.86954424  0.01684590  0.85703236  1
  S2-  S186  1  0.88249216  0.13583804  0.34878205  1
  S2-  S187  1  0.76373243  0.22125575  0.86239617  1
  S2-  S188  1  0.88504025  0.58324177  0.34924234  1
  S2-  S189  1  0.88808356  0.40499585  0.86266638  1
  S2-  S190  1  0.94969919  0.74469368  0.29712194  1
  S2-  S191  1  0.81626935  0.76276813  0.85643363  1
  S2-  S192  1  0.00556828  0.12957813  0.44367494  1
  S2-  S193  1  0.01199839  0.12023843  0.97237941  1
  S2-  S194  1  0.00020146  0.38125932  0.45204516  1
  S2-  S195  1  0.01582271  0.37562827  0.96598350  1
  S2-  S196  1  0.00347848  0.63595544  0.45484155  1
  S2-  S197  1  0.00806494  0.62791522  0.93790720  1
  S2-  S198  1  -0.00746569  0.87391055  0.44538322  1
  S2-  S199  1  0.01177403  0.87675561  0.95516892  1
  S2-  S200  1  0.24877117  0.12328981  0.45551090  1
  S2-  S201  1  0.26039853  0.12579584  0.95219993  1
  S2-  S202  1  0.24734859  0.38610337  0.46567741  1
  S2-  S203  1  0.25406630  0.37219753  0.95077626  1
  S2-  S204  1  0.23827813  0.63172877  0.48128216  1
  S2-  S205  1  0.26319762  0.62073334  0.95090488  1
  S2-  S206  1  0.24790379  0.87270251  0.46330938  1
  S2-  S207  1  0.25961402  0.87906998  0.94889098  1
  S2-  S208  1  0.49137507  0.12823298  0.46033792  1
  S2-  S209  1  0.51467477  0.12830337  0.95147730  1
  S2-  S210  1  0.49431021  0.38571695  0.46006899  1
  S2-  S211  1  0.50904298  0.37648275  0.95483962  1
  S2-  S212  1  0.50300940  0.63246106  0.45050786  1
  S2-  S213  1  0.50568679  0.62428227  0.94450746  1
  S2-  S214  1  0.49719202  0.87351933  0.46445225  1
  S2-  S215  1  0.51805991  0.87335103  0.93868448  1
  S2-  S216  1  0.74113879  0.13331802  0.44212160  1
  S2-  S217  1  0.76434655  0.12360177  0.96723090  1
  S2-  S218  1  0.74999694  0.38043064  0.44842586  1
  S2-  S219  1  0.76196863  0.37980807  0.96174858  1
  S2-  S220  1  0.75081034  0.62916221  0.45232970  1
  S2-  S221  1  0.76532324  0.62478960  0.95391977  1
  S2-  S222  1  0.74910909  0.88326961  0.45166637  1
  S2-  S223  1  0.76203608  0.87649631  0.95658243  1
  S2-  S224  1  0.14189903  -0.00559685  0.05078365  1
  S2-  S225  1  0.11813915  0.00724910  0.53955801  1
  S2-  S226  1  0.14040866  0.25296170  0.04774511  1
  S2-  S227  1  0.12155276  0.25621530  0.54416367  1
  S2-  S228  1  0.13794681  0.50076196  0.04783587  1
  S2-  S229  1  0.11500003  0.50118022  0.56177835  1
  S2-  S230  1  0.13474142  0.74819929  0.03987469  1
  S2-  S231  1  0.12114994  0.75923751  0.56599557  1
  S2-  S232  1  0.39127851  -0.00484013  0.03866280  1
  S2-  S233  1  0.37447568  0.00480530  0.54729341  1
  S2-  S234  1  0.38625349  0.25436468  0.04053018  1
  S2-  S235  1  0.37446751  0.25408668  0.54874621  1
  S2-  S236  1  0.38631949  0.49679908  0.03271463  1
  S2-  S237  1  0.37624604  0.50477954  0.55280616  1
  S2-  S238  1  0.38920424  0.75215146  0.02652824  1
  S2-  S239  1  0.37677895  0.75660216  0.56579984  1
  S2-  S240  1  0.63585077  -0.00514364  0.04453565  1
  S2-  S241  1  0.62131108  0.00475899  0.54052456  1
  S2-  S242  1  0.63660126  0.25602492  0.04522995  1
  S2-  S243  1  0.61993130  0.25118873  0.53530244  1
  S2-  S244  1  0.63430599  0.50503751  0.04733050  1
  S2-  S245  1  0.62309497  0.50527467  0.54573349  1
  S2-  S246  1  0.63449584  0.74522093  0.04018813  1
  S2-  S247  1  0.62338776  0.75284763  0.54698200  1
  S2-  S248  1  0.88491677  -0.00746955  0.05551808  1
  S2-  S249  1  0.87615232  0.01174482  0.52845573  1
  S2-  S250  1  0.89004322  0.25581522  0.05152359  1
  S2-  S251  1  0.87144361  0.25397229  0.53305860  1
  S2-  S252  1  0.89136767  0.50449908  0.04945432  1
  S2-  S253  1  0.86893789  0.50350490  0.54570622  1
  S2-  S254  1  0.89037396  0.74653520  0.04774026  1
  S2-  S255  1  0.86722461  0.75095325  0.54600690  1
