# generated using pymatgen
data_La12Ce14Pr13Nd13Sm12(BiS2)64
_symmetry_space_group_name_H-M   'P 1'
_cell_length_a   16.17521906
_cell_length_b   16.11114389
_cell_length_c   27.38280401
_cell_angle_alpha   90.01374026
_cell_angle_beta   90.02501536
_cell_angle_gamma   89.87406226
_symmetry_Int_Tables_number   1
_chemical_formula_structural   La12Ce14Pr13Nd13Sm12(BiS2)64
_chemical_formula_sum   'La12 Ce14 Pr13 Nd13 Sm12 Bi64 S128'
_cell_volume   7135.97569981
_cell_formula_units_Z   1
loop_
 _symmetry_equiv_pos_site_id
 _symmetry_equiv_pos_as_xyz
  1  'x, y, z'
loop_
 _atom_type_symbol
 _atom_type_oxidation_number
  La3+  3.0
  Ce3+  3.0
  Pr3+  3.0
  Nd3+  3.0
  Sm3+  3.0
  Bi2+  2.0
  S2-  -2.0
loop_
 _atom_site_type_symbol
 _atom_site_label
 _atom_site_symmetry_multiplicity
 _atom_site_fract_x
 _atom_site_fract_y
 _atom_site_fract_z
 _atom_site_occupancy
  La3+  La0  1  0.00722737  0.38979570  0.05794884  1
  La3+  La1  1  0.61904722  0.73995770  0.40321781  1
  La3+  La2  1  0.00040896  0.11657358  0.60304398  1
  La3+  La3  1  0.88380782  0.52544498  0.90712541  1
  La3+  La4  1  0.87843617  0.25964202  0.89313421  1
  La3+  La5  1  0.38208430  0.76882422  0.92891583  1
  La3+  La6  1  0.39462212  0.01824869  0.91735796  1
  La3+  La7  1  0.50943372  0.37417168  0.57891453  1
  La3+  La8  1  0.75142381  0.89536082  0.09453703  1
  La3+  La9  1  0.74197702  0.10720193  0.57468888  1
  La3+  La10  1  0.01754577  0.90045524  0.09525936  1
  La3+  La11  1  0.50877573  0.38958406  0.06782789  1
  Ce3+  Ce12  1  0.50133696  0.61669033  0.55982630  1
  Ce3+  Ce13  1  0.12788335  0.74456991  0.43514260  1
  Ce3+  Ce14  1  0.61945753  -0.00115621  0.42924878  1
  Ce3+  Ce15  1  0.76057494  0.13754063  0.05930394  1
  Ce3+  Ce16  1  -0.00135622  0.37295993  0.56363467  1
  Ce3+  Ce17  1  0.50742383  0.89302504  0.05836974  1
  Ce3+  Ce18  1  0.25082660  0.86870731  0.54898017  1
  Ce3+  Ce19  1  0.38005829  -0.00322251  0.43579721  1
  Ce3+  Ce20  1  0.74785643  0.86975832  0.54389758  1
  Ce3+  Ce21  1  0.00762412  0.13816083  0.05402777  1
  Ce3+  Ce22  1  0.13192177  0.01377403  0.93541693  1
  Ce3+  Ce23  1  0.38372531  0.26287379  0.93443461  1
  Ce3+  Ce24  1  0.76198668  0.39020418  0.05148246  1
  Ce3+  Ce25  1  0.50850664  0.64275789  0.05770984  1
  Pr3+  Pr26  1  0.75603362  0.63186855  0.07530275  1
  Pr3+  Pr27  1  0.12354199  0.49433994  0.43424752  1
  Pr3+  Pr28  1  0.88224449  0.76378031  0.95474852  1
  Pr3+  Pr29  1  0.49827655  0.12463198  0.56699552  1
  Pr3+  Pr30  1  0.88367440  0.01427075  0.93919815  1
  Pr3+  Pr31  1  0.26247614  0.89884593  0.06597170  1
  Pr3+  Pr32  1  -0.00426451  0.86626586  0.56331574  1
  Pr3+  Pr33  1  0.25738850  0.64431132  0.05980349  1
  Pr3+  Pr34  1  0.37385844  0.74003900  0.43640353  1
  Pr3+  Pr35  1  0.24705708  0.10975833  0.56913514  1
  Pr3+  Pr36  1  0.25858952  0.39135341  0.05899634  1
  Pr3+  Pr37  1  0.87728129  0.49016360  0.42788858  1
  Pr3+  Pr38  1  0.86634535  -0.00068583  0.43296510  1
  Nd3+  Nd39  1  0.74963017  0.61977831  0.54697811  1
  Nd3+  Nd40  1  0.38812929  0.51837878  0.92601098  1
  Nd3+  Nd41  1  0.24599855  0.37040718  0.55971116  1
  Nd3+  Nd42  1  0.13208511  0.51476421  0.93749240  1
  Nd3+  Nd43  1  0.88438145  0.74802047  0.42202921  1
  Nd3+  Nd44  1  0.63872024  0.01558998  0.94005942  1
  Nd3+  Nd45  1  0.00644363  0.64316418  0.06452861  1
  Nd3+  Nd46  1  0.75434303  0.38121373  0.56870143  1
  Nd3+  Nd47  1  0.62498333  0.24991270  0.44512336  1
  Nd3+  Nd48  1  0.87543674  0.24321584  0.45384842  1
  Nd3+  Nd49  1  0.61701537  0.48837105  0.42441549  1
  Nd3+  Nd50  1  0.63154226  0.51281912  0.93681397  1
  Nd3+  Nd51  1  0.12859253  0.26781506  0.93191545  1
  Sm3+  Sm52  1  0.50052724  0.86774300  0.55278789  1
  Sm3+  Sm53  1  0.12393783  0.24125620  0.45293804  1
  Sm3+  Sm54  1  0.37343336  0.24587822  0.44791230  1
  Sm3+  Sm55  1  0.25926912  0.13748581  0.04982953  1
  Sm3+  Sm56  1  0.24849770  0.62076342  0.56231881  1
  Sm3+  Sm57  1  0.12239074  -0.00423688  0.44308864  1
  Sm3+  Sm58  1  -0.00223711  0.62389089  0.55534648  1
  Sm3+  Sm59  1  0.37438147  0.49349310  0.44533328  1
  Sm3+  Sm60  1  0.50956796  0.13797689  0.05306431  1
  Sm3+  Sm61  1  0.13171642  0.76531211  0.94496804  1
  Sm3+  Sm62  1  0.63713229  0.76174604  0.94939119  1
  Sm3+  Sm63  1  0.63609201  0.26798080  0.94309220  1
  Bi2+  Bi64  1  -0.08183279  0.14119324  0.30195724  1
  Bi2+  Bi65  1  0.00563344  0.12686201  0.78719405  1
  Bi2+  Bi66  1  -0.00832354  0.35318098  0.29523997  1
  Bi2+  Bi67  1  0.03179847  0.39946808  0.78461628  1
  Bi2+  Bi68  1  0.09588832  0.58305725  0.28302356  1
  Bi2+  Bi69  1  0.00575170  0.69812001  0.79312398  1
  Bi2+  Bi70  1  0.04157195  0.88921828  0.28893666  1
  Bi2+  Bi71  1  -0.05246227  0.88037804  0.77950333  1
  Bi2+  Bi72  1  0.26778329  0.06641064  0.29950634  1
  Bi2+  Bi73  1  0.22607119  0.10178182  0.75879486  1
  Bi2+  Bi74  1  0.24860987  0.33729410  0.30480008  1
  Bi2+  Bi75  1  0.26252097  0.36061941  0.83885784  1
  Bi2+  Bi76  1  0.25184481  0.61753074  0.34800121  1
  Bi2+  Bi77  1  0.21061573  0.53916277  0.80463917  1
  Bi2+  Bi78  1  0.27758149  0.86412135  0.28055119  1
  Bi2+  Bi79  1  0.24341681  0.82173952  0.77698351  1
  Bi2+  Bi80  1  0.43411440  0.10292651  0.24199608  1
  Bi2+  Bi81  1  0.47004034  0.07898700  0.77906380  1
  Bi2+  Bi82  1  0.48640573  0.35699051  0.29782396  1
  Bi2+  Bi83  1  0.43788457  0.38410164  0.78609917  1
  Bi2+  Bi84  1  0.43231529  0.62249073  0.29174836  1
  Bi2+  Bi85  1  0.47979556  0.59255565  0.78146025  1
  Bi2+  Bi86  1  0.47483861  0.89760859  0.28484010  1
  Bi2+  Bi87  1  0.47955270  0.79644842  0.79934129  1
  Bi2+  Bi88  1  0.68765361  0.15577535  0.28641536  1
  Bi2+  Bi89  1  0.70221126  0.12180779  0.81291969  1
  Bi2+  Bi90  1  0.72961878  0.37638929  0.27734365  1
  Bi2+  Bi91  1  0.71565891  0.39136770  0.79839606  1
  Bi2+  Bi92  1  0.74014769  0.62022307  0.28528423  1
  Bi2+  Bi93  1  0.74167676  0.67119388  0.79682308  1
  Bi2+  Bi94  1  0.78282249  0.88942819  0.29200937  1
  Bi2+  Bi95  1  0.75358569  0.88757493  0.78843671  1
  Bi2+  Bi96  1  0.16749494  0.00315648  0.20493226  1
  Bi2+  Bi97  1  0.12194468  -0.03980095  0.70707093  1
  Bi2+  Bi98  1  0.09504232  0.19921051  0.25593147  1
  Bi2+  Bi99  1  0.18426271  0.29555983  0.73848512  1
  Bi2+  Bi100  1  0.12291979  0.47039110  0.18759348  1
  Bi2+  Bi101  1  0.07688677  0.54659213  0.71314976  1
  Bi2+  Bi102  1  0.18524062  0.72099543  0.21604725  1
  Bi2+  Bi103  1  0.12440840  0.73596119  0.69901795  1
  Bi2+  Bi104  1  0.39761872  -0.06567089  0.17797245  1
  Bi2+  Bi105  1  0.37125763  -0.04970642  0.71291873  1
  Bi2+  Bi106  1  0.27821399  0.22184987  0.21394017  1
  Bi2+  Bi107  1  0.37108381  0.22489916  0.72676767  1
  Bi2+  Bi108  1  0.29240106  0.50200533  0.25207977  1
  Bi2+  Bi109  1  0.32632488  0.49680987  0.71670548  1
  Bi2+  Bi110  1  0.38065822  0.74674624  0.20625559  1
  Bi2+  Bi111  1  0.38653801  0.74482881  0.70669881  1
  Bi2+  Bi112  1  0.61971452  0.03162220  0.21063332  1
  Bi2+  Bi113  1  0.62387364  -0.04973886  0.70752881  1
  Bi2+  Bi114  1  0.61023424  0.27380436  0.20205727  1
  Bi2+  Bi115  1  0.61496109  0.22175611  0.70404706  1
  Bi2+  Bi116  1  0.60313323  0.48914100  0.20032242  1
  Bi2+  Bi117  1  0.62768410  0.55783814  0.70376608  1
  Bi2+  Bi118  1  0.62964010  0.75381803  0.20415835  1
  Bi2+  Bi119  1  0.65240725  0.75068319  0.70477902  1
  Bi2+  Bi120  1  0.89930387  0.04390995  0.20801657  1
  Bi2+  Bi121  1  0.84383743  0.00461790  0.71201598  1
  Bi2+  Bi122  1  0.81974850  0.23111134  0.20795819  1
  Bi2+  Bi123  1  0.85729929  0.29735726  0.69601656  1
  Bi2+  Bi124  1  0.88550493  0.42178933  0.20720862  1
  Bi2+  Bi125  1  0.87850435  0.54808250  0.70902561  1
  Bi2+  Bi126  1  0.90390269  0.71961832  0.21346149  1
  Bi2+  Bi127  1  0.85029742  0.74364859  0.70186421  1
  S2-  S128  1  0.02435157  0.06624055  0.14334568  1
  S2-  S129  1  -0.01103287  0.20820883  0.69224955  1
  S2-  S130  1  0.02081637  0.34854614  0.15616279  1
  S2-  S131  1  -0.03993400  0.42303213  0.65370829  1
  S2-  S132  1  0.00385439  0.61814534  0.16295327  1
  S2-  S133  1  -0.01275679  0.72796830  0.63411050  1
  S2-  S134  1  -0.03426486  0.86576256  0.19169812  1
  S2-  S135  1  -0.01595360  0.96193121  0.64916327  1
  S2-  S136  1  0.27838859  0.04429052  0.13180438  1
  S2-  S137  1  0.15972443  0.10549340  0.65592714  1
  S2-  S138  1  0.24589718  0.36144832  0.15678378  1
  S2-  S139  1  0.24479117  0.38498733  0.65843445  1
  S2-  S140  1  0.25323205  0.59383362  0.15626511  1
  S2-  S141  1  0.27025280  0.64922870  0.65793255  1
  S2-  S142  1  0.16497387  0.86074332  0.14952131  1
  S2-  S143  1  0.25525604  0.91502818  0.64148043  1
  S2-  S144  1  0.52118378  0.14430673  0.15115523  1
  S2-  S145  1  0.60089882  0.08812577  0.64720337  1
  S2-  S146  1  0.48356149  0.38775466  0.16768739  1
  S2-  S147  1  0.47429201  0.24781935  0.64635554  1
  S2-  S148  1  0.53281548  0.62469097  0.15440461  1
  S2-  S149  1  0.50517625  0.51867504  0.64181211  1
  S2-  S150  1  0.58581857  0.89377555  0.14723884  1
  S2-  S151  1  0.49413505  0.86836721  0.65155750  1
  S2-  S152  1  0.75741090  0.05056495  0.14538360  1
  S2-  S153  1  0.79945215  0.15116265  0.66762536  1
  S2-  S154  1  0.74500613  0.44449012  0.14295035  1
  S2-  S155  1  0.66769371  0.34511264  0.65447850  1
  S2-  S156  1  0.75872014  0.64348797  0.17737975  1
  S2-  S157  1  0.76279313  0.53216915  0.63466821  1
  S2-  S158  1  0.77021316  0.83625000  0.19139346  1
  S2-  S159  1  0.74876714  0.93490046  0.63389458  1
  S2-  S160  1  0.13015968  0.00530907  0.34507309  1
  S2-  S161  1  0.12550831  0.04429646  0.83837481  1
  S2-  S162  1  0.12133237  0.26485100  0.35564363  1
  S2-  S163  1  0.03676724  0.25462637  0.84560738  1
  S2-  S164  1  0.01259052  0.48879832  0.35575235  1
  S2-  S165  1  0.04311403  0.52775730  0.85263361  1
  S2-  S166  1  0.04518836  0.76734100  0.35230085  1
  S2-  S167  1  0.14488291  0.75407316  0.84691475  1
  S2-  S168  1  0.48790085  0.00932012  0.35882386  1
  S2-  S169  1  0.35757272  -0.11087501  0.85303212  1
  S2-  S170  1  0.39094412  0.25435829  0.34963244  1
  S2-  S171  1  0.38572651  0.15966147  0.85535003  1
  S2-  S172  1  0.45252620  0.47585200  0.35820502  1
  S2-  S173  1  0.51673636  0.48248723  0.85954681  1
  S2-  S174  1  0.45972727  0.75380727  0.34958943  1
  S2-  S175  1  0.37590917  0.64704010  0.85463447  1
  S2-  S176  1  0.72251108  0.01911040  0.35162900  1
  S2-  S177  1  0.56726218  0.01148777  0.84960260  1
  S2-  S178  1  0.61982708  0.34712751  0.36204055  1
  S2-  S179  1  0.62327996  0.26101316  0.84418702  1
  S2-  S180  1  0.61790125  0.59697904  0.34468566  1
  S2-  S181  1  0.72696878  0.52674986  0.85296341  1
  S2-  S182  1  0.64910370  0.80312989  0.30499510  1
  S2-  S183  1  0.61199353  0.75340128  0.85226769  1
  S2-  S184  1  0.92292425  -0.03967971  0.33982670  1
  S2-  S185  1  0.86822245  0.09024303  0.84877020  1
  S2-  S186  1  0.86991786  0.27660393  0.35584037  1
  S2-  S187  1  0.80246565  0.24511502  0.78911879  1
  S2-  S188  1  0.80119406  0.49461766  0.33570283  1
  S2-  S189  1  0.87703099  0.40383655  0.83304630  1
  S2-  S190  1  0.84945346  0.73427802  0.32298206  1
  S2-  S191  1  0.87663602  0.68985681  0.86332661  1
  S2-  S192  1  0.00169302  0.12049927  0.44926210  1
  S2-  S193  1  0.00585636  0.14237223  0.95076530  1
  S2-  S194  1  0.00339230  0.36611595  0.45986050  1
  S2-  S195  1  0.00399132  0.38922742  0.95062611  1
  S2-  S196  1  0.00196006  0.62262612  0.45216824  1
  S2-  S197  1  0.01103998  0.64067163  0.95937075  1
  S2-  S198  1  0.00001338  0.87401805  0.45530583  1
  S2-  S199  1  0.00724833  0.88741804  0.94242441  1
  S2-  S200  1  0.24976306  0.11915507  0.45743114  1
  S2-  S201  1  0.25336971  0.14068174  0.94802014  1
  S2-  S202  1  0.24800260  0.36967256  0.45472834  1
  S2-  S203  1  0.25970152  0.39146762  0.95354909  1
  S2-  S204  1  0.24852010  0.61591000  0.46014120  1
  S2-  S205  1  0.25492071  0.63861849  0.95423721  1
  S2-  S206  1  0.25156350  0.87296906  0.44300414  1
  S2-  S207  1  0.25196973  0.88990082  0.95743807  1
  S2-  S208  1  0.49867214  0.12847114  0.45929212  1
  S2-  S209  1  0.51627236  0.14434473  0.95163978  1
  S2-  S210  1  0.49246998  0.36701154  0.46745419  1
  S2-  S211  1  0.50584087  0.38377480  0.95994951  1
  S2-  S212  1  0.49758690  0.61772358  0.45480736  1
  S2-  S213  1  0.50979232  0.64084731  0.95487676  1
  S2-  S214  1  0.50237761  0.86445357  0.45100910  1
  S2-  S215  1  0.51582156  0.88811862  0.95406048  1
  S2-  S216  1  0.74621957  0.12431377  0.45988290  1
  S2-  S217  1  0.76067440  0.14607313  0.95334764  1
  S2-  S218  1  0.75309474  0.37129855  0.46120328  1
  S2-  S219  1  0.76377254  0.38552387  0.94806578  1
  S2-  S220  1  0.75250188  0.62323836  0.44321420  1
  S2-  S221  1  0.75741936  0.63728370  0.96662380  1
  S2-  S222  1  0.74683788  0.86313210  0.44019690  1
  S2-  S223  1  0.75773710  0.88787097  0.94819864  1
  S2-  S224  1  0.13193349  0.01448672  0.03917077  1
  S2-  S225  1  0.12128562  -0.00681281  0.54567420  1
  S2-  S226  1  0.13609748  0.26127769  0.04210385  1
  S2-  S227  1  0.12109227  0.24197141  0.55701206  1
  S2-  S228  1  0.13302396  0.51740061  0.04480601  1
  S2-  S229  1  0.12314689  0.50016211  0.54826076  1
  S2-  S230  1  0.12840256  0.76792897  0.04812948  1
  S2-  S231  1  0.12769444  0.74402729  0.54134369  1
  S2-  S232  1  0.38900816  0.01880901  0.03049250  1
  S2-  S233  1  0.37848302  -0.00565254  0.54331119  1
  S2-  S234  1  0.38266097  0.26008821  0.04653929  1
  S2-  S235  1  0.36344059  0.24207188  0.55015931  1
  S2-  S236  1  0.38359817  0.51651596  0.04442056  1
  S2-  S237  1  0.36856888  0.49468536  0.54905287  1
  S2-  S238  1  0.38339902  0.76778647  0.04576993  1
  S2-  S239  1  0.37436828  0.74249235  0.54488092  1
  S2-  S240  1  0.63392868  0.01516272  0.04378447  1
  S2-  S241  1  0.61798282  -0.00981219  0.53526228  1
  S2-  S242  1  0.63490329  0.26300533  0.04874921  1
  S2-  S243  1  0.62976035  0.24562630  0.54814554  1
  S2-  S244  1  0.63091447  0.51383578  0.04366442  1
  S2-  S245  1  0.62605271  0.49632278  0.53573439  1
  S2-  S246  1  0.63907289  0.76561860  0.05279581  1
  S2-  S247  1  0.62433036  0.74372536  0.55028122  1
  S2-  S248  1  0.88559589  0.00647535  0.04564954  1
  S2-  S249  1  0.87607421  -0.00151907  0.54063304  1
  S2-  S250  1  0.88277051  0.26156275  0.05674036  1
  S2-  S251  1  0.87715892  0.24426869  0.55899572  1
  S2-  S252  1  0.88512306  0.51688186  0.05168265  1
  S2-  S253  1  0.88154270  0.49913793  0.53542105  1
  S2-  S254  1  0.88305105  0.77146766  0.06218557  1
  S2-  S255  1  0.87235941  0.74459961  0.53209187  1
