# generated using pymatgen
data_La12Ce14Pr13Nd13Sm12(BiS2)64
_symmetry_space_group_name_H-M   'P 1'
_cell_length_a   16.17648277
_cell_length_b   16.15192918
_cell_length_c   27.24406494
_cell_angle_alpha   89.91092550
_cell_angle_beta   90.01032448
_cell_angle_gamma   89.99646880
_symmetry_Int_Tables_number   1
_chemical_formula_structural   La12Ce14Pr13Nd13Sm12(BiS2)64
_chemical_formula_sum   'La12 Ce14 Pr13 Nd13 Sm12 Bi64 S128'
_cell_volume   7118.35880557
_cell_formula_units_Z   1
loop_
 _symmetry_equiv_pos_site_id
 _symmetry_equiv_pos_as_xyz
  1  'x, y, z'
loop_
 _atom_type_symbol
 _atom_type_oxidation_number
  La3+  3.0
  Ce3+  3.0
  Pr3+  3.0
  Nd3+  3.0
  Sm3+  3.0
  Bi2+  2.0
  S2-  -2.0
loop_
 _atom_site_type_symbol
 _atom_site_label
 _atom_site_symmetry_multiplicity
 _atom_site_fract_x
 _atom_site_fract_y
 _atom_site_fract_z
 _atom_site_occupancy
  La3+  La0  1  0.61545935  0.27321548  0.41262399  1
  La3+  La1  1  0.74083660  0.64172892  0.58582787  1
  La3+  La2  1  0.49165441  0.63256374  0.57863292  1
  La3+  La3  1  0.13131198  0.75851356  0.90614611  1
  La3+  La4  1  0.62193052  0.01332268  0.43490840  1
  La3+  La5  1  -0.01045529  0.64075178  0.57524507  1
  La3+  La6  1  0.75999762  0.11105990  0.11516473  1
  La3+  La7  1  0.13002951  0.25023654  0.93732372  1
  La3+  La8  1  -0.02090378  0.14834536  0.57742489  1
  La3+  La9  1  0.60971223  0.51901463  0.42897032  1
  La3+  La10  1  0.11639571  0.76388603  0.44490343  1
  La3+  La11  1  0.00327056  0.37981910  0.06548322  1
  Ce3+  Ce12  1  0.74307538  0.37288768  0.07791982  1
  Ce3+  Ce13  1  0.36853734  0.76356215  0.45300418  1
  Ce3+  Ce14  1  0.37827709  0.25324600  0.94320969  1
  Ce3+  Ce15  1  0.36964888  0.01445736  0.44564732  1
  Ce3+  Ce16  1  0.49903053  0.37849153  0.06561441  1
  Ce3+  Ce17  1  0.12133577  0.51567245  0.44579697  1
  Ce3+  Ce18  1  0.00326517  0.12518755  0.06659207  1
  Ce3+  Ce19  1  0.86176896  0.76142035  0.44039252  1
  Ce3+  Ce20  1  0.49532637  0.89107646  0.55796257  1
  Ce3+  Ce21  1  -0.01172313  0.38893381  0.55779843  1
  Ce3+  Ce22  1  0.61767187  0.75703771  0.44672306  1
  Ce3+  Ce23  1  0.25627869  0.38876056  0.07083237  1
  Ce3+  Ce24  1  0.24106566  0.63719142  0.56986256  1
  Ce3+  Ce25  1  0.25463132  0.12609424  0.06712549  1
  Pr3+  Pr26  1  0.75747006  0.61996378  0.06071448  1
  Pr3+  Pr27  1  0.87931406  0.49900044  0.93277608  1
  Pr3+  Pr28  1  0.75709687  0.87669319  0.05683332  1
  Pr3+  Pr29  1  0.11500817  0.01495658  0.44032403  1
  Pr3+  Pr30  1  0.24254256  0.38365059  0.56139167  1
  Pr3+  Pr31  1  0.86581137  0.51980367  0.43647768  1
  Pr3+  Pr32  1  0.50854570  0.87667200  0.05527977  1
  Pr3+  Pr33  1  0.38161274  0.75334286  0.92742089  1
  Pr3+  Pr34  1  0.36669533  0.26362799  0.43122686  1
  Pr3+  Pr35  1  -0.01028644  0.89234300  0.56351989  1
  Pr3+  Pr36  1  0.63139755  0.49226591  0.92976936  1
  Pr3+  Pr37  1  0.49515653  0.14298666  0.56274750  1
  Pr3+  Pr38  1  0.25295903  0.63502510  0.06027970  1
  Nd3+  Nd39  1  0.12910575  0.00578505  0.93492113  1
  Nd3+  Nd40  1  0.63198820  0.75033798  0.93609680  1
  Nd3+  Nd41  1  0.24102278  0.89136491  0.56484919  1
  Nd3+  Nd42  1  0.87887955  0.00655785  0.93762333  1
  Nd3+  Nd43  1  0.87879011  0.01448553  0.43051204  1
  Nd3+  Nd44  1  0.74216009  0.38916311  0.54893285  1
  Nd3+  Nd45  1  0.88284970  0.27272013  0.41363257  1
  Nd3+  Nd46  1  0.13146556  0.50301997  0.93489573  1
  Nd3+  Nd47  1  0.50693950  0.62641653  0.05301024  1
  Nd3+  Nd48  1  0.35973902  0.51952482  0.43637574  1
  Nd3+  Nd49  1  0.63147991  0.00601828  0.94146633  1
  Nd3+  Nd50  1  0.49440024  0.38739925  0.56082701  1
  Nd3+  Nd51  1  0.49905278  0.12683352  0.06464173  1
  Sm3+  Sm52  1  0.62981482  0.25212564  0.94978476  1
  Sm3+  Sm53  1  0.74519279  0.14249855  0.54533499  1
  Sm3+  Sm54  1  0.23869168  0.13849564  0.55538215  1
  Sm3+  Sm55  1  0.00415270  0.87762878  0.04794983  1
  Sm3+  Sm56  1  0.87781900  0.25298996  0.95129207  1
  Sm3+  Sm57  1  0.25072023  0.87281057  0.05563583  1
  Sm3+  Sm58  1  0.74189212  0.89031954  0.56459238  1
  Sm3+  Sm59  1  0.00594499  0.63081839  0.04480367  1
  Sm3+  Sm60  1  0.37816346  0.50248297  0.94099643  1
  Sm3+  Sm61  1  0.11637932  0.26296688  0.44382072  1
  Sm3+  Sm62  1  0.37990182  0.00216773  0.94317982  1
  Sm3+  Sm63  1  0.87747157  0.75099085  0.93342302  1
  Bi2+  Bi64  1  0.08878449  0.09836333  0.28756157  1
  Bi2+  Bi65  1  -0.00108965  0.14839671  0.79574940  1
  Bi2+  Bi66  1  0.03864713  0.38994034  0.29903572  1
  Bi2+  Bi67  1  0.01126815  0.34470666  0.78613090  1
  Bi2+  Bi68  1  0.05226117  0.63581953  0.23894131  1
  Bi2+  Bi69  1  -0.00077081  0.60295249  0.77770758  1
  Bi2+  Bi70  1  -0.03731237  0.76877193  0.30232663  1
  Bi2+  Bi71  1  0.01257681  0.90664735  0.78104371  1
  Bi2+  Bi72  1  0.25506981  0.20078948  0.31289206  1
  Bi2+  Bi73  1  0.25727255  0.14217924  0.78644107  1
  Bi2+  Bi74  1  0.25183608  0.39686197  0.29299311  1
  Bi2+  Bi75  1  0.20099672  0.32477727  0.81527292  1
  Bi2+  Bi76  1  0.24009405  0.65197463  0.29452129  1
  Bi2+  Bi77  1  0.26680003  0.61381255  0.77967886  1
  Bi2+  Bi78  1  0.21569996  0.92581024  0.28952156  1
  Bi2+  Bi79  1  0.27047695  0.87285346  0.78356373  1
  Bi2+  Bi80  1  0.43672256  0.10360669  0.29841300  1
  Bi2+  Bi81  1  0.54588335  0.12628435  0.79150386  1
  Bi2+  Bi82  1  0.45230521  0.38946693  0.28002935  1
  Bi2+  Bi83  1  0.51017961  0.31996533  0.78990028  1
  Bi2+  Bi84  1  0.48778350  0.64320473  0.30017518  1
  Bi2+  Bi85  1  0.50553017  0.62627077  0.80187130  1
  Bi2+  Bi86  1  0.50714423  0.83487206  0.28261569  1
  Bi2+  Bi87  1  0.46170563  0.83060641  0.79354725  1
  Bi2+  Bi88  1  0.74058246  0.08510604  0.31626723  1
  Bi2+  Bi89  1  0.74188494  0.09709287  0.80046270  1
  Bi2+  Bi90  1  0.76304725  0.36593343  0.29172621  1
  Bi2+  Bi91  1  0.74910579  0.38823471  0.79503948  1
  Bi2+  Bi92  1  0.75329156  0.64674617  0.28615944  1
  Bi2+  Bi93  1  0.76004473  0.63348766  0.78881360  1
  Bi2+  Bi94  1  0.70241053  0.83787128  0.29874980  1
  Bi2+  Bi95  1  0.73309621  0.90190134  0.78235629  1
  Bi2+  Bi96  1  0.16761380  0.04117919  0.18266603  1
  Bi2+  Bi97  1  0.15955026  0.00719863  0.72038634  1
  Bi2+  Bi98  1  0.15850610  0.23609833  0.20722714  1
  Bi2+  Bi99  1  0.11587228  0.23512417  0.69037637  1
  Bi2+  Bi100  1  0.12454372  0.43307402  0.19999959  1
  Bi2+  Bi101  1  0.14693728  0.46186062  0.73861662  1
  Bi2+  Bi102  1  0.13371157  0.83616175  0.19742575  1
  Bi2+  Bi103  1  0.12530729  0.74780334  0.69575402  1
  Bi2+  Bi104  1  0.34976412  -0.00492459  0.21153314  1
  Bi2+  Bi105  1  0.40041387  0.02352578  0.74170409  1
  Bi2+  Bi106  1  0.36599623  0.24880539  0.21459596  1
  Bi2+  Bi107  1  0.35052620  0.27987267  0.70649073  1
  Bi2+  Bi108  1  0.36427485  0.51110110  0.20631757  1
  Bi2+  Bi109  1  0.40943135  0.46139720  0.74130658  1
  Bi2+  Bi110  1  0.33081179  0.79286605  0.22900919  1
  Bi2+  Bi111  1  0.40668936  0.70314928  0.71305416  1
  Bi2+  Bi112  1  0.61364354  -0.03355145  0.20919382  1
  Bi2+  Bi113  1  0.57047408  0.05533441  0.68078094  1
  Bi2+  Bi114  1  0.62367758  0.23625311  0.21322981  1
  Bi2+  Bi115  1  0.61439119  0.25002726  0.69856971  1
  Bi2+  Bi116  1  0.61978763  0.51534706  0.20135120  1
  Bi2+  Bi117  1  0.61950238  0.49920991  0.69942712  1
  Bi2+  Bi118  1  0.60493329  0.71646895  0.19942580  1
  Bi2+  Bi119  1  0.61221934  0.79700294  0.71392549  1
  Bi2+  Bi120  1  0.87323333  -0.12869999  0.22248007  1
  Bi2+  Bi121  1  0.76522290  0.01882248  0.69081560  1
  Bi2+  Bi122  1  0.90622387  0.24177454  0.21737978  1
  Bi2+  Bi123  1  0.80342897  0.23236331  0.72859782  1
  Bi2+  Bi124  1  0.89167190  0.53261148  0.21060087  1
  Bi2+  Bi125  1  0.87252351  0.43851527  0.69797638  1
  Bi2+  Bi126  1  0.79964726  0.71110014  0.17879599  1
  Bi2+  Bi127  1  0.87109445  0.80402343  0.72509183  1
  S2-  S128  1  -0.07228921  0.11979811  0.15528446  1
  S2-  S129  1  0.03802153  0.09320500  0.66934363  1
  S2-  S130  1  -0.03765665  0.38134185  0.16432999  1
  S2-  S131  1  -0.01661705  0.31402390  0.64530471  1
  S2-  S132  1  -0.00589225  0.61510726  0.14276876  1
  S2-  S133  1  0.03540300  0.62028592  0.67301597  1
  S2-  S134  1  -0.00318908  0.87972182  0.14614579  1
  S2-  S135  1  -0.00651619  0.84417982  0.66113694  1
  S2-  S136  1  0.37352887  0.12536890  0.13985229  1
  S2-  S137  1  0.26011739  0.15968382  0.65149107  1
  S2-  S138  1  0.37691510  0.37393175  0.14213971  1
  S2-  S139  1  0.22831412  0.38793675  0.66181388  1
  S2-  S140  1  0.23670809  0.52820617  0.14165014  1
  S2-  S141  1  0.26007984  0.64355045  0.66750477  1
  S2-  S142  1  0.25719531  0.76388207  0.13243218  1
  S2-  S143  1  0.23360607  0.88451854  0.66425146  1
  S2-  S144  1  0.58780463  0.11266356  0.15025853  1
  S2-  S145  1  0.47939995  0.26587219  0.63615835  1
  S2-  S146  1  0.59302990  0.37986886  0.14995394  1
  S2-  S147  1  0.48295539  0.48794910  0.64609877  1
  S2-  S148  1  0.48515109  0.60620726  0.15175305  1
  S2-  S149  1  0.60891376  0.64336463  0.65637795  1
  S2-  S150  1  0.52422085  0.86473671  0.15498229  1
  S2-  S151  1  0.51397202  0.88586343  0.65476704  1
  S2-  S152  1  0.73599447  0.10184157  0.22284446  1
  S2-  S153  1  0.82421729  0.15329513  0.63262882  1
  S2-  S154  1  0.76908906  0.27441460  0.16118342  1
  S2-  S155  1  0.72935107  0.38899693  0.64967637  1
  S2-  S156  1  0.75909379  0.50935645  0.14141766  1
  S2-  S157  1  0.81537377  0.58396232  0.67924313  1
  S2-  S158  1  0.75739743  0.93928491  0.15016844  1
  S2-  S159  1  0.75568066  0.79792504  0.64873450  1
  S2-  S160  1  0.01557697  0.00854418  0.35768895  1
  S2-  S161  1  0.14237595  -0.08627550  0.84975398  1
  S2-  S162  1  0.04059401  0.25969571  0.35617688  1
  S2-  S163  1  0.12557116  0.12966727  0.86115714  1
  S2-  S164  1  0.22281297  0.52819383  0.36484011  1
  S2-  S165  1  0.12654327  0.54657615  0.83794183  1
  S2-  S166  1  0.11812903  0.74670532  0.34477711  1
  S2-  S167  1  0.05846615  0.73999673  0.80914845  1
  S2-  S168  1  0.33938931  -0.01149651  0.35085515  1
  S2-  S169  1  0.37738432  -0.02737035  0.84644602  1
  S2-  S170  1  0.46762528  0.26015612  0.34997608  1
  S2-  S171  1  0.35892515  0.25202359  0.84624445  1
  S2-  S172  1  0.46266047  0.51190338  0.35598266  1
  S2-  S173  1  0.37807648  0.51754112  0.84274239  1
  S2-  S174  1  0.35745975  0.71471303  0.36014486  1
  S2-  S175  1  0.27464495  0.73444525  0.84849402  1
  S2-  S176  1  0.57520249  0.02773747  0.33754608  1
  S2-  S177  1  0.61851744  -0.01686359  0.84315599  1
  S2-  S178  1  0.65873591  0.22927142  0.31435007  1
  S2-  S179  1  0.64807684  0.31886131  0.85879734  1
  S2-  S180  1  0.64831093  0.41905399  0.34687886  1
  S2-  S181  1  0.64280911  0.51957997  0.82878708  1
  S2-  S182  1  0.62519358  0.66069199  0.36369280  1
  S2-  S183  1  0.63612229  0.72548697  0.83794690  1
  S2-  S184  1  0.81217573  -0.07175956  0.35156783  1
  S2-  S185  1  0.92481957  0.00959562  0.84005133  1
  S2-  S186  1  0.85796754  0.20462644  0.31840436  1
  S2-  S187  1  0.91024098  0.25958388  0.85346272  1
  S2-  S188  1  0.88552123  0.42188995  0.34952200  1
  S2-  S189  1  0.86816310  0.51516392  0.83188081  1
  S2-  S190  1  0.87163037  0.65149289  0.36335131  1
  S2-  S191  1  0.85115455  0.73997270  0.83585231  1
  S2-  S192  1  -0.00666408  0.14125216  0.46065400  1
  S2-  S193  1  0.00083680  0.12892475  0.96039077  1
  S2-  S194  1  -0.00143265  0.39400553  0.45472829  1
  S2-  S195  1  0.00616488  0.37709910  0.95320603  1
  S2-  S196  1  -0.00434362  0.63788943  0.46460540  1
  S2-  S197  1  0.00355033  0.63019521  0.94013732  1
  S2-  S198  1  -0.01073974  0.88415020  0.45752462  1
  S2-  S199  1  -0.00119922  0.87561114  0.94340888  1
  S2-  S200  1  0.23972138  0.13817544  0.45055357  1
  S2-  S201  1  0.25860778  0.12453655  0.95882209  1
  S2-  S202  1  0.23997570  0.38426074  0.45480201  1
  S2-  S203  1  0.25389874  0.38071217  0.95631206  1
  S2-  S204  1  0.24109973  0.64265255  0.46640830  1
  S2-  S205  1  0.25488228  0.62613363  0.95163690  1
  S2-  S206  1  0.24176073  0.89026704  0.45781512  1
  S2-  S207  1  0.25824955  0.87782785  0.95258185  1
  S2-  S208  1  0.49384995  0.13798809  0.45497881  1
  S2-  S209  1  0.50427081  0.12710966  0.95364404  1
  S2-  S210  1  0.48733204  0.38933381  0.45613044  1
  S2-  S211  1  0.50154914  0.37739282  0.95413690  1
  S2-  S212  1  0.48737006  0.64004657  0.46780837  1
  S2-  S213  1  0.50631820  0.62441597  0.94619621  1
  S2-  S214  1  0.49429583  0.88736158  0.45096808  1
  S2-  S215  1  0.50707419  0.87844845  0.94850342  1
  S2-  S216  1  0.74835370  0.14123192  0.44049330  1
  S2-  S217  1  0.75418319  0.13213830  0.94513776  1
  S2-  S218  1  0.74709189  0.38756394  0.44635884  1
  S2-  S219  1  0.75646662  0.37549390  0.96093025  1
  S2-  S220  1  0.74222051  0.63891843  0.46836499  1
  S2-  S221  1  0.75497018  0.62529064  0.94980225  1
  S2-  S222  1  0.73983710  0.88399847  0.46099235  1
  S2-  S223  1  0.75553618  0.87726703  0.94734486  1
  S2-  S224  1  0.12969691  -0.00157372  0.04313945  1
  S2-  S225  1  0.11550116  0.01574479  0.54903976  1
  S2-  S226  1  0.13093286  0.25359857  0.05067146  1
  S2-  S227  1  0.11585311  0.26063799  0.54731766  1
  S2-  S228  1  0.12515329  0.50591115  0.03998565  1
  S2-  S229  1  0.11682200  0.51209033  0.55443643  1
  S2-  S230  1  0.12418861  0.75519788  0.03283341  1
  S2-  S231  1  0.11757994  0.76573860  0.55400572  1
  S2-  S232  1  0.37718533  -0.00635017  0.04709074  1
  S2-  S233  1  0.36689524  0.01677931  0.55350319  1
  S2-  S234  1  0.37430263  0.25447718  0.04463720  1
  S2-  S235  1  0.36207672  0.25914431  0.53840721  1
  S2-  S236  1  0.37983081  0.50894143  0.04314405  1
  S2-  S237  1  0.36127032  0.51206070  0.54659749  1
  S2-  S238  1  0.38532412  0.75295031  0.03516954  1
  S2-  S239  1  0.36700687  0.76618153  0.55941921  1
  S2-  S240  1  0.63230249  0.00361530  0.04553975  1
  S2-  S241  1  0.62249801  0.01643330  0.54388354  1
  S2-  S242  1  0.62359856  0.24952819  0.04987526  1
  S2-  S243  1  0.62197775  0.26209575  0.53596676  1
  S2-  S244  1  0.62744379  0.50157275  0.03814576  1
  S2-  S245  1  0.61868476  0.51277012  0.54401081  1
  S2-  S246  1  0.63375374  0.74949899  0.04299655  1
  S2-  S247  1  0.61642039  0.76640175  0.55056068  1
  S2-  S248  1  0.87945643  0.00196020  0.04350801  1
  S2-  S249  1  0.86399371  0.01178662  0.54045532  1
  S2-  S250  1  0.87889212  0.25210713  0.05274775  1
  S2-  S251  1  0.86615953  0.26821527  0.53050825  1
  S2-  S252  1  0.88463976  0.50458007  0.03910765  1
  S2-  S253  1  0.86667103  0.51499986  0.54897891  1
  S2-  S254  1  0.88083714  0.75166887  0.03879833  1
  S2-  S255  1  0.86798704  0.76485801  0.54881470  1
