# generated using pymatgen
data_La12Ce14Pr13Nd13Sm12(BiS2)64
_symmetry_space_group_name_H-M   'P 1'
_cell_length_a   16.20506854
_cell_length_b   16.20336613
_cell_length_c   27.03915951
_cell_angle_alpha   89.85818153
_cell_angle_beta   90.02944912
_cell_angle_gamma   89.98852707
_symmetry_Int_Tables_number   1
_chemical_formula_structural   La12Ce14Pr13Nd13Sm12(BiS2)64
_chemical_formula_sum   'La12 Ce14 Pr13 Nd13 Sm12 Bi64 S128'
_cell_volume   7099.82932841
_cell_formula_units_Z   1
loop_
 _symmetry_equiv_pos_site_id
 _symmetry_equiv_pos_as_xyz
  1  'x, y, z'
loop_
 _atom_type_symbol
 _atom_type_oxidation_number
  La3+  3.0
  Ce3+  3.0
  Pr3+  3.0
  Nd3+  3.0
  Sm3+  3.0
  Bi2+  2.0
  S2-  -2.0
loop_
 _atom_site_type_symbol
 _atom_site_label
 _atom_site_symmetry_multiplicity
 _atom_site_fract_x
 _atom_site_fract_y
 _atom_site_fract_z
 _atom_site_occupancy
  La3+  La0  1  0.24251144  0.36603110  0.09287930  1
  La3+  La1  1  0.87944953  0.50068214  0.92539420  1
  La3+  La2  1  0.75371237  0.11015657  0.58793715  1
  La3+  La3  1  0.37199524  0.74690005  0.94333466  1
  La3+  La4  1  0.48826019  0.10970351  0.58643274  1
  La3+  La5  1  0.36520893  0.49584614  0.39514683  1
  La3+  La6  1  0.13170512  0.75159808  0.90860783  1
  La3+  La7  1  0.61114022  -0.00450205  0.91840722  1
  La3+  La8  1  0.61371498  0.50294894  0.92222531  1
  La3+  La9  1  0.62029974  0.74543899  0.43225079  1
  La3+  La10  1  -0.00853421  0.36723520  0.56120466  1
  La3+  La11  1  0.74733058  0.61249151  0.07461648  1
  Ce3+  Ce12  1  0.74453498  0.61890996  0.55732440  1
  Ce3+  Ce13  1  0.49583401  0.87176369  0.55583734  1
  Ce3+  Ce14  1  0.62380492  0.74188063  0.94702798  1
  Ce3+  Ce15  1  0.74430407  0.12000177  0.04761146  1
  Ce3+  Ce16  1  0.61902003  0.25210647  0.93414232  1
  Ce3+  Ce17  1  -0.00350388  0.36917813  0.05975110  1
  Ce3+  Ce18  1  0.12296482  0.24516396  0.94566662  1
  Ce3+  Ce19  1  0.86964331  0.24564479  0.93495211  1
  Ce3+  Ce20  1  0.12374065  0.24504740  0.44311277  1
  Ce3+  Ce21  1  0.37066665  0.74295945  0.44076041  1
  Ce3+  Ce22  1  0.50030803  0.87156719  0.06401734  1
  Ce3+  Ce23  1  0.86921357  -0.00400572  0.93936290  1
  Ce3+  Ce24  1  0.74816395  0.37243615  0.04799637  1
  Ce3+  Ce25  1  0.74478500  0.87239187  0.05669373  1
  Pr3+  Pr26  1  0.12265442  0.74193235  0.44031813  1
  Pr3+  Pr27  1  -0.00350184  0.86606059  0.55866379  1
  Pr3+  Pr28  1  0.87242057  0.74218347  0.43315272  1
  Pr3+  Pr29  1  0.12135223  -0.00555943  0.44100866  1
  Pr3+  Pr30  1  0.00031515  0.62143667  0.05534253  1
  Pr3+  Pr31  1  0.24998168  0.61487331  0.56341013  1
  Pr3+  Pr32  1  0.24226934  0.62284574  0.06040361  1
  Pr3+  Pr33  1  0.49437007  0.36973122  0.56575608  1
  Pr3+  Pr34  1  0.24409270  0.11794952  0.56511138  1
  Pr3+  Pr35  1  0.24735548  0.37038063  0.55783412  1
  Pr3+  Pr36  1  0.12228315  0.49353950  0.43635323  1
  Pr3+  Pr37  1  0.24202591  0.11903471  0.06734951  1
  Pr3+  Pr38  1  0.61905349  0.49014866  0.43875591  1
  Nd3+  Nd39  1  0.36702275  0.49320886  0.94752619  1
  Nd3+  Nd40  1  -0.00380031  0.11724153  0.55731475  1
  Nd3+  Nd41  1  0.24275192  0.87355402  0.06290081  1
  Nd3+  Nd42  1  0.12300572  -0.00081339  0.93263281  1
  Nd3+  Nd43  1  0.86832626  0.24395688  0.43846735  1
  Nd3+  Nd44  1  0.37544616  0.24116275  0.43379902  1
  Nd3+  Nd45  1  0.49540063  0.61839095  0.06600035  1
  Nd3+  Nd46  1  0.50018692  0.12184837  0.06246514  1
  Nd3+  Nd47  1  0.74646073  0.86860947  0.55497657  1
  Nd3+  Nd48  1  0.61879592  0.00063104  0.44054849  1
  Nd3+  Nd49  1  0.87219557  0.74654824  0.94019935  1
  Nd3+  Nd50  1  0.49826962  0.37288325  0.06364719  1
  Nd3+  Nd51  1  0.12360494  0.48762367  0.93253253  1
  Sm3+  Sm52  1  0.74383325  0.36879089  0.56478749  1
  Sm3+  Sm53  1  -0.00686336  0.11977351  0.05372966  1
  Sm3+  Sm54  1  -0.00470119  0.61779180  0.56100589  1
  Sm3+  Sm55  1  -0.00328336  0.87095900  0.05153969  1
  Sm3+  Sm56  1  0.61989620  0.24153642  0.45666760  1
  Sm3+  Sm57  1  0.37446524  -0.00137022  0.94898589  1
  Sm3+  Sm58  1  0.86913438  0.49340134  0.44322444  1
  Sm3+  Sm59  1  0.86921162  -0.00284859  0.43680231  1
  Sm3+  Sm60  1  0.49728696  0.61740645  0.55317799  1
  Sm3+  Sm61  1  0.37054543  0.24762949  0.94968893  1
  Sm3+  Sm62  1  0.37052786  -0.00191829  0.43630532  1
  Sm3+  Sm63  1  0.24549325  0.86592358  0.55581512  1
  Bi2+  Bi64  1  -0.03169223  0.16737284  0.29221414  1
  Bi2+  Bi65  1  0.03572206  0.12825435  0.79433121  1
  Bi2+  Bi66  1  0.00981559  0.35980441  0.28575786  1
  Bi2+  Bi67  1  0.03705711  0.32983514  0.78014662  1
  Bi2+  Bi68  1  -0.02038076  0.62067385  0.29452349  1
  Bi2+  Bi69  1  -0.01388352  0.60032742  0.78174468  1
  Bi2+  Bi70  1  0.02280868  0.92625814  0.26936502  1
  Bi2+  Bi71  1  0.00564401  0.92624747  0.78232636  1
  Bi2+  Bi72  1  0.24618779  0.09780461  0.28768488  1
  Bi2+  Bi73  1  0.22975559  0.11564173  0.79836319  1
  Bi2+  Bi74  1  0.22832734  0.34888218  0.29347748  1
  Bi2+  Bi75  1  0.23220360  0.43365080  0.80538874  1
  Bi2+  Bi76  1  0.20851793  0.64383045  0.28439892  1
  Bi2+  Bi77  1  0.26912662  0.61800013  0.80573156  1
  Bi2+  Bi78  1  0.28254234  0.89845576  0.30925022  1
  Bi2+  Bi79  1  0.23115301  0.92842850  0.76390805  1
  Bi2+  Bi80  1  0.52381900  0.10004363  0.30557759  1
  Bi2+  Bi81  1  0.48890782  0.12240828  0.80684060  1
  Bi2+  Bi82  1  0.52891994  0.35786824  0.29950949  1
  Bi2+  Bi83  1  0.47391409  0.38914821  0.79656535  1
  Bi2+  Bi84  1  0.53154048  0.62396049  0.30091716  1
  Bi2+  Bi85  1  0.50863506  0.63834267  0.78531688  1
  Bi2+  Bi86  1  0.47779720  0.89740726  0.29148567  1
  Bi2+  Bi87  1  0.51777084  0.85075286  0.79614344  1
  Bi2+  Bi88  1  0.77658739  0.14523535  0.30668658  1
  Bi2+  Bi89  1  0.83872632  0.13171674  0.77780502  1
  Bi2+  Bi90  1  0.75293881  0.38112209  0.25347922  1
  Bi2+  Bi91  1  0.75938218  0.38108427  0.77267909  1
  Bi2+  Bi92  1  0.76560386  0.63359683  0.29010582  1
  Bi2+  Bi93  1  0.74819628  0.64186856  0.78930803  1
  Bi2+  Bi94  1  0.76168869  0.95931017  0.27810234  1
  Bi2+  Bi95  1  0.71377945  0.87044624  0.80613291  1
  Bi2+  Bi96  1  0.16773698  -0.02465774  0.19185625  1
  Bi2+  Bi97  1  0.11951092  0.05485525  0.69414893  1
  Bi2+  Bi98  1  0.08139586  0.23736628  0.20430746  1
  Bi2+  Bi99  1  0.15727422  0.23907147  0.69923017  1
  Bi2+  Bi100  1  0.10856648  0.52292868  0.20809909  1
  Bi2+  Bi101  1  0.16154451  0.49034818  0.70114955  1
  Bi2+  Bi102  1  0.10459990  0.77045716  0.20732717  1
  Bi2+  Bi103  1  0.13582576  0.77327022  0.70189072  1
  Bi2+  Bi104  1  0.35835135  0.00311305  0.21678412  1
  Bi2+  Bi105  1  0.38949816  0.00709159  0.71495437  1
  Bi2+  Bi106  1  0.38953451  0.24730979  0.20455898  1
  Bi2+  Bi107  1  0.32753258  0.27162704  0.75508837  1
  Bi2+  Bi108  1  0.39582024  0.51242198  0.19419958  1
  Bi2+  Bi109  1  0.36851446  0.51241449  0.71288122  1
  Bi2+  Bi110  1  0.36939256  0.74412245  0.25860383  1
  Bi2+  Bi111  1  0.36695058  0.76139651  0.75072284  1
  Bi2+  Bi112  1  0.61243229  0.03154804  0.20962298  1
  Bi2+  Bi113  1  0.62706489  0.02378764  0.70961341  1
  Bi2+  Bi114  1  0.65942052  0.22090870  0.22245413  1
  Bi2+  Bi115  1  0.61760362  0.26973464  0.73067687  1
  Bi2+  Bi116  1  0.63876942  0.51781627  0.19994376  1
  Bi2+  Bi117  1  0.59672944  0.53208140  0.69915539  1
  Bi2+  Bi118  1  0.62744744  0.77513790  0.20119909  1
  Bi2+  Bi119  1  0.64303963  0.76420652  0.71819353  1
  Bi2+  Bi120  1  0.88774489  0.09161585  0.19520147  1
  Bi2+  Bi121  1  0.87743517  -0.03149090  0.70218496  1
  Bi2+  Bi122  1  0.88774864  0.29046060  0.18327277  1
  Bi2+  Bi123  1  0.93343382  0.26246719  0.69527244  1
  Bi2+  Bi124  1  0.91123396  0.48255019  0.21461508  1
  Bi2+  Bi125  1  0.88363967  0.51072978  0.68952730  1
  Bi2+  Bi126  1  0.87430597  0.82792986  0.22361864  1
  Bi2+  Bi127  1  0.85497848  0.78388593  0.74290184  1
  S2-  S128  1  0.04652233  0.09048570  0.14660885  1
  S2-  S129  1  -0.08868995  0.11773215  0.64360223  1
  S2-  S130  1  0.08933191  0.38232705  0.14345304  1
  S2-  S131  1  0.02014974  0.41168480  0.65711831  1
  S2-  S132  1  0.01566570  0.63386677  0.15669281  1
  S2-  S133  1  -0.01990007  0.63047192  0.65977727  1
  S2-  S134  1  -0.01940301  0.86062271  0.15003249  1
  S2-  S135  1  0.00776616  0.86352187  0.65885643  1
  S2-  S136  1  0.25470960  0.21140455  0.15215223  1
  S2-  S137  1  0.33500241  0.10846504  0.64938221  1
  S2-  S138  1  0.29211073  0.38873017  0.19525563  1
  S2-  S139  1  0.29530504  0.40534534  0.65333375  1
  S2-  S140  1  0.25290668  0.58284259  0.15819080  1
  S2-  S141  1  0.21054453  0.63668144  0.66214510  1
  S2-  S142  1  0.23591407  0.82061556  0.15851211  1
  S2-  S143  1  0.24590507  0.86179526  0.65426572  1
  S2-  S144  1  0.46969084  0.12354559  0.16155143  1
  S2-  S145  1  0.52067495  0.15664709  0.68789630  1
  S2-  S146  1  0.50082487  0.38054813  0.16447989  1
  S2-  S147  1  0.54575999  0.38774337  0.66312204  1
  S2-  S148  1  0.51860723  0.63433377  0.16569537  1
  S2-  S149  1  0.47348502  0.61764962  0.65080198  1
  S2-  S150  1  0.51269705  0.86593337  0.16188662  1
  S2-  S151  1  0.50026771  0.94688126  0.64460232  1
  S2-  S152  1  0.72454971  0.10548902  0.14537715  1
  S2-  S153  1  0.71743243  0.15541746  0.68720109  1
  S2-  S154  1  0.73435136  0.45606005  0.13198902  1
  S2-  S155  1  0.79344778  0.36386726  0.66004335  1
  S2-  S156  1  0.74671548  0.65147837  0.17721883  1
  S2-  S157  1  0.74798934  0.59568755  0.65481245  1
  S2-  S158  1  0.74269762  0.86473385  0.15542088  1
  S2-  S159  1  0.74060731  0.95115249  0.64325316  1
  S2-  S160  1  0.13707599  -0.00811602  0.34094579  1
  S2-  S161  1  0.12617701  -0.10053461  0.85129773  1
  S2-  S162  1  0.17242764  0.22955091  0.34900290  1
  S2-  S163  1  0.14734421  0.31138495  0.85712452  1
  S2-  S164  1  0.20856073  0.49565086  0.34782653  1
  S2-  S165  1  0.01827965  0.49621776  0.85200454  1
  S2-  S166  1  0.09742671  0.73001970  0.34042215  1
  S2-  S167  1  0.11253963  0.68729106  0.81182487  1
  S2-  S168  1  0.38215342  0.11098626  0.36182551  1
  S2-  S169  1  0.44810038  -0.01901424  0.86042546  1
  S2-  S170  1  0.37843205  0.33227153  0.34653745  1
  S2-  S171  1  0.39367768  0.24795443  0.85123495  1
  S2-  S172  1  0.42592118  0.49482253  0.29374804  1
  S2-  S173  1  0.43821843  0.51651084  0.85692091  1
  S2-  S174  1  0.36947148  0.66445409  0.35384845  1
  S2-  S175  1  0.29946834  0.76440895  0.85295244  1
  S2-  S176  1  0.61836991  -0.04483941  0.34388105  1
  S2-  S177  1  0.65112428  0.02535174  0.81731191  1
  S2-  S178  1  0.59521257  0.23492997  0.35855911  1
  S2-  S179  1  0.60753335  0.21848729  0.83705840  1
  S2-  S180  1  0.62457949  0.49067551  0.33762990  1
  S2-  S181  1  0.62375457  0.41674499  0.83204244  1
  S2-  S182  1  0.64995286  0.73362934  0.33204131  1
  S2-  S183  1  0.62524091  0.65102220  0.86270275  1
  S2-  S184  1  0.89870747  -0.04438910  0.34294849  1
  S2-  S185  1  0.87113266  -0.00744550  0.84190485  1
  S2-  S186  1  0.85206181  0.28932331  0.34235908  1
  S2-  S187  1  0.84290106  0.26157130  0.83673301  1
  S2-  S188  1  0.86812975  0.52551312  0.34674029  1
  S2-  S189  1  0.81391466  0.50182263  0.82939342  1
  S2-  S190  1  0.86735381  0.73932273  0.33071012  1
  S2-  S191  1  0.89626837  0.71942890  0.84161797  1
  S2-  S192  1  -0.00548195  0.11980293  0.44956823  1
  S2-  S193  1  -0.00414246  0.12081403  0.94688054  1
  S2-  S194  1  -0.00636684  0.37005227  0.45070449  1
  S2-  S195  1  -0.00483542  0.36669505  0.95231720  1
  S2-  S196  1  -0.00528546  0.61646797  0.45348557  1
  S2-  S197  1  0.00412751  0.62835035  0.94864533  1
  S2-  S198  1  -0.00448522  0.86872390  0.45032730  1
  S2-  S199  1  -0.00334676  0.87137524  0.94717708  1
  S2-  S200  1  0.24537697  0.11797711  0.45826320  1
  S2-  S201  1  0.25024499  0.12019071  0.95636243  1
  S2-  S202  1  0.24976647  0.36968270  0.45216915  1
  S2-  S203  1  0.24810985  0.36857241  0.96297813  1
  S2-  S204  1  0.24668726  0.61756633  0.45543217  1
  S2-  S205  1  0.24300135  0.61927663  0.95158934  1
  S2-  S206  1  0.24791421  0.86972627  0.45024351  1
  S2-  S207  1  0.25036102  0.87894096  0.95623824  1
  S2-  S208  1  0.49728679  0.11891423  0.46767860  1
  S2-  S209  1  0.49608459  0.12486753  0.95588698  1
  S2-  S210  1  0.49830470  0.36589948  0.45723679  1
  S2-  S211  1  0.49312004  0.37081723  0.95575385  1
  S2-  S212  1  0.49654928  0.61627109  0.44823533  1
  S2-  S213  1  0.49137513  0.62234056  0.96081096  1
  S2-  S214  1  0.49361372  0.87252501  0.44846701  1
  S2-  S215  1  0.49874135  0.86849556  0.95770699  1
  S2-  S216  1  0.74627157  0.11912726  0.45404650  1
  S2-  S217  1  0.74128169  0.12021505  0.94144722  1
  S2-  S218  1  0.74565263  0.36831235  0.45649783  1
  S2-  S219  1  0.74653445  0.37438494  0.94384629  1
  S2-  S220  1  0.74569935  0.61827394  0.44983022  1
  S2-  S221  1  0.75240605  0.62072902  0.95995822  1
  S2-  S222  1  0.74852548  0.87136064  0.44773874  1
  S2-  S223  1  0.74363864  0.87125407  0.94884779  1
  S2-  S224  1  0.11827239  -0.00387098  0.03982311  1
  S2-  S225  1  0.12140325  -0.00895345  0.54869621  1
  S2-  S226  1  0.11829712  0.24154076  0.04872610  1
  S2-  S227  1  0.11951758  0.24352427  0.55139196  1
  S2-  S228  1  0.12301209  0.49512976  0.04124556  1
  S2-  S229  1  0.11892534  0.49553667  0.54486110  1
  S2-  S230  1  0.12146814  0.75090650  0.04290546  1
  S2-  S231  1  0.12134215  0.74023630  0.54776689  1
  S2-  S232  1  0.37243100  -0.00284711  0.05438110  1
  S2-  S233  1  0.36628515  -0.01086371  0.54192642  1
  S2-  S234  1  0.37349578  0.24631516  0.05302913  1
  S2-  S235  1  0.37148135  0.24406359  0.54876393  1
  S2-  S236  1  0.36818505  0.49316941  0.05482653  1
  S2-  S237  1  0.37574452  0.49631395  0.54649459  1
  S2-  S238  1  0.37077535  0.74748916  0.05300815  1
  S2-  S239  1  0.37216054  0.74376667  0.54846900  1
  S2-  S240  1  0.61978086  -0.00407957  0.04012108  1
  S2-  S241  1  0.62327943  -0.00442846  0.54522803  1
  S2-  S242  1  0.62133001  0.24861315  0.04607110  1
  S2-  S243  1  0.62465075  0.24072880  0.56154928  1
  S2-  S244  1  0.61629330  0.49755386  0.03764296  1
  S2-  S245  1  0.62196696  0.49342587  0.54699870  1
  S2-  S246  1  0.62228048  0.74193596  0.05292208  1
  S2-  S247  1  0.61962722  0.74537581  0.54379385  1
  S2-  S248  1  0.87232806  -0.00470675  0.04640458  1
  S2-  S249  1  0.87332822  -0.00871203  0.54142758  1
  S2-  S250  1  0.87107719  0.24308986  0.04259077  1
  S2-  S251  1  0.86515339  0.24372752  0.54577809  1
  S2-  S252  1  0.87763370  0.49571342  0.04019222  1
  S2-  S253  1  0.86919406  0.49489725  0.54804460  1
  S2-  S254  1  0.87174215  0.74636906  0.04835969  1
  S2-  S255  1  0.87130569  0.74192775  0.54446319  1
