# generated using pymatgen
data_La12Ce14Pr13Nd13Sm12(BiS2)64
_symmetry_space_group_name_H-M   'P 1'
_cell_length_a   16.22241095
_cell_length_b   16.19584359
_cell_length_c   27.16885155
_cell_angle_alpha   90.15302858
_cell_angle_beta   90.07585827
_cell_angle_gamma   90.01292751
_symmetry_Int_Tables_number   1
_chemical_formula_structural   La12Ce14Pr13Nd13Sm12(BiS2)64
_chemical_formula_sum   'La12 Ce14 Pr13 Nd13 Sm12 Bi64 S128'
_cell_volume   7138.19343317
_cell_formula_units_Z   1
loop_
 _symmetry_equiv_pos_site_id
 _symmetry_equiv_pos_as_xyz
  1  'x, y, z'
loop_
 _atom_type_symbol
 _atom_type_oxidation_number
  La3+  3.0
  Ce3+  3.0
  Pr3+  3.0
  Nd3+  3.0
  Sm3+  3.0
  Bi2+  2.0
  S2-  -2.0
loop_
 _atom_site_type_symbol
 _atom_site_label
 _atom_site_symmetry_multiplicity
 _atom_site_fract_x
 _atom_site_fract_y
 _atom_site_fract_z
 _atom_site_occupancy
  La3+  La0  1  0.50589331  0.12591912  0.55942229  1
  La3+  La1  1  0.25155388  0.88399301  0.06312520  1
  La3+  La2  1  0.74759832  0.88246534  0.59120140  1
  La3+  La3  1  0.24800383  0.38081772  0.06642033  1
  La3+  La4  1  0.00500348  0.12289884  0.07800088  1
  La3+  La5  1  0.50670427  0.38775359  0.06807900  1
  La3+  La6  1  0.87262294  0.01218860  0.92375523  1
  La3+  La7  1  0.62944626  -0.00963296  0.42709761  1
  La3+  La8  1  0.12411633  0.74879439  0.43615610  1
  La3+  La9  1  0.74750134  0.12331637  0.09443401  1
  La3+  La10  1  0.00947445  0.88462103  0.58981943  1
  La3+  La11  1  0.63147927  0.49983462  0.42665573  1
  Ce3+  Ce12  1  0.50134529  0.37700579  0.55630136  1
  Ce3+  Ce13  1  0.62630658  0.75453281  0.93794388  1
  Ce3+  Ce14  1  0.12810675  0.75659920  0.93395311  1
  Ce3+  Ce15  1  0.00238342  0.37361823  0.54710446  1
  Ce3+  Ce16  1  0.62502571  0.00815769  0.94228308  1
  Ce3+  Ce17  1  0.12539360  0.24428136  0.43122457  1
  Ce3+  Ce18  1  0.37512358  0.24923581  0.43562700  1
  Ce3+  Ce19  1  0.24804855  0.63206171  0.05988330  1
  Ce3+  Ce20  1  0.37493288  0.75398745  0.94626125  1
  Ce3+  Ce21  1  0.87456670  0.50541046  0.43882016  1
  Ce3+  Ce22  1  0.87585592  0.24670361  0.94892372  1
  Ce3+  Ce23  1  0.87520800  0.75627807  0.92834129  1
  Ce3+  Ce24  1  0.62637802  0.50341300  0.93472114  1
  Ce3+  Ce25  1  0.12634330  0.50307317  0.94314275  1
  Pr3+  Pr26  1  0.50251468  0.88075779  0.05542419  1
  Pr3+  Pr27  1  0.25197464  0.13245282  0.06434727  1
  Pr3+  Pr28  1  0.12802989  0.50182879  0.43218987  1
  Pr3+  Pr29  1  0.87455264  0.24585817  0.43092379  1
  Pr3+  Pr30  1  0.88185791  -0.00902798  0.44014146  1
  Pr3+  Pr31  1  0.61505749  0.24377417  0.42051817  1
  Pr3+  Pr32  1  -0.00064147  0.63180967  0.05060285  1
  Pr3+  Pr33  1  0.25618957  0.87242810  0.56977403  1
  Pr3+  Pr34  1  0.12813044  -0.00775038  0.43517072  1
  Pr3+  Pr35  1  0.75162151  0.12139801  0.55594661  1
  Pr3+  Pr36  1  0.24976564  0.37574827  0.55729686  1
  Pr3+  Pr37  1  0.75062956  0.61197044  0.57783298  1
  Pr3+  Pr38  1  0.00075673  0.88455113  0.04483247  1
  Nd3+  Nd39  1  0.50150217  0.14052458  0.07205238  1
  Nd3+  Nd40  1  0.75176045  0.37141205  0.55256140  1
  Nd3+  Nd41  1  0.75160498  0.88297287  0.05686163  1
  Nd3+  Nd42  1  0.75386280  0.37790310  0.05741257  1
  Nd3+  Nd43  1  0.63202822  0.75047184  0.44824189  1
  Nd3+  Nd44  1  0.25177224  0.12450074  0.55449013  1
  Nd3+  Nd45  1  0.12958562  0.01393239  0.92462436  1
  Nd3+  Nd46  1  0.87565577  0.50047855  0.93420137  1
  Nd3+  Nd47  1  0.62563225  0.25249839  0.94162372  1
  Nd3+  Nd48  1  0.37903390  0.49793090  0.43494101  1
  Nd3+  Nd49  1  0.75422253  0.63035178  0.05157560  1
  Nd3+  Nd50  1  0.25227931  0.62333315  0.55980423  1
  Nd3+  Nd51  1  0.87874456  0.75283037  0.46291537  1
  Sm3+  Sm52  1  0.37647490  0.25560549  0.94417358  1
  Sm3+  Sm53  1  0.50466635  0.62156124  0.55143315  1
  Sm3+  Sm54  1  0.00256438  0.62499645  0.56665724  1
  Sm3+  Sm55  1  0.37468999  0.50386488  0.94379082  1
  Sm3+  Sm56  1  0.37624889  -0.00396209  0.44702875  1
  Sm3+  Sm57  1  0.37610078  0.00740507  0.94700580  1
  Sm3+  Sm58  1  -0.00192828  0.37633560  0.05704447  1
  Sm3+  Sm59  1  0.37689295  0.74931262  0.44468769  1
  Sm3+  Sm60  1  0.12555645  0.25228238  0.94187570  1
  Sm3+  Sm61  1  0.50391864  0.62815425  0.05963008  1
  Sm3+  Sm62  1  0.50299577  0.87096007  0.56247521  1
  Sm3+  Sm63  1  0.00351629  0.12359868  0.55781338  1
  Bi2+  Bi64  1  0.01628319  0.17548228  0.27457341  1
  Bi2+  Bi65  1  -0.02840679  0.17010247  0.77639830  1
  Bi2+  Bi66  1  -0.02259800  0.45651980  0.27594066  1
  Bi2+  Bi67  1  0.00181021  0.35760934  0.80390702  1
  Bi2+  Bi68  1  -0.04115409  0.63632123  0.31903193  1
  Bi2+  Bi69  1  0.04021003  0.53770138  0.75009820  1
  Bi2+  Bi70  1  0.00345101  0.92230631  0.31410377  1
  Bi2+  Bi71  1  0.02470116  0.84063039  0.79625390  1
  Bi2+  Bi72  1  0.26767254  0.07534132  0.27409192  1
  Bi2+  Bi73  1  0.24125449  0.14055624  0.79602253  1
  Bi2+  Bi74  1  0.28224360  0.26617525  0.30121866  1
  Bi2+  Bi75  1  0.20095263  0.33911001  0.78738012  1
  Bi2+  Bi76  1  0.24955890  0.61616870  0.28963527  1
  Bi2+  Bi77  1  0.24825259  0.59994584  0.80136774  1
  Bi2+  Bi78  1  0.27938157  0.85851562  0.29410480  1
  Bi2+  Bi79  1  0.29389070  0.88032779  0.79118517  1
  Bi2+  Bi80  1  0.46288938  0.09150663  0.23222823  1
  Bi2+  Bi81  1  0.45569547  0.11165454  0.79087027  1
  Bi2+  Bi82  1  0.43871945  0.38040805  0.28766093  1
  Bi2+  Bi83  1  0.47726968  0.41817327  0.77826796  1
  Bi2+  Bi84  1  0.53530513  0.64090521  0.29107392  1
  Bi2+  Bi85  1  0.44087104  0.63185758  0.78785625  1
  Bi2+  Bi86  1  0.52049019  0.93925685  0.29816959  1
  Bi2+  Bi87  1  0.49698527  0.89458411  0.76624028  1
  Bi2+  Bi88  1  0.76105869  0.13102824  0.28839908  1
  Bi2+  Bi89  1  0.72612589  0.13280242  0.80436118  1
  Bi2+  Bi90  1  0.71948606  0.40979788  0.28878528  1
  Bi2+  Bi91  1  0.80343113  0.36599701  0.80505448  1
  Bi2+  Bi92  1  0.73295520  0.65741019  0.29601086  1
  Bi2+  Bi93  1  0.70152718  0.60244929  0.78877365  1
  Bi2+  Bi94  1  0.76947788  0.84734160  0.31110289  1
  Bi2+  Bi95  1  0.75608582  0.85829986  0.80343134  1
  Bi2+  Bi96  1  0.14568138  -0.02247416  0.20003120  1
  Bi2+  Bi97  1  0.13703429  0.01191642  0.70828341  1
  Bi2+  Bi98  1  0.14651532  0.27810992  0.19981852  1
  Bi2+  Bi99  1  0.09324730  0.25165610  0.70295845  1
  Bi2+  Bi100  1  0.12064415  0.54046611  0.21321372  1
  Bi2+  Bi101  1  0.16605438  0.43155128  0.68434168  1
  Bi2+  Bi102  1  0.06388047  0.72514914  0.23766107  1
  Bi2+  Bi103  1  0.22554471  0.75071243  0.71929976  1
  Bi2+  Bi104  1  0.34608263  -0.04440905  0.18433554  1
  Bi2+  Bi105  1  0.36536260  0.00855542  0.70634794  1
  Bi2+  Bi106  1  0.33155911  0.21005413  0.18458571  1
  Bi2+  Bi107  1  0.36724519  0.26843161  0.73862767  1
  Bi2+  Bi108  1  0.39484466  0.56767737  0.21616648  1
  Bi2+  Bi109  1  0.36468588  0.51585658  0.70176666  1
  Bi2+  Bi110  1  0.42236255  0.76173738  0.22325774  1
  Bi2+  Bi111  1  0.39323601  0.81680763  0.67422399  1
  Bi2+  Bi112  1  0.66286744  -0.07994782  0.22146888  1
  Bi2+  Bi113  1  0.63074455  0.00625655  0.71122738  1
  Bi2+  Bi114  1  0.60892165  0.25228439  0.20663190  1
  Bi2+  Bi115  1  0.61726869  0.24185061  0.71929772  1
  Bi2+  Bi116  1  0.63073942  0.51567119  0.21137417  1
  Bi2+  Bi117  1  0.61863140  0.46475906  0.70250112  1
  Bi2+  Bi118  1  0.61097957  0.73599637  0.19678330  1
  Bi2+  Bi119  1  0.54901955  0.71362790  0.71016778  1
  Bi2+  Bi120  1  0.90624153  -0.02340840  0.21064194  1
  Bi2+  Bi121  1  0.88047051  -0.02400998  0.71352320  1
  Bi2+  Bi122  1  0.85415977  0.34832334  0.20787527  1
  Bi2+  Bi123  1  0.81268869  0.23524639  0.71426033  1
  Bi2+  Bi124  1  0.86772558  0.56897189  0.20559796  1
  Bi2+  Bi125  1  0.88304973  0.44192673  0.71045694  1
  Bi2+  Bi126  1  0.87526399  0.76749912  0.22370266  1
  Bi2+  Bi127  1  0.87451534  0.70611843  0.71936297  1
  S2-  S128  1  -0.04912529  0.12012783  0.17765697  1
  S2-  S129  1  0.00352406  0.04659570  0.64704377  1
  S2-  S130  1  0.00740771  0.35612543  0.15444344  1
  S2-  S131  1  -0.00926150  0.35526850  0.64409294  1
  S2-  S132  1  0.01026899  0.63817854  0.15087547  1
  S2-  S133  1  -0.00591413  0.61901953  0.66464626  1
  S2-  S134  1  0.01584698  0.91425113  0.14421389  1
  S2-  S135  1  -0.02648445  0.84250861  0.69077888  1
  S2-  S136  1  0.14668466  0.12270807  0.14410585  1
  S2-  S137  1  0.24692985  0.10538658  0.65418926  1
  S2-  S138  1  0.26699194  0.37594282  0.16719225  1
  S2-  S139  1  0.31848885  0.36632287  0.64996816  1
  S2-  S140  1  0.25222710  0.60672312  0.15587972  1
  S2-  S141  1  0.24027161  0.61486928  0.65898794  1
  S2-  S142  1  0.22809462  0.83891320  0.15977228  1
  S2-  S143  1  0.15861997  0.88195021  0.65251046  1
  S2-  S144  1  0.59400987  0.11162214  0.15486493  1
  S2-  S145  1  0.54426367  0.12459984  0.65825715  1
  S2-  S146  1  0.48609401  0.28665430  0.14883603  1
  S2-  S147  1  0.54558540  0.34140425  0.64860738  1
  S2-  S148  1  0.50682266  0.52311746  0.13891033  1
  S2-  S149  1  0.51362053  0.58220274  0.64741050  1
  S2-  S150  1  0.52734584  0.87796464  0.15448411  1
  S2-  S151  1  0.59523742  0.89550138  0.64335396  1
  S2-  S152  1  0.76939849  0.19883418  0.18912746  1
  S2-  S153  1  0.76298489  0.03933737  0.64541584  1
  S2-  S154  1  0.70686050  0.39225381  0.15305088  1
  S2-  S155  1  0.75014729  0.45218024  0.64089542  1
  S2-  S156  1  0.73418955  0.63286489  0.15001259  1
  S2-  S157  1  0.74375074  0.64408663  0.67953945  1
  S2-  S158  1  0.76636930  0.96746224  0.14448315  1
  S2-  S159  1  0.77850131  0.84752276  0.69756654  1
  S2-  S160  1  0.07162451  0.06345273  0.34457591  1
  S2-  S161  1  0.12680050  -0.05081282  0.82831398  1
  S2-  S162  1  0.11754025  0.28185489  0.33458442  1
  S2-  S163  1  0.12089982  0.15428180  0.86051934  1
  S2-  S164  1  0.12470343  0.62538094  0.36098211  1
  S2-  S165  1  0.12339243  0.51374819  0.84587160  1
  S2-  S166  1  0.14173606  0.86712772  0.36055027  1
  S2-  S167  1  0.12482718  0.73299292  0.83633512  1
  S2-  S168  1  0.36661959  -0.01625917  0.34918922  1
  S2-  S169  1  0.34759856  0.01651912  0.85063627  1
  S2-  S170  1  0.45151082  0.24359103  0.34810493  1
  S2-  S171  1  0.37544574  0.23720912  0.84658971  1
  S2-  S172  1  0.32259174  0.48558260  0.34073219  1
  S2-  S173  1  0.35739610  0.48624311  0.84649791  1
  S2-  S174  1  0.34271481  0.74097780  0.34795120  1
  S2-  S175  1  0.37321064  0.75392585  0.84836161  1
  S2-  S176  1  0.61889530  0.06864517  0.33656713  1
  S2-  S177  1  0.66397342  -0.00929480  0.84687053  1
  S2-  S178  1  0.68683609  0.25704584  0.32855845  1
  S2-  S179  1  0.61715133  0.23811502  0.84140192  1
  S2-  S180  1  0.56579725  0.43672871  0.33858809  1
  S2-  S181  1  0.60949145  0.49440618  0.83673286  1
  S2-  S182  1  0.61860235  0.84451607  0.36444218  1
  S2-  S183  1  0.64218056  0.73722488  0.84033731  1
  S2-  S184  1  0.84032733  0.00034104  0.34112062  1
  S2-  S185  1  0.88675898  -0.04833427  0.82490965  1
  S2-  S186  1  0.89239213  0.22262706  0.33001174  1
  S2-  S187  1  0.87603441  0.15946945  0.86315315  1
  S2-  S188  1  0.76965259  0.52545236  0.36112774  1
  S2-  S189  1  0.83634117  0.52513322  0.83756337  1
  S2-  S190  1  0.92188046  0.78980716  0.36763887  1
  S2-  S191  1  0.88063255  0.74271037  0.82853774  1
  S2-  S192  1  0.00020266  0.12363177  0.45407043  1
  S2-  S193  1  0.00467281  0.12889140  0.96307881  1
  S2-  S194  1  0.00020915  0.37703889  0.44096466  1
  S2-  S195  1  0.00047737  0.37525035  0.95112223  1
  S2-  S196  1  -0.00130222  0.62288836  0.46208494  1
  S2-  S197  1  -0.00123162  0.62822121  0.94378909  1
  S2-  S198  1  0.00605647  0.87357561  0.47233925  1
  S2-  S199  1  0.00171009  0.88320193  0.93968521  1
  S2-  S200  1  0.25244250  0.12097088  0.44709541  1
  S2-  S201  1  0.25553669  0.13275070  0.95774656  1
  S2-  S202  1  0.24907890  0.37490819  0.44946053  1
  S2-  S203  1  0.25078448  0.37697697  0.95423512  1
  S2-  S204  1  0.25746171  0.62290821  0.45507312  1
  S2-  S205  1  0.25117150  0.62761914  0.95269275  1
  S2-  S206  1  0.25780066  0.87072253  0.46298202  1
  S2-  S207  1  0.25300856  0.88297381  0.95274671  1
  S2-  S208  1  0.49821681  0.11840408  0.45113087  1
  S2-  S209  1  0.49777523  0.13157804  0.95747567  1
  S2-  S210  1  0.50049540  0.37311603  0.45162902  1
  S2-  S211  1  0.49943549  0.37999998  0.95419169  1
  S2-  S212  1  0.50278520  0.62645493  0.44573050  1
  S2-  S213  1  0.49989217  0.62697402  0.95330142  1
  S2-  S214  1  0.49674491  0.87153166  0.45937360  1
  S2-  S215  1  0.49921060  0.88175135  0.94779810  1
  S2-  S216  1  0.75248818  0.12266350  0.44844651  1
  S2-  S217  1  0.74581385  0.12979100  0.95986638  1
  S2-  S218  1  0.75154408  0.36913851  0.44701603  1
  S2-  S219  1  0.75180972  0.37647879  0.95025376  1
  S2-  S220  1  0.75426003  0.62978147  0.46729912  1
  S2-  S221  1  0.75292543  0.62854082  0.94620870  1
  S2-  S222  1  0.75471375  0.87273630  0.46654651  1
  S2-  S223  1  0.75130196  0.87964224  0.95052317  1
  S2-  S224  1  0.13032423  0.00507244  0.03641335  1
  S2-  S225  1  0.13046511  0.00317061  0.54350875  1
  S2-  S226  1  0.12378741  0.25709990  0.04563315  1
  S2-  S227  1  0.12689917  0.24689860  0.54174975  1
  S2-  S228  1  0.12060682  0.50265664  0.05034177  1
  S2-  S229  1  0.12521571  0.50234952  0.54234390  1
  S2-  S230  1  0.12508433  0.75654015  0.04234332  1
  S2-  S231  1  0.12640241  0.74540999  0.55189626  1
  S2-  S232  1  0.38091232  0.01061675  0.05178778  1
  S2-  S233  1  0.37928014  -0.00145157  0.55245096  1
  S2-  S234  1  0.37492623  0.25929992  0.04683861  1
  S2-  S235  1  0.37642633  0.24877755  0.54418216  1
  S2-  S236  1  0.37240071  0.50771165  0.04713716  1
  S2-  S237  1  0.37725782  0.50121648  0.54294470  1
  S2-  S238  1  0.37929566  0.75238027  0.05386050  1
  S2-  S239  1  0.38081950  0.74413538  0.54927303  1
  S2-  S240  1  0.62445970  0.00637342  0.04682763  1
  S2-  S241  1  0.62560753  -0.00112317  0.53844762  1
  S2-  S242  1  0.63062603  0.25399301  0.04894266  1
  S2-  S243  1  0.62955731  0.24881442  0.53664393  1
  S2-  S244  1  0.63279802  0.50755721  0.04027098  1
  S2-  S245  1  0.62672187  0.49825150  0.53751874  1
  S2-  S246  1  0.62724519  0.75325153  0.04551672  1
  S2-  S247  1  0.62700424  0.74450256  0.55397624  1
  S2-  S248  1  0.87468252  0.00741850  0.04017611  1
  S2-  S249  1  0.88047716  -0.00063894  0.54693031  1
  S2-  S250  1  0.87517187  0.24996048  0.05598474  1
  S2-  S251  1  0.87780253  0.24561906  0.54216445  1
  S2-  S252  1  0.87712197  0.50258646  0.04360608  1
  S2-  S253  1  0.87986424  0.49903168  0.54503680  1
  S2-  S254  1  0.87496580  0.75810222  0.04047389  1
  S2-  S255  1  0.87560324  0.74876031  0.56827590  1
