# generated using pymatgen
data_La12Ce14Pr13Nd13Sm12(BiS2)64
_symmetry_space_group_name_H-M   'P 1'
_cell_length_a   16.20071418
_cell_length_b   16.13629274
_cell_length_c   27.24470770
_cell_angle_alpha   90.20844765
_cell_angle_beta   89.92380671
_cell_angle_gamma   89.96047056
_symmetry_Int_Tables_number   1
_chemical_formula_structural   La12Ce14Pr13Nd13Sm12(BiS2)64
_chemical_formula_sum   'La12 Ce14 Pr13 Nd13 Sm12 Bi64 S128'
_cell_volume   7122.24180429
_cell_formula_units_Z   1
loop_
 _symmetry_equiv_pos_site_id
 _symmetry_equiv_pos_as_xyz
  1  'x, y, z'
loop_
 _atom_type_symbol
 _atom_type_oxidation_number
  La3+  3.0
  Ce3+  3.0
  Pr3+  3.0
  Nd3+  3.0
  Sm3+  3.0
  Bi2+  2.0
  S2-  -2.0
loop_
 _atom_site_type_symbol
 _atom_site_label
 _atom_site_symmetry_multiplicity
 _atom_site_fract_x
 _atom_site_fract_y
 _atom_site_fract_z
 _atom_site_occupancy
  La3+  La0  1  0.39231871  0.76855243  0.43048024  1
  La3+  La1  1  0.38958476  0.51688976  0.41590489  1
  La3+  La2  1  0.38954850  0.26058448  0.43468119  1
  La3+  La3  1  0.76904090  0.15315119  0.57607708  1
  La3+  La4  1  0.51388531  0.38737536  0.55442157  1
  La3+  La5  1  0.25248606  0.14049939  0.59277752  1
  La3+  La6  1  0.62631321  -0.00230416  0.89432837  1
  La3+  La7  1  0.64377247  0.25006620  0.41405717  1
  La3+  La8  1  0.10770836  0.26729090  0.89939048  1
  La3+  La9  1  0.88969176  0.52001154  0.42877112  1
  La3+  La10  1  -0.00937957  0.38508432  0.06950644  1
  La3+  La11  1  0.51646869  0.14706478  0.58176509  1
  Ce3+  Ce12  1  0.13999309  0.01475331  0.44124612  1
  Ce3+  Ce13  1  0.88612442  0.76593003  0.42963492  1
  Ce3+  Ce14  1  0.89147394  0.27247270  0.42773424  1
  Ce3+  Ce15  1  0.01543524  0.88861014  0.55866935  1
  Ce3+  Ce16  1  0.01637779  0.14314326  0.55085751  1
  Ce3+  Ce17  1  0.23986330  0.13605559  0.04886338  1
  Ce3+  Ce18  1  0.11734739  0.00764387  0.93859017  1
  Ce3+  Ce19  1  0.49135591  0.88835732  0.05505572  1
  Ce3+  Ce20  1  0.11739008  0.75173710  0.93860799  1
  Ce3+  Ce21  1  -0.00972363  0.88512066  0.05481314  1
  Ce3+  Ce22  1  0.39033354  0.01942298  0.45338461  1
  Ce3+  Ce23  1  0.63509116  0.51466945  0.43433563  1
  Ce3+  Ce24  1  0.36005915  0.50840619  0.94579790  1
  Ce3+  Ce25  1  0.51291624  0.63857293  0.55446637  1
  Pr3+  Pr26  1  0.63795780  0.77014222  0.43313110  1
  Pr3+  Pr27  1  0.01486028  0.63988373  0.55697951  1
  Pr3+  Pr28  1  0.36304868  0.00053310  0.92498973  1
  Pr3+  Pr29  1  0.86167386  0.75920369  0.94577780  1
  Pr3+  Pr30  1  0.73718346  0.63039464  0.06976536  1
  Pr3+  Pr31  1  0.61224166  0.25520916  0.93514703  1
  Pr3+  Pr32  1  0.24319112  0.63981767  0.07910731  1
  Pr3+  Pr33  1  0.27523587  0.63924661  0.57410795  1
  Pr3+  Pr34  1  0.51446650  0.89215920  0.56947830  1
  Pr3+  Pr35  1  0.86400430  0.01156976  0.94257062  1
  Pr3+  Pr36  1  0.26573524  0.88946530  0.56518234  1
  Pr3+  Pr37  1  0.48688988  0.38269555  0.06830083  1
  Pr3+  Pr38  1  0.86391404  0.50784165  0.93972390  1
  Nd3+  Nd39  1  0.48788336  0.13375759  0.05546652  1
  Nd3+  Nd40  1  0.76474413  0.64027190  0.55831386  1
  Nd3+  Nd41  1  0.26618226  0.39092332  0.56078721  1
  Nd3+  Nd42  1  0.76676420  0.88869068  0.56499857  1
  Nd3+  Nd43  1  0.73983323  0.14281395  0.07309304  1
  Nd3+  Nd44  1  0.73845736  0.88865413  0.06459773  1
  Nd3+  Nd45  1  0.14547766  0.51877335  0.43322896  1
  Nd3+  Nd46  1  0.86395476  0.25919946  0.93931233  1
  Nd3+  Nd47  1  0.73677120  0.38674816  0.06106524  1
  Nd3+  Nd48  1  0.48800944  0.63569685  0.05409713  1
  Nd3+  Nd49  1  0.14189586  0.76629832  0.44449049  1
  Nd3+  Nd50  1  0.36491294  0.26023979  0.93203600  1
  Nd3+  Nd51  1  0.01752254  0.39183359  0.55448219  1
  Sm3+  Sm52  1  0.24050969  0.88483534  0.05855167  1
  Sm3+  Sm53  1  -0.00820853  0.63620329  0.05911641  1
  Sm3+  Sm54  1  0.11695207  0.51106481  0.94237540  1
  Sm3+  Sm55  1  0.64144339  0.01929662  0.45241223  1
  Sm3+  Sm56  1  0.61527237  0.75829060  0.94434251  1
  Sm3+  Sm57  1  0.14039275  0.26553632  0.43771758  1
  Sm3+  Sm58  1  0.36467150  0.75543362  0.93772350  1
  Sm3+  Sm59  1  0.23831583  0.38322614  0.05843284  1
  Sm3+  Sm60  1  -0.00846533  0.13497563  0.05625598  1
  Sm3+  Sm61  1  0.88777825  0.01742210  0.44906388  1
  Sm3+  Sm62  1  0.76623936  0.38884763  0.55104903  1
  Sm3+  Sm63  1  0.61192538  0.50354601  0.93298984  1
  Bi2+  Bi64  1  0.04810860  0.09427855  0.28769900  1
  Bi2+  Bi65  1  -0.02585331  0.07882444  0.77770265  1
  Bi2+  Bi66  1  -0.03479550  0.27273996  0.29977388  1
  Bi2+  Bi67  1  -0.08597149  0.35251543  0.77391236  1
  Bi2+  Bi68  1  -0.00346842  0.71518404  0.29201344  1
  Bi2+  Bi69  1  -0.04671762  0.61882169  0.77426938  1
  Bi2+  Bi70  1  -0.06069761  0.90048882  0.29411694  1
  Bi2+  Bi71  1  -0.01699164  0.80710753  0.80965871  1
  Bi2+  Bi72  1  0.25242002  0.12772705  0.30747590  1
  Bi2+  Bi73  1  0.25990210  0.11820037  0.78223973  1
  Bi2+  Bi74  1  0.18739414  0.38484793  0.27052541  1
  Bi2+  Bi75  1  0.22831603  0.40491955  0.78719612  1
  Bi2+  Bi76  1  0.23730985  0.61055628  0.29010622  1
  Bi2+  Bi77  1  0.29900595  0.61798215  0.83138968  1
  Bi2+  Bi78  1  0.23976830  0.86162028  0.28930867  1
  Bi2+  Bi79  1  0.18534961  0.77931827  0.81157569  1
  Bi2+  Bi80  1  0.50742219  0.12861451  0.30294211  1
  Bi2+  Bi81  1  0.50160355  0.15191463  0.79568565  1
  Bi2+  Bi82  1  0.48040613  0.38708302  0.28936120  1
  Bi2+  Bi83  1  0.49404565  0.41413951  0.78136849  1
  Bi2+  Bi84  1  0.50179693  0.66349834  0.29457024  1
  Bi2+  Bi85  1  0.56175481  0.60278937  0.81015272  1
  Bi2+  Bi86  1  0.52674000  0.87303489  0.25981614  1
  Bi2+  Bi87  1  0.49208579  0.79211183  0.79700737  1
  Bi2+  Bi88  1  0.82127422  0.13760575  0.27641722  1
  Bi2+  Bi89  1  0.78066112  0.11864139  0.78595794  1
  Bi2+  Bi90  1  0.79019084  0.42905181  0.27227776  1
  Bi2+  Bi91  1  0.72904852  0.37537905  0.78911753  1
  Bi2+  Bi92  1  0.70958987  0.67428592  0.31594451  1
  Bi2+  Bi93  1  0.75311276  0.56604239  0.82256825  1
  Bi2+  Bi94  1  0.75261201  0.86211435  0.33022655  1
  Bi2+  Bi95  1  0.75708300  0.84556889  0.78529169  1
  Bi2+  Bi96  1  0.17379066  -0.01986538  0.19832723  1
  Bi2+  Bi97  1  0.10301289  -0.06514285  0.75618228  1
  Bi2+  Bi98  1  0.16577726  0.17768667  0.20832441  1
  Bi2+  Bi99  1  0.10578441  0.27609679  0.69631436  1
  Bi2+  Bi100  1  0.03628872  0.50867551  0.23422146  1
  Bi2+  Bi101  1  0.09931676  0.51531391  0.72605468  1
  Bi2+  Bi102  1  0.11264475  0.79336264  0.21044195  1
  Bi2+  Bi103  1  0.19286311  0.68434844  0.71193173  1
  Bi2+  Bi104  1  0.36327211  -0.00270050  0.24975006  1
  Bi2+  Bi105  1  0.36088584  -0.06368606  0.70466030  1
  Bi2+  Bi106  1  0.38862535  0.24779258  0.19502459  1
  Bi2+  Bi107  1  0.39096001  0.24142052  0.70762181  1
  Bi2+  Bi108  1  0.36399776  0.49603857  0.19398347  1
  Bi2+  Bi109  1  0.36922208  0.47614357  0.70028281  1
  Bi2+  Bi110  1  0.38311555  0.75513547  0.20079911  1
  Bi2+  Bi111  1  0.39551527  0.66354624  0.73611264  1
  Bi2+  Bi112  1  0.68713430  -0.01593851  0.24687938  1
  Bi2+  Bi113  1  0.59825937  -0.01556835  0.69947420  1
  Bi2+  Bi114  1  0.63665351  0.22729698  0.21062481  1
  Bi2+  Bi115  1  0.64902630  0.28137855  0.69986720  1
  Bi2+  Bi116  1  0.64776476  0.54695758  0.23181232  1
  Bi2+  Bi117  1  0.61195844  0.48643129  0.69567902  1
  Bi2+  Bi118  1  0.63779992  0.73813436  0.19858529  1
  Bi2+  Bi119  1  0.67528828  0.66749378  0.72016480  1
  Bi2+  Bi120  1  0.95502262  0.01220321  0.19528014  1
  Bi2+  Bi121  1  0.85496158  -0.02158201  0.70868790  1
  Bi2+  Bi122  1  0.88706776  0.31173392  0.19884080  1
  Bi2+  Bi123  1  0.88277110  0.18827268  0.69746706  1
  Bi2+  Bi124  1  0.84726641  0.56837921  0.19694486  1
  Bi2+  Bi125  1  0.81089367  0.51487031  0.70629407  1
  Bi2+  Bi126  1  0.82855452  0.75801851  0.22702225  1
  Bi2+  Bi127  1  0.94435270  0.77475299  0.69543481  1
  S2-  S128  1  -0.04909071  0.16354744  0.15050789  1
  S2-  S129  1  0.08378478  0.14579101  0.64060714  1
  S2-  S130  1  0.03607874  0.38691680  0.16802021  1
  S2-  S131  1  0.02473596  0.40104775  0.65485653  1
  S2-  S132  1  0.00177280  0.61518253  0.15605515  1
  S2-  S133  1  0.04762019  0.64334737  0.65565091  1
  S2-  S134  1  -0.01037647  0.85470194  0.15032347  1
  S2-  S135  1  0.04112011  0.89441456  0.65595958  1
  S2-  S136  1  0.29302326  0.13368969  0.14216582  1
  S2-  S137  1  0.25237240  0.04380339  0.68126658  1
  S2-  S138  1  0.27599232  0.37024089  0.15472064  1
  S2-  S139  1  0.26271173  0.28748751  0.64949656  1
  S2-  S140  1  0.23408316  0.58124858  0.17955479  1
  S2-  S141  1  0.24665575  0.50504480  0.63956559  1
  S2-  S142  1  0.24881783  0.78608372  0.13943809  1
  S2-  S143  1  0.27493794  0.81143549  0.65479612  1
  S2-  S144  1  0.50696318  0.15792595  0.15602813  1
  S2-  S145  1  0.45264823  0.08010434  0.67441134  1
  S2-  S146  1  0.49724839  0.37879688  0.17091929  1
  S2-  S147  1  0.50003819  0.29835669  0.64227119  1
  S2-  S148  1  0.45964329  0.62402251  0.15181173  1
  S2-  S149  1  0.42443961  0.62108557  0.63612323  1
  S2-  S150  1  0.47051274  0.87385086  0.15247661  1
  S2-  S151  1  0.50633991  0.85314730  0.66798174  1
  S2-  S152  1  0.71537474  0.09197796  0.17177581  1
  S2-  S153  1  0.65370409  0.13424158  0.65320225  1
  S2-  S154  1  0.73471516  0.28350673  0.14222900  1
  S2-  S155  1  0.78677260  0.30469230  0.63761362  1
  S2-  S156  1  0.71554691  0.50302242  0.13695561  1
  S2-  S157  1  0.81216151  0.66883838  0.65313004  1
  S2-  S158  1  0.73203948  0.86919512  0.16376598  1
  S2-  S159  1  0.73163858  0.88934909  0.66330158  1
  S2-  S160  1  0.14868968  -0.01604019  0.34519368  1
  S2-  S161  1  0.16489994  0.01328087  0.84447599  1
  S2-  S162  1  0.17471763  0.27853687  0.34023543  1
  S2-  S163  1  0.15117388  0.24540839  0.79815552  1
  S2-  S164  1  0.11049380  0.51445093  0.33361810  1
  S2-  S165  1  0.11939244  0.42393348  0.85626571  1
  S2-  S166  1  0.15387480  0.73635258  0.34560076  1
  S2-  S167  1  0.13238939  0.63384945  0.86679007  1
  S2-  S168  1  0.40002392  0.02370186  0.35497432  1
  S2-  S169  1  0.38296480  0.04234277  0.82681915  1
  S2-  S170  1  0.40129333  0.25612491  0.33328140  1
  S2-  S171  1  0.36267584  0.23722134  0.83202826  1
  S2-  S172  1  0.32027252  0.46223791  0.31802185  1
  S2-  S173  1  0.36259608  0.45556678  0.85256952  1
  S2-  S174  1  0.35729845  0.65568031  0.35181907  1
  S2-  S175  1  0.36960468  0.84507809  0.85423125  1
  S2-  S176  1  0.62332244  0.08951527  0.36283578  1
  S2-  S177  1  0.56936576  -0.00549297  0.79302554  1
  S2-  S178  1  0.60527902  0.29729539  0.31178761  1
  S2-  S179  1  0.64298614  0.15916849  0.85137075  1
  S2-  S180  1  0.53644899  0.51142487  0.35218058  1
  S2-  S181  1  0.59817192  0.38141678  0.86074566  1
  S2-  S182  1  0.51807522  0.79811388  0.35710509  1
  S2-  S183  1  0.62975366  0.82665317  0.85423790  1
  S2-  S184  1  0.85951710  0.02139458  0.35200112  1
  S2-  S185  1  0.78962303  -0.01532240  0.85206929  1
  S2-  S186  1  0.78998506  0.23055388  0.35428216  1
  S2-  S187  1  0.94768352  0.25828671  0.85170625  1
  S2-  S188  1  0.89934051  0.40992506  0.34952165  1
  S2-  S189  1  0.91393801  0.49602118  0.84256472  1
  S2-  S190  1  0.88532580  0.64638142  0.35536471  1
  S2-  S191  1  0.82363376  0.74039923  0.84771301  1
  S2-  S192  1  0.01436801  0.14117005  0.44407172  1
  S2-  S193  1  -0.00542218  0.13452202  0.95106531  1
  S2-  S194  1  0.02246872  0.39357906  0.44837285  1
  S2-  S195  1  -0.00795105  0.38409281  0.95950610  1
  S2-  S196  1  0.01887045  0.64197951  0.45099064  1
  S2-  S197  1  -0.01391142  0.63375100  0.95531574  1
  S2-  S198  1  0.01157252  0.89029156  0.45063088  1
  S2-  S199  1  -0.00968790  0.88340723  0.94838995  1
  S2-  S200  1  0.26051042  0.14016544  0.45039058  1
  S2-  S201  1  0.23655785  0.13900768  0.94315956  1
  S2-  S202  1  0.26436871  0.38936824  0.44843527  1
  S2-  S203  1  0.23679861  0.37971935  0.95472939  1
  S2-  S204  1  0.26404799  0.64271990  0.45907913  1
  S2-  S205  1  0.24487731  0.63549440  0.96864342  1
  S2-  S206  1  0.26652566  0.89112770  0.45537695  1
  S2-  S207  1  0.23851264  0.87919734  0.95476548  1
  S2-  S208  1  0.51532424  0.14013960  0.46591619  1
  S2-  S209  1  0.48632019  0.12943241  0.94791948  1
  S2-  S210  1  0.51846702  0.38180246  0.44709164  1
  S2-  S211  1  0.48482236  0.38520309  0.96003065  1
  S2-  S212  1  0.51794106  0.64239815  0.45189019  1
  S2-  S213  1  0.49086799  0.63396134  0.94762475  1
  S2-  S214  1  0.51818496  0.89804492  0.46252030  1
  S2-  S215  1  0.49651081  0.88573522  0.95040752  1
  S2-  S216  1  0.76784611  0.13735346  0.46513916  1
  S2-  S217  1  0.74256886  0.13539447  0.96082784  1
  S2-  S218  1  0.76009443  0.39259318  0.44745393  1
  S2-  S219  1  0.74005932  0.38377083  0.95423201  1
  S2-  S220  1  0.75811373  0.64272326  0.45366278  1
  S2-  S221  1  0.73421298  0.63112780  0.95984499  1
  S2-  S222  1  0.76433376  0.89310619  0.45885697  1
  S2-  S223  1  0.73730412  0.88473283  0.95917381  1
  S2-  S224  1  0.11550920  0.00918130  0.04732019  1
  S2-  S225  1  0.14082063  0.01278179  0.54671867  1
  S2-  S226  1  0.11534049  0.25868238  0.05484842  1
  S2-  S227  1  0.14088257  0.26775874  0.54072547  1
  S2-  S228  1  0.11827898  0.51263779  0.05075223  1
  S2-  S229  1  0.13917192  0.51676691  0.53940355  1
  S2-  S230  1  0.11330996  0.75894816  0.04530626  1
  S2-  S231  1  0.14214423  0.76254451  0.54995228  1
  S2-  S232  1  0.36254888  0.00648692  0.03784449  1
  S2-  S233  1  0.38548941  0.01911813  0.55782948  1
  S2-  S234  1  0.36416644  0.26152502  0.04059610  1
  S2-  S235  1  0.38174385  0.26093052  0.54305886  1
  S2-  S236  1  0.36207554  0.50894481  0.05169348  1
  S2-  S237  1  0.39156044  0.51175281  0.53123458  1
  S2-  S238  1  0.36856466  0.76311645  0.04112948  1
  S2-  S239  1  0.39313686  0.76795641  0.54170132  1
  S2-  S240  1  0.61601945  0.01292105  0.05751656  1
  S2-  S241  1  0.64323137  0.01442971  0.55526627  1
  S2-  S242  1  0.60981633  0.25970483  0.04306340  1
  S2-  S243  1  0.64312720  0.26909642  0.53978666  1
  S2-  S244  1  0.60716252  0.50855851  0.03779303  1
  S2-  S245  1  0.64227397  0.51356507  0.54435172  1
  S2-  S246  1  0.61541026  0.75891846  0.04935104  1
  S2-  S247  1  0.63974229  0.76516499  0.54859281  1
  S2-  S248  1  0.86419608  0.01243367  0.05024827  1
  S2-  S249  1  0.89085878  0.01678414  0.55467174  1
  S2-  S250  1  0.86757007  0.26008886  0.04398485  1
  S2-  S251  1  0.89584103  0.27010345  0.53542373  1
  S2-  S252  1  0.86810198  0.51205859  0.04713269  1
  S2-  S253  1  0.88840865  0.51446373  0.54248564  1
  S2-  S254  1  0.86255057  0.75679359  0.05316975  1
  S2-  S255  1  0.88916030  0.76519987  0.54071667  1
