# generated using pymatgen
data_La12Ce14Pr13Nd13Sm12(BiS2)64
_symmetry_space_group_name_H-M   'P 1'
_cell_length_a   15.98311303
_cell_length_b   16.03668111
_cell_length_c   27.21929870
_cell_angle_alpha   89.41607669
_cell_angle_beta   90.00192936
_cell_angle_gamma   90.01263027
_symmetry_Int_Tables_number   1
_chemical_formula_structural   La12Ce14Pr13Nd13Sm12(BiS2)64
_chemical_formula_sum   'La12 Ce14 Pr13 Nd13 Sm12 Bi64 S128'
_cell_volume   6976.38163986
_cell_formula_units_Z   1
loop_
 _symmetry_equiv_pos_site_id
 _symmetry_equiv_pos_as_xyz
  1  'x, y, z'
loop_
 _atom_type_symbol
 _atom_type_oxidation_number
  La3+  3.0
  Ce3+  3.0
  Pr3+  3.0
  Nd3+  3.0
  Sm3+  3.0
  Bi2+  2.0
  S2-  -2.0
loop_
 _atom_site_type_symbol
 _atom_site_label
 _atom_site_symmetry_multiplicity
 _atom_site_fract_x
 _atom_site_fract_y
 _atom_site_fract_z
 _atom_site_occupancy
  La3+  La0  1  0.25502219  0.40221433  0.59645628  1
  La3+  La1  1  0.86300677  0.77775467  0.42889168  1
  La3+  La2  1  -0.00507973  0.13719195  0.58242009  1
  La3+  La3  1  0.51273077  0.36935486  0.09623418  1
  La3+  La4  1  0.36377992  0.76720879  0.42579691  1
  La3+  La5  1  0.12491175  -0.01253494  0.90721548  1
  La3+  La6  1  0.88952088  0.24635241  0.91543675  1
  La3+  La7  1  0.11317236  0.51526337  0.40410615  1
  La3+  La8  1  0.51444515  0.11323735  0.07237284  1
  La3+  La9  1  0.25403824  0.13668431  0.60720558  1
  La3+  La10  1  0.36487592  0.51927380  0.40793475  1
  La3+  La11  1  0.63648381  0.26669139  0.40863394  1
  Ce3+  Ce12  1  0.87079434  0.02214639  0.45017633  1
  Ce3+  Ce13  1  0.38314418  -0.01100308  0.94960718  1
  Ce3+  Ce14  1  0.12015008  0.01809009  0.44626339  1
  Ce3+  Ce15  1  0.74042808  0.64098781  0.55922301  1
  Ce3+  Ce16  1  0.01184070  0.61169474  0.05849237  1
  Ce3+  Ce17  1  0.49004423  0.63655108  0.54488374  1
  Ce3+  Ce18  1  0.24530750  0.89156560  0.55876746  1
  Ce3+  Ce19  1  0.62605027  0.24254452  0.93936194  1
  Ce3+  Ce20  1  0.36551815  0.26925272  0.43676111  1
  Ce3+  Ce21  1  0.88789853  0.48864795  0.93667509  1
  Ce3+  Ce22  1  0.89129339  0.27493389  0.43716963  1
  Ce3+  Ce23  1  0.74505875  0.14520800  0.56783677  1
  Ce3+  Ce24  1  0.12625458  0.27088553  0.46430685  1
  Ce3+  Ce25  1  0.76122463  0.61135720  0.05691595  1
  Pr3+  Pr26  1  0.48951623  0.89476647  0.55910961  1
  Pr3+  Pr27  1  0.11209897  0.77496724  0.42091523  1
  Pr3+  Pr28  1  -0.00216623  0.88513930  0.57033004  1
  Pr3+  Pr29  1  0.37359497  0.01572004  0.42308263  1
  Pr3+  Pr30  1  0.25666574  0.36300796  0.07920956  1
  Pr3+  Pr31  1  0.14005424  0.24861715  0.91958723  1
  Pr3+  Pr32  1  0.62547711  0.51618900  0.42527551  1
  Pr3+  Pr33  1  0.49116263  0.39084529  0.54685531  1
  Pr3+  Pr34  1  0.38945446  0.74457113  0.94055771  1
  Pr3+  Pr35  1  0.01042403  0.35601620  0.06482791  1
  Pr3+  Pr36  1  0.14237857  0.73972950  0.93355197  1
  Pr3+  Pr37  1  0.14714307  0.49228155  0.93609410  1
  Pr3+  Pr38  1  0.63641751  0.74455990  0.93798342  1
  Nd3+  Nd39  1  0.88254658  0.74100756  0.93508722  1
  Nd3+  Nd40  1  0.49101198  0.14578538  0.54848137  1
  Nd3+  Nd41  1  0.74528692  0.39004423  0.55628574  1
  Nd3+  Nd42  1  0.25379383  0.86060245  0.06901449  1
  Nd3+  Nd43  1  0.62244251  0.01946018  0.43440538  1
  Nd3+  Nd44  1  0.76600063  0.86650592  0.07325165  1
  Nd3+  Nd45  1  0.51647669  0.86676111  0.08070628  1
  Nd3+  Nd46  1  -0.01166188  0.39163432  0.58303597  1
  Nd3+  Nd47  1  0.24143639  0.63897603  0.55450851  1
  Nd3+  Nd48  1  0.74163063  0.89053022  0.56861427  1
  Nd3+  Nd49  1  0.38599773  0.24254500  0.93985046  1
  Nd3+  Nd50  1  0.00992550  0.11520827  0.04581615  1
  Nd3+  Nd51  1  0.00945628  0.86725376  0.05984613  1
  Sm3+  Sm52  1  0.62065458  0.76781266  0.43726832  1
  Sm3+  Sm53  1  0.87296421  -0.00981888  0.92796968  1
  Sm3+  Sm54  1  0.75817259  0.36295685  0.05779776  1
  Sm3+  Sm55  1  0.25440558  0.61566049  0.07585432  1
  Sm3+  Sm56  1  0.62938463  0.48896940  0.94102990  1
  Sm3+  Sm57  1  0.50883182  0.61770071  0.06708742  1
  Sm3+  Sm58  1  -0.00514370  0.64310686  0.55557172  1
  Sm3+  Sm59  1  0.63476551  -0.01039191  0.94222598  1
  Sm3+  Sm60  1  0.87642973  0.51981863  0.44206106  1
  Sm3+  Sm61  1  0.25722917  0.11919508  0.05435376  1
  Sm3+  Sm62  1  0.76185395  0.11819876  0.05305340  1
  Sm3+  Sm63  1  0.39056621  0.49188777  0.95042249  1
  Bi2+  Bi64  1  0.02018656  0.10545979  0.28886105  1
  Bi2+  Bi65  1  -0.05445448  0.10370843  0.78164702  1
  Bi2+  Bi66  1  -0.03918154  0.29538341  0.28228216  1
  Bi2+  Bi67  1  -0.00199388  0.42560082  0.78236192  1
  Bi2+  Bi68  1  0.00912312  0.63286507  0.28470436  1
  Bi2+  Bi69  1  -0.02450767  0.61741480  0.83341511  1
  Bi2+  Bi70  1  -0.02841323  0.90338349  0.29487662  1
  Bi2+  Bi71  1  -0.01092869  0.80240929  0.79525133  1
  Bi2+  Bi72  1  0.23295974  0.10677762  0.29204867  1
  Bi2+  Bi73  1  0.32828883  0.09466452  0.80815245  1
  Bi2+  Bi74  1  0.19864113  0.30019698  0.31786500  1
  Bi2+  Bi75  1  0.26464798  0.38794802  0.79696722  1
  Bi2+  Bi76  1  0.25708599  0.69375891  0.26057024  1
  Bi2+  Bi77  1  0.18856770  0.60017265  0.80086379  1
  Bi2+  Bi78  1  0.21091287  0.87555724  0.28226389  1
  Bi2+  Bi79  1  0.25912719  0.80525981  0.78064476  1
  Bi2+  Bi80  1  0.44830518  0.09109546  0.29575799  1
  Bi2+  Bi81  1  0.54517120  0.07445417  0.77025696  1
  Bi2+  Bi82  1  0.50473197  0.34681400  0.28553569  1
  Bi2+  Bi83  1  0.51270605  0.38079156  0.79549644  1
  Bi2+  Bi84  1  0.62131648  0.65037607  0.31507573  1
  Bi2+  Bi85  1  0.49941560  0.62035174  0.78821878  1
  Bi2+  Bi86  1  0.47467657  0.78979910  0.30335663  1
  Bi2+  Bi87  1  0.53737496  0.89177686  0.80647408  1
  Bi2+  Bi88  1  0.81080429  0.11761789  0.22262856  1
  Bi2+  Bi89  1  0.66317922  0.23191651  0.80189088  1
  Bi2+  Bi90  1  0.77023216  0.37199642  0.28383539  1
  Bi2+  Bi91  1  0.71686492  0.43578627  0.80535162  1
  Bi2+  Bi92  1  0.80452615  0.56998494  0.31352551  1
  Bi2+  Bi93  1  0.77985725  0.62285290  0.79653332  1
  Bi2+  Bi94  1  0.78249340  0.86550698  0.27607264  1
  Bi2+  Bi95  1  0.73087291  0.87680524  0.78248417  1
  Bi2+  Bi96  1  0.18356288  0.00656710  0.19315241  1
  Bi2+  Bi97  1  0.12783571  -0.02302441  0.71516772  1
  Bi2+  Bi98  1  0.10752339  0.23157670  0.20776918  1
  Bi2+  Bi99  1  0.12913390  0.22946394  0.74085416  1
  Bi2+  Bi100  1  0.14853446  0.48868163  0.21555099  1
  Bi2+  Bi101  1  0.06808581  0.63367023  0.71471900  1
  Bi2+  Bi102  1  0.02402854  0.75470395  0.19193457  1
  Bi2+  Bi103  1  0.19722310  0.77348245  0.67372261  1
  Bi2+  Bi104  1  0.37041328  -0.07167422  0.21200696  1
  Bi2+  Bi105  1  0.40100388  -0.06244173  0.71840628  1
  Bi2+  Bi106  1  0.36004027  0.19946931  0.21462566  1
  Bi2+  Bi107  1  0.40470522  0.26435416  0.70969093  1
  Bi2+  Bi108  1  0.39727723  0.52849674  0.22550447  1
  Bi2+  Bi109  1  0.39741726  0.52837418  0.70568257  1
  Bi2+  Bi110  1  0.43532916  0.73523127  0.19044203  1
  Bi2+  Bi111  1  0.39081460  0.73968780  0.70231057  1
  Bi2+  Bi112  1  0.57676456  -0.05203649  0.23805380  1
  Bi2+  Bi113  1  0.59260140  0.05567348  0.65825601  1
  Bi2+  Bi114  1  0.63502698  0.20778605  0.21477786  1
  Bi2+  Bi115  1  0.65367481  0.24139353  0.68111410  1
  Bi2+  Bi116  1  0.65716158  0.49226601  0.21224409  1
  Bi2+  Bi117  1  0.62441558  0.43466987  0.70240882  1
  Bi2+  Bi118  1  0.63520827  0.73388148  0.21262748  1
  Bi2+  Bi119  1  0.64325933  0.63715096  0.71156597  1
  Bi2+  Bi120  1  0.96709028  0.02016922  0.18830007  1
  Bi2+  Bi121  1  0.75735615  0.06550541  0.71746270  1
  Bi2+  Bi122  1  0.85753591  0.29761336  0.17551347  1
  Bi2+  Bi123  1  0.86742861  0.29387307  0.71390639  1
  Bi2+  Bi124  1  0.90696188  0.47877697  0.21117867  1
  Bi2+  Bi125  1  0.88900190  0.53761215  0.71136138  1
  Bi2+  Bi126  1  0.84052501  0.69707426  0.21957370  1
  Bi2+  Bi127  1  0.88996044  0.82259915  0.70251823  1
  S2-  S128  1  -0.00781854  0.20528597  0.13186519  1
  S2-  S129  1  0.10253381  0.12874783  0.66506167  1
  S2-  S130  1  0.11250839  0.37721419  0.14947168  1
  S2-  S131  1  0.02004921  0.33230158  0.68158028  1
  S2-  S132  1  0.08840711  0.61289489  0.14733448  1
  S2-  S133  1  0.00706214  0.74209571  0.63658379  1
  S2-  S134  1  -0.10172110  0.88043662  0.14190110  1
  S2-  S135  1  -0.00843685  0.95913633  0.66437887  1
  S2-  S136  1  0.25097951  0.20929274  0.13996257  1
  S2-  S137  1  0.27908397  0.15238362  0.71927936  1
  S2-  S138  1  0.27359138  0.50083485  0.15221802  1
  S2-  S139  1  0.23261319  0.34411919  0.69467830  1
  S2-  S140  1  0.28082785  0.73539821  0.14874623  1
  S2-  S141  1  0.27382674  0.56126768  0.64632337  1
  S2-  S142  1  0.12327070  0.87208315  0.14009195  1
  S2-  S143  1  0.26521676  0.96881758  0.64754356  1
  S2-  S144  1  0.50409120  0.21623740  0.15398525  1
  S2-  S145  1  0.42611814  0.14761553  0.64153291  1
  S2-  S146  1  0.41132147  0.37020779  0.19828049  1
  S2-  S147  1  0.42424509  0.39063288  0.64052794  1
  S2-  S148  1  0.52718266  0.52989693  0.15421866  1
  S2-  S149  1  0.51619779  0.60991478  0.63987659  1
  S2-  S150  1  0.49060731  0.99461152  0.15358180  1
  S2-  S151  1  0.50523741  0.85555793  0.65815246  1
  S2-  S152  1  0.69723304  0.10246733  0.14521056  1
  S2-  S153  1  0.85580968  0.15323080  0.65015755  1
  S2-  S154  1  0.67271360  0.35750472  0.14791964  1
  S2-  S155  1  0.83624151  0.40212815  0.64347254  1
  S2-  S156  1  0.78507577  0.56276761  0.15163520  1
  S2-  S157  1  0.79283165  0.64423112  0.65294435  1
  S2-  S158  1  0.65433529  0.86931610  0.15238336  1
  S2-  S159  1  0.74090090  0.87451355  0.66947291  1
  S2-  S160  1  0.11336458  -0.07204773  0.36079649  1
  S2-  S161  1  0.17420163  0.04608197  0.81142342  1
  S2-  S162  1  0.04385027  0.29038446  0.37636040  1
  S2-  S163  1  0.02866742  0.21358267  0.83567314  1
  S2-  S164  1  0.20446588  0.46221774  0.31596875  1
  S2-  S165  1  0.11770175  0.39296100  0.85139553  1
  S2-  S166  1  0.14875417  0.66406720  0.33971803  1
  S2-  S167  1  0.12825194  0.84265747  0.84789357  1
  S2-  S168  1  0.35120229  -0.10815164  0.34986006  1
  S2-  S169  1  0.38416853  -0.05532480  0.85491741  1
  S2-  S170  1  0.37027354  0.28620708  0.33805977  1
  S2-  S171  1  0.28361822  0.24787112  0.85325763  1
  S2-  S172  1  0.44962534  0.48963331  0.31809772  1
  S2-  S173  1  0.28993736  0.50019867  0.86571213  1
  S2-  S174  1  0.36225337  0.66662267  0.33966613  1
  S2-  S175  1  0.27690623  0.70680539  0.86358052  1
  S2-  S176  1  0.55651300  -0.01409822  0.34366682  1
  S2-  S177  1  0.73280206  -0.02567751  0.85989396  1
  S2-  S178  1  0.58613815  0.19301310  0.31802879  1
  S2-  S179  1  0.51069610  0.24171611  0.86349195  1
  S2-  S180  1  0.63583196  0.40736285  0.34538430  1
  S2-  S181  1  0.50933956  0.50140171  0.86787431  1
  S2-  S182  1  0.72621789  0.77984935  0.35778499  1
  S2-  S183  1  0.51519655  0.74398397  0.86207315  1
  S2-  S184  1  0.84253120  -0.03170067  0.35835029  1
  S2-  S185  1  0.96288387  -0.02386032  0.84265076  1
  S2-  S186  1  0.80170462  0.24939690  0.35443623  1
  S2-  S187  1  0.81928197  0.17596681  0.82950753  1
  S2-  S188  1  0.95710546  0.50046316  0.35425086  1
  S2-  S189  1  0.87589354  0.39582429  0.85323665  1
  S2-  S190  1  0.97169111  0.76005829  0.35062595  1
  S2-  S191  1  0.75951096  0.75656493  0.85966656  1
  S2-  S192  1  -0.00073950  0.14094318  0.46795678  1
  S2-  S193  1  0.00568944  0.11094937  0.94282194  1
  S2-  S194  1  0.00343911  0.40488160  0.47286441  1
  S2-  S195  1  0.01195372  0.36791137  0.95589138  1
  S2-  S196  1  -0.00212676  0.64250188  0.45340484  1
  S2-  S197  1  0.01117364  0.61611875  0.95294084  1
  S2-  S198  1  -0.00824466  0.89561355  0.46261019  1
  S2-  S199  1  0.00323464  0.86551223  0.95286159  1
  S2-  S200  1  0.24345669  0.14165973  0.43758184  1
  S2-  S201  1  0.25500351  0.11086785  0.94963767  1
  S2-  S202  1  0.24048808  0.39698432  0.44158058  1
  S2-  S203  1  0.26643823  0.36599746  0.96436013  1
  S2-  S204  1  0.23886675  0.63596182  0.44871594  1
  S2-  S205  1  0.26693910  0.61672057  0.97140299  1
  S2-  S206  1  0.24599694  0.89480419  0.45520717  1
  S2-  S207  1  0.25727223  0.86885090  0.95982074  1
  S2-  S208  1  0.49662464  0.14576901  0.44277978  1
  S2-  S209  1  0.51059077  0.10951931  0.96104569  1
  S2-  S210  1  0.49583040  0.39140393  0.44141041  1
  S2-  S211  1  0.51056898  0.36666651  0.96661316  1
  S2-  S212  1  0.49784960  0.64095386  0.44058718  1
  S2-  S213  1  0.51319785  0.61842476  0.96561710  1
  S2-  S214  1  0.49775855  0.89039613  0.45204694  1
  S2-  S215  1  0.51440999  0.86969779  0.96779066  1
  S2-  S216  1  0.74548025  0.14323035  0.45782640  1
  S2-  S217  1  0.75529518  0.11954136  0.95046567  1
  S2-  S218  1  0.75546255  0.39408463  0.45159668  1
  S2-  S219  1  0.75288585  0.36719108  0.95274024  1
  S2-  S220  1  0.74567689  0.64032824  0.45400585  1
  S2-  S221  1  0.75803475  0.60961533  0.95214528  1
  S2-  S222  1  0.73887875  0.89701237  0.46226998  1
  S2-  S223  1  0.76101051  0.86507657  0.96622288  1
  S2-  S224  1  0.13481766  -0.00508872  0.03986592  1
  S2-  S225  1  0.12474134  0.01979136  0.55125590  1
  S2-  S226  1  0.13534377  0.23926050  0.03247489  1
  S2-  S227  1  0.12723439  0.27170791  0.56769154  1
  S2-  S228  1  0.13552788  0.48866509  0.04327555  1
  S2-  S229  1  0.11272806  0.51753241  0.56868535  1
  S2-  S230  1  0.13204771  0.73832173  0.04054836  1
  S2-  S231  1  0.12251669  0.76673908  0.53453450  1
  S2-  S232  1  0.37757919  -0.00977759  0.05446108  1
  S2-  S233  1  0.36790262  0.02045165  0.53521919  1
  S2-  S234  1  0.38660120  0.23927062  0.04684924  1
  S2-  S235  1  0.35653413  0.26717007  0.54230485  1
  S2-  S236  1  0.38914019  0.49058087  0.05441317  1
  S2-  S237  1  0.36518129  0.51430704  0.53064402  1
  S2-  S238  1  0.39261926  0.74600479  0.04940338  1
  S2-  S239  1  0.36851728  0.76457274  0.54040560  1
  S2-  S240  1  0.64074716  -0.01157467  0.04513708  1
  S2-  S241  1  0.61872733  0.01871445  0.54205262  1
  S2-  S242  1  0.63573004  0.24143964  0.04406744  1
  S2-  S243  1  0.62027815  0.26787372  0.53993777  1
  S2-  S244  1  0.63470028  0.48986147  0.04536828  1
  S2-  S245  1  0.62051159  0.51342924  0.53626839  1
  S2-  S246  1  0.63783645  0.73774167  0.05168896  1
  S2-  S247  1  0.61592048  0.76676713  0.54334528  1
  S2-  S248  1  0.88251556  -0.00516469  0.03648982  1
  S2-  S249  1  0.86681113  0.01213054  0.55531404  1
  S2-  S250  1  0.87962288  0.24113635  0.02973350  1
  S2-  S251  1  0.87285330  0.26747746  0.54460015  1
  S2-  S252  1  0.88604253  0.48478578  0.04462833  1
  S2-  S253  1  0.86991481  0.52209102  0.54618873  1
  S2-  S254  1  0.88588285  0.73514969  0.04427025  1
  S2-  S255  1  0.86367262  0.76777530  0.54257940  1
