# generated using pymatgen
data_La12Ce14Pr13Nd13Sm12(BiS2)64
_symmetry_space_group_name_H-M   'P 1'
_cell_length_a   16.13344285
_cell_length_b   16.08272413
_cell_length_c   27.42112551
_cell_angle_alpha   90.24570216
_cell_angle_beta   89.91658778
_cell_angle_gamma   90.02535663
_symmetry_Int_Tables_number   1
_chemical_formula_structural   La12Ce14Pr13Nd13Sm12(BiS2)64
_chemical_formula_sum   'La12 Ce14 Pr13 Nd13 Sm12 Bi64 S128'
_cell_volume   7114.87786139
_cell_formula_units_Z   1
loop_
 _symmetry_equiv_pos_site_id
 _symmetry_equiv_pos_as_xyz
  1  'x, y, z'
loop_
 _atom_type_symbol
 _atom_type_oxidation_number
  La3+  3.0
  Ce3+  3.0
  Pr3+  3.0
  Nd3+  3.0
  Sm3+  3.0
  Bi2+  2.0
  S2-  -2.0
loop_
 _atom_site_type_symbol
 _atom_site_label
 _atom_site_symmetry_multiplicity
 _atom_site_fract_x
 _atom_site_fract_y
 _atom_site_fract_z
 _atom_site_occupancy
  La3+  La0  1  0.61503669  -0.00087583  0.42429089  1
  La3+  La1  1  0.35190467  0.49687725  0.40235587  1
  La3+  La2  1  0.74228794  0.62855915  0.61150974  1
  La3+  La3  1  0.23377099  0.88189210  0.59185120  1
  La3+  La4  1  0.61260013  0.74587486  0.43327388  1
  La3+  La5  1  0.11457285  0.25429187  0.42915578  1
  La3+  La6  1  0.86184364  0.50313481  0.44203381  1
  La3+  La7  1  0.63866610  0.77177571  0.93083498  1
  La3+  La8  1  0.01258865  0.89932096  0.08857941  1
  La3+  La9  1  0.38316985  -0.00383753  0.88505347  1
  La3+  La10  1  0.61707979  0.25297806  0.41689875  1
  La3+  La11  1  0.12871953  0.02612335  0.92938336  1
  Ce3+  Ce12  1  0.11614357  0.50362493  0.44764986  1
  Ce3+  Ce13  1  0.00647891  0.39552739  0.05671355  1
  Ce3+  Ce14  1  0.73779387  0.12397191  0.55855647  1
  Ce3+  Ce15  1  0.00486766  0.64641643  0.05392705  1
  Ce3+  Ce16  1  0.23990330  0.13311291  0.56820831  1
  Ce3+  Ce17  1  0.36184373  0.25415338  0.43975069  1
  Ce3+  Ce18  1  0.24329055  0.62539225  0.56367408  1
  Ce3+  Ce19  1  0.38178034  0.76951707  0.94484223  1
  Ce3+  Ce20  1  -0.01170838  0.63013645  0.56180016  1
  Ce3+  Ce21  1  0.75645224  0.64383683  0.07325174  1
  Ce3+  Ce22  1  0.50818219  0.64408071  0.05588770  1
  Ce3+  Ce23  1  0.73587517  0.87957334  0.56507543  1
  Ce3+  Ce24  1  0.13244515  0.26905346  0.94449141  1
  Ce3+  Ce25  1  0.73513504  0.37980854  0.56128985  1
  Pr3+  Pr26  1  0.88199136  0.77499835  0.94581418  1
  Pr3+  Pr27  1  0.36256527  0.00203128  0.44407567  1
  Pr3+  Pr28  1  0.61151718  0.50187808  0.43221251  1
  Pr3+  Pr29  1  0.11695820  0.00794263  0.43590408  1
  Pr3+  Pr30  1  0.25840681  0.89836477  0.06202050  1
  Pr3+  Pr31  1  0.48436415  0.62624413  0.56129428  1
  Pr3+  Pr32  1  0.88099230  0.52089286  0.93933802  1
  Pr3+  Pr33  1  0.74749540  0.89416232  0.07868465  1
  Pr3+  Pr34  1  0.49117843  0.12814352  0.55654246  1
  Pr3+  Pr35  1  0.25734185  0.64484264  0.06065419  1
  Pr3+  Pr36  1  0.38178155  0.51558332  0.92831218  1
  Pr3+  Pr37  1  -0.00851769  0.13064446  0.56264795  1
  Pr3+  Pr38  1  0.63365786  0.51841809  0.94359367  1
  Nd3+  Nd39  1  0.86530957  0.75453540  0.44856873  1
  Nd3+  Nd40  1  0.88304762  0.02223198  0.94386061  1
  Nd3+  Nd41  1  0.63236347  0.26985806  0.94340236  1
  Nd3+  Nd42  1  0.75504533  0.14620276  0.06959346  1
  Nd3+  Nd43  1  0.75783042  0.39509592  0.07702453  1
  Nd3+  Nd44  1  -0.01067268  0.37444763  0.56745440  1
  Nd3+  Nd45  1  0.11623038  0.75704508  0.44037851  1
  Nd3+  Nd46  1  0.63098678  0.02295348  0.93807013  1
  Nd3+  Nd47  1  0.00788259  0.14441005  0.07000548  1
  Nd3+  Nd48  1  0.49117801  0.38164194  0.55275448  1
  Nd3+  Nd49  1  0.50538140  0.14692765  0.05585833  1
  Nd3+  Nd50  1  0.25787913  0.14540463  0.05613715  1
  Nd3+  Nd51  1  0.86247295  0.25170897  0.44054712  1
  Sm3+  Sm52  1  0.86619530  -0.00019104  0.44089605  1
  Sm3+  Sm53  1  -0.00713565  0.88572010  0.56884002  1
  Sm3+  Sm54  1  0.25758749  0.39645648  0.05867507  1
  Sm3+  Sm55  1  0.49228712  0.87608271  0.55683914  1
  Sm3+  Sm56  1  0.88113701  0.26884896  0.94743621  1
  Sm3+  Sm57  1  0.38197708  0.26634234  0.93039565  1
  Sm3+  Sm58  1  0.13263952  0.51981870  0.94413036  1
  Sm3+  Sm59  1  0.50715019  0.89740331  0.05534452  1
  Sm3+  Sm60  1  0.50461409  0.39590542  0.06037567  1
  Sm3+  Sm61  1  0.36149434  0.75052583  0.44769404  1
  Sm3+  Sm62  1  0.24052689  0.37540982  0.56343907  1
  Sm3+  Sm63  1  0.13473097  0.77522704  0.94136945  1
  Bi2+  Bi64  1  -0.00289774  0.10112233  0.25360666  1
  Bi2+  Bi65  1  -0.01225231  0.14469989  0.79771972  1
  Bi2+  Bi66  1  -0.03809269  0.27105058  0.32119557  1
  Bi2+  Bi67  1  0.06651730  0.39577619  0.78013823  1
  Bi2+  Bi68  1  0.03569113  0.58482341  0.25473317  1
  Bi2+  Bi69  1  -0.02804150  0.57960396  0.79103572  1
  Bi2+  Bi70  1  -0.01070251  0.83731020  0.30608432  1
  Bi2+  Bi71  1  -0.01196822  0.87948962  0.79418057  1
  Bi2+  Bi72  1  0.27996804  0.12426656  0.29899775  1
  Bi2+  Bi73  1  0.23943886  0.14070201  0.78802263  1
  Bi2+  Bi74  1  0.14544800  0.30632093  0.29724878  1
  Bi2+  Bi75  1  0.28601735  0.33355050  0.78419031  1
  Bi2+  Bi76  1  0.22720624  0.60855824  0.28976987  1
  Bi2+  Bi77  1  0.26132102  0.60903966  0.80053797  1
  Bi2+  Bi78  1  0.24541838  0.85184653  0.31462614  1
  Bi2+  Bi79  1  0.24222858  0.85877571  0.78473639  1
  Bi2+  Bi80  1  0.46061472  0.14979820  0.25595344  1
  Bi2+  Bi81  1  0.52702504  0.14123512  0.79147636  1
  Bi2+  Bi82  1  0.45131124  0.34048654  0.27890473  1
  Bi2+  Bi83  1  0.58986877  0.32057115  0.75615979  1
  Bi2+  Bi84  1  0.49994390  0.66042567  0.28961701  1
  Bi2+  Bi85  1  0.44843487  0.55033864  0.80082368  1
  Bi2+  Bi86  1  0.49180373  0.91992149  0.28343168  1
  Bi2+  Bi87  1  0.51126394  0.85760796  0.78819492  1
  Bi2+  Bi88  1  0.72794825  0.13395767  0.28514553  1
  Bi2+  Bi89  1  0.77780602  0.10982127  0.81213932  1
  Bi2+  Bi90  1  0.72426285  0.39870207  0.29741456  1
  Bi2+  Bi91  1  0.78657376  0.37167289  0.73332620  1
  Bi2+  Bi92  1  0.76548781  0.64214834  0.29472193  1
  Bi2+  Bi93  1  0.71437378  0.61757875  0.82128961  1
  Bi2+  Bi94  1  0.75294182  0.93379551  0.29592300  1
  Bi2+  Bi95  1  0.77865581  0.91530470  0.80620029  1
  Bi2+  Bi96  1  0.24795100  -0.01871235  0.22154047  1
  Bi2+  Bi97  1  0.09898919  -0.02225758  0.70896933  1
  Bi2+  Bi98  1  0.10766623  0.22355244  0.19199955  1
  Bi2+  Bi99  1  0.13167648  0.24960718  0.71240817  1
  Bi2+  Bi100  1  0.11388533  0.42301125  0.20566668  1
  Bi2+  Bi101  1  0.14879145  0.47072090  0.67732994  1
  Bi2+  Bi102  1  0.12743134  0.74227817  0.19710595  1
  Bi2+  Bi103  1  0.12067253  0.65263193  0.72381613  1
  Bi2+  Bi104  1  0.41567046  -0.08687333  0.17748564  1
  Bi2+  Bi105  1  0.39538125  -0.02061999  0.68221757  1
  Bi2+  Bi106  1  0.30583594  0.26225847  0.20743505  1
  Bi2+  Bi107  1  0.40116465  0.26211751  0.69996731  1
  Bi2+  Bi108  1  0.39581069  0.52920521  0.18975458  1
  Bi2+  Bi109  1  0.34229568  0.47882459  0.70692765  1
  Bi2+  Bi110  1  0.35135781  0.75567499  0.23235423  1
  Bi2+  Bi111  1  0.39041061  0.69577850  0.72729148  1
  Bi2+  Bi112  1  0.61187154  0.02507813  0.20360495  1
  Bi2+  Bi113  1  0.65894746  0.04597508  0.72681966  1
  Bi2+  Bi114  1  0.60422489  0.29014632  0.20838415  1
  Bi2+  Bi115  1  0.69077246  0.22919672  0.67287360  1
  Bi2+  Bi116  1  0.64564706  0.58057427  0.21082900  1
  Bi2+  Bi117  1  0.59061716  0.51298443  0.70954193  1
  Bi2+  Bi118  1  0.63805238  0.78781704  0.25408278  1
  Bi2+  Bi119  1  0.62847880  0.77084044  0.71161528  1
  Bi2+  Bi120  1  0.86967770  -0.02853683  0.20839098  1
  Bi2+  Bi121  1  0.85657362  -0.01363465  0.71182223  1
  Bi2+  Bi122  1  0.86341455  0.23080733  0.21942307  1
  Bi2+  Bi123  1  0.87578729  0.20364302  0.70725243  1
  Bi2+  Bi124  1  0.89651422  0.42413623  0.24708923  1
  Bi2+  Bi125  1  0.95174781  0.46032296  0.69265930  1
  Bi2+  Bi126  1  0.87912999  0.69235675  0.20653562  1
  Bi2+  Bi127  1  0.94542464  0.73804288  0.72487764  1
  S2-  S128  1  0.00223049  0.04358969  0.15107236  1
  S2-  S129  1  -0.01971886  0.01719954  0.64164475  1
  S2-  S130  1  -0.03161070  0.38916150  0.15044808  1
  S2-  S131  1  0.00108988  0.25112305  0.64032151  1
  S2-  S132  1  0.02000464  0.62406358  0.14988004  1
  S2-  S133  1  -0.08881271  0.62201093  0.64984022  1
  S2-  S134  1  -0.02183910  0.83133969  0.18583781  1
  S2-  S135  1  0.08962713  0.84798630  0.65050651  1
  S2-  S136  1  0.24516179  0.12244212  0.15501285  1
  S2-  S137  1  0.23406377  0.03356155  0.65031746  1
  S2-  S138  1  0.27902780  0.42166868  0.15511216  1
  S2-  S139  1  0.25105034  0.26042445  0.63938702  1
  S2-  S140  1  0.26916332  0.64529942  0.16114782  1
  S2-  S141  1  0.35364044  0.61886860  0.64045900  1
  S2-  S142  1  0.16644368  0.88505656  0.14752543  1
  S2-  S143  1  0.30348442  0.82913711  0.68541610  1
  S2-  S144  1  0.52025208  0.16026303  0.15505337  1
  S2-  S145  1  0.47417116  0.13356860  0.65706779  1
  S2-  S146  1  0.51448940  0.41229370  0.15839004  1
  S2-  S147  1  0.48162960  0.40252682  0.65248021  1
  S2-  S148  1  0.50785685  0.64404063  0.15357358  1
  S2-  S149  1  0.57432056  0.64250701  0.64734187  1
  S2-  S150  1  0.59236105  0.89502979  0.14044860  1
  S2-  S151  1  0.52485075  0.88365455  0.65409146  1
  S2-  S152  1  0.75771636  0.03177264  0.14604336  1
  S2-  S153  1  0.73083544  0.01307660  0.63466482  1
  S2-  S154  1  0.74192645  0.26830803  0.14657136  1
  S2-  S155  1  0.72289775  0.45924803  0.64843930  1
  S2-  S156  1  0.75649480  0.52169340  0.14874047  1
  S2-  S157  1  0.72247841  0.62481592  0.72575987  1
  S2-  S158  1  0.76415485  0.75856727  0.14741182  1
  S2-  S159  1  0.74921401  0.79385618  0.65076522  1
  S2-  S160  1  0.10867353  -0.07288167  0.34541150  1
  S2-  S161  1  0.21870644  -0.00295946  0.84350460  1
  S2-  S162  1  0.14117088  0.13328603  0.35765447  1
  S2-  S163  1  0.12481201  0.19346811  0.85746248  1
  S2-  S164  1  0.18673842  0.50320627  0.35852939  1
  S2-  S165  1  0.15514444  0.49907704  0.84845806  1
  S2-  S166  1  0.11751087  0.72834271  0.34075322  1
  S2-  S167  1  0.12212140  0.79141439  0.84286917  1
  S2-  S168  1  0.36656740  -0.01859299  0.34384432  1
  S2-  S169  1  0.38261140  -0.01661702  0.77560049  1
  S2-  S170  1  0.34203790  0.33212490  0.35391513  1
  S2-  S171  1  0.38388847  0.16304381  0.84906174  1
  S2-  S172  1  0.38364750  0.52314839  0.29754367  1
  S2-  S173  1  0.38777534  0.38846900  0.85725486  1
  S2-  S174  1  0.37128928  0.73625691  0.35036290  1
  S2-  S175  1  0.36747664  0.82023380  0.85238863  1
  S2-  S176  1  0.60173380  0.11710518  0.34864144  1
  S2-  S177  1  0.55497503  -0.00457819  0.84995602  1
  S2-  S178  1  0.58763328  0.38873574  0.34867939  1
  S2-  S179  1  0.63046957  0.24781532  0.84536285  1
  S2-  S180  1  0.61604479  0.62232846  0.35608059  1
  S2-  S181  1  0.60249716  0.49986383  0.84498797  1
  S2-  S182  1  0.61578967  0.86376726  0.35469584  1
  S2-  S183  1  0.57910253  0.73702759  0.83596531  1
  S2-  S184  1  0.89846642  -0.02417996  0.34452694  1
  S2-  S185  1  0.98725701  0.01465578  0.86247213  1
  S2-  S186  1  0.76897679  0.25836294  0.35512633  1
  S2-  S187  1  0.87658793  0.23956208  0.85100745  1
  S2-  S188  1  0.85450629  0.50066492  0.34156900  1
  S2-  S189  1  0.83949079  0.50349651  0.84315907  1
  S2-  S190  1  0.87017831  0.74653588  0.34848069  1
  S2-  S191  1  0.78685602  0.76689262  0.86149523  1
  S2-  S192  1  -0.01430083  0.12757202  0.45389856  1
  S2-  S193  1  0.00372020  0.14992674  0.96450001  1
  S2-  S194  1  -0.01012358  0.37772608  0.45713201  1
  S2-  S195  1  0.00678068  0.39472718  0.94915212  1
  S2-  S196  1  -0.00801432  0.62898120  0.45416270  1
  S2-  S197  1  0.01049136  0.64711874  0.94669655  1
  S2-  S198  1  -0.00790647  0.87955783  0.46066971  1
  S2-  S199  1  0.01042551  0.89314095  0.95979834  1
  S2-  S200  1  0.24333254  0.13021060  0.46106411  1
  S2-  S201  1  0.25967281  0.14763262  0.95340160  1
  S2-  S202  1  0.23821242  0.37898557  0.45930180  1
  S2-  S203  1  0.25499236  0.39421616  0.95500457  1
  S2-  S204  1  0.23983418  0.62812810  0.45707763  1
  S2-  S205  1  0.25514183  0.64406060  0.95234043  1
  S2-  S206  1  0.24023890  0.87676528  0.45447071  1
  S2-  S207  1  0.25876807  0.89617734  0.95573903  1
  S2-  S208  1  0.48700843  0.12964546  0.45006266  1
  S2-  S209  1  0.50704404  0.14744462  0.95218139  1
  S2-  S210  1  0.48201312  0.38041802  0.44921117  1
  S2-  S211  1  0.50717438  0.39237680  0.95650402  1
  S2-  S212  1  0.47482075  0.61898127  0.45227884  1
  S2-  S213  1  0.50510687  0.64215589  0.94982805  1
  S2-  S214  1  0.48439592  0.87463224  0.45272913  1
  S2-  S215  1  0.50562882  0.89529802  0.95276265  1
  S2-  S216  1  0.74304339  0.12241279  0.45263977  1
  S2-  S217  1  0.75736106  0.14561043  0.95991074  1
  S2-  S218  1  0.73735446  0.37793213  0.45584373  1
  S2-  S219  1  0.75886162  0.39199528  0.95924683  1
  S2-  S220  1  0.74340633  0.62922510  0.45235200  1
  S2-  S221  1  0.75823395  0.64353597  0.96331656  1
  S2-  S222  1  0.74299099  0.87816928  0.45590214  1
  S2-  S223  1  0.75642672  0.90200036  0.96161990  1
  S2-  S224  1  0.13219362  0.02337843  0.04365211  1
  S2-  S225  1  0.11785852  0.00444260  0.54322428  1
  S2-  S226  1  0.13361727  0.27227798  0.05133937  1
  S2-  S227  1  0.11571406  0.25630659  0.53819199  1
  S2-  S228  1  0.13272444  0.51909012  0.04842346  1
  S2-  S229  1  0.11351686  0.50111227  0.55174583  1
  S2-  S230  1  0.13137549  0.76885735  0.04542982  1
  S2-  S231  1  0.11759413  0.75084247  0.54689237  1
  S2-  S232  1  0.38422539  0.02180620  0.05355963  1
  S2-  S233  1  0.36604514  -0.00011310  0.54962341  1
  S2-  S234  1  0.38066267  0.27372274  0.04568844  1
  S2-  S235  1  0.36869274  0.25572937  0.54324371  1
  S2-  S236  1  0.38124795  0.51847943  0.04043503  1
  S2-  S237  1  0.35936626  0.49633139  0.54425515  1
  S2-  S238  1  0.38308185  0.77085313  0.05074033  1
  S2-  S239  1  0.36081772  0.76127406  0.55107571  1
  S2-  S240  1  0.62852453  0.02458299  0.04250734  1
  S2-  S241  1  0.60955889  0.00162251  0.53472585  1
  S2-  S242  1  0.62871702  0.27412724  0.04729116  1
  S2-  S243  1  0.61402802  0.25313673  0.53890978  1
  S2-  S244  1  0.62963257  0.51553914  0.04887892  1
  S2-  S245  1  0.61453843  0.50595462  0.54035527  1
  S2-  S246  1  0.62930645  0.76819655  0.04024569  1
  S2-  S247  1  0.61177124  0.75378328  0.54121435  1
  S2-  S248  1  0.88338144  0.01954455  0.04782279  1
  S2-  S249  1  0.86609039  0.00251495  0.54198741  1
  S2-  S250  1  0.88253982  0.26892150  0.05089106  1
  S2-  S251  1  0.86025427  0.25398393  0.54539099  1
  S2-  S252  1  0.88264934  0.51872946  0.04574612  1
  S2-  S253  1  0.86622309  0.50059449  0.54904731  1
  S2-  S254  1  0.88705360  0.77551971  0.05062419  1
  S2-  S255  1  0.87138233  0.75913525  0.55230652  1
