# generated using pymatgen
data_La12Ce14Pr13Nd13Sm12(BiS2)64
_symmetry_space_group_name_H-M   'P 1'
_cell_length_a   16.15561423
_cell_length_b   16.15305442
_cell_length_c   27.25663945
_cell_angle_alpha   90.28474582
_cell_angle_beta   90.33210211
_cell_angle_gamma   90.00757486
_symmetry_Int_Tables_number   1
_chemical_formula_structural   La12Ce14Pr13Nd13Sm12(BiS2)64
_chemical_formula_sum   'La12 Ce14 Pr13 Nd13 Sm12 Bi64 S128'
_cell_volume   7112.75378491
_cell_formula_units_Z   1
loop_
 _symmetry_equiv_pos_site_id
 _symmetry_equiv_pos_as_xyz
  1  'x, y, z'
loop_
 _atom_type_symbol
 _atom_type_oxidation_number
  La3+  3.0
  Ce3+  3.0
  Pr3+  3.0
  Nd3+  3.0
  Sm3+  3.0
  Bi2+  2.0
  S2-  -2.0
loop_
 _atom_site_type_symbol
 _atom_site_label
 _atom_site_symmetry_multiplicity
 _atom_site_fract_x
 _atom_site_fract_y
 _atom_site_fract_z
 _atom_site_occupancy
  La3+  La0  1  0.61742882  0.23502250  0.92096241  1
  La3+  La1  1  0.61442450  0.75987452  0.43784259  1
  La3+  La2  1  0.87426565  -0.01197255  0.93177027  1
  La3+  La3  1  0.85724030  0.00451695  0.42836550  1
  La3+  La4  1  0.25440018  0.88016819  0.11309357  1
  La3+  La5  1  0.61064988  0.50856430  0.43433535  1
  La3+  La6  1  -0.00792932  0.37870064  0.07036756  1
  La3+  La7  1  0.48893972  0.13283708  0.60609370  1
  La3+  La8  1  0.10701813  0.01760192  0.41842321  1
  La3+  La9  1  0.36681031  -0.01213096  0.94060522  1
  La3+  La10  1  0.49764427  0.11813653  0.06955929  1
  La3+  La11  1  0.88282755  0.72344906  0.88325396  1
  Ce3+  Ce12  1  0.62228529  -0.00622346  0.94367754  1
  Ce3+  Ce13  1  0.25200475  0.62540199  0.05820538  1
  Ce3+  Ce14  1  0.49659082  0.86419190  0.05895102  1
  Ce3+  Ce15  1  0.12167795  0.49252790  0.94564696  1
  Ce3+  Ce16  1  0.36389693  0.76178322  0.44292604  1
  Ce3+  Ce17  1  0.24301131  0.13701778  0.55486593  1
  Ce3+  Ce18  1  0.87049277  0.76142619  0.44952316  1
  Ce3+  Ce19  1  0.49944355  0.36765988  0.05153028  1
  Ce3+  Ce20  1  0.87612979  0.23861250  0.93251872  1
  Ce3+  Ce21  1  0.37200018  0.74601701  0.93133795  1
  Ce3+  Ce22  1  -0.00754798  0.13425435  0.55526412  1
  Ce3+  Ce23  1  0.62883642  0.74283794  0.93560988  1
  Ce3+  Ce24  1  0.75402071  0.86758274  0.06197828  1
  Ce3+  Ce25  1  0.23909575  0.63958805  0.55546134  1
  Pr3+  Pr26  1  0.48849500  0.63623557  0.56843004  1
  Pr3+  Pr27  1  0.36477542  0.01389453  0.42102808  1
  Pr3+  Pr28  1  0.48919725  0.89065736  0.55603410  1
  Pr3+  Pr29  1  0.86203187  0.26210148  0.43851174  1
  Pr3+  Pr30  1  0.48106629  0.39009811  0.57587502  1
  Pr3+  Pr31  1  0.11218103  0.26597722  0.43368987  1
  Pr3+  Pr32  1  0.85857880  0.50827294  0.42772796  1
  Pr3+  Pr33  1  0.37250029  0.49025389  0.93521822  1
  Pr3+  Pr34  1  0.11918738  -0.01063508  0.95074025  1
  Pr3+  Pr35  1  -0.00959643  0.12568060  0.07501418  1
  Pr3+  Pr36  1  0.74324755  0.88896359  0.56775238  1
  Pr3+  Pr37  1  -0.01008751  0.38667188  0.56544453  1
  Pr3+  Pr38  1  0.01004419  0.89396322  0.59087957  1
  Nd3+  Nd39  1  -0.00494292  0.87163952  0.07025911  1
  Nd3+  Nd40  1  0.73698200  0.38705536  0.56175033  1
  Nd3+  Nd41  1  0.74934578  0.11913141  0.06172892  1
  Nd3+  Nd42  1  0.24459661  0.12489414  0.07248773  1
  Nd3+  Nd43  1  -0.00206353  0.62075068  0.06224084  1
  Nd3+  Nd44  1  0.74255202  0.63533074  0.55991273  1
  Nd3+  Nd45  1  0.74281427  0.13479751  0.56122140  1
  Nd3+  Nd46  1  0.36673471  0.25955648  0.43490815  1
  Nd3+  Nd47  1  0.11334916  0.76346189  0.44034539  1
  Nd3+  Nd48  1  0.11880678  0.74329831  0.94263503  1
  Nd3+  Nd49  1  0.25127108  0.36966445  0.06038438  1
  Nd3+  Nd50  1  -0.00869115  0.63082474  0.56633511  1
  Nd3+  Nd51  1  0.36678352  0.51374344  0.43093301  1
  Sm3+  Sm52  1  0.62435741  0.49364624  0.93936173  1
  Sm3+  Sm53  1  0.74555886  0.36754176  0.04888411  1
  Sm3+  Sm54  1  0.11930984  0.24195106  0.94683430  1
  Sm3+  Sm55  1  0.24349513  0.38437943  0.55521780  1
  Sm3+  Sm56  1  0.74774091  0.62101906  0.05494284  1
  Sm3+  Sm57  1  0.87212535  0.49040937  0.94025606  1
  Sm3+  Sm58  1  0.36606249  0.23061672  0.93453063  1
  Sm3+  Sm59  1  0.11358730  0.51179168  0.44695778  1
  Sm3+  Sm60  1  0.61620553  0.01234007  0.44433723  1
  Sm3+  Sm61  1  0.60889361  0.25824346  0.45223154  1
  Sm3+  Sm62  1  0.24133945  0.89380185  0.55170924  1
  Sm3+  Sm63  1  0.49887002  0.61934660  0.05136501  1
  Bi2+  Bi64  1  -0.03245829  0.16344123  0.29470891  1
  Bi2+  Bi65  1  0.00939695  0.11619072  0.80078111  1
  Bi2+  Bi66  1  0.09598824  0.36356522  0.28300617  1
  Bi2+  Bi67  1  -0.00208430  0.31083922  0.81814287  1
  Bi2+  Bi68  1  0.03889124  0.61655292  0.28933719  1
  Bi2+  Bi69  1  -0.00234191  0.50266111  0.77983860  1
  Bi2+  Bi70  1  0.01206630  0.86758362  0.30953372  1
  Bi2+  Bi71  1  0.02025156  0.86600216  0.79372863  1
  Bi2+  Bi72  1  0.25381702  0.19293083  0.28759086  1
  Bi2+  Bi73  1  0.24454296  0.14970691  0.77959998  1
  Bi2+  Bi74  1  0.29013078  0.37891799  0.32345294  1
  Bi2+  Bi75  1  0.22631417  0.43791004  0.77754794  1
  Bi2+  Bi76  1  0.29782692  0.56471602  0.28306375  1
  Bi2+  Bi77  1  0.29663913  0.67146500  0.80085123  1
  Bi2+  Bi78  1  0.28012591  0.83382012  0.31380546  1
  Bi2+  Bi79  1  0.24039551  0.86560452  0.78803344  1
  Bi2+  Bi80  1  0.53040616  0.15937483  0.29481903  1
  Bi2+  Bi81  1  0.48398695  0.13869453  0.80591788  1
  Bi2+  Bi82  1  0.50144535  0.35348941  0.29405063  1
  Bi2+  Bi83  1  0.50170356  0.40603796  0.80657540  1
  Bi2+  Bi84  1  0.51675006  0.62692764  0.29496325  1
  Bi2+  Bi85  1  0.49114071  0.70313992  0.81571504  1
  Bi2+  Bi86  1  0.56430721  0.87105660  0.22455454  1
  Bi2+  Bi87  1  0.52228562  0.89187706  0.79405697  1
  Bi2+  Bi88  1  0.72719244  0.14033867  0.28656199  1
  Bi2+  Bi89  1  0.81591170  0.14506587  0.75825268  1
  Bi2+  Bi90  1  0.68190779  0.41489919  0.26300406  1
  Bi2+  Bi91  1  0.80895126  0.33448101  0.78926879  1
  Bi2+  Bi92  1  0.76460460  0.61417190  0.29413504  1
  Bi2+  Bi93  1  0.74671380  0.61301210  0.78271860  1
  Bi2+  Bi94  1  0.72631644  0.87211316  0.29631979  1
  Bi2+  Bi95  1  0.71355513  0.89999451  0.79904463  1
  Bi2+  Bi96  1  0.13324026  -0.01014670  0.22572441  1
  Bi2+  Bi97  1  0.11675678  0.04630135  0.71339643  1
  Bi2+  Bi98  1  0.11672447  0.22941491  0.20440581  1
  Bi2+  Bi99  1  0.14635654  0.23485480  0.68465462  1
  Bi2+  Bi100  1  0.13636939  0.50789689  0.20542193  1
  Bi2+  Bi101  1  0.09825128  0.42834259  0.68742876  1
  Bi2+  Bi102  1  0.09590769  0.70548777  0.19519934  1
  Bi2+  Bi103  1  0.14323844  0.63000619  0.72726640  1
  Bi2+  Bi104  1  0.38624470  -0.00193947  0.22562729  1
  Bi2+  Bi105  1  0.30992402  -0.03195868  0.69386178  1
  Bi2+  Bi106  1  0.35294103  0.32027987  0.21648084  1
  Bi2+  Bi107  1  0.34397154  0.27114510  0.71009764  1
  Bi2+  Bi108  1  0.32216806  0.50119205  0.17276773  1
  Bi2+  Bi109  1  0.36267471  0.52133051  0.70844364  1
  Bi2+  Bi110  1  0.38880121  0.68450680  0.21215658  1
  Bi2+  Bi111  1  0.34702438  0.77459899  0.70417038  1
  Bi2+  Bi112  1  0.64435070  0.04146631  0.19313276  1
  Bi2+  Bi113  1  0.61844589  -0.03253587  0.70355698  1
  Bi2+  Bi114  1  0.59568612  0.23089630  0.19219631  1
  Bi2+  Bi115  1  0.62643178  0.27438216  0.71985909  1
  Bi2+  Bi116  1  0.55879394  0.51884385  0.20287771  1
  Bi2+  Bi117  1  0.56522761  0.56397674  0.74192718  1
  Bi2+  Bi118  1  0.72672183  0.78753284  0.18892100  1
  Bi2+  Bi119  1  0.54004805  0.75136057  0.70485453  1
  Bi2+  Bi120  1  0.83168221  0.01122577  0.21645632  1
  Bi2+  Bi121  1  0.85324358  -0.01175328  0.69563358  1
  Bi2+  Bi122  1  0.84510721  0.26737693  0.21132296  1
  Bi2+  Bi123  1  0.95204658  0.27946932  0.70006408  1
  Bi2+  Bi124  1  0.84293432  0.51148955  0.20539917  1
  Bi2+  Bi125  1  0.82832567  0.46704432  0.70145594  1
  Bi2+  Bi126  1  0.90014990  0.74907319  0.24575860  1
  Bi2+  Bi127  1  0.87649580  0.72480921  0.68082369  1
  S2-  S128  1  0.04237459  0.08339714  0.17183984  1
  S2-  S129  1  -0.01229795  0.05317566  0.64088798  1
  S2-  S130  1  -0.01587099  0.29952358  0.15978498  1
  S2-  S131  1  -0.04125122  0.50547775  0.63735755  1
  S2-  S132  1  -0.01863577  0.52246934  0.14550094  1
  S2-  S133  1  0.04206837  0.69720192  0.65630932  1
  S2-  S134  1  0.08784843  0.86360650  0.15691476  1
  S2-  S135  1  -0.03325601  0.86932988  0.69173676  1
  S2-  S136  1  0.25648472  0.04194345  0.16120001  1
  S2-  S137  1  0.32528244  0.13067428  0.64332631  1
  S2-  S138  1  0.25537665  0.26439401  0.13958498  1
  S2-  S139  1  0.32307089  0.39638258  0.64192080  1
  S2-  S140  1  0.25140833  0.70819396  0.14467436  1
  S2-  S141  1  0.26759751  0.63777263  0.65226858  1
  S2-  S142  1  0.27026625  0.87552929  0.22121734  1
  S2-  S143  1  0.17314926  0.90742802  0.64173457  1
  S2-  S144  1  0.45696692  0.12827017  0.16748651  1
  S2-  S145  1  0.54707469  0.11990663  0.70881667  1
  S2-  S146  1  0.52215974  0.36837852  0.14785196  1
  S2-  S147  1  0.49582526  0.28829403  0.65895193  1
  S2-  S148  1  0.51401401  0.65938393  0.14730424  1
  S2-  S149  1  0.49784950  0.52408596  0.64489414  1
  S2-  S150  1  0.43447539  0.88704056  0.14943254  1
  S2-  S151  1  0.47404763  0.96451286  0.64596371  1
  S2-  S152  1  0.84715505  0.13657903  0.14430586  1
  S2-  S153  1  0.74871314  0.12181387  0.65973836  1
  S2-  S154  1  0.77483371  0.37580520  0.14649495  1
  S2-  S155  1  0.70279817  0.37476853  0.65988441  1
  S2-  S156  1  0.75004046  0.61790324  0.15464032  1
  S2-  S157  1  0.74714070  0.60801233  0.65785157  1
  S2-  S158  1  0.85834579  0.89196907  0.14248297  1
  S2-  S159  1  0.74979251  0.85306098  0.66663770  1
  S2-  S160  1  0.17389751  -0.03746766  0.32893343  1
  S2-  S161  1  0.11726631  -0.03321205  0.84812611  1
  S2-  S162  1  0.11084489  0.16782487  0.35004740  1
  S2-  S163  1  0.14897410  0.22926610  0.84923081  1
  S2-  S164  1  0.11823016  0.48271208  0.35121378  1
  S2-  S165  1  0.12463756  0.50970779  0.84826978  1
  S2-  S166  1  0.13092651  0.74297657  0.34140152  1
  S2-  S167  1  0.04965238  0.73906991  0.84971651  1
  S2-  S168  1  0.40364244  -0.06029198  0.32722193  1
  S2-  S169  1  0.35505776  0.09777543  0.86084372  1
  S2-  S170  1  0.37334133  0.15243744  0.35371085  1
  S2-  S171  1  0.41669334  0.28607406  0.84470195  1
  S2-  S172  1  0.48957691  0.49583364  0.35921425  1
  S2-  S173  1  0.36128665  0.49829812  0.83475132  1
  S2-  S174  1  0.38287824  0.70249837  0.35227702  1
  S2-  S175  1  0.35769331  0.87005804  0.85939711  1
  S2-  S176  1  0.71195058  -0.00010423  0.36037720  1
  S2-  S177  1  0.61146218  0.08666231  0.85954868  1
  S2-  S178  1  0.63611448  0.25173198  0.35390841  1
  S2-  S179  1  0.64091407  0.29978889  0.82565291  1
  S2-  S180  1  0.72217291  0.48755315  0.35537088  1
  S2-  S181  1  0.62604049  0.51814419  0.84198873  1
  S2-  S182  1  0.63741765  0.72717959  0.33931662  1
  S2-  S183  1  0.71066646  0.74446039  0.84816584  1
  S2-  S184  1  0.95959671  0.01130940  0.34662907  1
  S2-  S185  1  0.87456386  -0.10668959  0.84424531  1
  S2-  S186  1  0.90160980  0.28889382  0.34114185  1
  S2-  S187  1  0.87080222  0.11867094  0.85924253  1
  S2-  S188  1  0.90835974  0.54930085  0.33277921  1
  S2-  S189  1  0.86919072  0.55069046  0.84884975  1
  S2-  S190  1  0.86786937  0.80258652  0.35435860  1
  S2-  S191  1  0.88113407  0.70955066  0.77417396  1
  S2-  S192  1  -0.01522786  0.13983178  0.45217391  1
  S2-  S193  1  -0.00049807  0.12035245  0.96110929  1
  S2-  S194  1  -0.01152029  0.38940877  0.45583144  1
  S2-  S195  1  -0.00276093  0.36942800  0.95724847  1
  S2-  S196  1  -0.00777047  0.63397574  0.45647176  1
  S2-  S197  1  -0.00686935  0.61431980  0.95597618  1
  S2-  S198  1  -0.00815112  0.88678248  0.45321651  1
  S2-  S199  1  -0.00454398  0.86370895  0.96101910  1
  S2-  S200  1  0.23761860  0.13905358  0.45067205  1
  S2-  S201  1  0.23947101  0.11942198  0.96378730  1
  S2-  S202  1  0.24117012  0.38813857  0.45232850  1
  S2-  S203  1  0.24775462  0.36400543  0.95259050  1
  S2-  S204  1  0.23822187  0.63441516  0.44955759  1
  S2-  S205  1  0.24827451  0.61823034  0.95071424  1
  S2-  S206  1  0.24062210  0.88785574  0.44730592  1
  S2-  S207  1  0.24149372  0.86268545  0.95702675  1
  S2-  S208  1  0.49567004  0.13182245  0.45083352  1
  S2-  S209  1  0.49444565  0.11704418  0.96129758  1
  S2-  S210  1  0.48713869  0.38150263  0.46106221  1
  S2-  S211  1  0.50096517  0.36783740  0.94776263  1
  S2-  S212  1  0.48829442  0.63864842  0.46092710  1
  S2-  S213  1  0.49918739  0.61686718  0.94719357  1
  S2-  S214  1  0.49262915  0.88856971  0.44860365  1
  S2-  S215  1  0.50293002  0.86624573  0.95340637  1
  S2-  S216  1  0.73796528  0.13846433  0.45538272  1
  S2-  S217  1  0.74656915  0.11868374  0.95712825  1
  S2-  S218  1  0.73555776  0.38031252  0.45720499  1
  S2-  S219  1  0.74659415  0.36679612  0.94396432  1
  S2-  S220  1  0.74162529  0.63854740  0.45343384  1
  S2-  S221  1  0.74985754  0.61513425  0.95115098  1
  S2-  S222  1  0.73710158  0.88112898  0.46143311  1
  S2-  S223  1  0.74468696  0.87075940  0.95656209  1
  S2-  S224  1  0.12182625  -0.00316480  0.05588749  1
  S2-  S225  1  0.11666990  0.01400998  0.53604086  1
  S2-  S226  1  0.11608991  0.24928500  0.04947262  1
  S2-  S227  1  0.11598175  0.26464110  0.54261242  1
  S2-  S228  1  0.12818007  0.49571963  0.05076596  1
  S2-  S229  1  0.12110148  0.50954566  0.54994248  1
  S2-  S230  1  0.11927591  0.74209418  0.04776014  1
  S2-  S231  1  0.11654065  0.76645830  0.54529003  1
  S2-  S232  1  0.36964122  -0.00627949  0.04935207  1
  S2-  S233  1  0.36428097  0.01230573  0.53500036  1
  S2-  S234  1  0.37538526  0.24416385  0.04096467  1
  S2-  S235  1  0.36617953  0.26042282  0.54123830  1
  S2-  S236  1  0.37603066  0.49463699  0.04203759  1
  S2-  S237  1  0.36159359  0.51526017  0.53818204  1
  S2-  S238  1  0.37803985  0.74161542  0.03942064  1
  S2-  S239  1  0.36400701  0.76604135  0.54996334  1
  S2-  S240  1  0.62495470  -0.00809235  0.05234710  1
  S2-  S241  1  0.61589662  0.01435386  0.54896712  1
  S2-  S242  1  0.62502184  0.24210692  0.04187091  1
  S2-  S243  1  0.61348178  0.25515900  0.55542525  1
  S2-  S244  1  0.62445021  0.49522087  0.04445512  1
  S2-  S245  1  0.61732848  0.51302698  0.54440033  1
  S2-  S246  1  0.62449259  0.74260959  0.04345358  1
  S2-  S247  1  0.61534965  0.76144517  0.55065890  1
  S2-  S248  1  0.87437048  -0.00157159  0.04137641  1
  S2-  S249  1  0.86633923  0.00894682  0.54194314  1
  S2-  S250  1  0.87012622  0.24911546  0.03923877  1
  S2-  S251  1  0.86464631  0.26224182  0.54921415  1
  S2-  S252  1  0.86529500  0.49555419  0.04289532  1
  S2-  S253  1  0.85925110  0.50923734  0.53614607  1
  S2-  S254  1  0.87268208  0.73864188  0.05497869  1
  S2-  S255  1  0.87234383  0.76432415  0.55590746  1
