# generated using pymatgen
data_La12Ce14Pr13Nd13Sm12(BiS2)64
_symmetry_space_group_name_H-M   'P 1'
_cell_length_a   16.10958473
_cell_length_b   16.09710448
_cell_length_c   27.31474987
_cell_angle_alpha   89.42967110
_cell_angle_beta   89.93579993
_cell_angle_gamma   90.04571177
_symmetry_Int_Tables_number   1
_chemical_formula_structural   La12Ce14Pr13Nd13Sm12(BiS2)64
_chemical_formula_sum   'La12 Ce14 Pr13 Nd13 Sm12 Bi64 S128'
_cell_volume   7082.83957574
_cell_formula_units_Z   1
loop_
 _symmetry_equiv_pos_site_id
 _symmetry_equiv_pos_as_xyz
  1  'x, y, z'
loop_
 _atom_type_symbol
 _atom_type_oxidation_number
  La3+  3.0
  Ce3+  3.0
  Pr3+  3.0
  Nd3+  3.0
  Sm3+  3.0
  Bi2+  2.0
  S2-  -2.0
loop_
 _atom_site_type_symbol
 _atom_site_label
 _atom_site_symmetry_multiplicity
 _atom_site_fract_x
 _atom_site_fract_y
 _atom_site_fract_z
 _atom_site_occupancy
  La3+  La0  1  0.75939033  0.61376820  0.59215931  1
  La3+  La1  1  -0.01716765  0.61230531  0.08319836  1
  La3+  La2  1  0.48186066  0.11360696  0.07422162  1
  La3+  La3  1  0.26161485  0.12562557  0.56235315  1
  La3+  La4  1  0.11707124  0.49945642  0.90711408  1
  La3+  La5  1  0.61607758  0.24392969  0.93649143  1
  La3+  La6  1  0.74826332  0.87254366  0.61166863  1
  La3+  La7  1  0.13359927  0.00019083  0.43918094  1
  La3+  La8  1  0.38896455  -0.00674281  0.41245955  1
  La3+  La9  1  0.00118450  0.11965577  0.56121636  1
  La3+  La10  1  0.61094914  -0.00245089  0.92454204  1
  La3+  La11  1  0.73819173  0.11244838  0.06824433  1
  Ce3+  Ce12  1  0.36387400  0.74346123  0.94935794  1
  Ce3+  Ce13  1  0.87852011  0.24985981  0.43689432  1
  Ce3+  Ce14  1  0.13203580  0.75174311  0.43854202  1
  Ce3+  Ce15  1  0.00155540  0.62310573  0.55740048  1
  Ce3+  Ce16  1  0.11607046  0.00018415  0.92214821  1
  Ce3+  Ce17  1  0.25540057  0.62201626  0.54902225  1
  Ce3+  Ce18  1  0.12946272  0.24933283  0.44146456  1
  Ce3+  Ce19  1  0.25664171  0.37708095  0.56018515  1
  Ce3+  Ce20  1  0.23768413  0.37096180  0.06224594  1
  Ce3+  Ce21  1  0.48805485  0.36313890  0.05981521  1
  Ce3+  Ce22  1  0.61476232  0.74202612  0.93938328  1
  Ce3+  Ce23  1  0.23629841  0.61593933  0.06256791  1
  Ce3+  Ce24  1  0.50787239  0.37414640  0.55327512  1
  Ce3+  Ce25  1  0.50842796  0.12136346  0.55101033  1
  Pr3+  Pr26  1  0.86957566  0.24357901  0.94715563  1
  Pr3+  Pr27  1  0.73990423  0.35790199  0.07012872  1
  Pr3+  Pr28  1  0.37644612  0.25335870  0.42742510  1
  Pr3+  Pr29  1  0.86020970  -0.00683011  0.92852183  1
  Pr3+  Pr30  1  0.61816105  0.49378170  0.93874957  1
  Pr3+  Pr31  1  0.48995329  0.61234564  0.06995038  1
  Pr3+  Pr32  1  0.11538463  0.24567814  0.93520289  1
  Pr3+  Pr33  1  0.86519429  0.74132218  0.94227609  1
  Pr3+  Pr34  1  0.48832454  0.86896967  0.06579172  1
  Pr3+  Pr35  1  0.13004049  0.50093590  0.43278761  1
  Pr3+  Pr36  1  -0.00590214  0.10289412  0.06823239  1
  Pr3+  Pr37  1  0.36426353  -0.00592441  0.93161451  1
  Pr3+  Pr38  1  0.73545973  0.61014356  0.07363844  1
  Nd3+  Nd39  1  0.23494206  0.87123964  0.06273513  1
  Nd3+  Nd40  1  0.36470844  0.49566038  0.93743770  1
  Nd3+  Nd41  1  0.50537979  0.62291077  0.56220562  1
  Nd3+  Nd42  1  0.62696359  0.25243610  0.42375894  1
  Nd3+  Nd43  1  0.63160227  0.50049914  0.43009414  1
  Nd3+  Nd44  1  -0.00744748  0.36380587  0.06559106  1
  Nd3+  Nd45  1  0.86688927  0.49566409  0.94297195  1
  Nd3+  Nd46  1  0.00070677  0.86789504  0.55922262  1
  Nd3+  Nd47  1  0.00203223  0.37610896  0.55530336  1
  Nd3+  Nd48  1  0.38110686  0.49854899  0.43278955  1
  Nd3+  Nd49  1  0.75244403  0.12066266  0.55156854  1
  Nd3+  Nd50  1  0.88570281  0.51174288  0.41148118  1
  Nd3+  Nd51  1  0.50180609  0.87559659  0.56750289  1
  Sm3+  Sm52  1  0.75481250  0.37864786  0.54966014  1
  Sm3+  Sm53  1  0.87847046  -0.00334467  0.43916654  1
  Sm3+  Sm54  1  0.25821154  0.87263639  0.55949989  1
  Sm3+  Sm55  1  0.73640264  0.86910441  0.05979603  1
  Sm3+  Sm56  1  0.11399517  0.73980881  0.94836344  1
  Sm3+  Sm57  1  0.62994679  -0.00312575  0.43760381  1
  Sm3+  Sm58  1  -0.01101227  0.86849276  0.04699397  1
  Sm3+  Sm59  1  0.87613883  0.74788015  0.44357013  1
  Sm3+  Sm60  1  0.38781537  0.74802153  0.43874368  1
  Sm3+  Sm61  1  0.36198578  0.24498765  0.94636254  1
  Sm3+  Sm62  1  0.63487198  0.74851568  0.45316836  1
  Sm3+  Sm63  1  0.23496662  0.11657878  0.05845688  1
  Bi2+  Bi64  1  0.01729182  0.07558171  0.27604868  1
  Bi2+  Bi65  1  0.02901350  0.15033703  0.76316305  1
  Bi2+  Bi66  1  -0.03147390  0.38249744  0.28289221  1
  Bi2+  Bi67  1  -0.02841501  0.37535364  0.79187921  1
  Bi2+  Bi68  1  0.00571605  0.64467691  0.28395034  1
  Bi2+  Bi69  1  0.00799607  0.62554420  0.78458555  1
  Bi2+  Bi70  1  -0.04680046  0.85671036  0.26997704  1
  Bi2+  Bi71  1  0.00044651  0.89755261  0.78859082  1
  Bi2+  Bi72  1  0.30306788  0.19230005  0.28592680  1
  Bi2+  Bi73  1  0.23774121  0.11474474  0.78816175  1
  Bi2+  Bi74  1  0.21669619  0.46955482  0.30634569  1
  Bi2+  Bi75  1  0.19157869  0.42361782  0.76670988  1
  Bi2+  Bi76  1  0.28235817  0.64847057  0.28604642  1
  Bi2+  Bi77  1  0.25616661  0.64468467  0.79629823  1
  Bi2+  Bi78  1  0.22325245  0.88553494  0.30056520  1
  Bi2+  Bi79  1  0.19470078  0.85501748  0.78730049  1
  Bi2+  Bi80  1  0.54501909  0.11750138  0.28117380  1
  Bi2+  Bi81  1  0.48109391  0.12330682  0.79708609  1
  Bi2+  Bi82  1  0.48397888  0.41585783  0.28801363  1
  Bi2+  Bi83  1  0.49951323  0.46992994  0.82786637  1
  Bi2+  Bi84  1  0.46265639  0.60131038  0.32662148  1
  Bi2+  Bi85  1  0.44910127  0.60161645  0.74932526  1
  Bi2+  Bi86  1  0.50386632  0.84570746  0.29316558  1
  Bi2+  Bi87  1  0.39978872  0.86947650  0.78319199  1
  Bi2+  Bi88  1  0.78684467  0.08929458  0.26832744  1
  Bi2+  Bi89  1  0.77873849  0.11597896  0.80996895  1
  Bi2+  Bi90  1  0.74485110  0.31827957  0.29543081  1
  Bi2+  Bi91  1  0.66051772  0.36121664  0.82134691  1
  Bi2+  Bi92  1  0.73342533  0.69303908  0.29529359  1
  Bi2+  Bi93  1  0.73883493  0.56869397  0.77593287  1
  Bi2+  Bi94  1  0.75825287  0.89422395  0.29482154  1
  Bi2+  Bi95  1  0.76658558  0.81825771  0.80010414  1
  Bi2+  Bi96  1  0.14894069  0.03464652  0.19149297  1
  Bi2+  Bi97  1  0.11796606  -0.01007902  0.71060662  1
  Bi2+  Bi98  1  0.14765560  0.30530566  0.25681787  1
  Bi2+  Bi99  1  0.10805846  0.28999246  0.69561244  1
  Bi2+  Bi100  1  0.12963505  0.49269387  0.19508285  1
  Bi2+  Bi101  1  0.14404905  0.58171029  0.70348958  1
  Bi2+  Bi102  1  0.11967191  0.77845907  0.22935291  1
  Bi2+  Bi103  1  0.16039817  0.79765631  0.67445368  1
  Bi2+  Bi104  1  0.36790337  -0.00709469  0.21334386  1
  Bi2+  Bi105  1  0.36581376  0.01976032  0.70996941  1
  Bi2+  Bi106  1  0.39022702  0.30353195  0.20455508  1
  Bi2+  Bi107  1  0.42505097  0.31188497  0.77307734  1
  Bi2+  Bi108  1  0.40967929  0.56071681  0.20334936  1
  Bi2+  Bi109  1  0.35120739  0.43934629  0.69476811  1
  Bi2+  Bi110  1  0.39237924  0.76198085  0.21077257  1
  Bi2+  Bi111  1  0.35279692  0.75057425  0.69650942  1
  Bi2+  Bi112  1  0.62393224  -0.03228408  0.21623124  1
  Bi2+  Bi113  1  0.61285001  0.02809286  0.69809003  1
  Bi2+  Bi114  1  0.62879873  0.31458864  0.19636824  1
  Bi2+  Bi115  1  0.60418434  0.26203156  0.72609821  1
  Bi2+  Bi116  1  0.60225709  0.57382820  0.24645634  1
  Bi2+  Bi117  1  0.62332756  0.47590975  0.70852006  1
  Bi2+  Bi118  1  0.58474601  0.77661716  0.19163566  1
  Bi2+  Bi119  1  0.61100107  0.73318574  0.72593990  1
  Bi2+  Bi120  1  0.89621878  -0.00655274  0.18436053  1
  Bi2+  Bi121  1  0.87338962  0.04168621  0.69861591  1
  Bi2+  Bi122  1  0.91187176  0.19085062  0.20090303  1
  Bi2+  Bi123  1  0.79978138  0.28683689  0.74805109  1
  Bi2+  Bi124  1  0.84718012  0.50232236  0.21474468  1
  Bi2+  Bi125  1  0.87877499  0.49226078  0.71159557  1
  Bi2+  Bi126  1  0.81244373  0.78321324  0.20281240  1
  Bi2+  Bi127  1  0.97246081  0.76282311  0.70473474  1
  S2-  S128  1  0.06126567  0.17109226  0.15370815  1
  S2-  S129  1  -0.00930966  0.16306708  0.65768497  1
  S2-  S130  1  -0.02209889  0.42760240  0.15907911  1
  S2-  S131  1  -0.00008337  0.39848742  0.65423176  1
  S2-  S132  1  0.05500081  0.64773936  0.17696379  1
  S2-  S133  1  -0.07707535  0.62070863  0.64416813  1
  S2-  S134  1  0.03277131  0.94284238  0.13133162  1
  S2-  S135  1  -0.08157902  0.89926973  0.64513137  1
  S2-  S136  1  0.28786786  0.11028467  0.15353698  1
  S2-  S137  1  0.23449515  0.08534392  0.65931655  1
  S2-  S138  1  0.23498349  0.35481695  0.16038009  1
  S2-  S139  1  0.26810499  0.30606856  0.64919992  1
  S2-  S140  1  0.25925545  0.58887506  0.15787819  1
  S2-  S141  1  0.29025825  0.58146380  0.64196891  1
  S2-  S142  1  0.26156671  0.88940950  0.16096582  1
  S2-  S143  1  0.36744740  0.88919257  0.63601062  1
  S2-  S144  1  0.50678395  0.20499189  0.16247680  1
  S2-  S145  1  0.48355363  0.10858452  0.64794487  1
  S2-  S146  1  0.49008328  0.42143381  0.15071987  1
  S2-  S147  1  0.52785048  0.36730042  0.65048511  1
  S2-  S148  1  0.60749356  0.62287550  0.14504521  1
  S2-  S149  1  0.55274981  0.61849494  0.65741424  1
  S2-  S150  1  0.48200256  0.98013026  0.14560398  1
  S2-  S151  1  0.58610497  0.87967411  0.65674037  1
  S2-  S152  1  0.73932860  0.22772147  0.14844170  1
  S2-  S153  1  0.73962926  0.11509064  0.65038661  1
  S2-  S154  1  0.72995337  0.44567798  0.15840568  1
  S2-  S155  1  0.75541184  0.45350919  0.63843652  1
  S2-  S156  1  0.84700892  0.63056380  0.15143341  1
  S2-  S157  1  0.74306402  0.72507916  0.67133467  1
  S2-  S158  1  0.73323883  0.97909207  0.13743533  1
  S2-  S159  1  0.75628723  0.93393670  0.71654828  1
  S2-  S160  1  0.10194242  -0.03406983  0.34270526  1
  S2-  S161  1  0.24473215  -0.01578910  0.85436910  1
  S2-  S162  1  0.15804625  0.21970499  0.34755636  1
  S2-  S163  1  0.10876579  0.13604912  0.85351773  1
  S2-  S164  1  0.03077417  0.50317945  0.34827170  1
  S2-  S165  1  0.11160099  0.34885276  0.84994954  1
  S2-  S166  1  0.12517501  0.72608792  0.34203132  1
  S2-  S167  1  0.11325122  0.66682138  0.85958859  1
  S2-  S168  1  0.31053879  0.03360111  0.32094445  1
  S2-  S169  1  0.47954245  -0.02056762  0.85347031  1
  S2-  S170  1  0.45586942  0.20493992  0.33995095  1
  S2-  S171  1  0.34745511  0.21472521  0.84941475  1
  S2-  S172  1  0.35525506  0.39108259  0.35508056  1
  S2-  S173  1  0.27339161  0.49957659  0.85177299  1
  S2-  S174  1  0.36806309  0.83757503  0.35608906  1
  S2-  S175  1  0.37331633  0.73878279  0.85139325  1
  S2-  S176  1  0.53909221  -0.01090930  0.35279344  1
  S2-  S177  1  0.73605583  -0.03367421  0.85367198  1
  S2-  S178  1  0.67114236  0.17054083  0.33733324  1
  S2-  S179  1  0.61983262  0.14509032  0.85326408  1
  S2-  S180  1  0.62179381  0.38495259  0.35280236  1
  S2-  S181  1  0.74564601  0.50173854  0.86636756  1
  S2-  S182  1  0.60404038  0.74261925  0.35541040  1
  S2-  S183  1  0.63347181  0.73884978  0.84005590  1
  S2-  S184  1  0.88982846  0.03599573  0.34344147  1
  S2-  S185  1  0.92968454  0.02949215  0.83531366  1
  S2-  S186  1  0.89694580  0.26315756  0.33955962  1
  S2-  S187  1  0.86348628  0.26076208  0.84694794  1
  S2-  S188  1  0.81926492  0.46565192  0.31960244  1
  S2-  S189  1  0.96344648  0.50248596  0.85685203  1
  S2-  S190  1  0.88208304  0.66905439  0.35499944  1
  S2-  S191  1  0.87691928  0.72635283  0.84140035  1
  S2-  S192  1  0.00255606  0.12207498  0.45269974  1
  S2-  S193  1  -0.01093513  0.11642909  0.95876251  1
  S2-  S194  1  0.00403927  0.37445744  0.44886943  1
  S2-  S195  1  -0.00806638  0.37173371  0.95974097  1
  S2-  S196  1  0.00650504  0.62801403  0.45382415  1
  S2-  S197  1  -0.01046247  0.62114665  0.96742402  1
  S2-  S198  1  0.00085292  0.87203996  0.45208830  1
  S2-  S199  1  -0.00703875  0.86774824  0.94329012  1
  S2-  S200  1  0.25926116  0.12361888  0.45135013  1
  S2-  S201  1  0.24203417  0.12093470  0.95587662  1
  S2-  S202  1  0.24992681  0.37491598  0.45569869  1
  S2-  S203  1  0.24133159  0.37164415  0.95603345  1
  S2-  S204  1  0.25869012  0.62633181  0.44298390  1
  S2-  S205  1  0.23905446  0.61811078  0.95865702  1
  S2-  S206  1  0.25785415  0.87308351  0.45558755  1
  S2-  S207  1  0.23691029  0.86317455  0.95570157  1
  S2-  S208  1  0.50862603  0.12413005  0.44827354  1
  S2-  S209  1  0.48344732  0.12298255  0.95910034  1
  S2-  S210  1  0.50472489  0.37541519  0.45023605  1
  S2-  S211  1  0.48735880  0.36709148  0.95267204  1
  S2-  S212  1  0.50812974  0.62348967  0.45634867  1
  S2-  S213  1  0.49082131  0.61847564  0.95943694  1
  S2-  S214  1  0.50945132  0.86994024  0.45955828  1
  S2-  S215  1  0.48980794  0.86379710  0.95820830  1
  S2-  S216  1  0.75478425  0.12098934  0.44693573  1
  S2-  S217  1  0.74240410  0.11953729  0.95875302  1
  S2-  S218  1  0.75989497  0.37905433  0.44657474  1
  S2-  S219  1  0.74271798  0.36552842  0.96264622  1
  S2-  S220  1  0.75339616  0.62220637  0.44905960  1
  S2-  S221  1  0.73814370  0.62259805  0.96602975  1
  S2-  S222  1  0.75483893  0.87352479  0.44173725  1
  S2-  S223  1  0.73757424  0.86435715  0.95739625  1
  S2-  S224  1  0.11922663  -0.00772137  0.03106280  1
  S2-  S225  1  0.12979704  -0.00653574  0.54827424  1
  S2-  S226  1  0.11751434  0.24219724  0.04416925  1
  S2-  S227  1  0.12784599  0.24791908  0.54690032  1
  S2-  S228  1  0.11226262  0.49366504  0.05638133  1
  S2-  S229  1  0.12837215  0.49901501  0.54285205  1
  S2-  S230  1  0.11103298  0.74453790  0.05389946  1
  S2-  S231  1  0.13108781  0.74852538  0.54447826  1
  S2-  S232  1  0.35811146  -0.00848083  0.04105921  1
  S2-  S233  1  0.38091973  0.00047133  0.53500157  1
  S2-  S234  1  0.35871023  0.24211877  0.05050443  1
  S2-  S235  1  0.38402319  0.25055304  0.53892474  1
  S2-  S236  1  0.36367896  0.49347649  0.04505170  1
  S2-  S237  1  0.38325501  0.49802716  0.53868727  1
  S2-  S238  1  0.36297740  0.74279872  0.05693309  1
  S2-  S239  1  0.38041139  0.74559468  0.54289120  1
  S2-  S240  1  0.60974320  -0.00741905  0.03883865  1
  S2-  S241  1  0.63369887  -0.00734420  0.54285108  1
  S2-  S242  1  0.61018811  0.23900188  0.04446373  1
  S2-  S243  1  0.63356970  0.25070560  0.53826198  1
  S2-  S244  1  0.61280463  0.48653702  0.04456399  1
  S2-  S245  1  0.63105825  0.50223027  0.53867742  1
  S2-  S246  1  0.61325577  0.74620836  0.04644088  1
  S2-  S247  1  0.63329012  0.74674479  0.55513072  1
  S2-  S248  1  0.86469103  -0.01236729  0.03755942  1
  S2-  S249  1  0.87471888  -0.00404757  0.54213132  1
  S2-  S250  1  0.87324248  0.23569998  0.05224030  1
  S2-  S251  1  0.87556260  0.25107119  0.54532372  1
  S2-  S252  1  0.86409429  0.48628958  0.04915063  1
  S2-  S253  1  0.87962901  0.49939749  0.53646764  1
  S2-  S254  1  0.86349826  0.75017071  0.04959613  1
  S2-  S255  1  0.87105017  0.74905536  0.54713718  1
