# generated using pymatgen
data_La12Ce14Pr13Nd13Sm12(BiS2)64
_symmetry_space_group_name_H-M   'P 1'
_cell_length_a   16.20345153
_cell_length_b   16.18030148
_cell_length_c   27.27316668
_cell_angle_alpha   89.86505072
_cell_angle_beta   89.98095597
_cell_angle_gamma   89.95785213
_symmetry_Int_Tables_number   1
_chemical_formula_structural   La12Ce14Pr13Nd13Sm12(BiS2)64
_chemical_formula_sum   'La12 Ce14 Pr13 Nd13 Sm12 Bi64 S128'
_cell_volume   7150.36751650
_cell_formula_units_Z   1
loop_
 _symmetry_equiv_pos_site_id
 _symmetry_equiv_pos_as_xyz
  1  'x, y, z'
loop_
 _atom_type_symbol
 _atom_type_oxidation_number
  La3+  3.0
  Ce3+  3.0
  Pr3+  3.0
  Nd3+  3.0
  Sm3+  3.0
  Bi2+  2.0
  S2-  -2.0
loop_
 _atom_site_type_symbol
 _atom_site_label
 _atom_site_symmetry_multiplicity
 _atom_site_fract_x
 _atom_site_fract_y
 _atom_site_fract_z
 _atom_site_occupancy
  La3+  La0  1  0.62620041  0.75194249  0.43093081  1
  La3+  La1  1  0.13460641  -0.00271184  0.43963374  1
  La3+  La2  1  0.26158813  0.86866032  0.56626278  1
  La3+  La3  1  0.63511365  0.48955325  0.40551431  1
  La3+  La4  1  0.50830239  0.11946898  0.56684879  1
  La3+  La5  1  0.22944429  0.62288544  0.09327527  1
  La3+  La6  1  0.13546135  0.49894084  0.43668711  1
  La3+  La7  1  0.34813109  0.76012532  0.38115198  1
  La3+  La8  1  0.51141536  0.61994003  0.55565727  1
  La3+  La9  1  0.86252186  0.49987182  0.93176701  1
  La3+  La10  1  0.86427505  0.75617395  0.94131015  1
  La3+  La11  1  0.61995096  -0.00180029  0.89899636  1
  Ce3+  Ce12  1  0.73863998  0.87730311  0.06124592  1
  Ce3+  Ce13  1  0.11551542  0.24885937  0.94794617  1
  Ce3+  Ce14  1  0.75991204  0.12316429  0.55942149  1
  Ce3+  Ce15  1  0.61259501  0.75216652  0.94563262  1
  Ce3+  Ce16  1  0.73976327  0.12472363  0.06285266  1
  Ce3+  Ce17  1  0.12127166  0.00564979  0.93356207  1
  Ce3+  Ce18  1  0.11991014  0.75124336  0.94453694  1
  Ce3+  Ce19  1  0.00407433  0.87088688  0.55708919  1
  Ce3+  Ce20  1  0.24337851  0.12095625  0.06211150  1
  Ce3+  Ce21  1  0.38652702  -0.00892340  0.44767372  1
  Ce3+  Ce22  1  0.24093400  0.37937938  0.05429763  1
  Ce3+  Ce23  1  0.74152830  0.62650785  0.06002201  1
  Ce3+  Ce24  1  0.24290416  0.88106650  0.06569010  1
  Ce3+  Ce25  1  0.36836889  0.24783826  0.94231338  1
  Pr3+  Pr26  1  0.48994692  0.87879044  0.05819198  1
  Pr3+  Pr27  1  0.88303084  0.49179804  0.42677199  1
  Pr3+  Pr28  1  0.48914866  0.62031172  0.06747665  1
  Pr3+  Pr29  1  0.88501548  0.23758239  0.43233080  1
  Pr3+  Pr30  1  0.63219475  0.24630441  0.44024609  1
  Pr3+  Pr31  1  -0.00702126  0.12628754  0.06560966  1
  Pr3+  Pr32  1  0.26160013  0.37430355  0.56366199  1
  Pr3+  Pr33  1  0.75914118  0.37427358  0.55891487  1
  Pr3+  Pr34  1  0.35902627  0.50377640  0.92823668  1
  Pr3+  Pr35  1  0.38289365  0.25080577  0.43230294  1
  Pr3+  Pr36  1  0.01009582  0.12194206  0.56478507  1
  Pr3+  Pr37  1  0.61837655  0.24941674  0.93511911  1
  Pr3+  Pr38  1  0.87734267  0.74544364  0.42880669  1
  Nd3+  Nd39  1  0.11325508  0.50873464  0.92929804  1
  Nd3+  Nd40  1  0.36590221  0.74590193  0.93992141  1
  Nd3+  Nd41  1  0.74078564  0.37792278  0.06848667  1
  Nd3+  Nd42  1  0.00799819  0.37340659  0.55553975  1
  Nd3+  Nd43  1  0.26053778  0.62231314  0.55833752  1
  Nd3+  Nd44  1  -0.00580429  0.87712531  0.05598111  1
  Nd3+  Nd45  1  0.51790331  0.85770359  0.57503318  1
  Nd3+  Nd46  1  0.49010391  0.37728521  0.05193646  1
  Nd3+  Nd47  1  0.63164518  -0.00631579  0.44861570  1
  Nd3+  Nd48  1  0.38413488  0.50151955  0.42903759  1
  Nd3+  Nd49  1  0.76658721  0.87147420  0.57212240  1
  Nd3+  Nd50  1  0.86562436  0.00458716  0.94397372  1
  Nd3+  Nd51  1  0.76304145  0.61973992  0.55481746  1
  Sm3+  Sm52  1  0.25947190  0.12243601  0.55711023  1
  Sm3+  Sm53  1  0.50855376  0.37312752  0.55262164  1
  Sm3+  Sm54  1  0.13106843  0.74722631  0.44526046  1
  Sm3+  Sm55  1  -0.00960302  0.62407493  0.06014694  1
  Sm3+  Sm56  1  -0.00737835  0.37823723  0.05729542  1
  Sm3+  Sm57  1  0.86497090  0.24977669  0.95164969  1
  Sm3+  Sm58  1  0.00631950  0.62042574  0.55150512  1
  Sm3+  Sm59  1  0.61960149  0.50158679  0.93767330  1
  Sm3+  Sm60  1  0.36115770  -0.00895609  0.92196047  1
  Sm3+  Sm61  1  0.88205071  -0.00504165  0.43989464  1
  Sm3+  Sm62  1  0.13497453  0.24632096  0.44846791  1
  Sm3+  Sm63  1  0.49329567  0.12479590  0.05127226  1
  Bi2+  Bi64  1  0.04935866  0.08600398  0.30659479  1
  Bi2+  Bi65  1  0.02899278  0.10391534  0.81540524  1
  Bi2+  Bi66  1  -0.01170129  0.42196036  0.29731729  1
  Bi2+  Bi67  1  0.00641581  0.38800639  0.78742547  1
  Bi2+  Bi68  1  -0.04625829  0.62042350  0.30834860  1
  Bi2+  Bi69  1  -0.00790558  0.63975008  0.78847823  1
  Bi2+  Bi70  1  -0.04726224  0.82007280  0.30725547  1
  Bi2+  Bi71  1  0.01217977  0.91537163  0.78667302  1
  Bi2+  Bi72  1  0.26657526  0.14568848  0.29870522  1
  Bi2+  Bi73  1  0.25664404  0.12448826  0.76204699  1
  Bi2+  Bi74  1  0.22544277  0.35081502  0.29862773  1
  Bi2+  Bi75  1  0.34836803  0.38062498  0.80245260  1
  Bi2+  Bi76  1  0.22818029  0.62562964  0.28348581  1
  Bi2+  Bi77  1  0.24638036  0.62183737  0.79799872  1
  Bi2+  Bi78  1  0.20827308  0.96687247  0.25406706  1
  Bi2+  Bi79  1  0.22302873  0.87863606  0.79172192  1
  Bi2+  Bi80  1  0.54113316  0.10079388  0.29801502  1
  Bi2+  Bi81  1  0.49810890  0.14646888  0.78833021  1
  Bi2+  Bi82  1  0.48565242  0.28382338  0.29722087  1
  Bi2+  Bi83  1  0.56923210  0.35927156  0.80154353  1
  Bi2+  Bi84  1  0.48095421  0.63755458  0.27267639  1
  Bi2+  Bi85  1  0.48613479  0.54436734  0.79136471  1
  Bi2+  Bi86  1  0.50023358  0.88320325  0.29338375  1
  Bi2+  Bi87  1  0.48966677  0.85385587  0.79817937  1
  Bi2+  Bi88  1  0.72158407  0.13692279  0.26778466  1
  Bi2+  Bi89  1  0.77747387  0.11755599  0.79383555  1
  Bi2+  Bi90  1  0.75575631  0.35485902  0.28195809  1
  Bi2+  Bi91  1  0.76924525  0.38100397  0.79811398  1
  Bi2+  Bi92  1  0.74239506  0.62298305  0.28480902  1
  Bi2+  Bi93  1  0.73916184  0.57763718  0.75937631  1
  Bi2+  Bi94  1  0.75043016  0.87611030  0.29254986  1
  Bi2+  Bi95  1  0.77848355  0.83932948  0.78986924  1
  Bi2+  Bi96  1  0.09225210  0.05626124  0.17888783  1
  Bi2+  Bi97  1  0.10330770  0.04057632  0.71072313  1
  Bi2+  Bi98  1  0.15344668  0.23654400  0.20690051  1
  Bi2+  Bi99  1  0.17725744  0.30514382  0.75632254  1
  Bi2+  Bi100  1  0.08245176  0.48845763  0.20501292  1
  Bi2+  Bi101  1  0.11644540  0.48186531  0.71465449  1
  Bi2+  Bi102  1  0.08502867  0.79069630  0.21144211  1
  Bi2+  Bi103  1  0.10184097  0.76589494  0.72856942  1
  Bi2+  Bi104  1  0.37471299  0.05062256  0.21784042  1
  Bi2+  Bi105  1  0.36646183  0.01348561  0.69741143  1
  Bi2+  Bi106  1  0.35080924  0.24917830  0.20688540  1
  Bi2+  Bi107  1  0.43255665  0.27699038  0.71450621  1
  Bi2+  Bi108  1  0.34234768  0.44776417  0.21183409  1
  Bi2+  Bi109  1  0.35807314  0.50272495  0.70590716  1
  Bi2+  Bi110  1  0.38829366  0.76706232  0.17928203  1
  Bi2+  Bi111  1  0.37975245  0.74906644  0.69814223  1
  Bi2+  Bi112  1  0.62588448  0.00411676  0.19069054  1
  Bi2+  Bi113  1  0.64109289  -0.01761924  0.70033219  1
  Bi2+  Bi114  1  0.58999124  0.23917946  0.20182715  1
  Bi2+  Bi115  1  0.68178916  0.25011004  0.72580119  1
  Bi2+  Bi116  1  0.60615869  0.48943862  0.19915325  1
  Bi2+  Bi117  1  0.62482256  0.46000089  0.69623545  1
  Bi2+  Bi118  1  0.70092490  0.75580142  0.20417552  1
  Bi2+  Bi119  1  0.58188151  0.69797547  0.74577239  1
  Bi2+  Bi120  1  0.89039878  -0.00395114  0.26701636  1
  Bi2+  Bi121  1  0.88999792  0.00992852  0.70371520  1
  Bi2+  Bi122  1  0.96422702  0.26145669  0.22605973  1
  Bi2+  Bi123  1  0.91815059  0.22768457  0.75055433  1
  Bi2+  Bi124  1  0.88444536  0.52326678  0.21293846  1
  Bi2+  Bi125  1  0.87092032  0.48644450  0.68338062  1
  Bi2+  Bi126  1  0.89912239  0.72451573  0.20767076  1
  Bi2+  Bi127  1  0.90466590  0.74333064  0.70958075  1
  S2-  S128  1  -0.06045487  0.13483518  0.16229222  1
  S2-  S129  1  -0.01593091  0.14434388  0.66293029  1
  S2-  S130  1  -0.04453006  0.39115262  0.15290015  1
  S2-  S131  1  -0.00461651  0.39382576  0.65393154  1
  S2-  S132  1  0.07542827  0.62165477  0.14640912  1
  S2-  S133  1  -0.04052712  0.62103686  0.64574216  1
  S2-  S134  1  0.01090681  0.90097230  0.15448589  1
  S2-  S135  1  -0.09409102  0.87406737  0.63727600  1
  S2-  S136  1  0.25993839  0.00879571  0.13718094  1
  S2-  S137  1  0.24863125  0.12745204  0.65404709  1
  S2-  S138  1  0.21529028  0.44281217  0.14316811  1
  S2-  S139  1  0.23673763  0.39488640  0.66224231  1
  S2-  S140  1  0.30858710  0.60404650  0.18787264  1
  S2-  S141  1  0.27764277  0.63474103  0.65846595  1
  S2-  S142  1  0.22440077  0.78390670  0.14691560  1
  S2-  S143  1  0.27419908  0.87839430  0.66684696  1
  S2-  S144  1  0.49639515  0.11701753  0.15033132  1
  S2-  S145  1  0.49604038  0.14580026  0.66641145  1
  S2-  S146  1  0.48413403  0.42489035  0.14737665  1
  S2-  S147  1  0.48431682  0.41075803  0.64803385  1
  S2-  S148  1  0.51362804  0.64264476  0.16731984  1
  S2-  S149  1  0.50954550  0.70471826  0.64660003  1
  S2-  S150  1  0.50042003  0.88597649  0.15989690  1
  S2-  S151  1  0.49115830  0.92556094  0.66636905  1
  S2-  S152  1  0.72070023  0.14200755  0.15975610  1
  S2-  S153  1  0.75685485  0.09004886  0.65549069  1
  S2-  S154  1  0.71146946  0.37109975  0.16821519  1
  S2-  S155  1  0.76202163  0.34804271  0.65909097  1
  S2-  S156  1  0.72255679  0.59704558  0.15503911  1
  S2-  S157  1  0.72882167  0.58722891  0.65187636  1
  S2-  S158  1  0.75019014  0.90777634  0.15783977  1
  S2-  S159  1  0.69346665  0.84795584  0.66315881  1
  S2-  S160  1  0.13203536  -0.04889074  0.34323443  1
  S2-  S161  1  0.22884744  0.01025311  0.85572659  1
  S2-  S162  1  0.12617968  0.23177970  0.35151822  1
  S2-  S163  1  0.11450368  0.24131768  0.85074293  1
  S2-  S164  1  0.16238956  0.49659271  0.33709650  1
  S2-  S165  1  0.22641736  0.49177740  0.85333511  1
  S2-  S166  1  0.18122949  0.72984386  0.35148081  1
  S2-  S167  1  0.12264099  0.69144239  0.85330644  1
  S2-  S168  1  0.38307163  -0.06545877  0.35675744  1
  S2-  S169  1  0.46785559  0.00767279  0.84350199  1
  S2-  S170  1  0.37232876  0.36999454  0.35788483  1
  S2-  S171  1  0.36955103  0.22016759  0.84639104  1
  S2-  S172  1  0.36276357  0.59460597  0.34315787  1
  S2-  S173  1  0.38022046  0.63362874  0.85828633  1
  S2-  S174  1  0.35547107  0.78676743  0.27276756  1
  S2-  S175  1  0.34565067  0.83997030  0.85375429  1
  S2-  S176  1  0.63190932  -0.07511424  0.35799908  1
  S2-  S177  1  0.63571522  -0.06320873  0.79774513  1
  S2-  S178  1  0.63512083  0.32829694  0.35133268  1
  S2-  S179  1  0.63175611  0.15301843  0.85140971  1
  S2-  S180  1  0.57506421  0.52270356  0.30554418  1
  S2-  S181  1  0.73198238  0.51093846  0.86082486  1
  S2-  S182  1  0.51961689  0.74742990  0.34774147  1
  S2-  S183  1  0.60549944  0.74757477  0.84805751  1
  S2-  S184  1  0.89480532  0.08852497  0.35865872  1
  S2-  S185  1  0.80436249  -0.02093014  0.85265893  1
  S2-  S186  1  0.87642393  0.30376169  0.33861573  1
  S2-  S187  1  0.84426067  0.24984779  0.85478048  1
  S2-  S188  1  0.77758851  0.48874775  0.34574164  1
  S2-  S189  1  0.98153132  0.50643198  0.85714156  1
  S2-  S190  1  0.75119804  0.73773202  0.35733156  1
  S2-  S191  1  0.85968635  0.73217709  0.84157100  1
  S2-  S192  1  0.01243709  0.12185956  0.45877941  1
  S2-  S193  1  -0.01066735  0.12689237  0.95761847  1
  S2-  S194  1  0.01050797  0.36864588  0.44916594  1
  S2-  S195  1  -0.01074298  0.37159423  0.95362646  1
  S2-  S196  1  0.00717621  0.62314207  0.44663635  1
  S2-  S197  1  -0.01223972  0.63071170  0.95697770  1
  S2-  S198  1  0.00553741  0.87103574  0.45101836  1
  S2-  S199  1  -0.00718535  0.88024983  0.94803800  1
  S2-  S200  1  0.26126770  0.12346322  0.45197214  1
  S2-  S201  1  0.24329459  0.12795015  0.95674359  1
  S2-  S202  1  0.25496260  0.37070771  0.45722930  1
  S2-  S203  1  0.24032921  0.37131311  0.95126312  1
  S2-  S204  1  0.25799912  0.62620305  0.45366182  1
  S2-  S205  1  0.23949914  0.62655852  0.95943746  1
  S2-  S206  1  0.25597984  0.86729325  0.45707333  1
  S2-  S207  1  0.23961343  0.87572342  0.95906695  1
  S2-  S208  1  0.50668003  0.12205730  0.45537940  1
  S2-  S209  1  0.49393074  0.12324961  0.94925609  1
  S2-  S210  1  0.50909528  0.37385167  0.45120973  1
  S2-  S211  1  0.49261341  0.38015636  0.94505514  1
  S2-  S212  1  0.51922060  0.60825550  0.44867579  1
  S2-  S213  1  0.49674966  0.62035797  0.95870793  1
  S2-  S214  1  0.50895051  0.87470419  0.46743227  1
  S2-  S215  1  0.49297730  0.87754002  0.95095050  1
  S2-  S216  1  0.75534783  0.11933518  0.45226956  1
  S2-  S217  1  0.74208507  0.12527903  0.95726107  1
  S2-  S218  1  0.76107615  0.36672544  0.45333429  1
  S2-  S219  1  0.74002320  0.37277413  0.96016469  1
  S2-  S220  1  0.75728908  0.61341223  0.45060009  1
  S2-  S221  1  0.73912022  0.63007451  0.95618538  1
  S2-  S222  1  0.76233896  0.87586369  0.46104222  1
  S2-  S223  1  0.73557003  0.87945894  0.95457682  1
  S2-  S224  1  0.11534113  0.00278500  0.04025438  1
  S2-  S225  1  0.13476850  -0.00295425  0.54982784  1
  S2-  S226  1  0.11684217  0.25265924  0.05484370  1
  S2-  S227  1  0.13558046  0.24815950  0.55334689  1
  S2-  S228  1  0.11067043  0.50113021  0.03810926  1
  S2-  S229  1  0.13246005  0.49890431  0.54627040  1
  S2-  S230  1  0.11230905  0.74998185  0.04704063  1
  S2-  S231  1  0.12967379  0.74409273  0.55186460  1
  S2-  S232  1  0.37098334  0.00417014  0.03436277  1
  S2-  S233  1  0.38218514  -0.00203472  0.55326325  1
  S2-  S234  1  0.36818263  0.24991962  0.04979277  1
  S2-  S235  1  0.38337826  0.24743609  0.54515022  1
  S2-  S236  1  0.36394644  0.50222253  0.04209615  1
  S2-  S237  1  0.38271335  0.49680206  0.54038082  1
  S2-  S238  1  0.36754820  0.74788531  0.04838974  1
  S2-  S239  1  0.38272807  0.74573055  0.55128930  1
  S2-  S240  1  0.61552229  0.00279040  0.05001579  1
  S2-  S241  1  0.63594364  -0.00495612  0.55447989  1
  S2-  S242  1  0.61502226  0.25292738  0.04469301  1
  S2-  S243  1  0.63155477  0.24857777  0.54903341  1
  S2-  S244  1  0.61803545  0.49951783  0.04279040  1
  S2-  S245  1  0.63327098  0.49261273  0.54558714  1
  S2-  S246  1  0.61459612  0.75017507  0.05243410  1
  S2-  S247  1  0.64309556  0.74472363  0.54279769  1
  S2-  S248  1  0.86769399  0.00068013  0.04997011  1
  S2-  S249  1  0.88509044  0.00242213  0.54264446  1
  S2-  S250  1  0.86608563  0.25454082  0.05526023  1
  S2-  S251  1  0.88563531  0.24723287  0.54488456  1
  S2-  S252  1  0.86649816  0.50015792  0.04533320  1
  S2-  S253  1  0.88650095  0.49554474  0.53629438  1
  S2-  S254  1  0.86795587  0.75157504  0.05063495  1
  S2-  S255  1  0.88514798  0.74308719  0.53715981  1
