# generated using pymatgen
data_La12Ce14Pr13Nd13Sm12(BiS2)64
_symmetry_space_group_name_H-M   'P 1'
_cell_length_a   16.17064713
_cell_length_b   16.19545140
_cell_length_c   27.31098733
_cell_angle_alpha   90.05837631
_cell_angle_beta   89.98784463
_cell_angle_gamma   90.00880133
_symmetry_Int_Tables_number   1
_chemical_formula_structural   La12Ce14Pr13Nd13Sm12(BiS2)64
_chemical_formula_sum   'La12 Ce14 Pr13 Nd13 Sm12 Bi64 S128'
_cell_volume   7152.49590400
_cell_formula_units_Z   1
loop_
 _symmetry_equiv_pos_site_id
 _symmetry_equiv_pos_as_xyz
  1  'x, y, z'
loop_
 _atom_type_symbol
 _atom_type_oxidation_number
  La3+  3.0
  Ce3+  3.0
  Pr3+  3.0
  Nd3+  3.0
  Sm3+  3.0
  Bi2+  2.0
  S2-  -2.0
loop_
 _atom_site_type_symbol
 _atom_site_label
 _atom_site_symmetry_multiplicity
 _atom_site_fract_x
 _atom_site_fract_y
 _atom_site_fract_z
 _atom_site_occupancy
  La3+  La0  1  0.76103512  0.86873132  0.57282607  1
  La3+  La1  1  0.23346843  0.87580347  0.10816756  1
  La3+  La2  1  0.76677647  0.35455954  0.09118631  1
  La3+  La3  1  0.49968006  0.36213007  0.07688797  1
  La3+  La4  1  0.13832935  0.23463807  0.42609979  1
  La3+  La5  1  0.51035243  0.36938921  0.56316113  1
  La3+  La6  1  0.39292341  -0.00731117  0.40487284  1
  La3+  La7  1  0.12406840  -0.00357388  0.91465771  1
  La3+  La8  1  0.12472027  0.73470042  0.93087692  1
  La3+  La9  1  0.50782393  0.87013717  0.55958056  1
  La3+  La10  1  0.02035241  0.12843906  0.58275532  1
  La3+  La11  1  0.12086899  -0.01444292  0.42817301  1
  Ce3+  Ce12  1  0.13371338  0.49382922  0.44077536  1
  Ce3+  Ce13  1  0.00786895  0.61999234  0.55937148  1
  Ce3+  Ce14  1  0.87056258  -0.01138002  0.93570929  1
  Ce3+  Ce15  1  0.38684858  0.49392682  0.43890405  1
  Ce3+  Ce16  1  0.76135373  0.61564422  0.54872638  1
  Ce3+  Ce17  1  0.37320893  0.74310147  0.95114756  1
  Ce3+  Ce18  1  0.76242856  0.11989238  0.55852277  1
  Ce3+  Ce19  1  0.74970058  0.86353568  0.06859255  1
  Ce3+  Ce20  1  0.37856535  0.24048435  0.94365153  1
  Ce3+  Ce21  1  0.24862941  0.61817167  0.06663870  1
  Ce3+  Ce22  1  0.00184030  0.36280849  0.05424520  1
  Ce3+  Ce23  1  0.62512699  0.48672000  0.95234348  1
  Ce3+  Ce24  1  0.24680507  0.36230024  0.06545175  1
  Ce3+  Ce25  1  0.88828695  -0.00569825  0.45711943  1
  Pr3+  Pr26  1  0.51368580  0.62077927  0.55436263  1
  Pr3+  Pr27  1  0.37695255  0.48817741  0.94556243  1
  Pr3+  Pr28  1  0.38509254  0.74402355  0.42733145  1
  Pr3+  Pr29  1  0.02258650  0.86559829  0.58188232  1
  Pr3+  Pr30  1  0.12721640  0.48955667  0.94009846  1
  Pr3+  Pr31  1  0.25689612  0.87088869  0.55302740  1
  Pr3+  Pr32  1  0.37455059  -0.01212594  0.94252982  1
  Pr3+  Pr33  1  0.50909931  0.11734880  0.56129629  1
  Pr3+  Pr34  1  0.88621770  0.24177875  0.43321188  1
  Pr3+  Pr35  1  0.89121682  0.48759545  0.41505652  1
  Pr3+  Pr36  1  0.63774076  0.74730995  0.43455735  1
  Pr3+  Pr37  1  0.25956857  0.61983979  0.55662815  1
  Pr3+  Pr38  1  0.87229815  0.74206872  0.93850629  1
  Nd3+  Nd39  1  0.76218812  0.37008646  0.55117249  1
  Nd3+  Nd40  1  0.39007798  0.24310138  0.43628144  1
  Nd3+  Nd41  1  0.87251494  0.24157880  0.93571306  1
  Nd3+  Nd42  1  0.00758458  0.37279541  0.55570933  1
  Nd3+  Nd43  1  0.49522669  0.86616783  0.07196957  1
  Nd3+  Nd44  1  0.00084212  0.61769258  0.05995672  1
  Nd3+  Nd45  1  0.62413842  -0.01069337  0.94960272  1
  Nd3+  Nd46  1  0.12776910  0.24461754  0.93182268  1
  Nd3+  Nd47  1  0.25933479  0.36830728  0.55048782  1
  Nd3+  Nd48  1  0.86928048  0.48848264  0.94350565  1
  Nd3+  Nd49  1  0.62214819  0.74327051  0.94223041  1
  Nd3+  Nd50  1  0.50034380  0.61431899  0.06474178  1
  Nd3+  Nd51  1  0.88563831  0.74440224  0.44623036  1
  Sm3+  Sm52  1  0.75286469  0.11541431  0.05848740  1
  Sm3+  Sm53  1  -0.00308608  0.86727823  0.05242088  1
  Sm3+  Sm54  1  0.24746943  0.11746174  0.05689641  1
  Sm3+  Sm55  1  0.63342372  0.24117174  0.44460869  1
  Sm3+  Sm56  1  0.49881113  0.11309175  0.06071592  1
  Sm3+  Sm57  1  0.63678493  -0.00653651  0.43942574  1
  Sm3+  Sm58  1  0.13462684  0.74262718  0.43632768  1
  Sm3+  Sm59  1  0.25706183  0.11870018  0.54970942  1
  Sm3+  Sm60  1  0.63334056  0.49099938  0.43198357  1
  Sm3+  Sm61  1  0.00339357  0.11099643  0.04861871  1
  Sm3+  Sm62  1  0.62499747  0.24159117  0.95248820  1
  Sm3+  Sm63  1  0.75097633  0.61409959  0.05961472  1
  Bi2+  Bi64  1  -0.05167137  0.14599784  0.30411776  1
  Bi2+  Bi65  1  -0.02426099  0.17073236  0.78494255  1
  Bi2+  Bi66  1  -0.00760943  0.39575540  0.28835253  1
  Bi2+  Bi67  1  0.03675868  0.35855760  0.78974737  1
  Bi2+  Bi68  1  -0.00319122  0.64323898  0.31599832  1
  Bi2+  Bi69  1  -0.00006619  0.57013697  0.78469250  1
  Bi2+  Bi70  1  -0.04141692  0.88984316  0.29187132  1
  Bi2+  Bi71  1  -0.01292554  0.86048328  0.79191065  1
  Bi2+  Bi72  1  0.22797167  0.17047057  0.28795321  1
  Bi2+  Bi73  1  0.25188201  0.19188888  0.78767739  1
  Bi2+  Bi74  1  0.24714960  0.39618882  0.26127746  1
  Bi2+  Bi75  1  0.21352417  0.41000730  0.82285692  1
  Bi2+  Bi76  1  0.26806033  0.66258593  0.32278363  1
  Bi2+  Bi77  1  0.25159106  0.60248937  0.79378246  1
  Bi2+  Bi78  1  0.23668554  0.88953161  0.31170014  1
  Bi2+  Bi79  1  0.25120396  0.88632580  0.80542989  1
  Bi2+  Bi80  1  0.48913693  0.15233698  0.30046020  1
  Bi2+  Bi81  1  0.52153983  0.15682659  0.78363438  1
  Bi2+  Bi82  1  0.54194362  0.39358592  0.28681013  1
  Bi2+  Bi83  1  0.51237657  0.38066865  0.82423756  1
  Bi2+  Bi84  1  0.44676366  0.60470291  0.29534889  1
  Bi2+  Bi85  1  0.46803351  0.58933475  0.75504995  1
  Bi2+  Bi86  1  0.53848001  0.87539922  0.28379404  1
  Bi2+  Bi87  1  0.51634783  0.86918532  0.81407962  1
  Bi2+  Bi88  1  0.75811358  0.11840223  0.30094648  1
  Bi2+  Bi89  1  0.71169536  0.10963006  0.75962400  1
  Bi2+  Bi90  1  0.74902963  0.36576438  0.27171034  1
  Bi2+  Bi91  1  0.77256748  0.38827141  0.80677501  1
  Bi2+  Bi92  1  0.72024766  0.75544427  0.26118396  1
  Bi2+  Bi93  1  0.75801632  0.56796211  0.73144528  1
  Bi2+  Bi94  1  0.75082817  0.92674121  0.31661630  1
  Bi2+  Bi95  1  0.75034936  0.85752622  0.81035436  1
  Bi2+  Bi96  1  0.10068351  0.01428435  0.21022365  1
  Bi2+  Bi97  1  0.11017697  0.00507416  0.70356662  1
  Bi2+  Bi98  1  0.10832823  0.32063928  0.18322098  1
  Bi2+  Bi99  1  0.13932404  0.25715371  0.70157205  1
  Bi2+  Bi100  1  0.13801407  0.50959843  0.19083220  1
  Bi2+  Bi101  1  0.12988793  0.50815182  0.70592212  1
  Bi2+  Bi102  1  0.13346641  0.68756571  0.24197244  1
  Bi2+  Bi103  1  0.15718378  0.73954541  0.70645651  1
  Bi2+  Bi104  1  0.37102948  0.01545270  0.20403440  1
  Bi2+  Bi105  1  0.36585373  0.04991004  0.74549274  1
  Bi2+  Bi106  1  0.37613969  0.29124162  0.19903449  1
  Bi2+  Bi107  1  0.38437724  0.25403784  0.71024774  1
  Bi2+  Bi108  1  0.33522492  0.51424293  0.18969206  1
  Bi2+  Bi109  1  0.32279599  0.45203699  0.72899523  1
  Bi2+  Bi110  1  0.35680600  0.70928650  0.21703170  1
  Bi2+  Bi111  1  0.35908197  0.75754352  0.75344935  1
  Bi2+  Bi112  1  0.58529895  0.03701685  0.20418795  1
  Bi2+  Bi113  1  0.59635616  -0.01106291  0.69695312  1
  Bi2+  Bi114  1  0.65726910  0.21730724  0.22088359  1
  Bi2+  Bi115  1  0.65733876  0.28875210  0.72725561  1
  Bi2+  Bi116  1  0.60916010  0.60566733  0.22717912  1
  Bi2+  Bi117  1  0.60011445  0.47221287  0.70431958  1
  Bi2+  Bi118  1  0.62024642  0.85289978  0.18075991  1
  Bi2+  Bi119  1  0.59589414  0.74250106  0.69210820  1
  Bi2+  Bi120  1  0.84201101  -0.00423082  0.22142068  1
  Bi2+  Bi121  1  0.84262007  -0.00984410  0.70711736  1
  Bi2+  Bi122  1  0.91892712  0.22539083  0.20338433  1
  Bi2+  Bi123  1  0.88454213  0.34191515  0.71137514  1
  Bi2+  Bi124  1  0.84408492  0.55355527  0.21266416  1
  Bi2+  Bi125  1  0.94142569  0.50956043  0.66478372  1
  Bi2+  Bi126  1  0.96938599  0.77978076  0.19826907  1
  Bi2+  Bi127  1  0.90446198  0.68642984  0.71298448  1
  S2-  S128  1  0.00909014  0.11967438  0.14683230  1
  S2-  S129  1  -0.02984871  0.09863171  0.68530443  1
  S2-  S130  1  -0.06828720  0.36215431  0.14338568  1
  S2-  S131  1  0.00959920  0.28281878  0.63981252  1
  S2-  S132  1  -0.03729233  0.61218009  0.15730174  1
  S2-  S133  1  0.02873852  0.71505815  0.64212071  1
  S2-  S134  1  0.06363994  0.88769702  0.14158608  1
  S2-  S135  1  -0.02869894  0.90246231  0.68104213  1
  S2-  S136  1  0.23104687  0.04245746  0.14499920  1
  S2-  S137  1  0.17919143  0.11852909  0.63885649  1
  S2-  S138  1  0.24105385  0.24484869  0.13671770  1
  S2-  S139  1  0.26443024  0.34727432  0.64852969  1
  S2-  S140  1  0.22564900  0.71129814  0.14791605  1
  S2-  S141  1  0.24284901  0.63181309  0.65647347  1
  S2-  S142  1  0.21250724  0.89432640  0.21908876  1
  S2-  S143  1  0.18230400  0.88063410  0.64477077  1
  S2-  S144  1  0.45905902  0.14297976  0.15489853  1
  S2-  S145  1  0.49140507  0.09479704  0.66013779  1
  S2-  S146  1  0.50494498  0.38621651  0.17745107  1
  S2-  S147  1  0.50014756  0.34798148  0.66194881  1
  S2-  S148  1  0.50279136  0.65306174  0.16208688  1
  S2-  S149  1  0.48621213  0.64023954  0.65282266  1
  S2-  S150  1  0.39542271  0.87899400  0.15367164  1
  S2-  S151  1  0.49349448  0.86276099  0.65967752  1
  S2-  S152  1  0.77035560  0.19824511  0.14408760  1
  S2-  S153  1  0.73854466  0.10481667  0.65408732  1
  S2-  S154  1  0.73429816  0.42967075  0.18136868  1
  S2-  S155  1  0.74266160  0.36805491  0.65004042  1
  S2-  S156  1  0.74473449  0.64293875  0.15684446  1
  S2-  S157  1  0.71397457  0.64199172  0.64130745  1
  S2-  S158  1  0.85235062  0.86999946  0.14605247  1
  S2-  S159  1  0.72316890  0.86602416  0.67179980  1
  S2-  S160  1  0.16089115  0.05422506  0.33731630  1
  S2-  S161  1  0.11282227  -0.02304717  0.80770532  1
  S2-  S162  1  0.07954330  0.25679313  0.33177182  1
  S2-  S163  1  0.11538348  0.15361636  0.84915725  1
  S2-  S164  1  0.06898851  0.48965768  0.35028634  1
  S2-  S165  1  0.12159558  0.59567517  0.86023394  1
  S2-  S166  1  0.10256127  0.84092261  0.35868014  1
  S2-  S167  1  0.11466011  0.79278965  0.83375029  1
  S2-  S168  1  0.35143990  0.04659219  0.30579505  1
  S2-  S169  1  0.38606168  -0.00863726  0.84161322  1
  S2-  S170  1  0.35548635  0.24218842  0.33881269  1
  S2-  S171  1  0.37616201  0.27348288  0.84924299  1
  S2-  S172  1  0.42752210  0.45438151  0.34692452  1
  S2-  S173  1  0.42901797  0.51124671  0.84986427  1
  S2-  S174  1  0.39726889  0.84620413  0.34564636  1
  S2-  S175  1  0.40614913  0.75681250  0.85604774  1
  S2-  S176  1  0.55075059  0.01159887  0.35411778  1
  S2-  S177  1  0.63040576  -0.02907015  0.85095726  1
  S2-  S178  1  0.58430864  0.25730720  0.35136729  1
  S2-  S179  1  0.60904943  0.23808109  0.85523768  1
  S2-  S180  1  0.65542834  0.48228188  0.33396773  1
  S2-  S181  1  0.64395705  0.47441867  0.85479462  1
  S2-  S182  1  0.60347708  0.73781798  0.33640913  1
  S2-  S183  1  0.63516746  0.74990547  0.84209189  1
  S2-  S184  1  0.95697888  0.00750333  0.36831488  1
  S2-  S185  1  0.87686737  -0.02474997  0.83739544  1
  S2-  S186  1  0.86970643  0.34721645  0.35135693  1
  S2-  S187  1  0.85348729  0.23051319  0.83671970  1
  S2-  S188  1  0.86486421  0.54979505  0.31862956  1
  S2-  S189  1  0.87338296  0.50592471  0.84479055  1
  S2-  S190  1  0.88408177  0.75798415  0.34734512  1
  S2-  S191  1  0.86891728  0.75553646  0.83769779  1
  S2-  S192  1  0.00990690  0.12418092  0.46163109  1
  S2-  S193  1  -0.00502247  0.11511181  0.94494938  1
  S2-  S194  1  0.01274296  0.36550125  0.45088502  1
  S2-  S195  1  -0.00124667  0.36595287  0.94633377  1
  S2-  S196  1  0.01046120  0.62071851  0.45229304  1
  S2-  S197  1  -0.00718245  0.61297168  0.95454928  1
  S2-  S198  1  0.00595581  0.86272040  0.46938602  1
  S2-  S199  1  -0.00098568  0.86804178  0.94623838  1
  S2-  S200  1  0.26810387  0.11279083  0.44646686  1
  S2-  S201  1  0.25131411  0.11668499  0.94889682  1
  S2-  S202  1  0.26110720  0.36805961  0.44370090  1
  S2-  S203  1  0.25136532  0.36416048  0.95844195  1
  S2-  S204  1  0.25926945  0.61875077  0.45013692  1
  S2-  S205  1  0.25466148  0.61342538  0.95918087  1
  S2-  S206  1  0.26164763  0.86944064  0.44760764  1
  S2-  S207  1  0.24732222  0.86729947  0.94004954  1
  S2-  S208  1  0.50973714  0.11785065  0.45576919  1
  S2-  S209  1  0.50229642  0.11497291  0.95533334  1
  S2-  S210  1  0.51253747  0.36839614  0.45575066  1
  S2-  S211  1  0.50209429  0.36400832  0.96693754  1
  S2-  S212  1  0.51264569  0.61860858  0.44688934  1
  S2-  S213  1  0.50153420  0.61603351  0.95926836  1
  S2-  S214  1  0.51175137  0.87129340  0.45231734  1
  S2-  S215  1  0.50065959  0.86610302  0.96464217  1
  S2-  S216  1  0.75813756  0.11853252  0.45083762  1
  S2-  S217  1  0.74741359  0.11677597  0.95322450  1
  S2-  S218  1  0.75273797  0.36692121  0.44700832  1
  S2-  S219  1  0.74948243  0.36141412  0.96235898  1
  S2-  S220  1  0.75827291  0.61501602  0.44167575  1
  S2-  S221  1  0.74746801  0.61676629  0.95399718  1
  S2-  S222  1  0.76059408  0.87122566  0.46059067  1
  S2-  S223  1  0.74805329  0.86521522  0.95991361  1
  S2-  S224  1  0.12435817  -0.00925036  0.03290372  1
  S2-  S225  1  0.13346811  -0.00292814  0.53888831  1
  S2-  S226  1  0.12141630  0.23743206  0.03642176  1
  S2-  S227  1  0.13858666  0.24714645  0.53513681  1
  S2-  S228  1  0.12421556  0.49051077  0.04734334  1
  S2-  S229  1  0.13506756  0.49395213  0.54683631  1
  S2-  S230  1  0.11972893  0.74334605  0.04028552  1
  S2-  S231  1  0.13710415  0.74162992  0.53907334  1
  S2-  S232  1  0.37408844  -0.00540787  0.04757741  1
  S2-  S233  1  0.37955684  -0.00348164  0.55276305  1
  S2-  S234  1  0.37766773  0.23791474  0.04670461  1
  S2-  S235  1  0.38286098  0.24204338  0.54436862  1
  S2-  S236  1  0.37501781  0.48863560  0.05363510  1
  S2-  S237  1  0.38535141  0.49483427  0.54751211  1
  S2-  S238  1  0.37608014  0.73896209  0.05424090  1
  S2-  S239  1  0.38341103  0.74404183  0.53920171  1
  S2-  S240  1  0.62614309  -0.00650601  0.05555142  1
  S2-  S241  1  0.63638714  -0.00564298  0.54556151  1
  S2-  S242  1  0.62478396  0.23703149  0.05670628  1
  S2-  S243  1  0.63582844  0.24344994  0.54950652  1
  S2-  S244  1  0.62863612  0.48886030  0.06018613  1
  S2-  S245  1  0.63499482  0.49257532  0.53989491  1
  S2-  S246  1  0.62518243  0.73833284  0.04966273  1
  S2-  S247  1  0.63621161  0.74691839  0.54132553  1
  S2-  S248  1  0.87404954  -0.00652654  0.04319486  1
  S2-  S249  1  0.88987726  -0.00473445  0.56131025  1
  S2-  S250  1  0.87944189  0.23500334  0.04045557  1
  S2-  S251  1  0.88306077  0.24455796  0.54172394  1
  S2-  S252  1  0.87328027  0.49175364  0.04920164  1
  S2-  S253  1  0.88429400  0.49274951  0.53103261  1
  S2-  S254  1  0.87442911  0.73883101  0.04518678  1
  S2-  S255  1  0.88178219  0.74339682  0.55251027  1
