# generated using pymatgen
data_La12Ce14Pr13Nd13Sm12(BiS2)64
_symmetry_space_group_name_H-M   'P 1'
_cell_length_a   16.05652435
_cell_length_b   16.10284748
_cell_length_c   27.15787156
_cell_angle_alpha   89.73525910
_cell_angle_beta   90.22242462
_cell_angle_gamma   89.86652568
_symmetry_Int_Tables_number   1
_chemical_formula_structural   La12Ce14Pr13Nd13Sm12(BiS2)64
_chemical_formula_sum   'La12 Ce14 Pr13 Nd13 Sm12 Bi64 S128'
_cell_volume   7021.67697753
_cell_formula_units_Z   1
loop_
 _symmetry_equiv_pos_site_id
 _symmetry_equiv_pos_as_xyz
  1  'x, y, z'
loop_
 _atom_type_symbol
 _atom_type_oxidation_number
  La3+  3.0
  Ce3+  3.0
  Pr3+  3.0
  Nd3+  3.0
  Sm3+  3.0
  Bi2+  2.0
  S2-  -2.0
loop_
 _atom_site_type_symbol
 _atom_site_label
 _atom_site_symmetry_multiplicity
 _atom_site_fract_x
 _atom_site_fract_y
 _atom_site_fract_z
 _atom_site_occupancy
  La3+  La0  1  0.88564615  0.01506972  0.91881919  1
  La3+  La1  1  0.35272534  -0.00678300  0.42729189  1
  La3+  La2  1  0.76546865  0.12397737  0.08217657  1
  La3+  La3  1  0.60279639  0.49239796  0.41455169  1
  La3+  La4  1  0.84634135  0.74138212  0.42698540  1
  La3+  La5  1  -0.02259020  0.10691698  0.57505469  1
  La3+  La6  1  0.40115363  0.25826295  0.90286854  1
  La3+  La7  1  0.60554582  -0.00337519  0.40311491  1
  La3+  La8  1  0.59707961  0.24611073  0.40700462  1
  La3+  La9  1  0.76661574  0.37440537  0.09774624  1
  La3+  La10  1  0.47627078  0.11629688  0.56246510  1
  La3+  La11  1  0.01470172  0.63621462  0.10941199  1
  Ce3+  Ce12  1  0.38078883  0.00960785  0.93293671  1
  Ce3+  Ce13  1  0.88156518  0.75454438  0.94459065  1
  Ce3+  Ce14  1  0.13291538  0.00860746  0.93805677  1
  Ce3+  Ce15  1  0.47798535  0.36921765  0.55273806  1
  Ce3+  Ce16  1  0.25772969  0.87819339  0.05621400  1
  Ce3+  Ce17  1  0.25534286  0.38102703  0.05611512  1
  Ce3+  Ce18  1  0.12966552  0.74977441  0.93640941  1
  Ce3+  Ce19  1  -0.02336192  0.86738554  0.54612045  1
  Ce3+  Ce20  1  0.09687869  0.48860864  0.44029452  1
  Ce3+  Ce21  1  0.85103725  0.00166631  0.43315220  1
  Ce3+  Ce22  1  0.72820006  0.36748009  0.55860020  1
  Ce3+  Ce23  1  0.50691393  0.88193636  0.04715780  1
  Ce3+  Ce24  1  0.10273694  -0.00236048  0.42510676  1
  Ce3+  Ce25  1  0.50550106  0.37688431  0.06859323  1
  Pr3+  Pr26  1  0.09457375  0.73887011  0.42177025  1
  Pr3+  Pr27  1  0.63572020  0.75256515  0.93326546  1
  Pr3+  Pr28  1  0.49673962  0.11846153  0.08415199  1
  Pr3+  Pr29  1  0.63396181  0.50109212  0.95015232  1
  Pr3+  Pr30  1  0.35147210  0.24576598  0.43916600  1
  Pr3+  Pr31  1  0.47667560  0.61569823  0.55419274  1
  Pr3+  Pr32  1  0.12931170  0.51028920  0.93805826  1
  Pr3+  Pr33  1  0.23019139  0.37632246  0.58083322  1
  Pr3+  Pr34  1  -0.02706733  0.37435289  0.58470724  1
  Pr3+  Pr35  1  0.75677017  0.63071858  0.07275182  1
  Pr3+  Pr36  1  0.75825809  0.88623741  0.05402463  1
  Pr3+  Pr37  1  0.13976862  0.26651901  0.91845453  1
  Pr3+  Pr38  1  0.01545051  0.37890955  0.06917299  1
  Nd3+  Nd39  1  0.63078468  0.01505778  0.93819049  1
  Nd3+  Nd40  1  0.60128039  0.74430882  0.43429201  1
  Nd3+  Nd41  1  0.63153062  0.25316919  0.95725675  1
  Nd3+  Nd42  1  0.88257982  0.50385146  0.95235332  1
  Nd3+  Nd43  1  0.00872785  0.88021665  0.05785140  1
  Nd3+  Nd44  1  0.22754266  0.11232120  0.56051359  1
  Nd3+  Nd45  1  0.22316132  0.86597937  0.55609674  1
  Nd3+  Nd46  1  0.22037768  0.61921627  0.56054537  1
  Nd3+  Nd47  1  0.38640008  0.50789557  0.93012977  1
  Nd3+  Nd48  1  0.25878223  0.63051009  0.06170020  1
  Nd3+  Nd49  1  0.38196539  0.75480705  0.93341361  1
  Nd3+  Nd50  1  0.72411599  0.61753637  0.56335909  1
  Nd3+  Nd51  1  -0.03098267  0.62165027  0.56735073  1
  Sm3+  Sm52  1  0.72580950  0.87028090  0.55452887  1
  Sm3+  Sm53  1  0.47764404  0.86735182  0.55592203  1
  Sm3+  Sm54  1  0.35011325  0.74390208  0.44231081  1
  Sm3+  Sm55  1  0.01057131  0.13274245  0.05590433  1
  Sm3+  Sm56  1  0.85177940  0.24396714  0.44818921  1
  Sm3+  Sm57  1  0.34046382  0.49329127  0.42981557  1
  Sm3+  Sm58  1  0.51012427  0.62918893  0.06447979  1
  Sm3+  Sm59  1  0.25873740  0.13223899  0.05424533  1
  Sm3+  Sm60  1  0.88424737  0.25618674  0.94393187  1
  Sm3+  Sm61  1  0.72348975  0.11608768  0.55518879  1
  Sm3+  Sm62  1  0.10053328  0.24700387  0.45664455  1
  Sm3+  Sm63  1  0.85414656  0.49073801  0.43850530  1
  Bi2+  Bi64  1  -0.01521832  0.06499083  0.30161993  1
  Bi2+  Bi65  1  -0.04030623  0.11672193  0.78783706  1
  Bi2+  Bi66  1  0.08055345  0.33781143  0.26981009  1
  Bi2+  Bi67  1  0.00542518  0.37972204  0.78398532  1
  Bi2+  Bi68  1  0.06801773  0.57575735  0.30676162  1
  Bi2+  Bi69  1  -0.02352490  0.61951537  0.79231699  1
  Bi2+  Bi70  1  0.05176453  0.88499515  0.29941831  1
  Bi2+  Bi71  1  0.05192441  0.80102004  0.77687009  1
  Bi2+  Bi72  1  0.20820585  0.11752648  0.27866933  1
  Bi2+  Bi73  1  0.27707411  0.09311943  0.79067893  1
  Bi2+  Bi74  1  0.25362814  0.32380193  0.32308280  1
  Bi2+  Bi75  1  0.25814732  0.39146022  0.78641210  1
  Bi2+  Bi76  1  0.35893787  0.59053421  0.28551012  1
  Bi2+  Bi77  1  0.23901803  0.70534488  0.79786808  1
  Bi2+  Bi78  1  0.26850394  0.85433153  0.29587994  1
  Bi2+  Bi79  1  0.29019146  0.89284193  0.83185827  1
  Bi2+  Bi80  1  0.47454270  0.12923558  0.27788523  1
  Bi2+  Bi81  1  0.53871728  0.15709849  0.78671279  1
  Bi2+  Bi82  1  0.42771081  0.38006533  0.27358266  1
  Bi2+  Bi83  1  0.47685752  0.45052705  0.75021449  1
  Bi2+  Bi84  1  0.54546683  0.66643533  0.29129347  1
  Bi2+  Bi85  1  0.49484273  0.69860439  0.79435810  1
  Bi2+  Bi86  1  0.53619739  0.87090343  0.29346834  1
  Bi2+  Bi87  1  0.44056985  0.87471986  0.75779247  1
  Bi2+  Bi88  1  0.77534756  0.11111132  0.28403411  1
  Bi2+  Bi89  1  0.74430870  0.08647362  0.78633050  1
  Bi2+  Bi90  1  0.80602388  0.37544923  0.30652479  1
  Bi2+  Bi91  1  0.74197203  0.42452415  0.82410371  1
  Bi2+  Bi92  1  0.81174994  0.64265494  0.29379410  1
  Bi2+  Bi93  1  0.71796179  0.61890507  0.80747099  1
  Bi2+  Bi94  1  0.77890416  0.85013148  0.27641856  1
  Bi2+  Bi95  1  0.77500582  0.82073548  0.77535106  1
  Bi2+  Bi96  1  0.10174143  -0.00026703  0.20709486  1
  Bi2+  Bi97  1  0.13772264  -0.02730338  0.76717980  1
  Bi2+  Bi98  1  0.13018574  0.19137280  0.17517723  1
  Bi2+  Bi99  1  0.12665369  0.21094061  0.70985524  1
  Bi2+  Bi100  1  0.26274714  0.43123782  0.21283672  1
  Bi2+  Bi101  1  0.11394661  0.56995239  0.71213409  1
  Bi2+  Bi102  1  0.16895133  0.75483570  0.21988876  1
  Bi2+  Bi103  1  0.10164394  0.73793382  0.65317094  1
  Bi2+  Bi104  1  0.36279413  -0.04010370  0.20241394  1
  Bi2+  Bi105  1  0.37034689  0.01275856  0.68998305  1
  Bi2+  Bi106  1  0.31899736  0.23208477  0.20908734  1
  Bi2+  Bi107  1  0.38600321  0.25329478  0.69581985  1
  Bi2+  Bi108  1  0.37772005  0.58721679  0.17110912  1
  Bi2+  Bi109  1  0.36106905  0.59661501  0.70883139  1
  Bi2+  Bi110  1  0.42547608  0.76649287  0.21012652  1
  Bi2+  Bi111  1  0.28598665  0.77951614  0.69170405  1
  Bi2+  Bi112  1  0.61750815  -0.00691401  0.21012145  1
  Bi2+  Bi113  1  0.62866758  -0.00060745  0.68764109  1
  Bi2+  Bi114  1  0.63864908  0.29088540  0.22214052  1
  Bi2+  Bi115  1  0.62912196  0.32196404  0.73986025  1
  Bi2+  Bi116  1  0.55984102  0.52350971  0.20931785  1
  Bi2+  Bi117  1  0.64115355  0.50332069  0.68809044  1
  Bi2+  Bi118  1  0.63605187  0.78078477  0.20597684  1
  Bi2+  Bi119  1  0.63198065  0.69201758  0.70995769  1
  Bi2+  Bi120  1  0.89364576  -0.01747772  0.20613689  1
  Bi2+  Bi121  1  0.86887658  -0.00074183  0.69201889  1
  Bi2+  Bi122  1  0.94836471  0.23405548  0.21848838  1
  Bi2+  Bi123  1  0.82816545  0.31550177  0.74397111  1
  Bi2+  Bi124  1  0.87660354  0.50202722  0.21817769  1
  Bi2+  Bi125  1  0.84250473  0.50920832  0.70276253  1
  Bi2+  Bi126  1  0.93318988  0.75728420  0.23065253  1
  Bi2+  Bi127  1  0.91470684  0.76087356  0.69965941  1
  S2-  S128  1  -0.07666774  0.11471829  0.14147098  1
  S2-  S129  1  -0.02372947  0.13462389  0.67818641  1
  S2-  S130  1  -0.07931647  0.36783978  0.15631637  1
  S2-  S131  1  0.03746698  0.33355071  0.68327654  1
  S2-  S132  1  0.02971952  0.55621773  0.21006413  1
  S2-  S133  1  -0.00882771  0.51701592  0.64843882  1
  S2-  S134  1  0.01526717  0.80085573  0.14839965  1
  S2-  S135  1  -0.01522601  0.94590887  0.63360818  1
  S2-  S136  1  0.34169056  0.09979745  0.14217002  1
  S2-  S137  1  0.26250995  0.14046835  0.65695533  1
  S2-  S138  1  0.15667708  0.37466655  0.13845586  1
  S2-  S139  1  0.24314497  0.33359474  0.68463584  1
  S2-  S140  1  0.18230856  0.64352589  0.15178984  1
  S2-  S141  1  0.23948032  0.52452547  0.64419612  1
  S2-  S142  1  0.23368347  0.88226619  0.15403545  1
  S2-  S143  1  0.23451055  0.93400358  0.64805682  1
  S2-  S144  1  0.55982980  0.14485225  0.18276823  1
  S2-  S145  1  0.50612586  0.12885158  0.66376890  1
  S2-  S146  1  0.50410519  0.36817051  0.16828655  1
  S2-  S147  1  0.44361274  0.38424752  0.64878943  1
  S2-  S148  1  0.62113897  0.64439313  0.14186639  1
  S2-  S149  1  0.49007891  0.66024786  0.65162372  1
  S2-  S150  1  0.50087236  0.94880507  0.13732109  1
  S2-  S151  1  0.49460974  0.89657987  0.65295949  1
  S2-  S152  1  0.74879240  0.23451983  0.16466063  1
  S2-  S153  1  0.74153671  0.10895726  0.65523902  1
  S2-  S154  1  0.70952465  0.44261880  0.18919992  1
  S2-  S155  1  0.82049704  0.36261673  0.64322030  1
  S2-  S156  1  0.85384358  0.64070090  0.15808267  1
  S2-  S157  1  0.83048596  0.64965145  0.64163014  1
  S2-  S158  1  0.75533930  0.97333845  0.14218253  1
  S2-  S159  1  0.73559207  0.88972770  0.65457683  1
  S2-  S160  1  0.22651637  0.00242806  0.35316188  1
  S2-  S161  1  0.04006885  0.01215388  0.85426812  1
  S2-  S162  1  0.10166924  0.25150473  0.35626360  1
  S2-  S163  1  0.04092222  0.23681696  0.83068856  1
  S2-  S164  1  0.20770487  0.49046776  0.36050202  1
  S2-  S165  1  0.13633470  0.41906386  0.84950345  1
  S2-  S166  1  0.17255237  0.71354852  0.32915303  1
  S2-  S167  1  0.11915724  0.63674002  0.85995732  1
  S2-  S168  1  0.45669773  0.00722672  0.34344355  1
  S2-  S169  1  0.41832336  0.09994587  0.85103205  1
  S2-  S170  1  0.43804555  0.24099400  0.34821586  1
  S2-  S171  1  0.25923926  0.24742771  0.83909024  1
  S2-  S172  1  0.45249549  0.49431353  0.35112329  1
  S2-  S173  1  0.39536058  0.41035934  0.84465731  1
  S2-  S174  1  0.39055228  0.78829957  0.35047675  1
  S2-  S175  1  0.37886764  0.63750150  0.85837946  1
  S2-  S176  1  0.62672226  0.13003247  0.33031713  1
  S2-  S177  1  0.62092622  0.02385232  0.83652157  1
  S2-  S178  1  0.64154061  0.35266268  0.32711345  1
  S2-  S179  1  0.57306931  0.25773223  0.86077518  1
  S2-  S180  1  0.75039504  0.51782479  0.35624501  1
  S2-  S181  1  0.59969840  0.52329719  0.85177779  1
  S2-  S182  1  0.71464298  0.74531826  0.35581739  1
  S2-  S183  1  0.63457902  0.79116634  0.83452461  1
  S2-  S184  1  0.76441140  -0.01891976  0.34753662  1
  S2-  S185  1  0.83679062  -0.04991233  0.82226024  1
  S2-  S186  1  0.85126874  0.23484023  0.34780954  1
  S2-  S187  1  0.84434291  0.16628450  0.86092978  1
  S2-  S188  1  0.97944375  0.46995955  0.36553084  1
  S2-  S189  1  0.90547055  0.47875161  0.85218255  1
  S2-  S190  1  0.95974406  0.69706253  0.35015047  1
  S2-  S191  1  0.86000544  0.71412321  0.84904094  1
  S2-  S192  1  -0.02166054  0.12137327  0.45656848  1
  S2-  S193  1  0.01219280  0.13815758  0.95286682  1
  S2-  S194  1  -0.02754598  0.36237714  0.47246777  1
  S2-  S195  1  0.00655269  0.37830182  0.95839732  1
  S2-  S196  1  -0.02715508  0.61691272  0.46082793  1
  S2-  S197  1  0.00087426  0.63176141  0.95859889  1
  S2-  S198  1  -0.02640058  0.87340728  0.43968045  1
  S2-  S199  1  0.00788692  0.87822308  0.95037851  1
  S2-  S200  1  0.22569908  0.12387073  0.45379466  1
  S2-  S201  1  0.25862798  0.13331845  0.94963605  1
  S2-  S202  1  0.22554319  0.36689535  0.46557609  1
  S2-  S203  1  0.26467097  0.38415055  0.95213403  1
  S2-  S204  1  0.22618366  0.62320074  0.45402091  1
  S2-  S205  1  0.25992046  0.63142522  0.95713834  1
  S2-  S206  1  0.22275659  0.86272055  0.44819705  1
  S2-  S207  1  0.25507375  0.87763537  0.95091020  1
  S2-  S208  1  0.48214991  0.11961768  0.45328056  1
  S2-  S209  1  0.50356308  0.13194137  0.96485612  1
  S2-  S210  1  0.47815356  0.37074434  0.44907450  1
  S2-  S211  1  0.50505256  0.37997762  0.96156335  1
  S2-  S212  1  0.47567396  0.62137958  0.44786183  1
  S2-  S213  1  0.51061964  0.63198627  0.95983218  1
  S2-  S214  1  0.48160046  0.87012288  0.45171463  1
  S2-  S215  1  0.50796338  0.88144172  0.94064332  1
  S2-  S216  1  0.72219735  0.12395200  0.45011798  1
  S2-  S217  1  0.75613125  0.13120421  0.96584917  1
  S2-  S218  1  0.72446437  0.36379133  0.45255426  1
  S2-  S219  1  0.75918384  0.37543975  0.96128194  1
  S2-  S220  1  0.72196004  0.61705371  0.45879410  1
  S2-  S221  1  0.75674893  0.62873860  0.96162130  1
  S2-  S222  1  0.72143269  0.87613352  0.45154629  1
  S2-  S223  1  0.75594933  0.88582624  0.94683140  1
  S2-  S224  1  0.13346526  0.00689299  0.04650001  1
  S2-  S225  1  0.10449022  -0.00707147  0.53404257  1
  S2-  S226  1  0.13620447  0.25291490  0.03480531  1
  S2-  S227  1  0.10387172  0.24108480  0.56124750  1
  S2-  S228  1  0.13007673  0.51297814  0.04637256  1
  S2-  S229  1  0.10078263  0.49206562  0.54649517  1
  S2-  S230  1  0.13259255  0.75430011  0.04304288  1
  S2-  S231  1  0.09786507  0.74281724  0.53281100  1
  S2-  S232  1  0.37686126  0.00166736  0.03667186  1
  S2-  S233  1  0.35219010  -0.01139246  0.53924083  1
  S2-  S234  1  0.37945663  0.25603852  0.05869795  1
  S2-  S235  1  0.34929484  0.24506567  0.54768251  1
  S2-  S236  1  0.38604273  0.50628414  0.04462067  1
  S2-  S237  1  0.35110675  0.49449205  0.53742436  1
  S2-  S238  1  0.38601501  0.75436250  0.04484218  1
  S2-  S239  1  0.35137578  0.74355341  0.54755727  1
  S2-  S240  1  0.62860561  0.00907076  0.04336427  1
  S2-  S241  1  0.60156533  -0.00869369  0.54661441  1
  S2-  S242  1  0.62964427  0.25176433  0.06145183  1
  S2-  S243  1  0.60350824  0.24381013  0.55485552  1
  S2-  S244  1  0.63533238  0.49762992  0.05621688  1
  S2-  S245  1  0.60314519  0.49257056  0.54081977  1
  S2-  S246  1  0.63303340  0.75964287  0.04106267  1
  S2-  S247  1  0.60243437  0.74553219  0.54307727  1
  S2-  S248  1  0.89001698  0.00459651  0.03469304  1
  S2-  S249  1  0.84701699  -0.00616042  0.53881991  1
  S2-  S250  1  0.88605740  0.25604287  0.04734398  1
  S2-  S251  1  0.85263181  0.23314044  0.55170951  1
  S2-  S252  1  0.88623865  0.50616680  0.05850825  1
  S2-  S253  1  0.84751942  0.49572264  0.54321171  1
  S2-  S254  1  0.88078615  0.75818132  0.04994657  1
  S2-  S255  1  0.84752669  0.74903036  0.53665298  1
