# generated using pymatgen
data_La12Ce14Pr13Nd13Sm12(BiS2)64
_symmetry_space_group_name_H-M   'P 1'
_cell_length_a   16.06001854
_cell_length_b   16.15592440
_cell_length_c   27.33169922
_cell_angle_alpha   90.17544979
_cell_angle_beta   90.13579414
_cell_angle_gamma   89.79890575
_symmetry_Int_Tables_number   1
_chemical_formula_structural   La12Ce14Pr13Nd13Sm12(BiS2)64
_chemical_formula_sum   'La12 Ce14 Pr13 Nd13 Sm12 Bi64 S128'
_cell_volume   7091.50751559
_cell_formula_units_Z   1
loop_
 _symmetry_equiv_pos_site_id
 _symmetry_equiv_pos_as_xyz
  1  'x, y, z'
loop_
 _atom_type_symbol
 _atom_type_oxidation_number
  La3+  3.0
  Ce3+  3.0
  Pr3+  3.0
  Nd3+  3.0
  Sm3+  3.0
  Bi2+  2.0
  S2-  -2.0
loop_
 _atom_site_type_symbol
 _atom_site_label
 _atom_site_symmetry_multiplicity
 _atom_site_fract_x
 _atom_site_fract_y
 _atom_site_fract_z
 _atom_site_occupancy
  La3+  La0  1  0.73857886  0.15885212  0.09325794  1
  La3+  La1  1  0.11137442  0.72027183  0.42624662  1
  La3+  La2  1  0.61064293  0.72234940  0.43503316  1
  La3+  La3  1  0.11726685  0.47137262  0.42957362  1
  La3+  La4  1  0.11071758  -0.03141024  0.42648685  1
  La3+  La5  1  0.49678845  0.63544240  0.06600320  1
  La3+  La6  1  0.85536690  0.72460556  0.42559298  1
  La3+  La7  1  0.37259199  0.75406714  0.92975940  1
  La3+  La8  1  0.61026159  0.26253790  0.92307563  1
  La3+  La9  1  0.50639818  0.36765710  0.07564142  1
  La3+  La10  1  -0.02300029  0.35140937  0.57136515  1
  La3+  La11  1  0.86062467  0.00955887  0.94130972  1
  Ce3+  Ce12  1  0.36589735  0.25974484  0.94778430  1
  Ce3+  Ce13  1  0.85707105  -0.02477686  0.44348801  1
  Ce3+  Ce14  1  0.23657742  0.09941209  0.55421489  1
  Ce3+  Ce15  1  0.74766475  0.63500261  0.06561287  1
  Ce3+  Ce16  1  0.86089631  0.25313502  0.92889177  1
  Ce3+  Ce17  1  0.37326890  0.01046555  0.92901176  1
  Ce3+  Ce18  1  0.49221224  0.34552073  0.56193809  1
  Ce3+  Ce19  1  0.61970967  0.50814693  0.94642793  1
  Ce3+  Ce20  1  0.88090889  0.50566909  0.93232067  1
  Ce3+  Ce21  1  0.62888972  0.75489184  0.93963785  1
  Ce3+  Ce22  1  0.86396689  0.22410388  0.43677355  1
  Ce3+  Ce23  1  -0.00466045  0.88502230  0.06169192  1
  Ce3+  Ce24  1  0.73941534  0.60296755  0.56190414  1
  Ce3+  Ce25  1  -0.01279096  0.85049350  0.55693208  1
  Pr3+  Pr26  1  0.73049987  0.09522496  0.57192377  1
  Pr3+  Pr27  1  -0.00581488  0.13356872  0.06487705  1
  Pr3+  Pr28  1  -0.00409549  0.38182737  0.05522029  1
  Pr3+  Pr29  1  0.24125511  0.63726854  0.06292753  1
  Pr3+  Pr30  1  0.61101915  0.47378822  0.43477880  1
  Pr3+  Pr31  1  0.24061960  0.12528570  0.06581775  1
  Pr3+  Pr32  1  0.23605075  0.34485463  0.56848670  1
  Pr3+  Pr33  1  0.11607288  0.25340761  0.92846525  1
  Pr3+  Pr34  1  0.48549624  0.84256033  0.57088279  1
  Pr3+  Pr35  1  0.74969195  0.38465834  0.04800747  1
  Pr3+  Pr36  1  0.49111137  0.12616738  0.06088011  1
  Pr3+  Pr37  1  0.15806263  0.50415907  0.88169371  1
  Pr3+  Pr38  1  0.60966207  -0.03349941  0.43043074  1
  Nd3+  Nd39  1  0.36534693  -0.02699748  0.43772244  1
  Nd3+  Nd40  1  0.61743516  0.21940405  0.42466033  1
  Nd3+  Nd41  1  0.73200919  0.85092462  0.57612218  1
  Nd3+  Nd42  1  0.86918734  0.75615875  0.94609018  1
  Nd3+  Nd43  1  0.36901192  0.50645949  0.95327304  1
  Nd3+  Nd44  1  0.61860531  0.00786092  0.93879056  1
  Nd3+  Nd45  1  0.23386962  0.60036170  0.56441011  1
  Nd3+  Nd46  1  -0.01252593  0.60292126  0.55613850  1
  Nd3+  Nd47  1  0.36201288  0.22674803  0.43084653  1
  Nd3+  Nd48  1  0.86035975  0.47333148  0.43435735  1
  Nd3+  Nd49  1  0.10996720  0.01098757  0.92535334  1
  Nd3+  Nd50  1  0.11630462  0.75569651  0.93116562  1
  Nd3+  Nd51  1  0.24065325  0.38356766  0.06235821  1
  Sm3+  Sm52  1  -0.01265806  0.09989163  0.55946716  1
  Sm3+  Sm53  1  0.48816141  0.59810996  0.56126169  1
  Sm3+  Sm54  1  0.73193654  0.34274079  0.56414287  1
  Sm3+  Sm55  1  0.49133306  0.09729285  0.55264542  1
  Sm3+  Sm56  1  0.36045196  0.47167420  0.44844992  1
  Sm3+  Sm57  1  0.74296049  0.89018178  0.06919540  1
  Sm3+  Sm58  1  0.24243615  0.88178583  0.04122693  1
  Sm3+  Sm59  1  0.23693238  0.85148659  0.55349684  1
  Sm3+  Sm60  1  0.49505475  0.88375965  0.05789903  1
  Sm3+  Sm61  1  0.36230407  0.72148597  0.44579283  1
  Sm3+  Sm62  1  0.11010938  0.22284995  0.43616644  1
  Sm3+  Sm63  1  -0.00418644  0.63329424  0.05625712  1
  Bi2+  Bi64  1  -0.01137527  0.17669048  0.26908370  1
  Bi2+  Bi65  1  0.02703469  0.12698195  0.78057306  1
  Bi2+  Bi66  1  0.03036169  0.36747796  0.29209644  1
  Bi2+  Bi67  1  0.03104274  0.37594132  0.79019274  1
  Bi2+  Bi68  1  0.02727475  0.69902679  0.28018640  1
  Bi2+  Bi69  1  -0.06169352  0.70184095  0.80694475  1
  Bi2+  Bi70  1  0.01742579  0.91746421  0.29464130  1
  Bi2+  Bi71  1  0.02487144  0.87806329  0.81618800  1
  Bi2+  Bi72  1  0.23754025  0.11712121  0.29064445  1
  Bi2+  Bi73  1  0.30203262  0.08426092  0.80326443  1
  Bi2+  Bi74  1  0.28531762  0.35378216  0.29121955  1
  Bi2+  Bi75  1  0.35918182  0.34936813  0.79698711  1
  Bi2+  Bi76  1  0.22777645  0.59501067  0.29319870  1
  Bi2+  Bi77  1  0.28572025  0.61018356  0.78019230  1
  Bi2+  Bi78  1  0.30177687  0.92964344  0.29910063  1
  Bi2+  Bi79  1  0.21393924  0.91609875  0.78133283  1
  Bi2+  Bi80  1  0.44381112  0.13625717  0.27887124  1
  Bi2+  Bi81  1  0.49844734  0.09016837  0.77197908  1
  Bi2+  Bi82  1  0.47027741  0.42033286  0.31996581  1
  Bi2+  Bi83  1  0.58983869  0.32443966  0.79073334  1
  Bi2+  Bi84  1  0.48104027  0.61928784  0.29544742  1
  Bi2+  Bi85  1  0.52234732  0.56490546  0.73654674  1
  Bi2+  Bi86  1  0.47828276  0.88308402  0.25290850  1
  Bi2+  Bi87  1  0.47868903  0.85587496  0.79744133  1
  Bi2+  Bi88  1  0.71545571  0.15396084  0.27737347  1
  Bi2+  Bi89  1  0.81731345  0.11765409  0.80337004  1
  Bi2+  Bi90  1  0.66930888  0.39923197  0.31178176  1
  Bi2+  Bi91  1  0.81789714  0.46107353  0.79796072  1
  Bi2+  Bi92  1  0.73685385  0.65613732  0.29751287  1
  Bi2+  Bi93  1  0.66954357  0.59283743  0.81316887  1
  Bi2+  Bi94  1  0.73492143  0.92089580  0.29615351  1
  Bi2+  Bi95  1  0.73579344  0.87854043  0.78814958  1
  Bi2+  Bi96  1  0.19724424  -0.01002962  0.19946894  1
  Bi2+  Bi97  1  0.11086027  0.02063568  0.69348423  1
  Bi2+  Bi98  1  0.13256374  0.25578753  0.20483970  1
  Bi2+  Bi99  1  0.14608130  0.25342947  0.69609143  1
  Bi2+  Bi100  1  0.07655271  0.50738584  0.19305559  1
  Bi2+  Bi101  1  0.12917570  0.51195491  0.67842720  1
  Bi2+  Bi102  1  0.12318480  0.75842187  0.18633259  1
  Bi2+  Bi103  1  0.11511764  0.74795646  0.75474873  1
  Bi2+  Bi104  1  0.37419362  0.04931335  0.16448469  1
  Bi2+  Bi105  1  0.38307278  -0.04826931  0.71313481  1
  Bi2+  Bi106  1  0.33494719  0.23111678  0.20213960  1
  Bi2+  Bi107  1  0.36958371  0.20884642  0.71669263  1
  Bi2+  Bi108  1  0.36689154  0.50262082  0.22974221  1
  Bi2+  Bi109  1  0.46126170  0.38754230  0.70174804  1
  Bi2+  Bi110  1  0.32815035  0.75347799  0.25057312  1
  Bi2+  Bi111  1  0.34764532  0.75544816  0.70287894  1
  Bi2+  Bi112  1  0.56175582  0.04517822  0.20139395  1
  Bi2+  Bi113  1  0.64981575  -0.00461816  0.71287733  1
  Bi2+  Bi114  1  0.60627592  0.30563698  0.21582935  1
  Bi2+  Bi115  1  0.64347777  0.21957428  0.70484233  1
  Bi2+  Bi116  1  0.59906765  0.50942904  0.21814295  1
  Bi2+  Bi117  1  0.70659327  0.51777501  0.70607152  1
  Bi2+  Bi118  1  0.63512438  0.73599334  0.19825490  1
  Bi2+  Bi119  1  0.60254999  0.74395271  0.70946353  1
  Bi2+  Bi120  1  0.85650756  0.03329403  0.23899084  1
  Bi2+  Bi121  1  0.90417099  -0.04530417  0.72232095  1
  Bi2+  Bi122  1  0.86441241  0.29673918  0.20825726  1
  Bi2+  Bi123  1  0.85395932  0.30730990  0.71636578  1
  Bi2+  Bi124  1  0.85524122  0.45070426  0.28570899  1
  Bi2+  Bi125  1  0.89913651  0.57412334  0.71475971  1
  Bi2+  Bi126  1  0.88455549  0.76768244  0.20506757  1
  Bi2+  Bi127  1  0.84257204  0.76829200  0.71382867  1
  S2-  S128  1  -0.10670877  0.17082251  0.14669511  1
  S2-  S129  1  0.01524825  0.14358924  0.65419923  1
  S2-  S130  1  -0.03640701  0.41460374  0.15363553  1
  S2-  S131  1  0.02987985  0.36581566  0.66983825  1
  S2-  S132  1  -0.01817723  0.63957659  0.15511925  1
  S2-  S133  1  0.02048154  0.64071423  0.65247109  1
  S2-  S134  1  -0.01282047  0.87761322  0.16110176  1
  S2-  S135  1  0.01589034  0.89186202  0.65142648  1
  S2-  S136  1  0.11873477  0.11042013  0.14001162  1
  S2-  S137  1  0.24917248  0.12994103  0.65010256  1
  S2-  S138  1  0.19340850  0.39289947  0.15844878  1
  S2-  S139  1  0.24297186  0.37968433  0.66751067  1
  S2-  S140  1  0.20804094  0.62394748  0.16186060  1
  S2-  S141  1  0.26729385  0.60983564  0.66293558  1
  S2-  S142  1  0.23970215  0.85087647  0.13838543  1
  S2-  S143  1  0.26218969  0.86159555  0.65034231  1
  S2-  S144  1  0.56262995  0.20686037  0.13880082  1
  S2-  S145  1  0.57948568  0.10290876  0.63748134  1
  S2-  S146  1  0.47395876  0.40957315  0.17158624  1
  S2-  S147  1  0.60382813  0.34258737  0.63615285  1
  S2-  S148  1  0.50875658  0.63318284  0.16608889  1
  S2-  S149  1  0.48113537  0.69699126  0.64151140  1
  S2-  S150  1  0.52413583  0.85753367  0.15421389  1
  S2-  S151  1  0.59465444  0.87295572  0.64847659  1
  S2-  S152  1  0.71988071  0.04377893  0.16881174  1
  S2-  S153  1  0.78734261  0.19804055  0.65437935  1
  S2-  S154  1  0.73121831  0.32877171  0.14322433  1
  S2-  S155  1  0.83279382  0.39822835  0.63909440  1
  S2-  S156  1  0.74837263  0.62395057  0.16404958  1
  S2-  S157  1  0.73404253  0.70946914  0.64101938  1
  S2-  S158  1  0.75793300  0.84072798  0.16432799  1
  S2-  S159  1  0.77670835  0.97461131  0.64824077  1
  S2-  S160  1  0.09149620  0.04783712  0.33570114  1
  S2-  S161  1  0.14702503  0.12567695  0.85225859  1
  S2-  S162  1  0.23084699  0.24090656  0.36295745  1
  S2-  S163  1  0.16295789  0.33779140  0.84344075  1
  S2-  S164  1  0.09188501  0.59078442  0.35249477  1
  S2-  S165  1  0.14732417  0.50314063  0.77355047  1
  S2-  S166  1  0.12396068  0.83892159  0.35004923  1
  S2-  S167  1  0.15983315  0.67378587  0.84590542  1
  S2-  S168  1  0.45323653  -0.05592432  0.35391828  1
  S2-  S169  1  0.50145874  0.00160116  0.85996731  1
  S2-  S170  1  0.48490749  0.23456866  0.35518716  1
  S2-  S171  1  0.45539271  0.26439283  0.86209688  1
  S2-  S172  1  0.26413235  0.47052284  0.36526467  1
  S2-  S173  1  0.33374983  0.50392382  0.85480407  1
  S2-  S174  1  0.34327577  0.69915826  0.34900092  1
  S2-  S175  1  0.36659800  0.73983689  0.82934029  1
  S2-  S176  1  0.64492763  0.04487535  0.34174873  1
  S2-  S177  1  0.73726828  0.00296810  0.86039360  1
  S2-  S178  1  0.75444764  0.23110038  0.35902345  1
  S2-  S179  1  0.72564456  0.23281526  0.84571208  1
  S2-  S180  1  0.61469035  0.59851410  0.35882238  1
  S2-  S181  1  0.58560495  0.45360453  0.85577166  1
  S2-  S182  1  0.68082890  0.80305383  0.35199418  1
  S2-  S183  1  0.57578394  0.74527764  0.84643583  1
  S2-  S184  1  0.87264053  -0.00012384  0.34527753  1
  S2-  S185  1  0.96140528  0.02387364  0.85633294  1
  S2-  S186  1  0.98720689  0.24082058  0.36351956  1
  S2-  S187  1  0.94280984  0.24688738  0.83967193  1
  S2-  S188  1  0.84836735  0.58496266  0.35495572  1
  S2-  S189  1  0.98297524  0.50289247  0.85201050  1
  S2-  S190  1  0.90891564  0.78413956  0.32966413  1
  S2-  S191  1  0.79452457  0.76592088  0.85708409  1
  S2-  S192  1  -0.01124603  0.09601332  0.45575108  1
  S2-  S193  1  -0.00824094  0.13296872  0.95782326  1
  S2-  S194  1  -0.01145902  0.35640740  0.45991332  1
  S2-  S195  1  -0.01009706  0.37273952  0.95034229  1
  S2-  S196  1  -0.01464021  0.59866287  0.45290435  1
  S2-  S197  1  -0.00489090  0.63600594  0.95250811  1
  S2-  S198  1  -0.01634106  0.84729302  0.45138014  1
  S2-  S199  1  -0.00755236  0.88016736  0.95440776  1
  S2-  S200  1  0.23872037  0.09601889  0.44995415  1
  S2-  S201  1  0.24736913  0.13055388  0.95771667  1
  S2-  S202  1  0.23836249  0.34726408  0.46370072  1
  S2-  S203  1  0.24160600  0.38586731  0.95667999  1
  S2-  S204  1  0.23884639  0.60038844  0.45960338  1
  S2-  S205  1  0.24467893  0.63216983  0.95575835  1
  S2-  S206  1  0.24324613  0.84747911  0.45076389  1
  S2-  S207  1  0.24307415  0.88379671  0.93631823  1
  S2-  S208  1  0.48805457  0.09782809  0.45025122  1
  S2-  S209  1  0.49120338  0.13290667  0.95714705  1
  S2-  S210  1  0.48654153  0.35168426  0.45786834  1
  S2-  S211  1  0.49088295  0.38496242  0.96742947  1
  S2-  S212  1  0.48095359  0.59560190  0.45773418  1
  S2-  S213  1  0.49498203  0.63134622  0.95692929  1
  S2-  S214  1  0.48379270  0.84293714  0.46003915  1
  S2-  S215  1  0.49634400  0.87682306  0.95485001  1
  S2-  S216  1  0.73533193  0.09610805  0.45953462  1
  S2-  S217  1  0.73777617  0.13482617  0.95663572  1
  S2-  S218  1  0.73687157  0.35272684  0.45907818  1
  S2-  S219  1  0.74648380  0.38779170  0.94279998  1
  S2-  S220  1  0.73669230  0.59822344  0.45851057  1
  S2-  S221  1  0.74874633  0.62700711  0.95782513  1
  S2-  S222  1  0.73769956  0.85038446  0.46284512  1
  S2-  S223  1  0.74263324  0.88102499  0.96440353  1
  S2-  S224  1  0.11910676  0.00177635  0.03392107  1
  S2-  S225  1  0.11385912  -0.02490280  0.53989016  1
  S2-  S226  1  0.12201526  0.25688083  0.04243243  1
  S2-  S227  1  0.10923988  0.22511958  0.54337567  1
  S2-  S228  1  0.11773217  0.51119964  0.05144102  1
  S2-  S229  1  0.11134693  0.47390988  0.54690623  1
  S2-  S230  1  0.11684159  0.75876859  0.03862475  1
  S2-  S231  1  0.11569943  0.72781098  0.54092397  1
  S2-  S232  1  0.36737159  0.00056433  0.03646891  1
  S2-  S233  1  0.36494847  -0.02583097  0.54583457  1
  S2-  S234  1  0.36553595  0.25608802  0.05428449  1
  S2-  S235  1  0.36642954  0.22238889  0.54527533  1
  S2-  S236  1  0.36883759  0.50714481  0.05937050  1
  S2-  S237  1  0.36303207  0.47435015  0.55377657  1
  S2-  S238  1  0.37049686  0.75984592  0.04221676  1
  S2-  S239  1  0.35679338  0.72276891  0.54724958  1
  S2-  S240  1  0.61872371  0.00690761  0.04875802  1
  S2-  S241  1  0.60780307  -0.03050655  0.53866263  1
  S2-  S242  1  0.62490006  0.25824545  0.03218287  1
  S2-  S243  1  0.60979603  0.22189263  0.53297726  1
  S2-  S244  1  0.62087353  0.50707342  0.05462405  1
  S2-  S245  1  0.61323214  0.48000299  0.54406505  1
  S2-  S246  1  0.62277031  0.76036823  0.04793648  1
  S2-  S247  1  0.60934739  0.72090695  0.54142315  1
  S2-  S248  1  0.86575393  0.00820352  0.05277253  1
  S2-  S249  1  0.86652357  -0.02331885  0.54685977  1
  S2-  S250  1  0.86882941  0.25808554  0.03726136  1
  S2-  S251  1  0.86192726  0.22218206  0.54339129  1
  S2-  S252  1  0.87308493  0.51166715  0.04221952  1
  S2-  S253  1  0.86198096  0.48198235  0.53865215  1
  S2-  S254  1  0.86993682  0.75993633  0.05180636  1
  S2-  S255  1  0.86377015  0.72723176  0.54222254  1
