# generated using pymatgen
data_La12Ce14Pr13Nd13Sm12(BiS2)64
_symmetry_space_group_name_H-M   'P 1'
_cell_length_a   16.20435346
_cell_length_b   16.15495074
_cell_length_c   27.29811588
_cell_angle_alpha   89.92596063
_cell_angle_beta   89.92702027
_cell_angle_gamma   89.97267923
_symmetry_Int_Tables_number   1
_chemical_formula_structural   La12Ce14Pr13Nd13Sm12(BiS2)64
_chemical_formula_sum   'La12 Ce14 Pr13 Nd13 Sm12 Bi64 S128'
_cell_volume   7146.10272608
_cell_formula_units_Z   1
loop_
 _symmetry_equiv_pos_site_id
 _symmetry_equiv_pos_as_xyz
  1  'x, y, z'
loop_
 _atom_type_symbol
 _atom_type_oxidation_number
  La3+  3.0
  Ce3+  3.0
  Pr3+  3.0
  Nd3+  3.0
  Sm3+  3.0
  Bi2+  2.0
  S2-  -2.0
loop_
 _atom_site_type_symbol
 _atom_site_label
 _atom_site_symmetry_multiplicity
 _atom_site_fract_x
 _atom_site_fract_y
 _atom_site_fract_z
 _atom_site_occupancy
  La3+  La0  1  0.75504632  0.60894867  0.09207865  1
  La3+  La1  1  0.39059137  0.26356721  0.42576187  1
  La3+  La2  1  0.00511724  0.38754366  0.56907425  1
  La3+  La3  1  0.61525200  0.75594321  0.38733136  1
  La3+  La4  1  0.87727098  0.76682526  0.42522404  1
  La3+  La5  1  0.62054554  -0.01463941  0.93601056  1
  La3+  La6  1  0.38010270  0.01068949  0.43663054  1
  La3+  La7  1  0.12498844  -0.00754550  0.93900135  1
  La3+  La8  1  0.49160587  0.60167308  0.10942319  1
  La3+  La9  1  0.49147035  0.38709192  0.57990117  1
  La3+  La10  1  0.87649266  0.01647365  0.43823548  1
  La3+  La11  1  0.62649722  0.24534170  0.89263653  1
  Ce3+  Ce12  1  0.62215782  0.26122030  0.45165337  1
  Ce3+  Ce13  1  0.74985708  0.13467765  0.56691498  1
  Ce3+  Ce14  1  0.12108129  0.49260790  0.93898357  1
  Ce3+  Ce15  1  0.74703498  0.11611171  0.05715979  1
  Ce3+  Ce16  1  0.25256814  0.63947442  0.54865587  1
  Ce3+  Ce17  1  0.12977659  0.26015635  0.44281035  1
  Ce3+  Ce18  1  0.49970141  0.36640433  0.06006281  1
  Ce3+  Ce19  1  0.25271387  0.86697805  0.06408790  1
  Ce3+  Ce20  1  0.62881949  0.51332962  0.43890543  1
  Ce3+  Ce21  1  0.75583058  0.88355010  0.56062088  1
  Ce3+  Ce22  1  0.62483850  0.48763176  0.94480395  1
  Ce3+  Ce23  1  0.25332242  0.36942283  0.05316227  1
  Ce3+  Ce24  1  0.38070658  0.24288566  0.93233675  1
  Ce3+  Ce25  1  0.00028087  0.13507847  0.56578196  1
  Pr3+  Pr26  1  0.87396477  0.23810422  0.93817102  1
  Pr3+  Pr27  1  0.87182410  0.74000807  0.95015938  1
  Pr3+  Pr28  1  0.12405211  0.76046379  0.43012138  1
  Pr3+  Pr29  1  0.87005613  -0.01056778  0.93683716  1
  Pr3+  Pr30  1  0.00077834  0.61290591  0.07377922  1
  Pr3+  Pr31  1  0.37838300  0.73956778  0.94392345  1
  Pr3+  Pr32  1  0.37870298  0.76031581  0.43497118  1
  Pr3+  Pr33  1  0.37861215  0.49058089  0.93607725  1
  Pr3+  Pr34  1  -0.00100424  0.36776688  0.06600572  1
  Pr3+  Pr35  1  0.38325339  0.51359474  0.43225628  1
  Pr3+  Pr36  1  0.49664523  0.12157932  0.58648114  1
  Pr3+  Pr37  1  0.50533311  0.63584771  0.56004595  1
  Pr3+  Pr38  1  0.75021801  0.88010459  0.08356972  1
  Nd3+  Nd39  1  0.00116665  0.11671777  0.06081961  1
  Nd3+  Nd40  1  0.74811504  0.36703301  0.06022226  1
  Nd3+  Nd41  1  0.62752601  0.00688137  0.44445788  1
  Nd3+  Nd42  1  0.37578655  -0.00837077  0.94164460  1
  Nd3+  Nd43  1  -0.00490017  0.63534822  0.57025566  1
  Nd3+  Nd44  1  0.12638271  0.51126291  0.43709427  1
  Nd3+  Nd45  1  0.62466147  0.74166620  0.95779263  1
  Nd3+  Nd46  1  0.49136201  0.86620960  0.07524566  1
  Nd3+  Nd47  1  0.88058113  0.51013821  0.43451424  1
  Nd3+  Nd48  1  0.25694985  0.38543491  0.54702652  1
  Nd3+  Nd49  1  0.75199738  0.38384275  0.55832151  1
  Nd3+  Nd50  1  0.50044197  0.11837068  0.06016971  1
  Nd3+  Nd51  1  0.87234742  0.48790160  0.93669020  1
  Sm3+  Sm52  1  0.25372813  0.61616689  0.05639839  1
  Sm3+  Sm53  1  0.00234312  0.88428997  0.55632163  1
  Sm3+  Sm54  1  0.00150306  0.86739216  0.05794452  1
  Sm3+  Sm55  1  0.50616915  0.88083817  0.55734140  1
  Sm3+  Sm56  1  0.87824958  0.25857540  0.44190362  1
  Sm3+  Sm57  1  0.75699637  0.63572830  0.55361128  1
  Sm3+  Sm58  1  0.25183568  0.12008913  0.05267004  1
  Sm3+  Sm59  1  0.12394773  0.73962035  0.95085495  1
  Sm3+  Sm60  1  0.12309788  0.24428075  0.94557668  1
  Sm3+  Sm61  1  0.25104168  0.88222916  0.55249956  1
  Sm3+  Sm62  1  0.25534423  0.13355350  0.55612005  1
  Sm3+  Sm63  1  0.12778524  0.01276664  0.44474683  1
  Bi2+  Bi64  1  -0.00707260  0.14140846  0.29625854  1
  Bi2+  Bi65  1  0.07642650  0.11277965  0.80181096  1
  Bi2+  Bi66  1  -0.04339068  0.35436424  0.29601767  1
  Bi2+  Bi67  1  0.01123542  0.39245194  0.80445913  1
  Bi2+  Bi68  1  0.03863618  0.62041588  0.28959877  1
  Bi2+  Bi69  1  -0.04486652  0.65344631  0.78854147  1
  Bi2+  Bi70  1  0.01635618  0.89557917  0.29470181  1
  Bi2+  Bi71  1  0.03074316  0.84680004  0.80987292  1
  Bi2+  Bi72  1  0.21021913  0.11632573  0.27980117  1
  Bi2+  Bi73  1  0.26842408  0.11956973  0.78010847  1
  Bi2+  Bi74  1  0.15938080  0.38726395  0.27128611  1
  Bi2+  Bi75  1  0.26497307  0.36670612  0.78663484  1
  Bi2+  Bi76  1  0.23037181  0.64844395  0.30967571  1
  Bi2+  Bi77  1  0.24175689  0.65395493  0.79077305  1
  Bi2+  Bi78  1  0.21049656  0.84308881  0.30189943  1
  Bi2+  Bi79  1  0.23641282  0.83495971  0.74253961  1
  Bi2+  Bi80  1  0.46193083  0.15869303  0.30131210  1
  Bi2+  Bi81  1  0.50036947  0.10494103  0.77953149  1
  Bi2+  Bi82  1  0.47257301  0.35873217  0.24247425  1
  Bi2+  Bi83  1  0.50247793  0.37136829  0.78235280  1
  Bi2+  Bi84  1  0.46129012  0.59716024  0.29852410  1
  Bi2+  Bi85  1  0.52135613  0.64568473  0.78493574  1
  Bi2+  Bi86  1  0.50204593  0.90175409  0.28784157  1
  Bi2+  Bi87  1  0.48666267  0.84626179  0.80244584  1
  Bi2+  Bi88  1  0.72230208  0.13289327  0.29888836  1
  Bi2+  Bi89  1  0.73648609  0.05416230  0.77860642  1
  Bi2+  Bi90  1  0.75110610  0.32905609  0.30057523  1
  Bi2+  Bi91  1  0.76945886  0.39713410  0.79593987  1
  Bi2+  Bi92  1  0.74646772  0.61462328  0.28223590  1
  Bi2+  Bi93  1  0.71296762  0.65499744  0.75237610  1
  Bi2+  Bi94  1  0.76222447  0.88360582  0.28599953  1
  Bi2+  Bi95  1  0.73676870  0.83758876  0.79636151  1
  Bi2+  Bi96  1  0.10991042  -0.01132861  0.20518737  1
  Bi2+  Bi97  1  0.12251569  -0.00695283  0.70849436  1
  Bi2+  Bi98  1  0.05160437  0.28574269  0.19808713  1
  Bi2+  Bi99  1  0.15712702  0.24857630  0.72161458  1
  Bi2+  Bi100  1  0.14190545  0.56214298  0.19721221  1
  Bi2+  Bi101  1  0.11301889  0.53106604  0.73365283  1
  Bi2+  Bi102  1  0.12724249  0.77250984  0.20120007  1
  Bi2+  Bi103  1  0.07111899  0.72715151  0.70691856  1
  Bi2+  Bi104  1  0.30443278  -0.02249228  0.22237474  1
  Bi2+  Bi105  1  0.37239874  0.00359470  0.70958621  1
  Bi2+  Bi106  1  0.33872376  0.21654612  0.19968385  1
  Bi2+  Bi107  1  0.36281232  0.26234967  0.70589168  1
  Bi2+  Bi108  1  0.31368108  0.47271815  0.22224022  1
  Bi2+  Bi109  1  0.30962506  0.51040258  0.71140280  1
  Bi2+  Bi110  1  0.32347434  0.73647640  0.21651743  1
  Bi2+  Bi111  1  0.37962767  0.71426062  0.70173603  1
  Bi2+  Bi112  1  0.60992642  0.05361138  0.21225284  1
  Bi2+  Bi113  1  0.60798489  -0.09333828  0.71762400  1
  Bi2+  Bi114  1  0.63706481  0.25074095  0.21318596  1
  Bi2+  Bi115  1  0.67690322  0.25234688  0.69164118  1
  Bi2+  Bi116  1  0.64716054  0.44862683  0.22925555  1
  Bi2+  Bi117  1  0.60912169  0.50481292  0.71259929  1
  Bi2+  Bi118  1  0.62417532  0.76776272  0.18448357  1
  Bi2+  Bi119  1  0.57220637  0.71920102  0.67889041  1
  Bi2+  Bi120  1  0.85818745  0.08888745  0.21897589  1
  Bi2+  Bi121  1  0.89473322  -0.03928784  0.76649382  1
  Bi2+  Bi122  1  0.85093714  0.28515616  0.19582025  1
  Bi2+  Bi123  1  0.93334195  0.20450751  0.72002146  1
  Bi2+  Bi124  1  0.89621235  0.49182496  0.21540721  1
  Bi2+  Bi125  1  0.88806285  0.48305325  0.69096028  1
  Bi2+  Bi126  1  0.93552402  0.76179338  0.21520146  1
  Bi2+  Bi127  1  0.87422119  0.78306216  0.69160285  1
  S2-  S128  1  0.00950536  0.12729647  0.15958609  1
  S2-  S129  1  0.05023671  0.11856360  0.65922463  1
  S2-  S130  1  0.02050583  0.47693178  0.14359898  1
  S2-  S131  1  -0.04327399  0.32963604  0.66306034  1
  S2-  S132  1  -0.10914902  0.63218294  0.15591152  1
  S2-  S133  1  0.03198299  0.51434648  0.64095195  1
  S2-  S134  1  -0.00990649  0.89652799  0.15329958  1
  S2-  S135  1  0.01466894  0.87694931  0.65464750  1
  S2-  S136  1  0.24479222  0.09773533  0.14931047  1
  S2-  S137  1  0.34658313  0.13609342  0.63943750  1
  S2-  S138  1  0.26092038  0.35558397  0.14998981  1
  S2-  S139  1  0.32495802  0.39284949  0.63789346  1
  S2-  S140  1  0.31694042  0.60063272  0.14695556  1
  S2-  S141  1  0.25746996  0.64158662  0.64498496  1
  S2-  S142  1  0.34982459  0.86843081  0.14474371  1
  S2-  S143  1  0.24970879  0.91123981  0.64912052  1
  S2-  S144  1  0.47026886  0.15197239  0.15801583  1
  S2-  S145  1  0.58193452  0.12875527  0.67918322  1
  S2-  S146  1  0.49595108  0.43710049  0.14952729  1
  S2-  S147  1  0.52583705  0.32733580  0.67626707  1
  S2-  S148  1  0.47574814  0.68037196  0.20329665  1
  S2-  S149  1  0.50283199  0.53213397  0.64096963  1
  S2-  S150  1  0.55661482  0.92484236  0.16187253  1
  S2-  S151  1  0.48504004  0.95482596  0.64491050  1
  S2-  S152  1  0.75097133  0.03399307  0.14325006  1
  S2-  S153  1  0.81334889  0.15200937  0.65805887  1
  S2-  S154  1  0.77399203  0.44224716  0.14892243  1
  S2-  S155  1  0.74771522  0.41150569  0.65766252  1
  S2-  S156  1  0.64457259  0.59950589  0.16998699  1
  S2-  S157  1  0.85435816  0.63106560  0.63672853  1
  S2-  S158  1  0.78282670  0.83197938  0.18265276  1
  S2-  S159  1  0.75947766  0.89280101  0.65911007  1
  S2-  S160  1  0.10287549  0.02471058  0.34777692  1
  S2-  S161  1  0.14843367  -0.03657844  0.84185365  1
  S2-  S162  1  0.08182398  0.25411960  0.35016226  1
  S2-  S163  1  0.09001145  0.26855729  0.85089102  1
  S2-  S164  1  0.06920220  0.47286840  0.34658038  1
  S2-  S165  1  0.13082384  0.48971886  0.84164720  1
  S2-  S166  1  0.00986654  0.74686375  0.35498274  1
  S2-  S167  1  0.12108075  0.72323941  0.85403158  1
  S2-  S168  1  0.39965386  0.00557167  0.33719108  1
  S2-  S169  1  0.42264309  -0.01426734  0.84565962  1
  S2-  S170  1  0.31798534  0.21807879  0.33526676  1
  S2-  S171  1  0.46921198  0.23502798  0.84509839  1
  S2-  S172  1  0.42313932  0.45843320  0.33965170  1
  S2-  S173  1  0.38972289  0.45557089  0.83627030  1
  S2-  S174  1  0.44932522  0.76192996  0.34326538  1
  S2-  S175  1  0.37894437  0.72449802  0.84377253  1
  S2-  S176  1  0.62298390  -0.06918877  0.35371591  1
  S2-  S177  1  0.62189441  0.07844845  0.84831573  1
  S2-  S178  1  0.54007240  0.26107763  0.36559415  1
  S2-  S179  1  0.69542824  0.25370857  0.79215777  1
  S2-  S180  1  0.61177737  0.58396244  0.34709793  1
  S2-  S181  1  0.62479253  0.41848508  0.85342197  1
  S2-  S182  1  0.62152603  0.77910211  0.27942128  1
  S2-  S183  1  0.61950321  0.83861473  0.87358705  1
  S2-  S184  1  0.87061046  -0.08294361  0.35311902  1
  S2-  S185  1  0.86338635  0.07213766  0.84813850  1
  S2-  S186  1  0.86789144  0.14583880  0.36602311  1
  S2-  S187  1  0.87509225  0.30587321  0.84523956  1
  S2-  S188  1  0.84041358  0.52682466  0.33675404  1
  S2-  S189  1  0.88340971  0.52168745  0.83778660  1
  S2-  S190  1  0.77700145  0.73956780  0.34280871  1
  S2-  S191  1  0.87613156  0.77420554  0.85135495  1
  S2-  S192  1  0.00741707  0.13751177  0.46072670  1
  S2-  S193  1  0.00076573  0.11747759  0.95412102  1
  S2-  S194  1  0.00118149  0.38203918  0.45860849  1
  S2-  S195  1  -0.00163624  0.36672684  0.95932987  1
  S2-  S196  1  0.00217519  0.63149428  0.45837691  1
  S2-  S197  1  -0.00158913  0.61677648  0.95908859  1
  S2-  S198  1  0.00749349  0.89059723  0.45388919  1
  S2-  S199  1  0.00011368  0.86621081  0.95394212  1
  S2-  S200  1  0.25329863  0.13445550  0.45173683  1
  S2-  S201  1  0.25003580  0.12094522  0.94672833  1
  S2-  S202  1  0.25532629  0.38785947  0.44060784  1
  S2-  S203  1  0.24917764  0.36561922  0.94630468  1
  S2-  S204  1  0.25185758  0.63590635  0.44326409  1
  S2-  S205  1  0.24963832  0.61560606  0.95135173  1
  S2-  S206  1  0.24991616  0.88499756  0.44715167  1
  S2-  S207  1  0.25030781  0.86371216  0.95545065  1
  S2-  S208  1  0.50401204  0.12979412  0.46203033  1
  S2-  S209  1  0.49820892  0.11764856  0.95426857  1
  S2-  S210  1  0.50517565  0.39291654  0.46516435  1
  S2-  S211  1  0.50324597  0.36173537  0.95443246  1
  S2-  S212  1  0.50557453  0.63965107  0.45325629  1
  S2-  S213  1  0.50451334  0.61547138  0.94676101  1
  S2-  S214  1  0.50360177  0.88150844  0.45467574  1
  S2-  S215  1  0.49326873  0.86604465  0.96799996  1
  S2-  S216  1  0.74480731  0.13834566  0.46167333  1
  S2-  S217  1  0.74337221  0.12163227  0.95241345  1
  S2-  S218  1  0.75437176  0.38332655  0.45082003  1
  S2-  S219  1  0.74891879  0.36206115  0.95441995  1
  S2-  S220  1  0.75463328  0.63369816  0.45157091  1
  S2-  S221  1  0.74725592  0.61630213  0.94701535  1
  S2-  S222  1  0.75160068  0.88709730  0.45692241  1
  S2-  S223  1  0.75193897  0.86792689  0.96989803  1
  S2-  S224  1  0.12750597  -0.00685342  0.04712507  1
  S2-  S225  1  0.12975400  0.00809295  0.54823519  1
  S2-  S226  1  0.12637823  0.24255575  0.04968061  1
  S2-  S227  1  0.13290023  0.25941827  0.55138247  1
  S2-  S228  1  0.13095560  0.49410789  0.04376608  1
  S2-  S229  1  0.13392252  0.51222009  0.54127078  1
  S2-  S230  1  0.12671201  0.74047507  0.05534399  1
  S2-  S231  1  0.12375876  0.76082749  0.54212001  1
  S2-  S232  1  0.37312612  -0.00237771  0.04726852  1
  S2-  S233  1  0.37381128  0.00301207  0.54246807  1
  S2-  S234  1  0.37466483  0.24204122  0.04080049  1
  S2-  S235  1  0.37656876  0.25737855  0.53783562  1
  S2-  S236  1  0.37832601  0.49408179  0.04236959  1
  S2-  S237  1  0.37518984  0.51658153  0.53835231  1
  S2-  S238  1  0.38017624  0.73301616  0.04986129  1
  S2-  S239  1  0.37942838  0.76354564  0.54340443  1
  S2-  S240  1  0.62034971  -0.00760468  0.04507212  1
  S2-  S241  1  0.62715675  0.00730961  0.55130482  1
  S2-  S242  1  0.62516190  0.24294981  0.06078961  1
  S2-  S243  1  0.62282904  0.25845893  0.55719244  1
  S2-  S244  1  0.62527748  0.49597003  0.04986333  1
  S2-  S245  1  0.63532561  0.51264207  0.54507717  1
  S2-  S246  1  0.62683837  0.74166061  0.06325275  1
  S2-  S247  1  0.63263831  0.75942174  0.55449700  1
  S2-  S248  1  0.88046857  -0.00742275  0.04401650  1
  S2-  S249  1  0.87955656  0.00994064  0.54893282  1
  S2-  S250  1  0.87453835  0.24111090  0.04902530  1
  S2-  S251  1  0.87637498  0.25878799  0.54567288  1
  S2-  S252  1  0.87473366  0.49322361  0.04317219  1
  S2-  S253  1  0.87582035  0.50608963  0.54004326  1
  S2-  S254  1  0.87579943  0.74650320  0.05529799  1
  S2-  S255  1  0.87953470  0.76354145  0.53924723  1
