# generated using pymatgen
data_La12Ce14Pr13Nd13Sm12(BiS2)64
_symmetry_space_group_name_H-M   'P 1'
_cell_length_a   16.08193110
_cell_length_b   16.08726346
_cell_length_c   27.37188814
_cell_angle_alpha   90.15293663
_cell_angle_beta   89.66662996
_cell_angle_gamma   90.01107653
_symmetry_Int_Tables_number   1
_chemical_formula_structural   La12Ce14Pr13Nd13Sm12(BiS2)64
_chemical_formula_sum   'La12 Ce14 Pr13 Nd13 Sm12 Bi64 S128'
_cell_volume   7081.35264932
_cell_formula_units_Z   1
loop_
 _symmetry_equiv_pos_site_id
 _symmetry_equiv_pos_as_xyz
  1  'x, y, z'
loop_
 _atom_type_symbol
 _atom_type_oxidation_number
  La3+  3.0
  Ce3+  3.0
  Pr3+  3.0
  Nd3+  3.0
  Sm3+  3.0
  Bi2+  2.0
  S2-  -2.0
loop_
 _atom_site_type_symbol
 _atom_site_label
 _atom_site_symmetry_multiplicity
 _atom_site_fract_x
 _atom_site_fract_y
 _atom_site_fract_z
 _atom_site_occupancy
  La3+  La0  1  0.74647094  0.87016915  0.58255545  1
  La3+  La1  1  0.10755857  0.53020932  0.89259071  1
  La3+  La2  1  -0.00409644  0.13326507  0.08848323  1
  La3+  La3  1  0.38113265  -0.00674549  0.92027259  1
  La3+  La4  1  0.86325440  0.73764578  0.41566460  1
  La3+  La5  1  0.88043679  -0.01018942  0.92487738  1
  La3+  La6  1  -0.00744280  0.11911566  0.56303917  1
  La3+  La7  1  0.38104749  -0.00851126  0.41012906  1
  La3+  La8  1  -0.01271237  0.61994308  0.56911513  1
  La3+  La9  1  0.25531140  0.36790992  0.59143180  1
  La3+  La10  1  0.48147990  0.11791189  0.58530807  1
  La3+  La11  1  0.36912370  0.24319330  0.42983371  1
  Ce3+  Ce12  1  0.62676436  0.24280065  0.93983224  1
  Ce3+  Ce13  1  0.25207672  0.87733274  0.06585979  1
  Ce3+  Ce14  1  0.75797112  0.87045451  0.05434401  1
  Ce3+  Ce15  1  0.49871961  0.36927378  0.05792128  1
  Ce3+  Ce16  1  0.00771413  0.37156184  0.05057932  1
  Ce3+  Ce17  1  0.13314217  0.24978672  0.94298039  1
  Ce3+  Ce18  1  0.62102329  0.74672324  0.44241970  1
  Ce3+  Ce19  1  0.87593649  -0.00691483  0.43312452  1
  Ce3+  Ce20  1  0.75249768  0.62179201  0.05664210  1
  Ce3+  Ce21  1  0.62159276  0.49745700  0.94355207  1
  Ce3+  Ce22  1  0.37430912  0.74710184  0.94044775  1
  Ce3+  Ce23  1  0.49003915  0.61739241  0.54873291  1
  Ce3+  Ce24  1  0.37947444  0.49098267  0.92313824  1
  Ce3+  Ce25  1  0.24701797  0.11570067  0.55223781  1
  Pr3+  Pr26  1  0.86371096  0.23833381  0.42909738  1
  Pr3+  Pr27  1  -0.00662071  0.87500700  0.07893450  1
  Pr3+  Pr28  1  0.37483364  0.24401711  0.92726322  1
  Pr3+  Pr29  1  0.36602478  0.48959401  0.42910467  1
  Pr3+  Pr30  1  0.26104451  0.37244204  0.06384805  1
  Pr3+  Pr31  1  0.89129571  0.73329443  0.93295794  1
  Pr3+  Pr32  1  0.74210801  0.36614524  0.56672740  1
  Pr3+  Pr33  1  0.24057320  0.61803133  0.57313658  1
  Pr3+  Pr34  1  0.36774757  0.74167636  0.43175375  1
  Pr3+  Pr35  1  -0.01055472  0.86950421  0.55792612  1
  Pr3+  Pr36  1  -0.00653226  0.36792164  0.55903514  1
  Pr3+  Pr37  1  0.48886256  0.86453129  0.57517609  1
  Pr3+  Pr38  1  0.75357923  0.12040234  0.05839307  1
  Nd3+  Nd39  1  0.61747225  -0.00772127  0.45176829  1
  Nd3+  Nd40  1  0.62253543  0.49233721  0.43830814  1
  Nd3+  Nd41  1  0.00047372  0.61990970  0.07509485  1
  Nd3+  Nd42  1  0.11880937  0.24388182  0.44396276  1
  Nd3+  Nd43  1  0.49932651  0.86765046  0.06529477  1
  Nd3+  Nd44  1  0.12507313  -0.00311621  0.95398032  1
  Nd3+  Nd45  1  0.74143388  0.12073110  0.57031431  1
  Nd3+  Nd46  1  0.11803111  0.49384144  0.44471941  1
  Nd3+  Nd47  1  0.88228462  0.24848432  0.93163901  1
  Nd3+  Nd48  1  0.25237573  0.61788917  0.05862448  1
  Nd3+  Nd49  1  0.26431924  0.12505835  0.06586363  1
  Nd3+  Nd50  1  0.75091630  0.37016275  0.05391023  1
  Nd3+  Nd51  1  0.62674932  0.74587957  0.93765595  1
  Sm3+  Sm52  1  0.61821321  0.23762275  0.45069586  1
  Sm3+  Sm53  1  0.74345010  0.62033364  0.56306310  1
  Sm3+  Sm54  1  0.49977898  0.62536222  0.06434603  1
  Sm3+  Sm55  1  0.48991709  0.37114420  0.55307471  1
  Sm3+  Sm56  1  0.12633683  0.74712683  0.96026972  1
  Sm3+  Sm57  1  0.12189401  -0.00893655  0.42896413  1
  Sm3+  Sm58  1  0.11733380  0.74100540  0.44826415  1
  Sm3+  Sm59  1  0.87812248  0.49663867  0.94584594  1
  Sm3+  Sm60  1  0.50601085  0.10982306  0.05981843  1
  Sm3+  Sm61  1  0.86712898  0.49036845  0.44009857  1
  Sm3+  Sm62  1  0.63320747  -0.00769221  0.93209163  1
  Sm3+  Sm63  1  0.24610429  0.87178865  0.55322217  1
  Bi2+  Bi64  1  -0.01911676  0.17149397  0.31308722  1
  Bi2+  Bi65  1  -0.05422842  0.10784733  0.81253604  1
  Bi2+  Bi66  1  0.00469063  0.44112757  0.24615112  1
  Bi2+  Bi67  1  -0.04293961  0.31440915  0.79610872  1
  Bi2+  Bi68  1  0.01945938  0.61618677  0.30279831  1
  Bi2+  Bi69  1  -0.02098268  0.70494447  0.80118564  1
  Bi2+  Bi70  1  0.04617115  0.87059148  0.29382411  1
  Bi2+  Bi71  1  0.03045951  0.92753606  0.78725444  1
  Bi2+  Bi72  1  0.26620020  0.18365834  0.29004304  1
  Bi2+  Bi73  1  0.24099358  0.06727379  0.78440526  1
  Bi2+  Bi74  1  0.25292861  0.43841488  0.29984391  1
  Bi2+  Bi75  1  0.24335159  0.37251074  0.79675425  1
  Bi2+  Bi76  1  0.34728498  0.61187311  0.32057748  1
  Bi2+  Bi77  1  0.26880107  0.63457151  0.76868407  1
  Bi2+  Bi78  1  0.28023025  0.87511688  0.27730203  1
  Bi2+  Bi79  1  0.24239178  0.82841561  0.78494010  1
  Bi2+  Bi80  1  0.53652327  0.16283204  0.28743378  1
  Bi2+  Bi81  1  0.50280199  0.12441926  0.78826200  1
  Bi2+  Bi82  1  0.54989919  0.43181174  0.28555798  1
  Bi2+  Bi83  1  0.52691477  0.38062220  0.79172843  1
  Bi2+  Bi84  1  0.53189969  0.67535304  0.29479990  1
  Bi2+  Bi85  1  0.46532844  0.63504978  0.79484489  1
  Bi2+  Bi86  1  0.53570961  0.88452514  0.28708190  1
  Bi2+  Bi87  1  0.50944509  0.85044159  0.79615681  1
  Bi2+  Bi88  1  0.73662827  0.13951144  0.28410486  1
  Bi2+  Bi89  1  0.79201150  0.07026835  0.74253619  1
  Bi2+  Bi90  1  0.75472713  0.40252385  0.25784134  1
  Bi2+  Bi91  1  0.75099309  0.41709864  0.78961699  1
  Bi2+  Bi92  1  0.75175592  0.62704915  0.29230496  1
  Bi2+  Bi93  1  0.74697981  0.61534956  0.78898806  1
  Bi2+  Bi94  1  0.71217221  0.94407540  0.25060426  1
  Bi2+  Bi95  1  0.77270492  0.87999714  0.79151681  1
  Bi2+  Bi96  1  0.16891819  0.03307108  0.24801083  1
  Bi2+  Bi97  1  0.15530391  -0.06923903  0.68899928  1
  Bi2+  Bi98  1  0.09018048  0.26692701  0.22003828  1
  Bi2+  Bi99  1  0.09833436  0.18970348  0.75449880  1
  Bi2+  Bi100  1  0.17492076  0.51446738  0.20398563  1
  Bi2+  Bi101  1  0.11832381  0.46967948  0.70197444  1
  Bi2+  Bi102  1  0.19967793  0.69114601  0.25616064  1
  Bi2+  Bi103  1  0.09820352  0.74865227  0.71458347  1
  Bi2+  Bi104  1  0.39846726  0.02167019  0.19561466  1
  Bi2+  Bi105  1  0.35252821  -0.01351287  0.70662081  1
  Bi2+  Bi106  1  0.34451530  0.26596266  0.20269878  1
  Bi2+  Bi107  1  0.37185367  0.24194002  0.70840561  1
  Bi2+  Bi108  1  0.39827903  0.49952606  0.21834031  1
  Bi2+  Bi109  1  0.40633961  0.49619224  0.71139120  1
  Bi2+  Bi110  1  0.38456828  0.74536936  0.20844503  1
  Bi2+  Bi111  1  0.39264803  0.75140287  0.70938952  1
  Bi2+  Bi112  1  0.64571791  0.09691546  0.18449769  1
  Bi2+  Bi113  1  0.62117820  -0.06005155  0.71892374  1
  Bi2+  Bi114  1  0.60043790  0.29081227  0.20756020  1
  Bi2+  Bi115  1  0.65056532  0.29508740  0.71799130  1
  Bi2+  Bi116  1  0.58027074  0.56432780  0.20085976  1
  Bi2+  Bi117  1  0.68195775  0.47580222  0.67738390  1
  Bi2+  Bi118  1  0.64540737  0.76407128  0.21024699  1
  Bi2+  Bi119  1  0.61079805  0.65336240  0.71052657  1
  Bi2+  Bi120  1  0.90933315  0.00305849  0.20839243  1
  Bi2+  Bi121  1  0.95367053  -0.00514922  0.68907665  1
  Bi2+  Bi122  1  0.86152749  0.26363918  0.20798588  1
  Bi2+  Bi123  1  0.91107481  0.23826013  0.69411691  1
  Bi2+  Bi124  1  0.86117872  0.54132329  0.19716537  1
  Bi2+  Bi125  1  0.86875874  0.50933408  0.71584294  1
  Bi2+  Bi126  1  0.90364528  0.77590223  0.21182313  1
  Bi2+  Bi127  1  0.80909606  0.74759766  0.71007118  1
  S2-  S128  1  0.03964329  0.09596137  0.18732246  1
  S2-  S129  1  0.04974754  0.13874561  0.65791577  1
  S2-  S130  1  -0.01768467  0.29986505  0.13810284  1
  S2-  S131  1  -0.02310921  0.39555180  0.65806479  1
  S2-  S132  1  -0.00651287  0.65635110  0.17321381  1
  S2-  S133  1  0.09633098  0.61839255  0.64836547  1
  S2-  S134  1  0.03597524  0.87410898  0.18091442  1
  S2-  S135  1  -0.10447118  0.85182712  0.64397676  1
  S2-  S136  1  0.24528866  0.08233006  0.16351536  1
  S2-  S137  1  0.31918993  0.12733290  0.64089249  1
  S2-  S138  1  0.19940961  0.33261520  0.16068971  1
  S2-  S139  1  0.20445986  0.32063082  0.68930139  1
  S2-  S140  1  0.29882760  0.61239577  0.15435207  1
  S2-  S141  1  0.26566806  0.51231637  0.65305711  1
  S2-  S142  1  0.32541697  0.87651158  0.15344810  1
  S2-  S143  1  0.33778711  0.85364212  0.63628846  1
  S2-  S144  1  0.41950222  0.16402769  0.13994232  1
  S2-  S145  1  0.52170752  0.18533440  0.68401491  1
  S2-  S146  1  0.39735448  0.38484282  0.13672145  1
  S2-  S147  1  0.42013905  0.36706261  0.64309588  1
  S2-  S148  1  0.51013317  0.74199471  0.13978667  1
  S2-  S149  1  0.46154541  0.62098988  0.64409874  1
  S2-  S150  1  0.52548635  0.98474520  0.13877442  1
  S2-  S151  1  0.49704899  0.98338448  0.65268505  1
  S2-  S152  1  0.84379921  0.12270999  0.14551213  1
  S2-  S153  1  0.74167870  0.01562355  0.65179801  1
  S2-  S154  1  0.74150847  0.35610496  0.15267855  1
  S2-  S155  1  0.76614083  0.24681379  0.64139044  1
  S2-  S156  1  0.75850384  0.66216959  0.15134265  1
  S2-  S157  1  0.85527880  0.62616683  0.64024640  1
  S2-  S158  1  0.84143269  0.88393922  0.13921353  1
  S2-  S159  1  0.63344507  0.80799009  0.65672718  1
  S2-  S160  1  0.00975559  -0.00119169  0.35153226  1
  S2-  S161  1  0.15222878  -0.01824866  0.85443571  1
  S2-  S162  1  0.12764922  0.24235946  0.34364387  1
  S2-  S163  1  0.18443299  0.24944578  0.84962651  1
  S2-  S164  1  0.09364412  0.48816935  0.34538392  1
  S2-  S165  1  0.08207100  0.44945577  0.80049922  1
  S2-  S166  1  0.12350624  0.74111840  0.35010139  1
  S2-  S167  1  0.10633208  0.70478903  0.86528110  1
  S2-  S168  1  0.22895594  -0.01228172  0.34860099  1
  S2-  S169  1  0.37343637  0.12462135  0.84877421  1
  S2-  S170  1  0.39277723  0.13537581  0.34830568  1
  S2-  S171  1  0.38549313  0.35769263  0.84906415  1
  S2-  S172  1  0.37112167  0.36751196  0.35345408  1
  S2-  S173  1  0.26760850  0.52420083  0.84778997  1
  S2-  S174  1  0.39556865  0.84344843  0.35082835  1
  S2-  S175  1  0.36404687  0.84538814  0.85850157  1
  S2-  S176  1  0.56146869  -0.00526734  0.35674098  1
  S2-  S177  1  0.52805450  -0.00515454  0.85273386  1
  S2-  S178  1  0.63736897  0.23925034  0.35244332  1
  S2-  S179  1  0.58724046  0.23460572  0.84420832  1
  S2-  S180  1  0.68530664  0.48349704  0.34583751  1
  S2-  S181  1  0.53308897  0.51220649  0.85964338  1
  S2-  S182  1  0.70631968  0.73646491  0.35701679  1
  S2-  S183  1  0.64424532  0.77856581  0.84027476  1
  S2-  S184  1  0.83779485  0.10301861  0.36072014  1
  S2-  S185  1  0.74839976  0.00486314  0.85540097  1
  S2-  S186  1  0.90131195  0.30745831  0.33723542  1
  S2-  S187  1  0.82407738  0.23430017  0.83865580  1
  S2-  S188  1  0.88050179  0.58533736  0.35812555  1
  S2-  S189  1  0.92985111  0.58310913  0.86769975  1
  S2-  S190  1  0.90646505  0.80214758  0.31854368  1
  S2-  S191  1  0.90967953  0.84835117  0.85635731  1
  S2-  S192  1  -0.00192457  0.11848967  0.45589746  1
  S2-  S193  1  0.00492244  0.12400379  0.94543136  1
  S2-  S194  1  -0.00807599  0.36948891  0.45274783  1
  S2-  S195  1  0.00785505  0.38051096  0.94354648  1
  S2-  S196  1  -0.00673979  0.61796388  0.46010927  1
  S2-  S197  1  0.01144785  0.61419793  0.97154966  1
  S2-  S198  1  -0.00441648  0.86338396  0.45172256  1
  S2-  S199  1  0.00473337  0.86786029  0.96672519  1
  S2-  S200  1  0.24221030  0.11617470  0.44911882  1
  S2-  S201  1  0.25187510  0.11758615  0.95804728  1
  S2-  S202  1  0.23988643  0.36921944  0.45286370  1
  S2-  S203  1  0.25291006  0.37453268  0.95728418  1
  S2-  S204  1  0.24177376  0.61784085  0.45644504  1
  S2-  S205  1  0.24816546  0.62229562  0.95477535  1
  S2-  S206  1  0.24165885  0.86518691  0.45125784  1
  S2-  S207  1  0.24780298  0.87023071  0.96147637  1
  S2-  S208  1  0.49454025  0.11948485  0.46122157  1
  S2-  S209  1  0.50790635  0.11654359  0.95618279  1
  S2-  S210  1  0.50028942  0.36816693  0.45068108  1
  S2-  S211  1  0.50463454  0.36824318  0.95492777  1
  S2-  S212  1  0.49632496  0.61595586  0.44322878  1
  S2-  S213  1  0.50034275  0.62623148  0.95978359  1
  S2-  S214  1  0.49415412  0.86416794  0.46153172  1
  S2-  S215  1  0.50483765  0.86828355  0.95766220  1
  S2-  S216  1  0.73950491  0.11733977  0.46427192  1
  S2-  S217  1  0.75613017  0.12513440  0.95302779  1
  S2-  S218  1  0.74314986  0.36669446  0.45674556  1
  S2-  S219  1  0.75238762  0.37428221  0.94805538  1
  S2-  S220  1  0.74420172  0.61443974  0.45987605  1
  S2-  S221  1  0.75177191  0.61878691  0.95021097  1
  S2-  S222  1  0.74701260  0.87234349  0.45229864  1
  S2-  S223  1  0.75711634  0.86178112  0.95186231  1
  S2-  S224  1  0.12222524  0.00268676  0.05957150  1
  S2-  S225  1  0.11905706  -0.00811719  0.54134210  1
  S2-  S226  1  0.13030871  0.24255302  0.04811105  1
  S2-  S227  1  0.12454652  0.24740789  0.55066142  1
  S2-  S228  1  0.12728719  0.49519878  0.06451900  1
  S2-  S229  1  0.12183355  0.48896846  0.54933210  1
  S2-  S230  1  0.12663804  0.74704232  0.06489798  1
  S2-  S231  1  0.12031834  0.74856108  0.55145821  1
  S2-  S232  1  0.37741237  -0.00564849  0.03995904  1
  S2-  S233  1  0.36858219  -0.00781660  0.53971784  1
  S2-  S234  1  0.38158349  0.24480272  0.03433553  1
  S2-  S235  1  0.36695266  0.24820144  0.54051628  1
  S2-  S236  1  0.38211482  0.50320442  0.03866447  1
  S2-  S237  1  0.36604622  0.49293668  0.53713003  1
  S2-  S238  1  0.37256437  0.74568701  0.04495009  1
  S2-  S239  1  0.36343950  0.73830310  0.53867030  1
  S2-  S240  1  0.63435645  -0.00804375  0.03712773  1
  S2-  S241  1  0.61641622  -0.00829466  0.55401238  1
  S2-  S242  1  0.62521004  0.24436932  0.04791561  1
  S2-  S243  1  0.60961902  0.24456484  0.55469659  1
  S2-  S244  1  0.62424733  0.49799379  0.05088121  1
  S2-  S245  1  0.61778554  0.49347117  0.54506405  1
  S2-  S246  1  0.63060882  0.74612736  0.04325421  1
  S2-  S247  1  0.61895425  0.74024700  0.54579903  1
  S2-  S248  1  0.88198162  0.00122365  0.03806130  1
  S2-  S249  1  0.86742485  -0.00336048  0.54215068  1
  S2-  S250  1  0.87675828  0.24917188  0.03738599  1
  S2-  S251  1  0.86994573  0.24377124  0.53838143  1
  S2-  S252  1  0.87736832  0.49391283  0.05002166  1
  S2-  S253  1  0.86413680  0.49007560  0.54415585  1
  S2-  S254  1  0.88027674  0.74178353  0.04409362  1
  S2-  S255  1  0.86204979  0.74509438  0.53783086  1
