# generated using pymatgen
data_La12Ce14Pr13Nd13Sm12(BiS2)64
_symmetry_space_group_name_H-M   'P 1'
_cell_length_a   16.14819678
_cell_length_b   16.09747701
_cell_length_c   27.33771687
_cell_angle_alpha   90.05995705
_cell_angle_beta   89.95485365
_cell_angle_gamma   90.04728791
_symmetry_Int_Tables_number   1
_chemical_formula_structural   La12Ce14Pr13Nd13Sm12(BiS2)64
_chemical_formula_sum   'La12 Ce14 Pr13 Nd13 Sm12 Bi64 S128'
_cell_volume   7106.30048659
_cell_formula_units_Z   1
loop_
 _symmetry_equiv_pos_site_id
 _symmetry_equiv_pos_as_xyz
  1  'x, y, z'
loop_
 _atom_type_symbol
 _atom_type_oxidation_number
  La3+  3.0
  Ce3+  3.0
  Pr3+  3.0
  Nd3+  3.0
  Sm3+  3.0
  Bi2+  2.0
  S2-  -2.0
loop_
 _atom_site_type_symbol
 _atom_site_label
 _atom_site_symmetry_multiplicity
 _atom_site_fract_x
 _atom_site_fract_y
 _atom_site_fract_z
 _atom_site_occupancy
  La3+  La0  1  0.12289790  0.50300925  0.42757679  1
  La3+  La1  1  0.24150098  0.11844095  0.06254202  1
  La3+  La2  1  -0.01082617  0.61159896  0.08609827  1
  La3+  La3  1  0.86747179  0.49441515  0.92878212  1
  La3+  La4  1  0.86964894  0.75742506  0.41895420  1
  La3+  La5  1  0.11759121  0.23407224  0.89071347  1
  La3+  La6  1  0.61465435  0.24044109  0.93114597  1
  La3+  La7  1  0.26455550  0.13188253  0.58254867  1
  La3+  La8  1  0.25809625  0.37787630  0.55502807  1
  La3+  La9  1  0.36624977  0.50383243  0.37601206  1
  La3+  La10  1  0.00458688  0.89118002  0.10797230  1
  La3+  La11  1  0.25822567  0.86623550  0.60542737  1
  Ce3+  Ce12  1  0.25588621  0.62928642  0.55047910  1
  Ce3+  Ce13  1  0.87356164  0.24067771  0.94035197  1
  Ce3+  Ce14  1  0.75383278  0.12817755  0.56195101  1
  Ce3+  Ce15  1  0.87438777  0.74456877  0.94585734  1
  Ce3+  Ce16  1  0.36596517  0.24495625  0.93477071  1
  Ce3+  Ce17  1  0.00510197  0.37815563  0.55660305  1
  Ce3+  Ce18  1  0.49464451  0.86885632  0.06930413  1
  Ce3+  Ce19  1  0.87737597  0.50121106  0.43213321  1
  Ce3+  Ce20  1  0.62360055  0.50163916  0.43490818  1
  Ce3+  Ce21  1  0.50485339  0.12961549  0.56213693  1
  Ce3+  Ce22  1  0.62079230  -0.00879187  0.94633145  1
  Ce3+  Ce23  1  0.36882919  0.74340661  0.94686656  1
  Ce3+  Ce24  1  0.50050601  0.61851709  0.05585493  1
  Ce3+  Ce25  1  0.12155226  -0.01317317  0.93293852  1
  Pr3+  Pr26  1  0.88204159  0.00483476  0.43461502  1
  Pr3+  Pr27  1  0.61978950  0.74673604  0.94910198  1
  Pr3+  Pr28  1  0.63115154  0.25283338  0.43831268  1
  Pr3+  Pr29  1  0.75822710  0.87011102  0.57430400  1
  Pr3+  Pr30  1  0.50239350  0.87798251  0.55922776  1
  Pr3+  Pr31  1  0.25182380  0.36253687  0.07186740  1
  Pr3+  Pr32  1  0.87963834  0.24893676  0.43316058  1
  Pr3+  Pr33  1  0.36837712  -0.00555965  0.93975498  1
  Pr3+  Pr34  1  0.11805033  0.74535854  0.94953190  1
  Pr3+  Pr35  1  0.38050385  0.00389290  0.43853027  1
  Pr3+  Pr36  1  0.38050823  0.75140856  0.43380885  1
  Pr3+  Pr37  1  0.12085099  0.49102768  0.93367505  1
  Pr3+  Pr38  1  0.61896226  0.49278481  0.92890792  1
  Nd3+  Nd39  1  0.00338802  0.87658641  0.56234949  1
  Nd3+  Nd40  1  0.13043505  0.75367910  0.43636872  1
  Nd3+  Nd41  1  0.75638431  0.62373603  0.56270756  1
  Nd3+  Nd42  1  0.13349076  0.00204647  0.45043161  1
  Nd3+  Nd43  1  0.49766639  0.11946602  0.06299173  1
  Nd3+  Nd44  1  0.49986814  0.37188933  0.06299852  1
  Nd3+  Nd45  1  0.00587836  0.63117039  0.55455979  1
  Nd3+  Nd46  1  0.00315264  0.12535061  0.56598662  1
  Nd3+  Nd47  1  0.23945688  0.61568973  0.07301901  1
  Nd3+  Nd48  1  0.13629923  0.25070381  0.44310209  1
  Nd3+  Nd49  1  0.38539774  0.24784943  0.42474327  1
  Nd3+  Nd50  1  -0.00133234  0.12043179  0.05402958  1
  Nd3+  Nd51  1  0.74883707  0.11983479  0.05760587  1
  Sm3+  Sm52  1  0.50199166  0.62812923  0.55397234  1
  Sm3+  Sm53  1  0.50315204  0.37840831  0.55147809  1
  Sm3+  Sm54  1  0.87382882  -0.00549687  0.94306728  1
  Sm3+  Sm55  1  0.25114985  0.86715631  0.06962904  1
  Sm3+  Sm56  1  -0.00200701  0.37232434  0.05141544  1
  Sm3+  Sm57  1  0.74812354  0.36985030  0.05383488  1
  Sm3+  Sm58  1  0.74813850  0.61688740  0.06167865  1
  Sm3+  Sm59  1  0.63251190  0.00156955  0.44766017  1
  Sm3+  Sm60  1  0.63232788  0.75263201  0.44464360  1
  Sm3+  Sm61  1  0.75385673  0.86829107  0.06324967  1
  Sm3+  Sm62  1  0.75477245  0.38065927  0.55944512  1
  Sm3+  Sm63  1  0.36748821  0.49196389  0.94722598  1
  Bi2+  Bi64  1  -0.06065437  0.08934777  0.26343501  1
  Bi2+  Bi65  1  -0.03201528  0.11655329  0.79428609  1
  Bi2+  Bi66  1  -0.08892070  0.36612627  0.30558916  1
  Bi2+  Bi67  1  -0.00473718  0.37828804  0.78533565  1
  Bi2+  Bi68  1  0.04039118  0.61160578  0.28235609  1
  Bi2+  Bi69  1  0.03400727  0.64614984  0.81515972  1
  Bi2+  Bi70  1  0.02871672  0.85984490  0.31371983  1
  Bi2+  Bi71  1  -0.00046732  0.82979217  0.78896882  1
  Bi2+  Bi72  1  0.22527167  0.09071161  0.29874207  1
  Bi2+  Bi73  1  0.25650173  0.11293833  0.78616479  1
  Bi2+  Bi74  1  0.22047108  0.34790211  0.28281914  1
  Bi2+  Bi75  1  0.23648709  0.42982562  0.76637964  1
  Bi2+  Bi76  1  0.28000759  0.67195567  0.27094297  1
  Bi2+  Bi77  1  0.22175427  0.62076640  0.78979993  1
  Bi2+  Bi78  1  0.28361270  0.90284556  0.28232302  1
  Bi2+  Bi79  1  0.26178957  0.86330684  0.80149991  1
  Bi2+  Bi80  1  0.51610089  0.08676243  0.30019615  1
  Bi2+  Bi81  1  0.52859382  0.15706698  0.77604220  1
  Bi2+  Bi82  1  0.51244986  0.35049761  0.28360560  1
  Bi2+  Bi83  1  0.48541911  0.42448249  0.81009608  1
  Bi2+  Bi84  1  0.54545659  0.64536560  0.28414534  1
  Bi2+  Bi85  1  0.50407430  0.61763286  0.79527825  1
  Bi2+  Bi86  1  0.47731956  0.89379574  0.29844763  1
  Bi2+  Bi87  1  0.51440054  0.85797585  0.79973995  1
  Bi2+  Bi88  1  0.76014991  0.23487222  0.31708810  1
  Bi2+  Bi89  1  0.71681007  0.07082602  0.79574846  1
  Bi2+  Bi90  1  0.72785688  0.43104771  0.32881581  1
  Bi2+  Bi91  1  0.65834118  0.33918808  0.81352203  1
  Bi2+  Bi92  1  0.74128256  0.61077059  0.28506546  1
  Bi2+  Bi93  1  0.69648199  0.59342299  0.77751106  1
  Bi2+  Bi94  1  0.71942536  0.88937876  0.30102124  1
  Bi2+  Bi95  1  0.73429844  0.85581144  0.77896777  1
  Bi2+  Bi96  1  0.13883540  0.09249298  0.19511371  1
  Bi2+  Bi97  1  0.09922745  -0.01458662  0.71201496  1
  Bi2+  Bi98  1  0.04974715  0.25668137  0.24530414  1
  Bi2+  Bi99  1  0.12092741  0.24743370  0.68459204  1
  Bi2+  Bi100  1  0.10689495  0.48255027  0.21274353  1
  Bi2+  Bi101  1  0.10102056  0.51411947  0.69944389  1
  Bi2+  Bi102  1  0.17465849  0.78751306  0.20560801  1
  Bi2+  Bi103  1  0.11971303  0.71350489  0.70511176  1
  Bi2+  Bi104  1  0.37951845  0.02571450  0.21080734  1
  Bi2+  Bi105  1  0.46902460  -0.01162352  0.71995970  1
  Bi2+  Bi106  1  0.36408809  0.23188267  0.21079911  1
  Bi2+  Bi107  1  0.40510084  0.25696681  0.70576620  1
  Bi2+  Bi108  1  0.39007419  0.52394602  0.17552470  1
  Bi2+  Bi109  1  0.38396421  0.53002238  0.71809395  1
  Bi2+  Bi110  1  0.46804367  0.76752106  0.20043308  1
  Bi2+  Bi111  1  0.39839749  0.72261611  0.70573183  1
  Bi2+  Bi112  1  0.59138001  -0.06935303  0.19946274  1
  Bi2+  Bi113  1  0.65070187  -0.05004697  0.68797015  1
  Bi2+  Bi114  1  0.65914148  0.26851247  0.21919734  1
  Bi2+  Bi115  1  0.65198469  0.16673468  0.68595497  1
  Bi2+  Bi116  1  0.62493811  0.46674869  0.21776470  1
  Bi2+  Bi117  1  0.63458805  0.41932914  0.70657610  1
  Bi2+  Bi118  1  0.66701928  0.74745690  0.20903980  1
  Bi2+  Bi119  1  0.61217131  0.73448510  0.70910152  1
  Bi2+  Bi120  1  0.77666673  0.00716944  0.21865694  1
  Bi2+  Bi121  1  0.84626849  -0.00853974  0.71787374  1
  Bi2+  Bi122  1  0.85800148  0.23889263  0.20728571  1
  Bi2+  Bi123  1  0.78538347  0.29357726  0.72921810  1
  Bi2+  Bi124  1  0.86279752  0.48779935  0.20971671  1
  Bi2+  Bi125  1  0.83046698  0.48430604  0.72466806  1
  Bi2+  Bi126  1  0.87105371  0.75562579  0.21704962  1
  Bi2+  Bi127  1  0.87515770  0.75170305  0.70777141  1
  S2-  S128  1  -0.00654605  0.05937627  0.14785570  1
  S2-  S129  1  0.01380950  0.12092274  0.66597812  1
  S2-  S130  1  -0.01640215  0.44663012  0.14098186  1
  S2-  S131  1  0.01467364  0.38184869  0.65503816  1
  S2-  S132  1  0.07464442  0.64224501  0.17527801  1
  S2-  S133  1  -0.01970226  0.63679473  0.65420113  1
  S2-  S134  1  0.00757688  0.84571573  0.21117953  1
  S2-  S135  1  0.09604244  0.86215137  0.64777803  1
  S2-  S136  1  0.23707844  0.22350014  0.14625823  1
  S2-  S137  1  0.21359106  0.10121324  0.68076616  1
  S2-  S138  1  0.22679979  0.48283871  0.14387857  1
  S2-  S139  1  0.27357768  0.29809177  0.64441407  1
  S2-  S140  1  0.30111194  0.67610628  0.16351849  1
  S2-  S141  1  0.26005777  0.69680194  0.64080134  1
  S2-  S142  1  0.17117845  0.92960424  0.14907632  1
  S2-  S143  1  0.25192923  0.90912088  0.71174069  1
  S2-  S144  1  0.48261686  0.13725364  0.16171539  1
  S2-  S145  1  0.41699745  0.11936651  0.64590772  1
  S2-  S146  1  0.40825477  0.35663780  0.14768868  1
  S2-  S147  1  0.50377158  0.35263266  0.65033049  1
  S2-  S148  1  0.54968286  0.56792839  0.14445081  1
  S2-  S149  1  0.51478808  0.62111707  0.65260209  1
  S2-  S150  1  0.38331839  0.88099830  0.14385212  1
  S2-  S151  1  0.42417517  0.86678391  0.64870988  1
  S2-  S152  1  0.73146043  0.14182174  0.15531698  1
  S2-  S153  1  0.81001490  0.13030497  0.65337991  1
  S2-  S154  1  0.74492990  0.40270327  0.15026085  1
  S2-  S155  1  0.75427760  0.49328368  0.63497645  1
  S2-  S156  1  0.83940002  0.62124938  0.14695171  1
  S2-  S157  1  0.75355007  0.72990079  0.64380470  1
  S2-  S158  1  0.83680357  0.87960511  0.14977257  1
  S2-  S159  1  0.89004234  0.88695123  0.64298748  1
  S2-  S160  1  0.10078491  -0.00694403  0.35120995  1
  S2-  S161  1  0.11392755  0.06916521  0.84363074  1
  S2-  S162  1  0.13775762  0.23566040  0.34403615  1
  S2-  S163  1  0.09295921  0.23157767  0.77968863  1
  S2-  S164  1  0.20060326  0.48743116  0.33820187  1
  S2-  S165  1  0.12775741  0.39550153  0.84832930  1
  S2-  S166  1  0.14337006  0.72504723  0.33689029  1
  S2-  S167  1  0.12668509  0.84771781  0.86405839  1
  S2-  S168  1  0.36684813  0.10903604  0.35736614  1
  S2-  S169  1  0.34141847  0.00719955  0.83932138  1
  S2-  S170  1  0.36546977  0.33695379  0.33784700  1
  S2-  S171  1  0.27933566  0.23234817  0.84914807  1
  S2-  S172  1  0.36024786  0.52088837  0.26703279  1
  S2-  S173  1  0.33849565  0.47974156  0.85105931  1
  S2-  S174  1  0.39454134  0.67734071  0.34295455  1
  S2-  S175  1  0.38360423  0.77144873  0.85091257  1
  S2-  S176  1  0.65335574  0.02849053  0.35134565  1
  S2-  S177  1  0.58617649  0.02338714  0.85316891  1
  S2-  S178  1  0.54372817  0.23392575  0.35146263  1
  S2-  S179  1  0.48889806  0.25089076  0.85993879  1
  S2-  S180  1  0.53834358  0.50461467  0.34815445  1
  S2-  S181  1  0.73721926  0.49119157  0.85464638  1
  S2-  S182  1  0.71141310  0.74860794  0.35792241  1
  S2-  S183  1  0.63617396  0.78311359  0.85134094  1
  S2-  S184  1  0.87844832  -0.10058104  0.35383617  1
  S2-  S185  1  0.86590482  0.00553657  0.84493421  1
  S2-  S186  1  0.88823413  0.12785951  0.35766416  1
  S2-  S187  1  0.91506986  0.25365407  0.84574255  1
  S2-  S188  1  0.98619261  0.50195780  0.35541275  1
  S2-  S189  1  0.95275111  0.50377796  0.84025206  1
  S2-  S190  1  0.92848718  0.70839505  0.32146463  1
  S2-  S191  1  0.88795961  0.73662022  0.84720404  1
  S2-  S192  1  0.00935802  0.12884150  0.45936108  1
  S2-  S193  1  -0.00174245  0.11884543  0.94929778  1
  S2-  S194  1  0.00445150  0.37035075  0.45169587  1
  S2-  S195  1  -0.00402096  0.36566194  0.94959836  1
  S2-  S196  1  0.00034739  0.63521751  0.44944735  1
  S2-  S197  1  -0.00381330  0.61822484  0.95696453  1
  S2-  S198  1  0.00744149  0.87680376  0.45576758  1
  S2-  S199  1  -0.00923232  0.87133998  0.95485034  1
  S2-  S200  1  0.25568559  0.12816169  0.46191693  1
  S2-  S201  1  0.24132728  0.11846035  0.95467413  1
  S2-  S202  1  0.25803053  0.37829038  0.44824104  1
  S2-  S203  1  0.24723132  0.37037578  0.96115703  1
  S2-  S204  1  0.25679689  0.62460215  0.44486926  1
  S2-  S205  1  0.24483958  0.61829816  0.95804350  1
  S2-  S206  1  0.25653214  0.87769221  0.44002691  1
  S2-  S207  1  0.24920279  0.86795699  0.96468533  1
  S2-  S208  1  0.51036723  0.12359383  0.45851676  1
  S2-  S209  1  0.49472145  0.11516433  0.95824837  1
  S2-  S210  1  0.50305190  0.37648955  0.44962005  1
  S2-  S211  1  0.49504985  0.37366568  0.95800401  1
  S2-  S212  1  0.50896983  0.63239702  0.45114034  1
  S2-  S213  1  0.49474929  0.61718806  0.94932402  1
  S2-  S214  1  0.50820463  0.87744966  0.45071659  1
  S2-  S215  1  0.49351467  0.87018569  0.96122388  1
  S2-  S216  1  0.75293182  0.12719832  0.45758013  1
  S2-  S217  1  0.74615428  0.11780579  0.95164102  1
  S2-  S218  1  0.75572331  0.37708295  0.45578166  1
  S2-  S219  1  0.74457175  0.36169660  0.95122914  1
  S2-  S220  1  0.75177028  0.62277189  0.45506191  1
  S2-  S221  1  0.74359116  0.62282923  0.95651632  1
  S2-  S222  1  0.75177037  0.87951696  0.46304635  1
  S2-  S223  1  0.74919041  0.87138596  0.95798679  1
  S2-  S224  1  0.11776353  -0.00776671  0.04095952  1
  S2-  S225  1  0.13427250  0.00428453  0.55585731  1
  S2-  S226  1  0.11464171  0.24867174  0.05085240  1
  S2-  S227  1  0.12936716  0.25000725  0.54945454  1
  S2-  S228  1  0.11586547  0.49730949  0.04102594  1
  S2-  S229  1  0.12932896  0.50419384  0.54028145  1
  S2-  S230  1  0.11886926  0.74863376  0.05814366  1
  S2-  S231  1  0.13321395  0.75485238  0.54104448  1
  S2-  S232  1  0.37105892  -0.00217333  0.04726186  1
  S2-  S233  1  0.37408436  -0.00276894  0.54534838  1
  S2-  S234  1  0.37702362  0.24142158  0.04239336  1
  S2-  S235  1  0.38515021  0.25221318  0.53694644  1
  S2-  S236  1  0.37330711  0.49798129  0.04941060  1
  S2-  S237  1  0.38173347  0.50392497  0.55411536  1
  S2-  S238  1  0.37167068  0.73839956  0.05002985  1
  S2-  S239  1  0.37976017  0.75331426  0.54014947  1
  S2-  S240  1  0.62558492  -0.00746760  0.05406352  1
  S2-  S241  1  0.63027248  0.00189646  0.55251586  1
  S2-  S242  1  0.62283175  0.24557413  0.04457151  1
  S2-  S243  1  0.63142229  0.25726157  0.54710726  1
  S2-  S244  1  0.62705711  0.49264129  0.03741948  1
  S2-  S245  1  0.62467269  0.50205030  0.54090789  1
  S2-  S246  1  0.62678446  0.74581100  0.05634302  1
  S2-  S247  1  0.62674530  0.75079910  0.54718654  1
  S2-  S248  1  0.87224005  -0.00472455  0.04703240  1
  S2-  S249  1  0.87872680  0.00521254  0.54317150  1
  S2-  S250  1  0.87237115  0.24642927  0.04804873  1
  S2-  S251  1  0.87796477  0.25527243  0.54585065  1
  S2-  S252  1  0.86693953  0.49322069  0.03793893  1
  S2-  S253  1  0.88451306  0.50229199  0.53961798  1
  S2-  S254  1  0.87287085  0.74348683  0.04997654  1
  S2-  S255  1  0.87970543  0.74992557  0.53765964  1
