# generated using pymatgen
data_La12Ce14Pr13Nd13Sm12(BiS2)64
_symmetry_space_group_name_H-M   'P 1'
_cell_length_a   16.15519410
_cell_length_b   16.17523888
_cell_length_c   27.24722072
_cell_angle_alpha   89.92591823
_cell_angle_beta   89.98410576
_cell_angle_gamma   89.99368987
_symmetry_Int_Tables_number   1
_chemical_formula_structural   La12Ce14Pr13Nd13Sm12(BiS2)64
_chemical_formula_sum   'La12 Ce14 Pr13 Nd13 Sm12 Bi64 S128'
_cell_volume   7120.07733894
_cell_formula_units_Z   1
loop_
 _symmetry_equiv_pos_site_id
 _symmetry_equiv_pos_as_xyz
  1  'x, y, z'
loop_
 _atom_type_symbol
 _atom_type_oxidation_number
  La3+  3.0
  Ce3+  3.0
  Pr3+  3.0
  Nd3+  3.0
  Sm3+  3.0
  Bi2+  2.0
  S2-  -2.0
loop_
 _atom_site_type_symbol
 _atom_site_label
 _atom_site_symmetry_multiplicity
 _atom_site_fract_x
 _atom_site_fract_y
 _atom_site_fract_z
 _atom_site_occupancy
  La3+  La0  1  0.00417129  0.12219849  0.06138561  1
  La3+  La1  1  0.51512803  0.86925157  0.58080989  1
  La3+  La2  1  0.00641412  0.62347486  0.08064717  1
  La3+  La3  1  0.50358989  0.37399840  0.56582361  1
  La3+  La4  1  0.88226734  0.00342558  0.40464122  1
  La3+  La5  1  0.12828718  0.00371085  0.92510127  1
  La3+  La6  1  0.00387553  0.12857924  0.55802300  1
  La3+  La7  1  0.75303142  0.11690647  0.10372782  1
  La3+  La8  1  0.87681778  0.50315006  0.39696784  1
  La3+  La9  1  0.88228731  0.74143750  0.91416542  1
  La3+  La10  1  0.50398014  0.11464664  0.57041741  1
  La3+  La11  1  0.00567864  0.62676295  0.56127774  1
  Ce3+  Ce12  1  0.37619568  0.74516463  0.94518427  1
  Ce3+  Ce13  1  0.75376627  0.37123127  0.06906844  1
  Ce3+  Ce14  1  0.75543068  0.37636871  0.55206550  1
  Ce3+  Ce15  1  0.12739366  0.75297404  0.43727368  1
  Ce3+  Ce16  1  0.37943050  0.24662320  0.93802118  1
  Ce3+  Ce17  1  0.12649050  0.50455453  0.43049957  1
  Ce3+  Ce18  1  0.50766658  0.63007022  0.56377384  1
  Ce3+  Ce19  1  0.25442235  0.62820887  0.55123077  1
  Ce3+  Ce20  1  0.63183679  -0.00071099  0.43815549  1
  Ce3+  Ce21  1  0.63184945  0.24983478  0.43865791  1
  Ce3+  Ce22  1  0.87497248  0.50206416  0.95054136  1
  Ce3+  Ce23  1  0.75908649  0.62447827  0.55420860  1
  Ce3+  Ce24  1  0.37663128  0.49826613  0.94407094  1
  Ce3+  Ce25  1  0.00181972  0.87890079  0.55580330  1
  Pr3+  Pr26  1  0.87985145  0.25400340  0.42009524  1
  Pr3+  Pr27  1  0.87371627  -0.00565439  0.93231892  1
  Pr3+  Pr28  1  0.38291255  0.25195047  0.43936386  1
  Pr3+  Pr29  1  0.87428713  0.24417655  0.92747167  1
  Pr3+  Pr30  1  0.88156196  0.75238011  0.42752304  1
  Pr3+  Pr31  1  0.12170745  0.50151353  0.94303026  1
  Pr3+  Pr32  1  0.12036169  0.25023184  0.92616908  1
  Pr3+  Pr33  1  0.25433175  0.37877106  0.55132446  1
  Pr3+  Pr34  1  0.38403744  0.75488987  0.44356956  1
  Pr3+  Pr35  1  0.62925628  0.50311179  0.43152012  1
  Pr3+  Pr36  1  0.75098667  0.62420293  0.07080677  1
  Pr3+  Pr37  1  0.49790611  0.62105156  0.06981331  1
  Pr3+  Pr38  1  0.50250462  0.12239133  0.06692136  1
  Nd3+  Nd39  1  0.00036198  0.87519823  0.05831384  1
  Nd3+  Nd40  1  0.50173826  0.37045531  0.06044835  1
  Nd3+  Nd41  1  0.00137130  0.36898297  0.06343413  1
  Nd3+  Nd42  1  0.62723408  -0.00325450  0.94116408  1
  Nd3+  Nd43  1  0.13242608  0.00440268  0.43151104  1
  Nd3+  Nd44  1  0.75276377  0.87416123  0.06170884  1
  Nd3+  Nd45  1  0.62869896  0.24721882  0.94654086  1
  Nd3+  Nd46  1  0.25199133  0.62106243  0.06408475  1
  Nd3+  Nd47  1  0.37949721  0.00260431  0.43529639  1
  Nd3+  Nd48  1  0.75559206  0.12688229  0.55646566  1
  Nd3+  Nd49  1  0.62510698  0.74496461  0.94479606  1
  Nd3+  Nd50  1  0.25055479  0.87509343  0.05530052  1
  Nd3+  Nd51  1  0.38412309  0.50413503  0.43381549  1
  Sm3+  Sm52  1  0.37818956  -0.00115846  0.94513404  1
  Sm3+  Sm53  1  0.76516253  0.87686250  0.56221930  1
  Sm3+  Sm54  1  0.12711291  0.25549095  0.43769740  1
  Sm3+  Sm55  1  0.25305109  0.12739008  0.55487747  1
  Sm3+  Sm56  1  0.25081675  0.36976848  0.04935906  1
  Sm3+  Sm57  1  0.12447247  0.74817022  0.94235032  1
  Sm3+  Sm58  1  0.50046911  0.87389799  0.05849311  1
  Sm3+  Sm59  1  0.63368176  0.75397361  0.44386445  1
  Sm3+  Sm60  1  0.62886014  0.49945974  0.95122062  1
  Sm3+  Sm61  1  0.25048359  0.12599258  0.06316740  1
  Sm3+  Sm62  1  0.25421436  0.87909563  0.55512104  1
  Sm3+  Sm63  1  0.00403960  0.37740059  0.55127965  1
  Bi2+  Bi64  1  0.02392314  0.13595569  0.27724112  1
  Bi2+  Bi65  1  0.01289880  0.12433525  0.80827937  1
  Bi2+  Bi66  1  0.00888636  0.37358121  0.27843148  1
  Bi2+  Bi67  1  0.01613008  0.36201324  0.75913857  1
  Bi2+  Bi68  1  0.01486132  0.63851994  0.28227882  1
  Bi2+  Bi69  1  0.01282259  0.60634150  0.79302140  1
  Bi2+  Bi70  1  0.02540896  0.87939275  0.28101938  1
  Bi2+  Bi71  1  -0.04457514  0.84422499  0.78493988  1
  Bi2+  Bi72  1  0.27977654  0.14101438  0.28824188  1
  Bi2+  Bi73  1  0.24034410  0.11032540  0.75793922  1
  Bi2+  Bi74  1  0.26417052  0.38899549  0.29638675  1
  Bi2+  Bi75  1  0.22802320  0.33541213  0.75943507  1
  Bi2+  Bi76  1  0.25841097  0.58176146  0.30109680  1
  Bi2+  Bi77  1  0.20981392  0.58554299  0.80020592  1
  Bi2+  Bi78  1  0.30072880  0.89286704  0.28736373  1
  Bi2+  Bi79  1  0.23293046  0.78252440  0.78566220  1
  Bi2+  Bi80  1  0.52051854  0.09997506  0.29454181  1
  Bi2+  Bi81  1  0.48682296  0.11214929  0.80993705  1
  Bi2+  Bi82  1  0.45174172  0.37608776  0.28852623  1
  Bi2+  Bi83  1  0.49656250  0.35709113  0.80336763  1
  Bi2+  Bi84  1  0.44794109  0.63127719  0.29876061  1
  Bi2+  Bi85  1  0.49466023  0.65552781  0.80618926  1
  Bi2+  Bi86  1  0.49125513  0.92492818  0.33532020  1
  Bi2+  Bi87  1  0.50939294  0.87090962  0.80021355  1
  Bi2+  Bi88  1  0.74164416  0.13933044  0.28934370  1
  Bi2+  Bi89  1  0.77485851  0.11678935  0.76425643  1
  Bi2+  Bi90  1  0.73502897  0.37945232  0.27427431  1
  Bi2+  Bi91  1  0.75506877  0.31282540  0.80634342  1
  Bi2+  Bi92  1  0.74111655  0.63384722  0.27981841  1
  Bi2+  Bi93  1  0.76168035  0.63441002  0.79653569  1
  Bi2+  Bi94  1  0.75653779  0.88112261  0.28173540  1
  Bi2+  Bi95  1  0.73985346  0.88246247  0.73975002  1
  Bi2+  Bi96  1  0.17422773  0.00708280  0.21271538  1
  Bi2+  Bi97  1  0.12842054  -0.05206056  0.73514578  1
  Bi2+  Bi98  1  0.16462589  0.23675672  0.20982602  1
  Bi2+  Bi99  1  0.12227723  0.21889050  0.69006712  1
  Bi2+  Bi100  1  0.18985613  0.48849464  0.20715767  1
  Bi2+  Bi101  1  0.15753207  0.48108687  0.69341090  1
  Bi2+  Bi102  1  0.22335564  0.73379673  0.21617557  1
  Bi2+  Bi103  1  0.11054410  0.73830041  0.69914913  1
  Bi2+  Bi104  1  0.37287000  0.02263249  0.20732600  1
  Bi2+  Bi105  1  0.32863464  -0.05837352  0.72462595  1
  Bi2+  Bi106  1  0.35388316  0.20741981  0.17650809  1
  Bi2+  Bi107  1  0.38896887  0.28106283  0.70363528  1
  Bi2+  Bi108  1  0.36563789  0.57609475  0.18174181  1
  Bi2+  Bi109  1  0.37830838  0.53049518  0.74794265  1
  Bi2+  Bi110  1  0.41239644  0.76508128  0.19487535  1
  Bi2+  Bi111  1  0.35734914  0.70761437  0.70672408  1
  Bi2+  Bi112  1  0.61436393  -0.01298998  0.21422406  1
  Bi2+  Bi113  1  0.60233673  0.00308909  0.70358786  1
  Bi2+  Bi114  1  0.53630483  0.24793904  0.21622617  1
  Bi2+  Bi115  1  0.63125257  0.25959873  0.69515256  1
  Bi2+  Bi116  1  0.54472475  0.52494377  0.22053784  1
  Bi2+  Bi117  1  0.64645107  0.47011366  0.76383391  1
  Bi2+  Bi118  1  0.57826116  0.79821160  0.26567026  1
  Bi2+  Bi119  1  0.62304631  0.68827197  0.72135822  1
  Bi2+  Bi120  1  0.89440135  -0.01642302  0.21770794  1
  Bi2+  Bi121  1  0.89590516  -0.00655005  0.70918121  1
  Bi2+  Bi122  1  0.91745238  0.25983800  0.19936593  1
  Bi2+  Bi123  1  0.86374417  0.26676303  0.71049239  1
  Bi2+  Bi124  1  0.86178207  0.51028015  0.20031455  1
  Bi2+  Bi125  1  0.84277949  0.46069523  0.74484517  1
  Bi2+  Bi126  1  0.85595737  0.77757147  0.19932639  1
  Bi2+  Bi127  1  0.85040066  0.72927795  0.69779053  1
  S2-  S128  1  -0.08545944  0.11157240  0.14808944  1
  S2-  S129  1  0.00075202  0.10708345  0.65821292  1
  S2-  S130  1  -0.00667389  0.41034232  0.16126018  1
  S2-  S131  1  0.03772048  0.38183369  0.64864169  1
  S2-  S132  1  -0.03425597  0.65109639  0.18141984  1
  S2-  S133  1  -0.01013831  0.63847409  0.66267316  1
  S2-  S134  1  -0.01223056  0.87741468  0.15963938  1
  S2-  S135  1  -0.10192973  0.86937743  0.63479031  1
  S2-  S136  1  0.13308649  0.11745036  0.13660804  1
  S2-  S137  1  0.25987316  0.13859561  0.65240427  1
  S2-  S138  1  0.25151928  0.35548561  0.14695748  1
  S2-  S139  1  0.28408116  0.39404847  0.64924514  1
  S2-  S140  1  0.15167728  0.62623989  0.14436756  1
  S2-  S141  1  0.22359694  0.63338662  0.64799391  1
  S2-  S142  1  0.22368389  0.86858178  0.15380112  1
  S2-  S143  1  0.21741770  0.88582960  0.65139750  1
  S2-  S144  1  0.59646097  0.11946486  0.15108804  1
  S2-  S145  1  0.49566075  0.17396150  0.66641960  1
  S2-  S146  1  0.50676241  0.38517017  0.15896801  1
  S2-  S147  1  0.51613250  0.38264653  0.66641041  1
  S2-  S148  1  0.55025224  0.66607394  0.16173389  1
  S2-  S149  1  0.49961792  0.72531928  0.64704137  1
  S2-  S150  1  0.48941782  0.90959768  0.15391412  1
  S2-  S151  1  0.45777498  0.97646002  0.65169980  1
  S2-  S152  1  0.76080252  0.21866552  0.19667311  1
  S2-  S153  1  0.71130829  0.11863507  0.65407368  1
  S2-  S154  1  0.74301147  0.41982963  0.16596879  1
  S2-  S155  1  0.75091106  0.35653046  0.64961216  1
  S2-  S156  1  0.75781257  0.64785972  0.17141581  1
  S2-  S157  1  0.73603971  0.62743473  0.65241750  1
  S2-  S158  1  0.75004625  0.95485479  0.15011054  1
  S2-  S159  1  0.66432351  0.88206553  0.64476453  1
  S2-  S160  1  0.04073698  0.00350659  0.34502018  1
  S2-  S161  1  0.05780786  -0.03877101  0.83496733  1
  S2-  S162  1  0.08205626  0.25544987  0.34290797  1
  S2-  S163  1  0.16448599  0.13509876  0.85383968  1
  S2-  S164  1  0.03784783  0.50461531  0.34447688  1
  S2-  S165  1  0.09246922  0.48015997  0.84478503  1
  S2-  S166  1  0.10339502  0.75450064  0.33971830  1
  S2-  S167  1  0.03662700  0.72952986  0.85744601  1
  S2-  S168  1  0.26300401  0.01328926  0.35873330  1
  S2-  S169  1  0.37754904  0.01220714  0.84693243  1
  S2-  S170  1  0.41409815  0.21993266  0.34221085  1
  S2-  S171  1  0.38347773  0.24778925  0.83965917  1
  S2-  S172  1  0.49959895  0.49366008  0.35936421  1
  S2-  S173  1  0.40923569  0.48978117  0.84868398  1
  S2-  S174  1  0.36784273  0.76847536  0.34410560  1
  S2-  S175  1  0.38500999  0.77055137  0.84839126  1
  S2-  S176  1  0.72196647  0.00299155  0.35334696  1
  S2-  S177  1  0.59871250  -0.00009665  0.84101862  1
  S2-  S178  1  0.66819233  0.26976524  0.34184401  1
  S2-  S179  1  0.60400982  0.23525397  0.84652901  1
  S2-  S180  1  0.71997180  0.50005117  0.34073337  1
  S2-  S181  1  0.64578792  0.53643068  0.85631525  1
  S2-  S182  1  0.65009824  0.71724737  0.34720260  1
  S2-  S183  1  0.61557992  0.77499269  0.84625146  1
  S2-  S184  1  0.89064126  -0.14102750  0.34537555  1
  S2-  S185  1  0.86052948  0.11120128  0.85324040  1
  S2-  S186  1  0.88022696  0.14413878  0.33925009  1
  S2-  S187  1  0.99622299  0.27245234  0.85135240  1
  S2-  S188  1  0.87488738  0.35961321  0.33412710  1
  S2-  S189  1  0.88260171  0.58060452  0.86244886  1
  S2-  S190  1  0.88215280  0.65032652  0.33890072  1
  S2-  S191  1  0.84682155  0.87740901  0.85439762  1
  S2-  S192  1  0.00717628  0.13108400  0.45020860  1
  S2-  S193  1  0.00065413  0.12381123  0.95364182  1
  S2-  S194  1  0.00219720  0.37859997  0.44787214  1
  S2-  S195  1  -0.00383780  0.37570222  0.95748633  1
  S2-  S196  1  0.00402642  0.62593669  0.45212534  1
  S2-  S197  1  0.00174309  0.62566890  0.96763807  1
  S2-  S198  1  0.00706278  0.87988682  0.45196288  1
  S2-  S199  1  0.00217209  0.87072233  0.95364436  1
  S2-  S200  1  0.25200755  0.13511689  0.45164287  1
  S2-  S201  1  0.25785690  0.12328975  0.95937775  1
  S2-  S202  1  0.25572077  0.37865372  0.44411938  1
  S2-  S203  1  0.24978944  0.37271663  0.94360893  1
  S2-  S204  1  0.25687914  0.62786209  0.44521465  1
  S2-  S205  1  0.24865222  0.62394312  0.95568766  1
  S2-  S206  1  0.25436520  0.87524488  0.45149214  1
  S2-  S207  1  0.25126652  0.87310989  0.94783185  1
  S2-  S208  1  0.50515360  0.12433263  0.45586451  1
  S2-  S209  1  0.50217692  0.12109230  0.95843204  1
  S2-  S210  1  0.50669358  0.37396628  0.45711167  1
  S2-  S211  1  0.50508153  0.37489067  0.95459870  1
  S2-  S212  1  0.50824101  0.63133691  0.45703058  1
  S2-  S213  1  0.50200027  0.62046617  0.96105525  1
  S2-  S214  1  0.50900327  0.87581420  0.46354964  1
  S2-  S215  1  0.49942044  0.87259745  0.95446770  1
  S2-  S216  1  0.75755279  0.12972781  0.45137042  1
  S2-  S217  1  0.74652529  0.12251462  0.95170171  1
  S2-  S218  1  0.75654161  0.37817959  0.44844805  1
  S2-  S219  1  0.75175024  0.37465997  0.95804841  1
  S2-  S220  1  0.75623893  0.62561796  0.44989827  1
  S2-  S221  1  0.75080651  0.62679720  0.96328613  1
  S2-  S222  1  0.75607432  0.87508353  0.45507214  1
  S2-  S223  1  0.74726179  0.86812378  0.95711246  1
  S2-  S224  1  0.12941726  -0.00417065  0.03714414  1
  S2-  S225  1  0.13134286  0.00309129  0.54240916  1
  S2-  S226  1  0.12858298  0.25124589  0.03760034  1
  S2-  S227  1  0.13067006  0.25411607  0.54271683  1
  S2-  S228  1  0.12801416  0.49215111  0.04877234  1
  S2-  S229  1  0.12874088  0.50118570  0.53864784  1
  S2-  S230  1  0.12710671  0.75133578  0.04579766  1
  S2-  S231  1  0.12988353  0.75535759  0.54433824  1
  S2-  S232  1  0.37484850  -0.00001648  0.05049336  1
  S2-  S233  1  0.37182998  0.00307718  0.54047352  1
  S2-  S234  1  0.37673072  0.24746918  0.04447751  1
  S2-  S235  1  0.37855223  0.24844621  0.54680907  1
  S2-  S236  1  0.37451427  0.49351862  0.04960662  1
  S2-  S237  1  0.38207218  0.50520043  0.54184801  1
  S2-  S238  1  0.37561379  0.74902984  0.05157119  1
  S2-  S239  1  0.37618175  0.75493441  0.54901097  1
  S2-  S240  1  0.62409610  -0.00474616  0.04641491  1
  S2-  S241  1  0.63476542  0.00027335  0.54442168  1
  S2-  S242  1  0.62998061  0.24858422  0.05312957  1
  S2-  S243  1  0.62692184  0.24799518  0.54604105  1
  S2-  S244  1  0.62591287  0.49769302  0.05600483  1
  S2-  S245  1  0.62824974  0.50223364  0.54581898  1
  S2-  S246  1  0.62413105  0.75094310  0.05210431  1
  S2-  S247  1  0.63795363  0.74861985  0.54624384  1
  S2-  S248  1  0.87475612  -0.00345571  0.04206395  1
  S2-  S249  1  0.87929941  0.00573628  0.54186885  1
  S2-  S250  1  0.87357902  0.24828866  0.04761388  1
  S2-  S251  1  0.88081112  0.25392205  0.54227908  1
  S2-  S252  1  0.87779417  0.49911374  0.05565062  1
  S2-  S253  1  0.88291334  0.49825837  0.55460550  1
  S2-  S254  1  0.87736123  0.74911958  0.05770544  1
  S2-  S255  1  0.88117089  0.74954463  0.53695342  1
