# generated using pymatgen
data_La12Ce14Pr13Nd13Sm12(BiS2)64
_symmetry_space_group_name_H-M   'P 1'
_cell_length_a   16.07695763
_cell_length_b   16.08787781
_cell_length_c   27.30720859
_cell_angle_alpha   90.16405643
_cell_angle_beta   90.03613080
_cell_angle_gamma   90.05725871
_symmetry_Int_Tables_number   1
_chemical_formula_structural   La12Ce14Pr13Nd13Sm12(BiS2)64
_chemical_formula_sum   'La12 Ce14 Pr13 Nd13 Sm12 Bi64 S128'
_cell_volume   7062.81530907
_cell_formula_units_Z   1
loop_
 _symmetry_equiv_pos_site_id
 _symmetry_equiv_pos_as_xyz
  1  'x, y, z'
loop_
 _atom_type_symbol
 _atom_type_oxidation_number
  La3+  3.0
  Ce3+  3.0
  Pr3+  3.0
  Nd3+  3.0
  Sm3+  3.0
  Bi2+  2.0
  S2-  -2.0
loop_
 _atom_site_type_symbol
 _atom_site_label
 _atom_site_symmetry_multiplicity
 _atom_site_fract_x
 _atom_site_fract_y
 _atom_site_fract_z
 _atom_site_occupancy
  La3+  La0  1  0.84717673  0.74744525  0.91242286  1
  La3+  La1  1  0.62017396  0.20869552  0.88533685  1
  La3+  La2  1  0.47154542  0.88778803  0.10207223  1
  La3+  La3  1  0.73962829  0.88043273  0.07112501  1
  La3+  La4  1  0.12348878  0.01612427  0.45025541  1
  La3+  La5  1  0.73588088  0.38464684  0.07316016  1
  La3+  La6  1  0.87818000  0.25336610  0.42590092  1
  La3+  La7  1  0.48398871  0.61752048  0.09792943  1
  La3+  La8  1  0.60948053  0.49578635  0.93260422  1
  La3+  La9  1  0.49587856  0.14801321  0.57443446  1
  La3+  La10  1  0.10704112  0.00595186  0.91303064  1
  La3+  La11  1  0.50428027  0.89500030  0.57767263  1
  Ce3+  Ce12  1  0.36931938  0.00490997  0.93534170  1
  Ce3+  Ce13  1  0.25039639  0.14174554  0.56490965  1
  Ce3+  Ce14  1  0.87822566  0.01222745  0.45729519  1
  Ce3+  Ce15  1  0.62545155  0.76794838  0.43821535  1
  Ce3+  Ce16  1  0.23742628  0.88026282  0.05287636  1
  Ce3+  Ce17  1  0.12716566  0.76735112  0.44026020  1
  Ce3+  Ce18  1  0.24137562  0.63304741  0.05952037  1
  Ce3+  Ce19  1  -0.01222862  0.12846543  0.05146121  1
  Ce3+  Ce20  1  0.12628690  0.26075731  0.44168741  1
  Ce3+  Ce21  1  -0.01327919  0.63444174  0.05355808  1
  Ce3+  Ce22  1  0.38134808  0.51347208  0.43357858  1
  Ce3+  Ce23  1  0.00215978  0.39084394  0.55678884  1
  Ce3+  Ce24  1  0.00422786  0.63611706  0.55861379  1
  Ce3+  Ce25  1  0.85959005  0.50542296  0.94087341  1
  Pr3+  Pr26  1  0.85629082  0.25612793  0.93523356  1
  Pr3+  Pr27  1  -0.00579337  0.14822225  0.58653490  1
  Pr3+  Pr28  1  0.10826363  0.75938869  0.92129353  1
  Pr3+  Pr29  1  0.12837691  0.51311087  0.42436411  1
  Pr3+  Pr30  1  0.00655693  0.87933121  0.59178819  1
  Pr3+  Pr31  1  0.37835229  0.77168377  0.42771657  1
  Pr3+  Pr32  1  0.36074121  0.50523808  0.93467374  1
  Pr3+  Pr33  1  0.25500429  0.88613658  0.57035700  1
  Pr3+  Pr34  1  0.73627037  0.63351488  0.07022449  1
  Pr3+  Pr35  1  0.23525265  0.37951855  0.05976292  1
  Pr3+  Pr36  1  0.63320967  0.51527237  0.42222498  1
  Pr3+  Pr37  1  0.50358263  0.39599667  0.56560680  1
  Pr3+  Pr38  1  0.88191287  0.50936854  0.42510372  1
  Nd3+  Nd39  1  0.23542839  0.12745877  0.05099125  1
  Nd3+  Nd40  1  0.37901694  0.01471470  0.44160917  1
  Nd3+  Nd41  1  0.75464146  0.15045774  0.56996835  1
  Nd3+  Nd42  1  -0.01529289  0.88103535  0.04513470  1
  Nd3+  Nd43  1  0.10790997  0.25271620  0.92211877  1
  Nd3+  Nd44  1  0.62755444  0.01414297  0.44978683  1
  Nd3+  Nd45  1  0.75170024  0.39456938  0.55879213  1
  Nd3+  Nd46  1  0.87859634  0.76318865  0.43795901  1
  Nd3+  Nd47  1  0.25365328  0.64110872  0.54924024  1
  Nd3+  Nd48  1  0.85053824  0.01495992  0.92517793  1
  Nd3+  Nd49  1  0.62618208  0.26339021  0.43308528  1
  Nd3+  Nd50  1  0.48622437  0.37741695  0.05950926  1
  Nd3+  Nd51  1  0.75413000  0.88130725  0.56739618  1
  Sm3+  Sm52  1  0.75162252  0.63777506  0.55913073  1
  Sm3+  Sm53  1  0.36695006  0.75471775  0.94594300  1
  Sm3+  Sm54  1  0.36903298  0.25310580  0.93832148  1
  Sm3+  Sm55  1  -0.01305749  0.37962578  0.05333748  1
  Sm3+  Sm56  1  0.38266056  0.26325048  0.43672328  1
  Sm3+  Sm57  1  0.11767575  0.50566039  0.93865326  1
  Sm3+  Sm58  1  0.48588616  0.13030052  0.06298833  1
  Sm3+  Sm59  1  0.61160088  0.00086055  0.95583802  1
  Sm3+  Sm60  1  0.61090321  0.75270106  0.95708112  1
  Sm3+  Sm61  1  0.73820528  0.12937799  0.06985148  1
  Sm3+  Sm62  1  0.25195010  0.39159132  0.55033031  1
  Sm3+  Sm63  1  0.50270300  0.63597893  0.55464940  1
  Bi2+  Bi64  1  0.02163886  0.08856397  0.30405214  1
  Bi2+  Bi65  1  0.01584290  0.14602657  0.78361711  1
  Bi2+  Bi66  1  0.00740969  0.39916158  0.28465927  1
  Bi2+  Bi67  1  0.01496603  0.40439077  0.79460690  1
  Bi2+  Bi68  1  0.02629969  0.60127544  0.25524934  1
  Bi2+  Bi69  1  0.03296446  0.59907502  0.78552076  1
  Bi2+  Bi70  1  0.02175516  0.84294954  0.30574478  1
  Bi2+  Bi71  1  -0.00474463  0.88009489  0.78501063  1
  Bi2+  Bi72  1  0.29649316  0.16286289  0.32714208  1
  Bi2+  Bi73  1  0.25504286  0.18406858  0.73933148  1
  Bi2+  Bi74  1  0.19092928  0.34228692  0.32084560  1
  Bi2+  Bi75  1  0.25344198  0.35808821  0.79567358  1
  Bi2+  Bi76  1  0.22327557  0.53536282  0.29615406  1
  Bi2+  Bi77  1  0.22695923  0.62184475  0.79145702  1
  Bi2+  Bi78  1  0.24227550  0.92093127  0.27727495  1
  Bi2+  Bi79  1  0.25621569  0.81327188  0.77980659  1
  Bi2+  Bi80  1  0.53500323  0.11577524  0.30450712  1
  Bi2+  Bi81  1  0.47444366  0.11027873  0.79007113  1
  Bi2+  Bi82  1  0.39108422  0.32176048  0.28579332  1
  Bi2+  Bi83  1  0.53445130  0.39059991  0.79086105  1
  Bi2+  Bi84  1  0.50256600  0.60979151  0.29759504  1
  Bi2+  Bi85  1  0.47404651  0.63494147  0.78713721  1
  Bi2+  Bi86  1  0.49924749  0.85955947  0.30747572  1
  Bi2+  Bi87  1  0.49500881  0.84058726  0.78082673  1
  Bi2+  Bi88  1  0.80151912  0.15103391  0.26746121  1
  Bi2+  Bi89  1  0.72677721  0.03366362  0.79588933  1
  Bi2+  Bi90  1  0.74249527  0.37714456  0.30202321  1
  Bi2+  Bi91  1  0.80745497  0.43731542  0.80541901  1
  Bi2+  Bi92  1  0.80741962  0.63373701  0.27400563  1
  Bi2+  Bi93  1  0.68901345  0.62600064  0.79290039  1
  Bi2+  Bi94  1  0.79920917  0.94083485  0.28993275  1
  Bi2+  Bi95  1  0.77699746  0.84562993  0.79694950  1
  Bi2+  Bi96  1  0.12545779  0.01108999  0.19994895  1
  Bi2+  Bi97  1  0.16604130  0.00824560  0.72487925  1
  Bi2+  Bi98  1  0.16866275  0.19520191  0.23822344  1
  Bi2+  Bi99  1  0.12717559  0.34177962  0.70417177  1
  Bi2+  Bi100  1  0.14741893  0.46250838  0.19655278  1
  Bi2+  Bi101  1  0.06331390  0.52105235  0.67605171  1
  Bi2+  Bi102  1  0.15777994  0.75135611  0.23715753  1
  Bi2+  Bi103  1  0.12604988  0.72861400  0.70108474  1
  Bi2+  Bi104  1  0.38219081  0.04822070  0.24184786  1
  Bi2+  Bi105  1  0.36301224  -0.03324549  0.73714232  1
  Bi2+  Bi106  1  0.44712193  0.21513176  0.19356737  1
  Bi2+  Bi107  1  0.40103000  0.31413654  0.71325974  1
  Bi2+  Bi108  1  0.34796728  0.48245845  0.20992576  1
  Bi2+  Bi109  1  0.33325280  0.49948785  0.72589680  1
  Bi2+  Bi110  1  0.35174691  0.76664721  0.21178919  1
  Bi2+  Bi111  1  0.41157084  0.72030729  0.68754602  1
  Bi2+  Bi112  1  0.65771686  0.02910260  0.22826283  1
  Bi2+  Bi113  1  0.61390366  -0.08962403  0.69867143  1
  Bi2+  Bi114  1  0.63642502  0.23032936  0.22048579  1
  Bi2+  Bi115  1  0.64047147  0.17482579  0.68659138  1
  Bi2+  Bi116  1  0.61141092  0.47923635  0.21933493  1
  Bi2+  Bi117  1  0.61533513  0.50203313  0.70844800  1
  Bi2+  Bi118  1  0.66072119  0.75736617  0.23337305  1
  Bi2+  Bi119  1  0.60937951  0.70802502  0.69567756  1
  Bi2+  Bi120  1  0.90515610  -0.03626685  0.19814493  1
  Bi2+  Bi121  1  0.79402105  -0.01678025  0.69231439  1
  Bi2+  Bi122  1  0.96747913  0.22774594  0.21898328  1
  Bi2+  Bi123  1  0.86327311  0.32924442  0.71684029  1
  Bi2+  Bi124  1  0.87154659  0.44497837  0.18703845  1
  Bi2+  Bi125  1  0.87192834  0.52621316  0.70245057  1
  Bi2+  Bi126  1  0.89936520  0.73972717  0.19784687  1
  Bi2+  Bi127  1  0.84773205  0.72674963  0.71821777  1
  S2-  S128  1  -0.01603462  0.09967753  0.14870714  1
  S2-  S129  1  0.07074605  0.11658414  0.68211585  1
  S2-  S130  1  0.01904355  0.35925746  0.14940582  1
  S2-  S131  1  -0.01423977  0.30759030  0.64318256  1
  S2-  S132  1  -0.03699633  0.59746540  0.14872397  1
  S2-  S133  1  -0.01458680  0.72244638  0.64404578  1
  S2-  S134  1  -0.00407253  0.85176637  0.14476228  1
  S2-  S135  1  -0.05433183  0.91847323  0.68836432  1
  S2-  S136  1  0.22720832  0.11366932  0.15060703  1
  S2-  S137  1  0.32965689  0.15231722  0.65004141  1
  S2-  S138  1  0.27253302  0.35945601  0.15733015  1
  S2-  S139  1  0.28050895  0.40233123  0.64737914  1
  S2-  S140  1  0.32648637  0.62865117  0.14717244  1
  S2-  S141  1  0.26591382  0.66251572  0.64780078  1
  S2-  S142  1  0.30455940  0.87453506  0.14435251  1
  S2-  S143  1  0.15186894  0.88373594  0.65353092  1
  S2-  S144  1  0.46682857  0.04972223  0.14984598  1
  S2-  S145  1  0.53343725  0.04188423  0.65377882  1
  S2-  S146  1  0.49496690  0.45335965  0.15061822  1
  S2-  S147  1  0.51793265  0.28191026  0.64460130  1
  S2-  S148  1  0.55825830  0.63643764  0.19510551  1
  S2-  S149  1  0.50272952  0.53044059  0.63511653  1
  S2-  S150  1  0.51508341  0.84160303  0.19981827  1
  S2-  S151  1  0.37623608  0.87667021  0.64567822  1
  S2-  S152  1  0.75589800  0.01052778  0.14308287  1
  S2-  S153  1  0.85249132  0.12360601  0.65315352  1
  S2-  S154  1  0.78211811  0.31352726  0.16506210  1
  S2-  S155  1  0.74202061  0.28880748  0.64268891  1
  S2-  S156  1  0.73303908  0.51710389  0.14846775  1
  S2-  S157  1  0.74347928  0.51870114  0.63301873  1
  S2-  S158  1  0.74766699  0.75974778  0.14725215  1
  S2-  S159  1  0.75334912  0.75110737  0.63864005  1
  S2-  S160  1  0.12795276  -0.02915582  0.35183453  1
  S2-  S161  1  0.13755438  0.13892912  0.84356586  1
  S2-  S162  1  0.02728187  0.21209009  0.36676275  1
  S2-  S163  1  -0.02721747  0.26458115  0.85187512  1
  S2-  S164  1  0.01028312  0.53902563  0.34992244  1
  S2-  S165  1  0.23122964  0.49757353  0.86242396  1
  S2-  S166  1  0.14280563  0.74062314  0.34448816  1
  S2-  S167  1  0.14157761  0.87885970  0.84380638  1
  S2-  S168  1  0.37059602  -0.08716429  0.35982760  1
  S2-  S169  1  0.35488253  0.02887646  0.83878686  1
  S2-  S170  1  0.49694828  0.25875668  0.36083978  1
  S2-  S171  1  0.45148208  0.24582129  0.85085947  1
  S2-  S172  1  0.38466540  0.49999110  0.33617356  1
  S2-  S173  1  0.47659941  0.50274286  0.85432165  1
  S2-  S174  1  0.39496194  0.71855354  0.32710261  1
  S2-  S175  1  0.38603186  0.76000560  0.84751968  1
  S2-  S176  1  0.60510408  -0.02746260  0.35339508  1
  S2-  S177  1  0.58940504  0.03311730  0.85830412  1
  S2-  S178  1  0.73402316  0.23346992  0.35304372  1
  S2-  S179  1  0.62940709  0.20915824  0.77663126  1
  S2-  S180  1  0.59097545  0.45748724  0.32530431  1
  S2-  S181  1  0.66059353  0.37719533  0.85792238  1
  S2-  S182  1  0.61905456  0.73898231  0.33935216  1
  S2-  S183  1  0.67939307  0.75860813  0.86423724  1
  S2-  S184  1  0.87677694  0.03701752  0.35977182  1
  S2-  S185  1  0.96137156  0.01060976  0.84165705  1
  S2-  S186  1  0.88370041  0.37545086  0.35152870  1
  S2-  S187  1  0.78875304  0.14817684  0.86204878  1
  S2-  S188  1  0.76502301  0.54422627  0.34915735  1
  S2-  S189  1  0.82987198  0.58874089  0.85606758  1
  S2-  S190  1  0.88569186  0.76308903  0.33674976  1
  S2-  S191  1  0.98442355  0.74335373  0.84419344  1
  S2-  S192  1  -0.00012168  0.13587807  0.47498503  1
  S2-  S193  1  -0.01552250  0.12990522  0.94862901  1
  S2-  S194  1  0.00929280  0.38778098  0.45262346  1
  S2-  S195  1  -0.00891925  0.38467523  0.95014383  1
  S2-  S196  1  0.00498721  0.64145907  0.45300337  1
  S2-  S197  1  -0.00752608  0.62604861  0.94839694  1
  S2-  S198  1  0.00123629  0.88720428  0.45658884  1
  S2-  S199  1  -0.02304973  0.88038995  0.94235042  1
  S2-  S200  1  0.25519085  0.14026080  0.45747726  1
  S2-  S201  1  0.24156753  0.13071324  0.94681653  1
  S2-  S202  1  0.25603044  0.38699626  0.44557016  1
  S2-  S203  1  0.23640883  0.36957457  0.95339505  1
  S2-  S204  1  0.25472060  0.63946304  0.44316393  1
  S2-  S205  1  0.23516761  0.63782533  0.95355755  1
  S2-  S206  1  0.25147370  0.89007079  0.46182675  1
  S2-  S207  1  0.24197615  0.88008696  0.94892480  1
  S2-  S208  1  0.50180167  0.13618112  0.46227955  1
  S2-  S209  1  0.49145352  0.13150374  0.95909132  1
  S2-  S210  1  0.50178872  0.39146653  0.45481150  1
  S2-  S211  1  0.48249987  0.37695213  0.95705178  1
  S2-  S212  1  0.50235333  0.64049504  0.44899614  1
  S2-  S213  1  0.48851907  0.63288859  0.95282575  1
  S2-  S214  1  0.50270591  0.89099525  0.46540883  1
  S2-  S215  1  0.49055885  0.87770678  0.95055431  1
  S2-  S216  1  0.75143612  0.13542718  0.46300667  1
  S2-  S217  1  0.72472675  0.13316009  0.96790157  1
  S2-  S218  1  0.75037054  0.38787297  0.45174323  1
  S2-  S219  1  0.74426421  0.38269024  0.96589110  1
  S2-  S220  1  0.75116030  0.64566912  0.45395205  1
  S2-  S221  1  0.73169207  0.62659225  0.96351356  1
  S2-  S222  1  0.75232327  0.88684075  0.45821035  1
  S2-  S223  1  0.73631403  0.88290219  0.95947149  1
  S2-  S224  1  0.11243601  0.00278341  0.03566896  1
  S2-  S225  1  0.12454667  0.01675687  0.55800307  1
  S2-  S226  1  0.11123229  0.25473992  0.03780618  1
  S2-  S227  1  0.13029116  0.26634621  0.54899236  1
  S2-  S228  1  0.11292635  0.50604992  0.04327600  1
  S2-  S229  1  0.13128844  0.51422802  0.53556207  1
  S2-  S230  1  0.11339998  0.75651848  0.03837034  1
  S2-  S231  1  0.12668875  0.76405342  0.54528150  1
  S2-  S232  1  0.36305679  0.00508111  0.04171905  1
  S2-  S233  1  0.37521441  0.01645249  0.54687231  1
  S2-  S234  1  0.36128436  0.25199430  0.04508376  1
  S2-  S235  1  0.37398724  0.27065485  0.54049283  1
  S2-  S236  1  0.36054446  0.50449800  0.04290075  1
  S2-  S237  1  0.37431223  0.51537661  0.53820439  1
  S2-  S238  1  0.36815941  0.75530527  0.04859514  1
  S2-  S239  1  0.38216532  0.76072257  0.53894068  1
  S2-  S240  1  0.60532939  0.00187817  0.05698488  1
  S2-  S241  1  0.63846769  0.01355739  0.55377126  1
  S2-  S242  1  0.61048915  0.25064144  0.06854968  1
  S2-  S243  1  0.62561982  0.26709803  0.53874636  1
  S2-  S244  1  0.60480247  0.50873848  0.04587916  1
  S2-  S245  1  0.62669921  0.51805103  0.53066356  1
  S2-  S246  1  0.59680885  0.75687657  0.06066111  1
  S2-  S247  1  0.62209919  0.76176156  0.54479520  1
  S2-  S248  1  0.86187033  0.00746988  0.03640578  1
  S2-  S249  1  0.88253185  0.00190111  0.55915276  1
  S2-  S250  1  0.86356780  0.25275622  0.04676143  1
  S2-  S251  1  0.87679469  0.26922203  0.53875537  1
  S2-  S252  1  0.86743988  0.50569688  0.04521644  1
  S2-  S253  1  0.88093541  0.51617141  0.53710689  1
  S2-  S254  1  0.86205224  0.75443685  0.03744671  1
  S2-  S255  1  0.87926863  0.76063132  0.54209773  1
