# generated using pymatgen
data_La12Ce14Pr13Nd13Sm12(BiS2)64
_symmetry_space_group_name_H-M   'P 1'
_cell_length_a   16.14204895
_cell_length_b   16.07187422
_cell_length_c   27.33039963
_cell_angle_alpha   89.75085910
_cell_angle_beta   90.04370443
_cell_angle_gamma   89.90471692
_symmetry_Int_Tables_number   1
_chemical_formula_structural   La12Ce14Pr13Nd13Sm12(BiS2)64
_chemical_formula_sum   'La12 Ce14 Pr13 Nd13 Sm12 Bi64 S128'
_cell_volume   7090.32809193
_cell_formula_units_Z   1
loop_
 _symmetry_equiv_pos_site_id
 _symmetry_equiv_pos_as_xyz
  1  'x, y, z'
loop_
 _atom_type_symbol
 _atom_type_oxidation_number
  La3+  3.0
  Ce3+  3.0
  Pr3+  3.0
  Nd3+  3.0
  Sm3+  3.0
  Bi2+  2.0
  S2-  -2.0
loop_
 _atom_site_type_symbol
 _atom_site_label
 _atom_site_symmetry_multiplicity
 _atom_site_fract_x
 _atom_site_fract_y
 _atom_site_fract_z
 _atom_site_occupancy
  La3+  La0  1  0.85705525  0.26056679  0.91184388  1
  La3+  La1  1  0.23358950  0.12681443  0.10832750  1
  La3+  La2  1  0.74710413  0.13726862  0.58289452  1
  La3+  La3  1  0.24085221  0.63504607  0.56278419  1
  La3+  La4  1  0.49280798  0.13214454  0.57820908  1
  La3+  La5  1  0.87145538  0.50409018  0.40265898  1
  La3+  La6  1  0.10638470  0.00327517  0.41502231  1
  La3+  La7  1  0.61197588  0.50528231  0.39934815  1
  La3+  La8  1  0.11768935  0.25263641  0.92871498  1
  La3+  La9  1  0.86014722  0.00870150  0.44380828  1
  La3+  La10  1  0.01960919  0.11713226  0.61523617  1
  La3+  La11  1  0.37859785  0.02434101  0.41325984  1
  Ce3+  Ce12  1  0.74155016  0.38479752  0.55955810  1
  Ce3+  Ce13  1  0.61210468  0.25140255  0.93378092  1
  Ce3+  Ce14  1  -0.01173096  0.62838412  0.56603898  1
  Ce3+  Ce15  1  0.23016252  0.62841190  0.07205733  1
  Ce3+  Ce16  1  0.36538665  0.50820715  0.43803538  1
  Ce3+  Ce17  1  0.61834070  0.00920986  0.44529623  1
  Ce3+  Ce18  1  0.48841656  0.37322281  0.05981921  1
  Ce3+  Ce19  1  0.11168286  0.75713946  0.43894533  1
  Ce3+  Ce20  1  0.61430084  0.75075144  0.94012890  1
  Ce3+  Ce21  1  0.61524894  0.50349396  0.94826468  1
  Ce3+  Ce22  1  0.23947380  0.37192571  0.05403224  1
  Ce3+  Ce23  1  0.23753484  0.89055679  0.54839448  1
  Ce3+  Ce24  1  0.49160726  0.62657741  0.07349679  1
  Ce3+  Ce25  1  0.61440083  0.00368010  0.94443780  1
  Pr3+  Pr26  1  0.12263846  0.00160715  0.93765618  1
  Pr3+  Pr27  1  0.11610234  0.75638792  0.93670030  1
  Pr3+  Pr28  1  0.49094462  0.87447428  0.06544460  1
  Pr3+  Pr29  1  0.48820666  0.12600096  0.06667977  1
  Pr3+  Pr30  1  -0.00777328  0.37229929  0.04883352  1
  Pr3+  Pr31  1  -0.01454104  0.62911815  0.05954196  1
  Pr3+  Pr32  1  0.74248570  0.36696555  0.06739243  1
  Pr3+  Pr33  1  0.85972206  0.75217249  0.43647848  1
  Pr3+  Pr34  1  -0.00639334  0.12608089  0.04988555  1
  Pr3+  Pr35  1  0.11592598  0.50935585  0.43655862  1
  Pr3+  Pr36  1  0.11805292  0.50935615  0.93086621  1
  Pr3+  Pr37  1  0.36422153  0.76051546  0.43380062  1
  Pr3+  Pr38  1  0.48910556  0.38255307  0.56914470  1
  Nd3+  Nd39  1  0.37066192  0.74848142  0.93691395  1
  Nd3+  Nd40  1  0.86395661  0.26053042  0.44584241  1
  Nd3+  Nd41  1  0.85699440  0.75131972  0.93034929  1
  Nd3+  Nd42  1  0.86026739  0.50451789  0.93926668  1
  Nd3+  Nd43  1  0.61490769  0.26151630  0.44397115  1
  Nd3+  Nd44  1  0.48993486  0.63195450  0.55401318  1
  Nd3+  Nd45  1  -0.01041673  0.38273355  0.56747727  1
  Nd3+  Nd46  1  0.74324666  0.87473967  0.05931167  1
  Nd3+  Nd47  1  0.73644295  0.87552287  0.57701600  1
  Nd3+  Nd48  1  0.61558204  0.75850317  0.43501713  1
  Nd3+  Nd49  1  0.37135514  0.25216207  0.93580363  1
  Nd3+  Nd50  1  0.86481651  -0.00423072  0.91966929  1
  Nd3+  Nd51  1  -0.01343491  0.88339321  0.55876499  1
  Sm3+  Sm52  1  -0.00678944  0.87995835  0.05760725  1
  Sm3+  Sm53  1  0.73656619  0.61663544  0.07461810  1
  Sm3+  Sm54  1  0.73720171  0.63305971  0.55393424  1
  Sm3+  Sm55  1  0.36621659  0.50607491  0.95378583  1
  Sm3+  Sm56  1  0.48737208  0.88468591  0.55300138  1
  Sm3+  Sm57  1  0.23689671  0.37895058  0.55536744  1
  Sm3+  Sm58  1  0.74433045  0.12937262  0.05398508  1
  Sm3+  Sm59  1  0.23744565  0.13041267  0.54887685  1
  Sm3+  Sm60  1  0.36826889  0.26013343  0.44709703  1
  Sm3+  Sm61  1  0.11047580  0.25818162  0.44318630  1
  Sm3+  Sm62  1  0.36564621  0.00176227  0.94719864  1
  Sm3+  Sm63  1  0.24122344  0.87389006  0.06725733  1
  Bi2+  Bi64  1  -0.00539581  0.14524391  0.30219845  1
  Bi2+  Bi65  1  0.03615718  0.11250183  0.81713059  1
  Bi2+  Bi66  1  0.00089838  0.37862554  0.28915970  1
  Bi2+  Bi67  1  0.05968780  0.36215378  0.79231872  1
  Bi2+  Bi68  1  0.07646938  0.67423283  0.31308570  1
  Bi2+  Bi69  1  -0.06184528  0.58292765  0.82093815  1
  Bi2+  Bi70  1  -0.09470255  0.88440684  0.28987191  1
  Bi2+  Bi71  1  0.00976110  0.76437651  0.79430919  1
  Bi2+  Bi72  1  0.25730567  0.15939266  0.31110775  1
  Bi2+  Bi73  1  0.27707193  0.04170474  0.78251776  1
  Bi2+  Bi74  1  0.23651698  0.37969518  0.28840798  1
  Bi2+  Bi75  1  0.31309695  0.34217496  0.74790853  1
  Bi2+  Bi76  1  0.24748031  0.57269767  0.31926344  1
  Bi2+  Bi77  1  0.33056627  0.59869758  0.77323638  1
  Bi2+  Bi78  1  0.24671910  0.76796810  0.28506162  1
  Bi2+  Bi79  1  0.29679973  0.78549177  0.80763458  1
  Bi2+  Bi80  1  0.59688397  0.16772996  0.30851788  1
  Bi2+  Bi81  1  0.50621244  0.09290519  0.80423912  1
  Bi2+  Bi82  1  0.43211368  0.37682030  0.28557649  1
  Bi2+  Bi83  1  0.49613114  0.36970434  0.78458513  1
  Bi2+  Bi84  1  0.46970603  0.64647062  0.28438566  1
  Bi2+  Bi85  1  0.51394980  0.61058067  0.81140022  1
  Bi2+  Bi86  1  0.57732473  0.89777282  0.29209175  1
  Bi2+  Bi87  1  0.49202984  0.83073578  0.75135082  1
  Bi2+  Bi88  1  0.77592270  0.09348956  0.32125973  1
  Bi2+  Bi89  1  0.71659776  0.11246705  0.78801708  1
  Bi2+  Bi90  1  0.74980868  0.36402077  0.28539129  1
  Bi2+  Bi91  1  0.73140028  0.39178136  0.79069323  1
  Bi2+  Bi92  1  0.73337055  0.69132707  0.28734384  1
  Bi2+  Bi93  1  0.75488008  0.62400504  0.78377194  1
  Bi2+  Bi94  1  0.73981981  0.88890101  0.35424115  1
  Bi2+  Bi95  1  0.78564396  0.81716530  0.77958622  1
  Bi2+  Bi96  1  0.10651951  -0.00071808  0.21403501  1
  Bi2+  Bi97  1  0.17205803  -0.10941374  0.74384194  1
  Bi2+  Bi98  1  0.10772164  0.25830100  0.20079895  1
  Bi2+  Bi99  1  0.15486224  0.25031493  0.70348360  1
  Bi2+  Bi100  1  0.17750173  0.51563925  0.21287027  1
  Bi2+  Bi101  1  0.07608793  0.53521073  0.73934031  1
  Bi2+  Bi102  1  0.09707487  0.75022125  0.20729427  1
  Bi2+  Bi103  1  0.06964545  0.72043611  0.68739439  1
  Bi2+  Bi104  1  0.36725441  -0.01585905  0.22514597  1
  Bi2+  Bi105  1  0.38884174  -0.03213375  0.69222985  1
  Bi2+  Bi106  1  0.45065522  0.22921326  0.22011777  1
  Bi2+  Bi107  1  0.38565616  0.16092528  0.71463278  1
  Bi2+  Bi108  1  0.37481387  0.51404625  0.20790193  1
  Bi2+  Bi109  1  0.42386636  0.47456363  0.69200359  1
  Bi2+  Bi110  1  0.38734676  0.70545978  0.18859749  1
  Bi2+  Bi111  1  0.33442730  0.74250476  0.69279069  1
  Bi2+  Bi112  1  0.61894636  0.03782102  0.21382423  1
  Bi2+  Bi113  1  0.62615887  -0.02404683  0.71859321  1
  Bi2+  Bi114  1  0.64356545  0.23418525  0.19835519  1
  Bi2+  Bi115  1  0.61276674  0.25390409  0.70777150  1
  Bi2+  Bi116  1  0.62118301  0.49851815  0.20304433  1
  Bi2+  Bi117  1  0.61647193  0.46578171  0.70642781  1
  Bi2+  Bi118  1  0.61230714  0.79596639  0.20113502  1
  Bi2+  Bi119  1  0.60590311  0.67696616  0.71046567  1
  Bi2+  Bi120  1  0.81183662  0.00502297  0.21490395  1
  Bi2+  Bi121  1  0.90660596  -0.01315976  0.72205135  1
  Bi2+  Bi122  1  0.85496028  0.19674663  0.23125337  1
  Bi2+  Bi123  1  0.87684173  0.25835978  0.71555270  1
  Bi2+  Bi124  1  0.92561222  0.50300645  0.17852565  1
  Bi2+  Bi125  1  0.88214804  0.52368444  0.71046051  1
  Bi2+  Bi126  1  0.87114686  0.74748229  0.21838710  1
  Bi2+  Bi127  1  0.87757924  0.72291205  0.68987991  1
  S2-  S128  1  0.05442260  0.12037027  0.14467437  1
  S2-  S129  1  0.03578886  0.10680513  0.72378677  1
  S2-  S130  1  -0.01864794  0.35645802  0.15033372  1
  S2-  S131  1  -0.00041682  0.28740141  0.65429309  1
  S2-  S132  1  0.09277990  0.60208776  0.14042447  1
  S2-  S133  1  0.00533367  0.50891695  0.64091971  1
  S2-  S134  1  0.01864541  0.87641522  0.15621263  1
  S2-  S135  1  0.00527303  0.94469919  0.65129954  1
  S2-  S136  1  0.21780364  0.13519170  0.21579739  1
  S2-  S137  1  0.19396949  0.12614188  0.64334974  1
  S2-  S138  1  0.23625249  0.30093779  0.14255109  1
  S2-  S139  1  0.23174088  0.37783365  0.65361145  1
  S2-  S140  1  0.24006519  0.75225199  0.14201694  1
  S2-  S141  1  0.21300846  0.62866475  0.66185081  1
  S2-  S142  1  0.23769851  0.96357784  0.15392515  1
  S2-  S143  1  0.24877175  0.88369125  0.64683659  1
  S2-  S144  1  0.40031241  0.11608360  0.15339519  1
  S2-  S145  1  0.61869783  0.10899094  0.65352011  1
  S2-  S146  1  0.53730314  0.36512196  0.15354601  1
  S2-  S147  1  0.47582598  0.26718419  0.64652467  1
  S2-  S148  1  0.61201157  0.63482294  0.14923122  1
  S2-  S149  1  0.46401355  0.64235015  0.65200224  1
  S2-  S150  1  0.45777811  0.86914804  0.16471421  1
  S2-  S151  1  0.52589143  0.88001207  0.64900105  1
  S2-  S152  1  0.77729323  0.22886204  0.13189726  1
  S2-  S153  1  0.85909307  0.12302985  0.66341480  1
  S2-  S154  1  0.75599529  0.47079081  0.15085635  1
  S2-  S155  1  0.75102844  0.30705007  0.64873643  1
  S2-  S156  1  0.86637142  0.65370240  0.13667044  1
  S2-  S157  1  0.72339785  0.72391755  0.63844047  1
  S2-  S158  1  0.75181127  0.85051541  0.15839150  1
  S2-  S159  1  0.76398397  0.93692541  0.67054404  1
  S2-  S160  1  0.13015530  0.04254832  0.31488776  1
  S2-  S161  1  0.13107155  -0.03388990  0.83862295  1
  S2-  S162  1  0.11536827  0.26995849  0.34381381  1
  S2-  S163  1  0.16217949  0.23350248  0.83197744  1
  S2-  S164  1  0.02704326  0.50426296  0.35045442  1
  S2-  S165  1  0.14769144  0.48078018  0.83335233  1
  S2-  S166  1  0.11729273  0.83309595  0.35148316  1
  S2-  S167  1  0.15420338  0.70836452  0.84310968  1
  S2-  S168  1  0.32807278  -0.00090491  0.31490568  1
  S2-  S169  1  0.39499275  -0.01012003  0.84938469  1
  S2-  S170  1  0.39487186  0.19404756  0.35929242  1
  S2-  S171  1  0.48583268  0.24614160  0.85919014  1
  S2-  S172  1  0.45360596  0.50245413  0.35312710  1
  S2-  S173  1  0.38471138  0.51870807  0.85706253  1
  S2-  S174  1  0.39805404  0.77587672  0.33486524  1
  S2-  S175  1  0.49401104  0.75137204  0.86521181  1
  S2-  S176  1  0.53396743  0.02396451  0.35956786  1
  S2-  S177  1  0.63431909  -0.01130206  0.84665545  1
  S2-  S178  1  0.61888810  0.33124940  0.35206170  1
  S2-  S179  1  0.71102283  0.25245299  0.85237468  1
  S2-  S180  1  0.68226888  0.50971003  0.30245516  1
  S2-  S181  1  0.63964398  0.50302278  0.85211306  1
  S2-  S182  1  0.60069961  0.67208380  0.34935263  1
  S2-  S183  1  0.72015301  0.73864779  0.86249927  1
  S2-  S184  1  0.95167763  0.00842028  0.35556340  1
  S2-  S185  1  0.85740157  0.05858101  0.82485860  1
  S2-  S186  1  0.87260151  0.34046013  0.35615512  1
  S2-  S187  1  0.93503580  0.24822877  0.81886788  1
  S2-  S188  1  0.87761788  0.48365338  0.26789399  1
  S2-  S189  1  0.85501221  0.42526411  0.85056400  1
  S2-  S190  1  0.85682213  0.65790898  0.35058220  1
  S2-  S191  1  0.89365428  0.85964476  0.85296869  1
  S2-  S192  1  -0.01066677  0.13860280  0.44680116  1
  S2-  S193  1  -0.01086444  0.12241435  0.94193986  1
  S2-  S194  1  -0.00921030  0.38525731  0.45920414  1
  S2-  S195  1  -0.00602971  0.38092383  0.94290276  1
  S2-  S196  1  -0.01279707  0.62963035  0.45732299  1
  S2-  S197  1  -0.01067992  0.62991872  0.95105718  1
  S2-  S198  1  -0.01506169  0.87676779  0.45299132  1
  S2-  S199  1  -0.00766802  0.88153069  0.95403759  1
  S2-  S200  1  0.23777417  0.13496776  0.44508708  1
  S2-  S201  1  0.24843042  0.12710339  0.93974877  1
  S2-  S202  1  0.24076698  0.38012992  0.44933856  1
  S2-  S203  1  0.24608767  0.37907763  0.94640963  1
  S2-  S204  1  0.24059974  0.63569653  0.45354756  1
  S2-  S205  1  0.24312961  0.62971528  0.95853815  1
  S2-  S206  1  0.24574609  0.89230753  0.44373781  1
  S2-  S207  1  0.24655926  0.87457287  0.95474846  1
  S2-  S208  1  0.49350746  0.13858534  0.46729897  1
  S2-  S209  1  0.48873729  0.12332219  0.96025425  1
  S2-  S210  1  0.48952195  0.38454962  0.46082409  1
  S2-  S211  1  0.48940869  0.38151082  0.95575957  1
  S2-  S212  1  0.48898759  0.63228546  0.45130257  1
  S2-  S213  1  0.49094930  0.62483863  0.96695247  1
  S2-  S214  1  0.48985308  0.88398126  0.44945274  1
  S2-  S215  1  0.49032165  0.88015700  0.96013437  1
  S2-  S216  1  0.73783125  0.13747408  0.45970381  1
  S2-  S217  1  0.74503719  0.12103619  0.95071892  1
  S2-  S218  1  0.73888651  0.39354387  0.45364220  1
  S2-  S219  1  0.73761720  0.37796815  0.95903008  1
  S2-  S220  1  0.73298947  0.62449784  0.45121909  1
  S2-  S221  1  0.74013885  0.62475325  0.96720743  1
  S2-  S222  1  0.73765240  0.87810462  0.46738986  1
  S2-  S223  1  0.74054721  0.88167448  0.95463483  1
  S2-  S224  1  0.12145480  -0.00004227  0.04337382  1
  S2-  S225  1  0.11003892  0.01043078  0.53720568  1
  S2-  S226  1  0.11910523  0.24729602  0.03645769  1
  S2-  S227  1  0.11498781  0.25605426  0.54576839  1
  S2-  S228  1  0.11637040  0.49754644  0.03762340  1
  S2-  S229  1  0.12039424  0.50658662  0.54259618  1
  S2-  S230  1  0.11137898  0.75645453  0.04253707  1
  S2-  S231  1  0.11357585  0.75954958  0.54552014  1
  S2-  S232  1  0.36332433  -0.00162250  0.04954412  1
  S2-  S233  1  0.36608143  0.01130409  0.54474071  1
  S2-  S234  1  0.36573720  0.24950068  0.04194023  1
  S2-  S235  1  0.35865551  0.25585200  0.54915339  1
  S2-  S236  1  0.36233713  0.50194024  0.05821362  1
  S2-  S237  1  0.36213944  0.50459531  0.54667613  1
  S2-  S238  1  0.36746017  0.75042536  0.04415359  1
  S2-  S239  1  0.36503517  0.76110794  0.54199674  1
  S2-  S240  1  0.61866311  0.00365902  0.05446177  1
  S2-  S241  1  0.61577109  0.00374354  0.54959171  1
  S2-  S242  1  0.61361713  0.24701192  0.04213151  1
  S2-  S243  1  0.61691430  0.26069983  0.54882497  1
  S2-  S244  1  0.61252185  0.49606255  0.05158049  1
  S2-  S245  1  0.61458908  0.50985212  0.56073184  1
  S2-  S246  1  0.61799702  0.75202877  0.04823441  1
  S2-  S247  1  0.60849996  0.75876784  0.54130285  1
  S2-  S248  1  0.86591253  0.00286362  0.04936550  1
  S2-  S249  1  0.85934445  0.00282605  0.55060494  1
  S2-  S250  1  0.87001654  0.24847844  0.02682224  1
  S2-  S251  1  0.86703907  0.26034211  0.54806287  1
  S2-  S252  1  0.86587031  0.49653998  0.04340434  1
  S2-  S253  1  0.85991067  0.51182284  0.55248001  1
  S2-  S254  1  0.86904863  0.76135820  0.03673239  1
  S2-  S255  1  0.86449851  0.75568387  0.54476317  1
