# generated using pymatgen
data_La12Ce14Pr13Nd13Sm12(BiS2)64
_symmetry_space_group_name_H-M   'P 1'
_cell_length_a   16.10324612
_cell_length_b   16.12772056
_cell_length_c   27.40622872
_cell_angle_alpha   90.18956913
_cell_angle_beta   90.24164452
_cell_angle_gamma   90.07414106
_symmetry_Int_Tables_number   1
_chemical_formula_structural   La12Ce14Pr13Nd13Sm12(BiS2)64
_chemical_formula_sum   'La12 Ce14 Pr13 Nd13 Sm12 Bi64 S128'
_cell_volume   7117.52640902
_cell_formula_units_Z   1
loop_
 _symmetry_equiv_pos_site_id
 _symmetry_equiv_pos_as_xyz
  1  'x, y, z'
loop_
 _atom_type_symbol
 _atom_type_oxidation_number
  La3+  3.0
  Ce3+  3.0
  Pr3+  3.0
  Nd3+  3.0
  Sm3+  3.0
  Bi2+  2.0
  S2-  -2.0
loop_
 _atom_site_type_symbol
 _atom_site_label
 _atom_site_symmetry_multiplicity
 _atom_site_fract_x
 _atom_site_fract_y
 _atom_site_fract_z
 _atom_site_occupancy
  La3+  La0  1  -0.00296915  0.36927700  0.58821038  1
  La3+  La1  1  0.63453931  0.25744278  0.93227321  1
  La3+  La2  1  0.46902706  0.12524723  0.60594415  1
  La3+  La3  1  0.24226635  0.63964337  0.57899555  1
  La3+  La4  1  0.25047659  0.10612430  0.11186286  1
  La3+  La5  1  0.50061900  0.87375241  0.56955727  1
  La3+  La6  1  0.24817414  0.37600254  0.07401575  1
  La3+  La7  1  0.11461889  0.27077505  0.41651878  1
  La3+  La8  1  0.14420037  0.25123641  0.92360133  1
  La3+  La9  1  0.02051386  0.87862981  0.07721069  1
  La3+  La10  1  0.87422491  0.50963153  0.44260669  1
  La3+  La11  1  -0.01569566  0.64144075  0.58718062  1
  Ce3+  Ce12  1  0.11158221  0.75249231  0.43992808  1
  Ce3+  Ce13  1  0.24051478  0.13586144  0.54824812  1
  Ce3+  Ce14  1  0.36672544  0.25794986  0.44234500  1
  Ce3+  Ce15  1  0.25763009  0.62613468  0.06506523  1
  Ce3+  Ce16  1  0.86803099  0.01000447  0.43384073  1
  Ce3+  Ce17  1  0.36575029  0.00604723  0.43941825  1
  Ce3+  Ce18  1  0.49588268  0.38096780  0.56646253  1
  Ce3+  Ce19  1  0.88674063  0.25534570  0.93258456  1
  Ce3+  Ce20  1  0.50725472  0.63270348  0.05905635  1
  Ce3+  Ce21  1  0.38280837  0.75421243  0.94234769  1
  Ce3+  Ce22  1  0.36671550  0.50962102  0.44472442  1
  Ce3+  Ce23  1  0.63363919  0.00771303  0.94996850  1
  Ce3+  Ce24  1  -0.00186728  0.13515631  0.54706298  1
  Ce3+  Ce25  1  0.61310756  0.00745097  0.43702760  1
  Pr3+  Pr26  1  0.73977045  0.13446780  0.55727655  1
  Pr3+  Pr27  1  0.50747584  0.13656272  0.07006290  1
  Pr3+  Pr28  1  0.38157655  0.50353039  0.93654575  1
  Pr3+  Pr29  1  0.86912414  0.75800382  0.43550244  1
  Pr3+  Pr30  1  0.75882689  0.88114096  0.06102531  1
  Pr3+  Pr31  1  0.13220820  0.00882716  0.93576397  1
  Pr3+  Pr32  1  -0.00670662  0.88741629  0.56203728  1
  Pr3+  Pr33  1  0.24592157  0.38675833  0.57017907  1
  Pr3+  Pr34  1  0.86905291  0.25884924  0.43239822  1
  Pr3+  Pr35  1  0.62089140  0.76191483  0.41958933  1
  Pr3+  Pr36  1  0.63376841  0.75683468  0.93536922  1
  Pr3+  Pr37  1  0.89105145  0.50665598  0.92739261  1
  Pr3+  Pr38  1  0.38375441  0.01075907  0.94380686  1
  Nd3+  Nd39  1  0.13384104  0.75603471  0.93612930  1
  Nd3+  Nd40  1  0.50962290  0.38352202  0.06130839  1
  Nd3+  Nd41  1  0.76187214  0.13727863  0.06296047  1
  Nd3+  Nd42  1  0.61247159  0.25731266  0.44336712  1
  Nd3+  Nd43  1  0.49890523  0.63454255  0.55348374  1
  Nd3+  Nd44  1  0.00810334  0.37918839  0.05294257  1
  Nd3+  Nd45  1  0.13899676  0.50570796  0.93015802  1
  Nd3+  Nd46  1  0.11621432  0.50791645  0.45787867  1
  Nd3+  Nd47  1  0.74084478  0.88934993  0.55494657  1
  Nd3+  Nd48  1  0.11138997  -0.00754514  0.40933306  1
  Nd3+  Nd49  1  0.63587948  0.50975383  0.94193052  1
  Nd3+  Nd50  1  0.00872752  0.62831709  0.05546237  1
  Nd3+  Nd51  1  0.75872251  0.64024683  0.06629773  1
  Sm3+  Sm52  1  0.00662202  0.13272687  0.06110580  1
  Sm3+  Sm53  1  0.74403456  0.38104921  0.55220339  1
  Sm3+  Sm54  1  0.36389365  0.76036246  0.44079594  1
  Sm3+  Sm55  1  0.25779249  0.88101396  0.05180378  1
  Sm3+  Sm56  1  0.61584957  0.50843480  0.44590715  1
  Sm3+  Sm57  1  0.24495626  0.88440257  0.56030311  1
  Sm3+  Sm58  1  0.88559230  0.75780810  0.94335289  1
  Sm3+  Sm59  1  0.74605967  0.63502272  0.55627002  1
  Sm3+  Sm60  1  0.88443798  0.00566862  0.94448013  1
  Sm3+  Sm61  1  0.38102763  0.25508065  0.95106535  1
  Sm3+  Sm62  1  0.76209836  0.38565886  0.05223205  1
  Sm3+  Sm63  1  0.50643307  0.88263983  0.05685512  1
  Bi2+  Bi64  1  -0.06436684  0.11411526  0.29481553  1
  Bi2+  Bi65  1  0.01831804  0.11966430  0.77990272  1
  Bi2+  Bi66  1  -0.01034045  0.40686998  0.29465865  1
  Bi2+  Bi67  1  -0.05253799  0.38158467  0.79385506  1
  Bi2+  Bi68  1  0.00766914  0.62597402  0.27074381  1
  Bi2+  Bi69  1  -0.02523907  0.62837413  0.79736232  1
  Bi2+  Bi70  1  -0.00275651  0.82034776  0.30039841  1
  Bi2+  Bi71  1  -0.00256114  0.89097299  0.79396159  1
  Bi2+  Bi72  1  0.29013657  0.12204173  0.31105610  1
  Bi2+  Bi73  1  0.28050640  0.14170658  0.79501970  1
  Bi2+  Bi74  1  0.25423655  0.38968391  0.30598798  1
  Bi2+  Bi75  1  0.22286436  0.37382426  0.79195669  1
  Bi2+  Bi76  1  0.21065849  0.62452023  0.27925788  1
  Bi2+  Bi77  1  0.25647542  0.64648922  0.79760880  1
  Bi2+  Bi78  1  0.26077819  0.82083816  0.28007159  1
  Bi2+  Bi79  1  0.19200234  0.90501451  0.78716695  1
  Bi2+  Bi80  1  0.55317771  0.11539796  0.29428477  1
  Bi2+  Bi81  1  0.51257204  0.09816144  0.79051457  1
  Bi2+  Bi82  1  0.49930003  0.39242882  0.29277279  1
  Bi2+  Bi83  1  0.48465798  0.35619679  0.79956290  1
  Bi2+  Bi84  1  0.58794463  0.63718421  0.28883258  1
  Bi2+  Bi85  1  0.49900103  0.64208787  0.78386392  1
  Bi2+  Bi86  1  0.49813210  0.81588178  0.28575296  1
  Bi2+  Bi87  1  0.47425250  0.89839272  0.74384019  1
  Bi2+  Bi88  1  0.74766880  0.07246820  0.32118581  1
  Bi2+  Bi89  1  0.76721083  0.04906955  0.79262692  1
  Bi2+  Bi90  1  0.73490392  0.26959711  0.28300297  1
  Bi2+  Bi91  1  0.66096358  0.42204156  0.76418645  1
  Bi2+  Bi92  1  0.79372515  0.60072112  0.29463043  1
  Bi2+  Bi93  1  0.73843749  0.63445731  0.77088906  1
  Bi2+  Bi94  1  0.73184927  0.87829559  0.28785087  1
  Bi2+  Bi95  1  0.65426602  0.87446656  0.78511164  1
  Bi2+  Bi96  1  0.11210186  -0.00313514  0.22061949  1
  Bi2+  Bi97  1  0.10757782  -0.00255272  0.69458138  1
  Bi2+  Bi98  1  0.13544507  0.24661644  0.21205497  1
  Bi2+  Bi99  1  0.12778953  0.19896171  0.69552580  1
  Bi2+  Bi100  1  0.11923694  0.50121152  0.20422293  1
  Bi2+  Bi101  1  0.13297475  0.48081389  0.71273419  1
  Bi2+  Bi102  1  0.14398873  0.76854557  0.19087102  1
  Bi2+  Bi103  1  0.11780731  0.77516617  0.71018487  1
  Bi2+  Bi104  1  0.45998830  -0.01715491  0.22729529  1
  Bi2+  Bi105  1  0.30990039  0.00600325  0.71145093  1
  Bi2+  Bi106  1  0.41922907  0.25172608  0.21212314  1
  Bi2+  Bi107  1  0.36433446  0.29202799  0.72190356  1
  Bi2+  Bi108  1  0.41151866  0.55144591  0.24719465  1
  Bi2+  Bi109  1  0.37560137  0.50278871  0.72982729  1
  Bi2+  Bi110  1  0.32209346  0.69045816  0.18932892  1
  Bi2+  Bi111  1  0.36826226  0.74167520  0.71835320  1
  Bi2+  Bi112  1  0.65796045  0.01062272  0.20543706  1
  Bi2+  Bi113  1  0.71899827  -0.00891344  0.68502518  1
  Bi2+  Bi114  1  0.61370817  0.20248273  0.19410917  1
  Bi2+  Bi115  1  0.64898035  0.24736168  0.70677601  1
  Bi2+  Bi116  1  0.67738083  0.45770380  0.25267080  1
  Bi2+  Bi117  1  0.54988055  0.50125149  0.68086613  1
  Bi2+  Bi118  1  0.59392164  0.74309973  0.19196363  1
  Bi2+  Bi119  1  0.62275338  0.67810695  0.68071846  1
  Bi2+  Bi120  1  0.85328076  -0.01049151  0.21622703  1
  Bi2+  Bi121  1  0.91444717  -0.04886865  0.68341300  1
  Bi2+  Bi122  1  0.88333182  0.24121965  0.20985728  1
  Bi2+  Bi123  1  0.85717872  0.20262214  0.74606177  1
  Bi2+  Bi124  1  0.88199655  0.43797173  0.19662443  1
  Bi2+  Bi125  1  0.81778879  0.50126594  0.69539365  1
  Bi2+  Bi126  1  0.85683804  0.69966570  0.20417049  1
  Bi2+  Bi127  1  0.83172638  0.81179768  0.74868238  1
  S2-  S128  1  0.08360669  0.12320017  0.14970702  1
  S2-  S129  1  -0.00776556  0.20495427  0.63577578  1
  S2-  S130  1  0.06767808  0.37022548  0.14734093  1
  S2-  S131  1  -0.03991934  0.41695574  0.68687628  1
  S2-  S132  1  0.01142384  0.68889494  0.14808460  1
  S2-  S133  1  0.06974152  0.61765177  0.67909494  1
  S2-  S134  1  -0.02471506  0.90657822  0.17271982  1
  S2-  S135  1  -0.01391077  0.79529240  0.64654764  1
  S2-  S136  1  0.23847025  0.10219445  0.21929700  1
  S2-  S137  1  0.29833404  0.13932221  0.64168208  1
  S2-  S138  1  0.26678656  0.27307375  0.15647416  1
  S2-  S139  1  0.15159143  0.34247634  0.65067473  1
  S2-  S140  1  0.25341162  0.51605547  0.14089410  1
  S2-  S141  1  0.26627149  0.51915861  0.65117271  1
  S2-  S142  1  0.21181993  0.92745919  0.14165266  1
  S2-  S143  1  0.24705360  0.78284371  0.64356214  1
  S2-  S144  1  0.41806433  0.10466606  0.15410791  1
  S2-  S145  1  0.56741884  0.10673311  0.69356367  1
  S2-  S146  1  0.51594971  0.34432361  0.15837767  1
  S2-  S147  1  0.48900880  0.28994441  0.65058320  1
  S2-  S148  1  0.52441316  0.60187746  0.15385499  1
  S2-  S149  1  0.47692488  0.72599501  0.63700968  1
  S2-  S150  1  0.48249468  0.86673602  0.15291935  1
  S2-  S151  1  0.44350492  0.96109892  0.65076329  1
  S2-  S152  1  0.87283648  0.12536483  0.13808497  1
  S2-  S153  1  0.76830503  0.16002936  0.65563811  1
  S2-  S154  1  0.77494159  0.33389595  0.14418680  1
  S2-  S155  1  0.73063656  0.37451303  0.64946462  1
  S2-  S156  1  0.79608645  0.56156755  0.15207101  1
  S2-  S157  1  0.82817958  0.64021226  0.64260907  1
  S2-  S158  1  0.74997659  0.77346113  0.13986371  1
  S2-  S159  1  0.64959023  0.86256063  0.63784591  1
  S2-  S160  1  0.14241417  0.04609788  0.31600845  1
  S2-  S161  1  0.13775482  0.10750727  0.85279662  1
  S2-  S162  1  0.16780725  0.25488959  0.31636186  1
  S2-  S163  1  0.07471334  0.30775825  0.83050470  1
  S2-  S164  1  0.12182856  0.44415958  0.36383379  1
  S2-  S165  1  0.02677080  0.50861155  0.85088214  1
  S2-  S166  1  0.13952924  0.84158867  0.35515883  1
  S2-  S167  1  0.11937782  0.70028787  0.84126483  1
  S2-  S168  1  0.35876458  -0.01558530  0.34257489  1
  S2-  S169  1  0.38447729  0.02761640  0.84383071  1
  S2-  S170  1  0.36927396  0.27830069  0.34460091  1
  S2-  S171  1  0.30283962  0.26924098  0.86260453  1
  S2-  S172  1  0.37361739  0.50621114  0.34731816  1
  S2-  S173  1  0.26871665  0.50819986  0.85863898  1
  S2-  S174  1  0.37054326  0.74562918  0.34255416  1
  S2-  S175  1  0.38716353  0.73779948  0.84621173  1
  S2-  S176  1  0.59968142  -0.09804121  0.35648392  1
  S2-  S177  1  0.62516036  0.00973351  0.85287957  1
  S2-  S178  1  0.59325175  0.26788002  0.34443039  1
  S2-  S179  1  0.58436463  0.22823234  0.83751219  1
  S2-  S180  1  0.61146369  0.49084794  0.34929491  1
  S2-  S181  1  0.57837614  0.47172946  0.85198598  1
  S2-  S182  1  0.76151728  0.74997892  0.35272516  1
  S2-  S183  1  0.62842610  0.71027126  0.83988394  1
  S2-  S184  1  0.95342827  -0.03533577  0.35220274  1
  S2-  S185  1  0.90949763  0.01591130  0.84741950  1
  S2-  S186  1  0.96736350  0.26238855  0.34970382  1
  S2-  S187  1  0.83247634  0.27864993  0.84079671  1
  S2-  S188  1  0.86285678  0.46324458  0.34557618  1
  S2-  S189  1  0.83417652  0.53833376  0.83265715  1
  S2-  S190  1  0.98919525  0.69698979  0.36945740  1
  S2-  S191  1  0.89667961  0.76100568  0.84574318  1
  S2-  S192  1  -0.00099492  0.12845234  0.44379686  1
  S2-  S193  1  0.00486009  0.13055185  0.95385322  1
  S2-  S194  1  -0.00790791  0.38186164  0.46162857  1
  S2-  S195  1  0.01117250  0.37868572  0.94877543  1
  S2-  S196  1  -0.00772786  0.62981210  0.47700988  1
  S2-  S197  1  0.00842316  0.63531086  0.95148576  1
  S2-  S198  1  -0.00667645  0.88247369  0.45763158  1
  S2-  S199  1  0.00934699  0.88090711  0.95425215  1
  S2-  S200  1  0.23630164  0.13042338  0.44164933  1
  S2-  S201  1  0.26155574  0.13011036  0.95772985  1
  S2-  S202  1  0.24584682  0.38494765  0.46140892  1
  S2-  S203  1  0.25883273  0.38140711  0.96319751  1
  S2-  S204  1  0.24164485  0.63364495  0.45805223  1
  S2-  S205  1  0.25795903  0.63361280  0.95784957  1
  S2-  S206  1  0.24071244  0.88267064  0.45695810  1
  S2-  S207  1  0.25803905  0.88234986  0.94694297  1
  S2-  S208  1  0.49016184  0.13181615  0.44193508  1
  S2-  S209  1  0.50908392  0.13467861  0.96089531  1
  S2-  S210  1  0.49244590  0.38480153  0.45762132  1
  S2-  S211  1  0.50696643  0.37956370  0.95595174  1
  S2-  S212  1  0.49456794  0.63645914  0.44715263  1
  S2-  S213  1  0.50788318  0.62961694  0.95194134  1
  S2-  S214  1  0.48785701  0.87983517  0.45664667  1
  S2-  S215  1  0.50815579  0.88141430  0.95153169  1
  S2-  S216  1  0.74075075  0.13573081  0.45063121  1
  S2-  S217  1  0.76060908  0.13005262  0.95452789  1
  S2-  S218  1  0.73967888  0.38256124  0.44781351  1
  S2-  S219  1  0.75913669  0.38461197  0.94776817  1
  S2-  S220  1  0.74195292  0.62798779  0.45180695  1
  S2-  S221  1  0.76128931  0.63442495  0.95474530  1
  S2-  S222  1  0.74390242  0.88965486  0.45098951  1
  S2-  S223  1  0.76031465  0.88159137  0.95207760  1
  S2-  S224  1  0.13094662  0.00702508  0.04148444  1
  S2-  S225  1  0.12167692  0.00798015  0.54999897  1
  S2-  S226  1  0.12672606  0.25295478  0.04049683  1
  S2-  S227  1  0.12044545  0.25987316  0.53491036  1
  S2-  S228  1  0.12969698  0.50710126  0.03778842  1
  S2-  S229  1  0.11347326  0.50739529  0.56064754  1
  S2-  S230  1  0.13635837  0.75478654  0.04263683  1
  S2-  S231  1  0.11950275  0.76163984  0.54641204  1
  S2-  S232  1  0.38120017  0.00355139  0.04944269  1
  S2-  S233  1  0.36534678  0.00894505  0.54297029  1
  S2-  S234  1  0.38627230  0.25995607  0.05172757  1
  S2-  S235  1  0.37048021  0.25747287  0.54607958  1
  S2-  S236  1  0.38660979  0.50591460  0.04389774  1
  S2-  S237  1  0.37419868  0.51130345  0.54967812  1
  S2-  S238  1  0.38190609  0.75793498  0.04824743  1
  S2-  S239  1  0.36576302  0.75771281  0.54164394  1
  S2-  S240  1  0.63327468  0.00803070  0.05600442  1
  S2-  S241  1  0.60843946  0.01643236  0.54607798  1
  S2-  S242  1  0.63694175  0.25914561  0.04311073  1
  S2-  S243  1  0.61581938  0.25764418  0.54768517  1
  S2-  S244  1  0.63767548  0.50735988  0.04804140  1
  S2-  S245  1  0.62377848  0.50893057  0.54888905  1
  S2-  S246  1  0.62818596  0.75909474  0.04091675  1
  S2-  S247  1  0.62502523  0.75407233  0.52974597  1
  S2-  S248  1  0.88685472  -0.00081931  0.04667346  1
  S2-  S249  1  0.86791258  0.01199655  0.54268358  1
  S2-  S250  1  0.88275152  0.25857279  0.03838745  1
  S2-  S251  1  0.86572689  0.25869222  0.53911337  1
  S2-  S252  1  0.88372365  0.50741034  0.03899922  1
  S2-  S253  1  0.86782058  0.50055844  0.55066183  1
  S2-  S254  1  0.88909951  0.75987154  0.04592850  1
  S2-  S255  1  0.86096024  0.76554109  0.54178112  1
