# generated using pymatgen
data_La12Ce14Pr13Nd13Sm12(BiS2)64
_symmetry_space_group_name_H-M   'P 1'
_cell_length_a   16.12939056
_cell_length_b   16.07380462
_cell_length_c   27.26961840
_cell_angle_alpha   89.96788949
_cell_angle_beta   90.16102044
_cell_angle_gamma   90.13500761
_symmetry_Int_Tables_number   1
_chemical_formula_structural   La12Ce14Pr13Nd13Sm12(BiS2)64
_chemical_formula_sum   'La12 Ce14 Pr13 Nd13 Sm12 Bi64 S128'
_cell_volume   7069.89097155
_cell_formula_units_Z   1
loop_
 _symmetry_equiv_pos_site_id
 _symmetry_equiv_pos_as_xyz
  1  'x, y, z'
loop_
 _atom_type_symbol
 _atom_type_oxidation_number
  La3+  3.0
  Ce3+  3.0
  Pr3+  3.0
  Nd3+  3.0
  Sm3+  3.0
  Bi2+  2.0
  S2-  -2.0
loop_
 _atom_site_type_symbol
 _atom_site_label
 _atom_site_symmetry_multiplicity
 _atom_site_fract_x
 _atom_site_fract_y
 _atom_site_fract_z
 _atom_site_occupancy
  La3+  La0  1  0.61319781  0.27232076  0.40416013  1
  La3+  La1  1  0.11460115  0.25705683  0.43059323  1
  La3+  La2  1  0.51449559  0.37816332  0.08552471  1
  La3+  La3  1  0.13954330  0.74624514  0.91744488  1
  La3+  La4  1  0.76743602  0.11006271  0.09579667  1
  La3+  La5  1  0.73898071  0.87940958  0.54820133  1
  La3+  La6  1  0.61568327  0.00398826  0.39587859  1
  La3+  La7  1  0.74945488  0.37283070  0.57502520  1
  La3+  La8  1  0.62865181  0.48245641  0.92387630  1
  La3+  La9  1  -0.00856663  0.87800614  0.56824069  1
  La3+  La10  1  0.87096230  0.74677393  0.42309182  1
  La3+  La11  1  0.63329643  0.74938373  0.93577484  1
  Ce3+  Ce12  1  -0.00966934  0.12303695  0.56300431  1
  Ce3+  Ce13  1  0.76149451  0.85994508  0.07059812  1
  Ce3+  Ce14  1  0.86419163  0.25118821  0.43120159  1
  Ce3+  Ce15  1  0.37612032  0.00524938  0.44042349  1
  Ce3+  Ce16  1  0.13118758  0.24269759  0.93980024  1
  Ce3+  Ce17  1  0.25375184  0.11775554  0.06487838  1
  Ce3+  Ce18  1  0.25969055  0.86287752  0.06021630  1
  Ce3+  Ce19  1  0.76164507  0.61936093  0.05643871  1
  Ce3+  Ce20  1  0.49455662  0.62203734  0.57281444  1
  Ce3+  Ce21  1  0.24158886  0.12809854  0.55035340  1
  Ce3+  Ce22  1  0.38654667  0.48811940  0.93893936  1
  Ce3+  Ce23  1  0.25224330  0.36763829  0.05941589  1
  Ce3+  Ce24  1  0.37172925  0.75292575  0.45098942  1
  Ce3+  Ce25  1  0.01426526  0.10696148  0.07483592  1
  Pr3+  Pr26  1  -0.00763177  0.63315872  0.57516844  1
  Pr3+  Pr27  1  0.88596051  0.74633152  0.92801332  1
  Pr3+  Pr28  1  0.88361719  0.24072959  0.94413435  1
  Pr3+  Pr29  1  0.24125601  0.62969755  0.56229895  1
  Pr3+  Pr30  1  0.86616086  0.00269718  0.42698115  1
  Pr3+  Pr31  1  0.11932973  0.76088633  0.43304434  1
  Pr3+  Pr32  1  0.49616845  0.88497283  0.57021569  1
  Pr3+  Pr33  1  0.38136297  0.74331306  0.93937939  1
  Pr3+  Pr34  1  0.12551709  0.48484047  0.91621283  1
  Pr3+  Pr35  1  0.50656066  0.86485633  0.07236726  1
  Pr3+  Pr36  1  -0.00419353  0.37486431  0.56958237  1
  Pr3+  Pr37  1  0.73878234  0.63859825  0.57642283  1
  Pr3+  Pr38  1  0.36179869  0.25807114  0.42901768  1
  Nd3+  Nd39  1  0.61727618  0.50280450  0.44857333  1
  Nd3+  Nd40  1  0.23963944  0.37364219  0.56706699  1
  Nd3+  Nd41  1  0.49443045  0.37559163  0.56894849  1
  Nd3+  Nd42  1  0.24358524  0.87961818  0.56324237  1
  Nd3+  Nd43  1  0.01161179  0.86210691  0.05980305  1
  Nd3+  Nd44  1  0.38414708  -0.00509554  0.94963365  1
  Nd3+  Nd45  1  0.01483222  0.62039531  0.05897809  1
  Nd3+  Nd46  1  0.11461844  0.00199027  0.43582319  1
  Nd3+  Nd47  1  0.60590062  0.75103340  0.43150425  1
  Nd3+  Nd48  1  0.63661923  0.24233734  0.94972871  1
  Nd3+  Nd49  1  0.13343172  -0.00471768  0.93722641  1
  Nd3+  Nd50  1  0.63430972  -0.00864409  0.95174302  1
  Nd3+  Nd51  1  0.49518838  0.13194616  0.55921655  1
  Sm3+  Sm52  1  0.00338674  0.36749965  0.06069646  1
  Sm3+  Sm53  1  0.36612269  0.50172760  0.44819917  1
  Sm3+  Sm54  1  0.86405954  0.50632731  0.45224603  1
  Sm3+  Sm55  1  0.50901943  0.61386684  0.05601970  1
  Sm3+  Sm56  1  0.51262817  0.11980879  0.06499605  1
  Sm3+  Sm57  1  0.11297790  0.50736161  0.44731801  1
  Sm3+  Sm58  1  0.25294821  0.61149020  0.05345391  1
  Sm3+  Sm59  1  0.87727769  0.50059357  0.92628168  1
  Sm3+  Sm60  1  0.76542526  0.37003695  0.06465045  1
  Sm3+  Sm61  1  0.73846450  0.12795601  0.54335928  1
  Sm3+  Sm62  1  0.88383177  -0.01053148  0.94150826  1
  Sm3+  Sm63  1  0.38624906  0.24419198  0.95581998  1
  Bi2+  Bi64  1  0.06107445  0.15179987  0.31538543  1
  Bi2+  Bi65  1  0.03290415  0.04709988  0.81920705  1
  Bi2+  Bi66  1  -0.01907045  0.37959244  0.30701806  1
  Bi2+  Bi67  1  0.01926172  0.24475970  0.80939309  1
  Bi2+  Bi68  1  -0.01842186  0.58172172  0.30354560  1
  Bi2+  Bi69  1  -0.00845310  0.58001344  0.78607214  1
  Bi2+  Bi70  1  0.00691716  0.85088156  0.28744222  1
  Bi2+  Bi71  1  -0.00442214  0.85357878  0.78807014  1
  Bi2+  Bi72  1  0.24684240  0.14464952  0.28589478  1
  Bi2+  Bi73  1  0.21252888  0.13018301  0.79909198  1
  Bi2+  Bi74  1  0.24190296  0.50697603  0.27626722  1
  Bi2+  Bi75  1  0.28662153  0.32817144  0.79584778  1
  Bi2+  Bi76  1  0.24940155  0.69935767  0.28425441  1
  Bi2+  Bi77  1  0.32083976  0.60013722  0.78844616  1
  Bi2+  Bi78  1  0.26759903  0.89712795  0.28901476  1
  Bi2+  Bi79  1  0.27098426  0.86500814  0.78718595  1
  Bi2+  Bi80  1  0.46070829  0.13186513  0.28514700  1
  Bi2+  Bi81  1  0.50299818  0.16617838  0.78437076  1
  Bi2+  Bi82  1  0.47844483  0.41620532  0.29162950  1
  Bi2+  Bi83  1  0.50556501  0.36755029  0.79382079  1
  Bi2+  Bi84  1  0.51310598  0.63035247  0.28488667  1
  Bi2+  Bi85  1  0.48670179  0.68217747  0.75789260  1
  Bi2+  Bi86  1  0.47990531  0.85124665  0.29157126  1
  Bi2+  Bi87  1  0.51079587  0.84397366  0.81662049  1
  Bi2+  Bi88  1  0.77383779  0.16569815  0.29196402  1
  Bi2+  Bi89  1  0.77632208  0.13969947  0.76983698  1
  Bi2+  Bi90  1  0.79766652  0.42687743  0.27100864  1
  Bi2+  Bi91  1  0.74872352  0.35458984  0.78851833  1
  Bi2+  Bi92  1  0.71332129  0.62285667  0.29658639  1
  Bi2+  Bi93  1  0.75136086  0.60845287  0.77571725  1
  Bi2+  Bi94  1  0.75700105  0.83081376  0.28202322  1
  Bi2+  Bi95  1  0.73459800  0.86183243  0.79537999  1
  Bi2+  Bi96  1  0.14436151  -0.00634212  0.20646059  1
  Bi2+  Bi97  1  0.12397411  0.00093863  0.70356869  1
  Bi2+  Bi98  1  0.12578247  0.33171616  0.17283860  1
  Bi2+  Bi99  1  0.12163811  0.21253893  0.70433124  1
  Bi2+  Bi100  1  0.06446762  0.50866884  0.20515908  1
  Bi2+  Bi101  1  0.16413808  0.48072522  0.71166894  1
  Bi2+  Bi102  1  0.10910706  0.72382272  0.20481005  1
  Bi2+  Bi103  1  0.12994981  0.71709552  0.69933726  1
  Bi2+  Bi104  1  0.34726665  0.02121228  0.20812116  1
  Bi2+  Bi105  1  0.36873518  0.03038446  0.75466426  1
  Bi2+  Bi106  1  0.29830980  0.30096029  0.21881552  1
  Bi2+  Bi107  1  0.34291683  0.22739892  0.70146993  1
  Bi2+  Bi108  1  0.37619054  0.62756700  0.20069100  1
  Bi2+  Bi109  1  0.36436374  0.44205157  0.71432464  1
  Bi2+  Bi110  1  0.36682691  0.82232305  0.18602801  1
  Bi2+  Bi111  1  0.40662586  0.83912188  0.70351131  1
  Bi2+  Bi112  1  0.63806579  0.01520411  0.21312736  1
  Bi2+  Bi113  1  0.62373967  0.01686209  0.70630178  1
  Bi2+  Bi114  1  0.59056545  0.26543957  0.21339206  1
  Bi2+  Bi115  1  0.62121069  0.21374555  0.69573614  1
  Bi2+  Bi116  1  0.65103054  0.51504175  0.20561684  1
  Bi2+  Bi117  1  0.62656499  0.51812231  0.70141249  1
  Bi2+  Bi118  1  0.62179272  0.72994914  0.20633434  1
  Bi2+  Bi119  1  0.60867535  0.82071106  0.69570335  1
  Bi2+  Bi120  1  0.90212416  -0.00322560  0.21552587  1
  Bi2+  Bi121  1  0.89772647  0.00185096  0.73397876  1
  Bi2+  Bi122  1  0.98071017  0.24129716  0.22873766  1
  Bi2+  Bi123  1  0.92001321  0.20120416  0.69523525  1
  Bi2+  Bi124  1  0.86787554  0.52896583  0.18108376  1
  Bi2+  Bi125  1  0.92243047  0.38210409  0.74400894  1
  Bi2+  Bi126  1  0.87685695  0.72180021  0.21605689  1
  Bi2+  Bi127  1  0.85265527  0.74009971  0.71015847  1
  S2-  S128  1  -0.08481696  0.13719109  0.15565870  1
  S2-  S129  1  -0.01575707  0.00733674  0.63991475  1
  S2-  S130  1  -0.11172527  0.37907952  0.13669228  1
  S2-  S131  1  -0.11599831  0.35877238  0.64753602  1
  S2-  S132  1  -0.01465984  0.74238890  0.13510715  1
  S2-  S133  1  0.04403692  0.56715577  0.67118849  1
  S2-  S134  1  0.00586246  0.96084929  0.14502621  1
  S2-  S135  1  -0.01312521  0.76357271  0.64678146  1
  S2-  S136  1  0.15003222  0.12286931  0.14266084  1
  S2-  S137  1  0.23721854  0.10383884  0.64765323  1
  S2-  S138  1  0.26897242  0.42926588  0.14993001  1
  S2-  S139  1  0.12744347  0.36267719  0.64494316  1
  S2-  S140  1  0.14586993  0.60947498  0.13187578  1
  S2-  S141  1  0.25398622  0.63611069  0.66414838  1
  S2-  S142  1  0.19676469  0.84872805  0.14978907  1
  S2-  S143  1  0.17652484  0.86719745  0.65532848  1
  S2-  S144  1  0.52648429  0.11900473  0.16348080  1
  S2-  S145  1  0.47396091  0.24759968  0.63927413  1
  S2-  S146  1  0.45164492  0.33340224  0.18125120  1
  S2-  S147  1  0.47968214  0.49344939  0.64629978  1
  S2-  S148  1  0.50531398  0.54192999  0.14539155  1
  S2-  S149  1  0.60428055  0.66368424  0.64569166  1
  S2-  S150  1  0.56769898  0.87974225  0.16716118  1
  S2-  S151  1  0.49920003  1.01756012  0.64051276  1
  S2-  S152  1  0.72322327  0.16522523  0.19122212  1
  S2-  S153  1  0.73500942  0.10892494  0.64317549  1
  S2-  S154  1  0.65912750  0.36871370  0.14558446  1
  S2-  S155  1  0.67159618  0.37340884  0.66788600  1
  S2-  S156  1  0.75746059  0.72480067  0.13718867  1
  S2-  S157  1  0.79869591  0.59092544  0.67119146  1
  S2-  S158  1  0.77370633  0.95702692  0.15624479  1
  S2-  S159  1  0.76281172  0.83185849  0.64544913  1
  S2-  S160  1  0.12961053  -0.10026839  0.35488415  1
  S2-  S161  1  0.14170166  -0.09612390  0.85201949  1
  S2-  S162  1  0.23166523  0.26860965  0.35601654  1
  S2-  S163  1  0.14804082  0.33452459  0.85653857  1
  S2-  S164  1  0.11225281  0.47733565  0.34973011  1
  S2-  S165  1  0.18102101  0.53940294  0.81817676  1
  S2-  S166  1  0.01641550  0.71872727  0.35462359  1
  S2-  S167  1  0.06562991  0.71907301  0.82301034  1
  S2-  S168  1  0.45279097  -0.00454864  0.35145943  1
  S2-  S169  1  0.38767042  -0.04466651  0.85286358  1
  S2-  S170  1  0.45770990  0.27309874  0.34386338  1
  S2-  S171  1  0.40547369  0.24374355  0.85776314  1
  S2-  S172  1  0.35665450  0.48516751  0.34904622  1
  S2-  S173  1  0.48556695  0.49254781  0.85749745  1
  S2-  S174  1  0.45019257  0.73035067  0.36454414  1
  S2-  S175  1  0.28833212  0.73696797  0.85359343  1
  S2-  S176  1  0.72737728  -0.00011818  0.30466741  1
  S2-  S177  1  0.62864092  -0.04866347  0.85401713  1
  S2-  S178  1  0.61086218  0.14821276  0.33044663  1
  S2-  S179  1  0.62847944  0.32086366  0.85994571  1
  S2-  S180  1  0.59889314  0.43708274  0.35515098  1
  S2-  S181  1  0.75282166  0.48712209  0.85075668  1
  S2-  S182  1  0.61853262  0.84458172  0.34486601  1
  S2-  S183  1  0.65987035  0.72067206  0.83736117  1
  S2-  S184  1  0.89978902  0.12954059  0.35512557  1
  S2-  S185  1  0.86521207  -0.11574623  0.86036580  1
  S2-  S186  1  0.77066216  0.30420965  0.34987312  1
  S2-  S187  1  0.84647487  0.23879175  0.84448162  1
  S2-  S188  1  0.84542980  0.59274299  0.36574135  1
  S2-  S189  1  0.98230661  0.46231579  0.85092611  1
  S2-  S190  1  0.88140970  0.87992659  0.35004388  1
  S2-  S191  1  0.87566712  0.64602382  0.84234963  1
  S2-  S192  1  -0.00422834  0.12655159  0.45783152  1
  S2-  S193  1  0.00721549  0.11387881  0.95614588  1
  S2-  S194  1  -0.01120037  0.38227330  0.45767680  1
  S2-  S195  1  0.00503486  0.36500236  0.95734763  1
  S2-  S196  1  -0.00597569  0.62632427  0.46441433  1
  S2-  S197  1  0.01152932  0.61737780  0.94757984  1
  S2-  S198  1  -0.00810230  0.87890373  0.45775441  1
  S2-  S199  1  0.01156582  0.86976714  0.95312984  1
  S2-  S200  1  0.24224493  0.12253667  0.44559934  1
  S2-  S201  1  0.26052043  0.12029001  0.95610718  1
  S2-  S202  1  0.23721340  0.38531169  0.46107715  1
  S2-  S203  1  0.26253042  0.36553028  0.95475121  1
  S2-  S204  1  0.24163526  0.62827410  0.45229193  1
  S2-  S205  1  0.25839858  0.60888154  0.94991069  1
  S2-  S206  1  0.25004127  0.87998370  0.45612564  1
  S2-  S207  1  0.26188821  0.87165087  0.95651454  1
  S2-  S208  1  0.49379866  0.13580985  0.45038097  1
  S2-  S209  1  0.51003487  0.11830177  0.95890054  1
  S2-  S210  1  0.48885222  0.38083357  0.46130757  1
  S2-  S211  1  0.50893968  0.36284517  0.96969857  1
  S2-  S212  1  0.48975877  0.62125091  0.46506621  1
  S2-  S213  1  0.50817224  0.62101405  0.95208906  1
  S2-  S214  1  0.49306795  0.87926548  0.46027531  1
  S2-  S215  1  0.50473357  0.86852820  0.96386285  1
  S2-  S216  1  0.73411181  0.12714521  0.44014264  1
  S2-  S217  1  0.75767894  0.11238840  0.94550975  1
  S2-  S218  1  0.74413582  0.38202305  0.46226799  1
  S2-  S219  1  0.76202912  0.36695223  0.95941234  1
  S2-  S220  1  0.73398440  0.63170661  0.46274724  1
  S2-  S221  1  0.75354138  0.62093172  0.95143849  1
  S2-  S222  1  0.73697253  0.87667692  0.44314337  1
  S2-  S223  1  0.75715599  0.86937315  0.96270308  1
  S2-  S224  1  0.13912187  -0.01173334  0.04164954  1
  S2-  S225  1  0.12037354  0.00086457  0.54085599  1
  S2-  S226  1  0.12758375  0.24387661  0.04347834  1
  S2-  S227  1  0.11525999  0.24882054  0.54038455  1
  S2-  S228  1  0.12938903  0.48652804  0.03499733  1
  S2-  S229  1  0.11773004  0.50458857  0.55055549  1
  S2-  S230  1  0.13913149  0.74217686  0.03143307  1
  S2-  S231  1  0.12109449  0.75436731  0.54176557  1
  S2-  S232  1  0.38484184  -0.00414751  0.05668671  1
  S2-  S233  1  0.36628242  0.00407879  0.54512058  1
  S2-  S234  1  0.38358186  0.24126037  0.06051619  1
  S2-  S235  1  0.36073188  0.25484712  0.53864119  1
  S2-  S236  1  0.38086290  0.49260865  0.04438130  1
  S2-  S237  1  0.36030226  0.50013774  0.55106336  1
  S2-  S238  1  0.38168623  0.73420281  0.04796600  1
  S2-  S239  1  0.37040635  0.75470748  0.55722608  1
  S2-  S240  1  0.63304321  -0.00682756  0.05594117  1
  S2-  S241  1  0.61682055  0.00649354  0.53829212  1
  S2-  S242  1  0.64301373  0.23323475  0.05355770  1
  S2-  S243  1  0.62222479  0.25468066  0.54765705  1
  S2-  S244  1  0.63789663  0.49656780  0.04091008  1
  S2-  S245  1  0.62353380  0.50117119  0.55257453  1
  S2-  S246  1  0.62636325  0.74179365  0.04452357  1
  S2-  S247  1  0.61002963  0.75667831  0.54006651  1
  S2-  S248  1  0.88207285  -0.00989369  0.04366785  1
  S2-  S249  1  0.86371428  0.00472358  0.53564564  1
  S2-  S250  1  0.88196254  0.23596712  0.04785265  1
  S2-  S251  1  0.86980355  0.24576896  0.54029278  1
  S2-  S252  1  0.88596627  0.49875658  0.03550346  1
  S2-  S253  1  0.86990655  0.50740873  0.55430125  1
  S2-  S254  1  0.88437480  0.74042390  0.03353981  1
  S2-  S255  1  0.86592336  0.75128945  0.53904559  1
