# generated using pymatgen
data_La12Ce14Pr13Nd13Sm12(BiS2)64
_symmetry_space_group_name_H-M   'P 1'
_cell_length_a   16.17960009
_cell_length_b   16.16355288
_cell_length_c   27.21776757
_cell_angle_alpha   89.93350530
_cell_angle_beta   90.32160304
_cell_angle_gamma   89.92676555
_symmetry_Int_Tables_number   1
_chemical_formula_structural   La12Ce14Pr13Nd13Sm12(BiS2)64
_chemical_formula_sum   'La12 Ce14 Pr13 Nd13 Sm12 Bi64 S128'
_cell_volume   7117.86292324
_cell_formula_units_Z   1
loop_
 _symmetry_equiv_pos_site_id
 _symmetry_equiv_pos_as_xyz
  1  'x, y, z'
loop_
 _atom_type_symbol
 _atom_type_oxidation_number
  La3+  3.0
  Ce3+  3.0
  Pr3+  3.0
  Nd3+  3.0
  Sm3+  3.0
  Bi2+  2.0
  S2-  -2.0
loop_
 _atom_site_type_symbol
 _atom_site_label
 _atom_site_symmetry_multiplicity
 _atom_site_fract_x
 _atom_site_fract_y
 _atom_site_fract_z
 _atom_site_occupancy
  La3+  La0  1  0.00919282  0.37831814  0.60690560  1
  La3+  La1  1  0.26547051  0.63296672  0.07220750  1
  La3+  La2  1  0.76186318  0.62393279  0.56678982  1
  La3+  La3  1  0.87647148  0.50648900  0.40598096  1
  La3+  La4  1  0.26707080  0.63948912  0.59460589  1
  La3+  La5  1  0.87177777  0.26155333  0.90886719  1
  La3+  La6  1  0.13738910  0.25905221  0.93114624  1
  La3+  La7  1  0.63086518  0.49946092  0.43315079  1
  La3+  La8  1  -0.00259409  0.34469352  0.11312645  1
  La3+  La9  1  0.12123020  0.01341156  0.41974149  1
  La3+  La10  1  0.00945406  0.87869026  0.56148420  1
  La3+  La11  1  0.25555331  0.38594723  0.07275935  1
  Ce3+  Ce12  1  0.00848285  0.87967253  0.05164394  1
  Ce3+  Ce13  1  0.37951682  0.25851900  0.94326113  1
  Ce3+  Ce14  1  0.00718624  0.13162101  0.04826260  1
  Ce3+  Ce15  1  0.50540459  0.62820171  0.55709820  1
  Ce3+  Ce16  1  0.12907735  0.25863357  0.44372098  1
  Ce3+  Ce17  1  0.75683737  0.87905714  0.55572302  1
  Ce3+  Ce18  1  0.50728452  0.13248887  0.05501610  1
  Ce3+  Ce19  1  0.25804187  0.87656874  0.55185722  1
  Ce3+  Ce20  1  0.25357896  0.12901091  0.55525895  1
  Ce3+  Ce21  1  0.37950673  0.00333508  0.44224151  1
  Ce3+  Ce22  1  0.13330075  0.75386702  0.94672068  1
  Ce3+  Ce23  1  0.01076903  0.61974431  0.55652167  1
  Ce3+  Ce24  1  0.13058981  0.75000089  0.44010267  1
  Ce3+  Ce25  1  0.37767831  0.50412561  0.44199857  1
  Pr3+  Pr26  1  0.62840383  0.50603438  0.94356330  1
  Pr3+  Pr27  1  0.00769608  0.61913788  0.06371151  1
  Pr3+  Pr28  1  0.37803315  0.51313187  0.93257616  1
  Pr3+  Pr29  1  0.13110067  0.50532162  0.93289822  1
  Pr3+  Pr30  1  0.37889304  0.75300897  0.42934510  1
  Pr3+  Pr31  1  0.76062634  0.13666850  0.05233630  1
  Pr3+  Pr32  1  0.37935071  0.25634636  0.43682048  1
  Pr3+  Pr33  1  0.25308320  0.12786980  0.06857398  1
  Pr3+  Pr34  1  0.75904822  0.37646970  0.56288201  1
  Pr3+  Pr35  1  0.50697245  0.38094502  0.07094366  1
  Pr3+  Pr36  1  0.88103223  0.75167933  0.93115332  1
  Pr3+  Pr37  1  0.88552909  0.25549358  0.44730008  1
  Pr3+  Pr38  1  0.88133023  0.00566403  0.93508037  1
  Nd3+  Nd39  1  0.76197758  0.88081257  0.05930029  1
  Nd3+  Nd40  1  0.63269474  0.00308414  0.43743825  1
  Nd3+  Nd41  1  0.01640535  0.12212610  0.57605213  1
  Nd3+  Nd42  1  0.63297885  0.25227284  0.44382812  1
  Nd3+  Nd43  1  0.37785563  0.76265258  0.93349523  1
  Nd3+  Nd44  1  0.50804647  0.88357580  0.05824637  1
  Nd3+  Nd45  1  0.26016151  0.88333654  0.06663094  1
  Nd3+  Nd46  1  0.87783508  0.50890223  0.92909399  1
  Nd3+  Nd47  1  0.63268543  0.00542460  0.94200259  1
  Nd3+  Nd48  1  0.62569001  0.25921675  0.93673353  1
  Nd3+  Nd49  1  0.88090644  0.75041225  0.44065387  1
  Nd3+  Nd50  1  0.13019166  0.00817428  0.93347286  1
  Nd3+  Nd51  1  0.76136972  0.63654783  0.06884756  1
  Sm3+  Sm52  1  0.37854908  0.00404141  0.93625221  1
  Sm3+  Sm53  1  0.13265752  0.50176293  0.44327287  1
  Sm3+  Sm54  1  0.50593481  0.12731767  0.55526748  1
  Sm3+  Sm55  1  0.50798842  0.63163801  0.05782944  1
  Sm3+  Sm56  1  0.50692892  0.87762428  0.55000804  1
  Sm3+  Sm57  1  0.25502708  0.38050725  0.56531091  1
  Sm3+  Sm58  1  0.76383911  0.38411381  0.05668898  1
  Sm3+  Sm59  1  0.63430326  0.75039423  0.44488307  1
  Sm3+  Sm60  1  0.88041666  0.00442745  0.44021476  1
  Sm3+  Sm61  1  0.75792808  0.12908028  0.55888138  1
  Sm3+  Sm62  1  0.63173204  0.75551935  0.94429359  1
  Sm3+  Sm63  1  0.50453775  0.37753119  0.55924732  1
  Bi2+  Bi64  1  -0.07270817  0.10301139  0.26214288  1
  Bi2+  Bi65  1  0.00778569  0.08935472  0.78913158  1
  Bi2+  Bi66  1  0.01746902  0.33544685  0.32160858  1
  Bi2+  Bi67  1  0.01434259  0.35297528  0.81220706  1
  Bi2+  Bi68  1  0.00857510  0.66354722  0.28325473  1
  Bi2+  Bi69  1  -0.01513305  0.68725542  0.76788365  1
  Bi2+  Bi70  1  -0.06111290  0.85147639  0.27616888  1
  Bi2+  Bi71  1  -0.06682759  0.86553971  0.78783539  1
  Bi2+  Bi72  1  0.25785693  0.09545509  0.30556212  1
  Bi2+  Bi73  1  0.34019651  0.11253667  0.81727114  1
  Bi2+  Bi74  1  0.26635783  0.35084954  0.30998761  1
  Bi2+  Bi75  1  0.31057436  0.38483570  0.78732709  1
  Bi2+  Bi76  1  0.25852229  0.65582037  0.28174405  1
  Bi2+  Bi77  1  0.23497624  0.63052520  0.80136494  1
  Bi2+  Bi78  1  0.33613439  0.83752571  0.29577672  1
  Bi2+  Bi79  1  0.22442256  0.86198076  0.79382215  1
  Bi2+  Bi80  1  0.53141134  0.11712421  0.25223484  1
  Bi2+  Bi81  1  0.49730227  0.22665718  0.82820930  1
  Bi2+  Bi82  1  0.51232039  0.39072659  0.28347338  1
  Bi2+  Bi83  1  0.49980661  0.42590669  0.83008670  1
  Bi2+  Bi84  1  0.51447236  0.64052696  0.22956584  1
  Bi2+  Bi85  1  0.49212631  0.61837216  0.78323084  1
  Bi2+  Bi86  1  0.56024486  0.90903214  0.29089783  1
  Bi2+  Bi87  1  0.47875263  0.95464774  0.79530595  1
  Bi2+  Bi88  1  0.77636477  0.05256859  0.32085531  1
  Bi2+  Bi89  1  0.65147002  0.13298838  0.78083035  1
  Bi2+  Bi90  1  0.73316784  0.36559640  0.29174968  1
  Bi2+  Bi91  1  0.71577282  0.40013587  0.79392187  1
  Bi2+  Bi92  1  0.74147846  0.64958616  0.28772572  1
  Bi2+  Bi93  1  0.75514396  0.65711206  0.79309922  1
  Bi2+  Bi94  1  0.75092402  0.85618221  0.30341063  1
  Bi2+  Bi95  1  0.73041498  0.85015961  0.79342424  1
  Bi2+  Bi96  1  0.13178976  -0.06972404  0.22030694  1
  Bi2+  Bi97  1  0.17395476  -0.01434878  0.71370995  1
  Bi2+  Bi98  1  0.12680571  0.21212460  0.21230104  1
  Bi2+  Bi99  1  0.14284120  0.23078996  0.70989438  1
  Bi2+  Bi100  1  0.12342095  0.47763241  0.21970862  1
  Bi2+  Bi101  1  0.10506498  0.49278960  0.72498402  1
  Bi2+  Bi102  1  0.12995000  0.73983352  0.20039042  1
  Bi2+  Bi103  1  0.04727607  0.83754839  0.69232032  1
  Bi2+  Bi104  1  0.36434255  -0.01760452  0.21370347  1
  Bi2+  Bi105  1  0.36622475  0.02954648  0.71103427  1
  Bi2+  Bi106  1  0.39896771  0.25198721  0.21325237  1
  Bi2+  Bi107  1  0.33886889  0.22755065  0.72008143  1
  Bi2+  Bi108  1  0.37025521  0.51096892  0.21526534  1
  Bi2+  Bi109  1  0.36356056  0.51569711  0.70852552  1
  Bi2+  Bi110  1  0.31661729  0.77796749  0.18353613  1
  Bi2+  Bi111  1  0.38031942  0.77425832  0.70814237  1
  Bi2+  Bi112  1  0.66435930  -0.00902331  0.20560598  1
  Bi2+  Bi113  1  0.57617617  0.00392707  0.69485364  1
  Bi2+  Bi114  1  0.59640864  0.28355448  0.18500629  1
  Bi2+  Bi115  1  0.54721509  0.27763908  0.71814341  1
  Bi2+  Bi116  1  0.59940702  0.47747913  0.19505893  1
  Bi2+  Bi117  1  0.57286402  0.47429630  0.72200120  1
  Bi2+  Bi118  1  0.62290116  0.79514713  0.20573217  1
  Bi2+  Bi119  1  0.57096243  0.77995221  0.73600660  1
  Bi2+  Bi120  1  0.86278809  -0.03722903  0.19066628  1
  Bi2+  Bi121  1  0.76958814  0.00661065  0.72069944  1
  Bi2+  Bi122  1  0.77871681  0.22588273  0.22345481  1
  Bi2+  Bi123  1  0.85137968  0.25411174  0.71259660  1
  Bi2+  Bi124  1  0.87751304  0.47932925  0.21458983  1
  Bi2+  Bi125  1  0.84431700  0.51693242  0.69333537  1
  Bi2+  Bi126  1  0.90451967  0.72450977  0.18988404  1
  Bi2+  Bi127  1  0.84731251  0.73307849  0.69088082  1
  S2-  S128  1  0.01497884  0.17064754  0.14468671  1
  S2-  S129  1  -0.00773893  0.22175174  0.65858676  1
  S2-  S130  1  0.00481415  0.33904028  0.22470240  1
  S2-  S131  1  -0.04168346  0.39217129  0.71258479  1
  S2-  S132  1  0.00508939  0.51682931  0.14888166  1
  S2-  S133  1  0.00458482  0.55338511  0.64795600  1
  S2-  S134  1  0.01403937  0.92176872  0.14680831  1
  S2-  S135  1  -0.00218563  0.97957460  0.64334937  1
  S2-  S136  1  0.26918735  0.18654380  0.16669411  1
  S2-  S137  1  0.16954492  0.11461132  0.64068822  1
  S2-  S138  1  0.16046483  0.35359183  0.15668102  1
  S2-  S139  1  0.17071501  0.37745348  0.65313907  1
  S2-  S140  1  0.23132454  0.53700354  0.15713766  1
  S2-  S141  1  0.20915851  0.60463539  0.69338875  1
  S2-  S142  1  0.23784537  0.99205712  0.14403321  1
  S2-  S143  1  0.26537677  0.80398803  0.64160846  1
  S2-  S144  1  0.49571425  0.12877365  0.15183178  1
  S2-  S145  1  0.51619204  0.14811598  0.65196269  1
  S2-  S146  1  0.38880427  0.38667904  0.14669562  1
  S2-  S147  1  0.45746315  0.39407425  0.65291302  1
  S2-  S148  1  0.41608791  0.64398533  0.14016858  1
  S2-  S149  1  0.42641041  0.63974635  0.64338693  1
  S2-  S150  1  0.44305286  0.88760026  0.15029131  1
  S2-  S151  1  0.50171003  0.85880152  0.64756992  1
  S2-  S152  1  0.76884140  0.10593327  0.15144229  1
  S2-  S153  1  0.76270769  0.14098900  0.65683691  1
  S2-  S154  1  0.82882376  0.35737961  0.14710176  1
  S2-  S155  1  0.75854125  0.38120197  0.66428699  1
  S2-  S156  1  0.79557835  0.58521214  0.16499242  1
  S2-  S157  1  0.71541856  0.62147135  0.66386707  1
  S2-  S158  1  0.76149272  0.77944861  0.13998008  1
  S2-  S159  1  0.76826500  0.87331678  0.65240386  1
  S2-  S160  1  0.16215171  -0.03144257  0.32441076  1
  S2-  S161  1  0.12721356  -0.02383478  0.83475396  1
  S2-  S162  1  0.13041025  0.20095201  0.34987852  1
  S2-  S163  1  0.10033223  0.19884966  0.83234387  1
  S2-  S164  1  0.15595831  0.45189988  0.34666607  1
  S2-  S165  1  0.06653904  0.50097890  0.82948546  1
  S2-  S166  1  0.13543693  0.72474172  0.34315966  1
  S2-  S167  1  0.13238269  0.73467506  0.84721315  1
  S2-  S168  1  0.37577607  -0.00456907  0.34503593  1
  S2-  S169  1  0.36364980  -0.11240479  0.86027584  1
  S2-  S170  1  0.37270543  0.22100297  0.33793493  1
  S2-  S171  1  0.28073860  0.26925405  0.86336410  1
  S2-  S172  1  0.38420955  0.45023918  0.34875044  1
  S2-  S173  1  0.25698517  0.49738045  0.85832057  1
  S2-  S174  1  0.40389364  0.69497759  0.33501341  1
  S2-  S175  1  0.37555394  0.65786341  0.85315804  1
  S2-  S176  1  0.60929512  0.06650989  0.34558786  1
  S2-  S177  1  0.63217663  -0.00310633  0.84323268  1
  S2-  S178  1  0.61129830  0.30806333  0.35084664  1
  S2-  S179  1  0.71267064  0.25472921  0.85070450  1
  S2-  S180  1  0.72538541  0.50763169  0.34864737  1
  S2-  S181  1  0.69383935  0.53003865  0.85091654  1
  S2-  S182  1  0.64194160  0.72054163  0.34824659  1
  S2-  S183  1  0.61813721  0.75066416  0.84672511  1
  S2-  S184  1  0.95837763  0.04080177  0.35620778  1
  S2-  S185  1  0.87540860  0.00800094  0.83529266  1
  S2-  S186  1  0.86370992  0.28481333  0.34826055  1
  S2-  S187  1  0.90141335  0.20839123  0.80661328  1
  S2-  S188  1  0.94964636  0.48341001  0.31330019  1
  S2-  S189  1  0.86685043  0.40753300  0.84579413  1
  S2-  S190  1  0.87387927  0.66752914  0.35337542  1
  S2-  S191  1  0.88656090  0.63830492  0.85409713  1
  S2-  S192  1  0.00639325  0.13047716  0.46529412  1
  S2-  S193  1  0.00296017  0.13270982  0.94317085  1
  S2-  S194  1  0.00478960  0.38609233  0.44673622  1
  S2-  S195  1  0.00546092  0.37863053  0.93870408  1
  S2-  S196  1  0.00595445  0.62183236  0.45062437  1
  S2-  S197  1  0.00776809  0.63051019  0.95586027  1
  S2-  S198  1  0.00346332  0.87765868  0.44950389  1
  S2-  S199  1  0.00589335  0.87900398  0.94407986  1
  S2-  S200  1  0.25594909  0.12898807  0.45164138  1
  S2-  S201  1  0.25677627  0.12417971  0.95711088  1
  S2-  S202  1  0.25610956  0.37820497  0.46009087  1
  S2-  S203  1  0.25963745  0.38408196  0.96375393  1
  S2-  S204  1  0.25579920  0.62660700  0.44503268  1
  S2-  S205  1  0.25730417  0.63678044  0.96130610  1
  S2-  S206  1  0.25307186  0.87837228  0.44563103  1
  S2-  S207  1  0.25028599  0.88435148  0.95977188  1
  S2-  S208  1  0.50581034  0.12972762  0.45156638  1
  S2-  S209  1  0.50461870  0.12612282  0.94954349  1
  S2-  S210  1  0.50542116  0.37727174  0.45590878  1
  S2-  S211  1  0.50418701  0.38237551  0.96181076  1
  S2-  S212  1  0.50856377  0.62780505  0.45047481  1
  S2-  S213  1  0.50794536  0.63570314  0.95389377  1
  S2-  S214  1  0.51007657  0.87603354  0.44494469  1
  S2-  S215  1  0.51037732  0.88145162  0.95305609  1
  S2-  S216  1  0.75742277  0.12886733  0.45391563  1
  S2-  S217  1  0.75531040  0.13072789  0.94670992  1
  S2-  S218  1  0.75748074  0.37883755  0.45629326  1
  S2-  S219  1  0.75194975  0.38117785  0.95397657  1
  S2-  S220  1  0.75591952  0.62604628  0.45905966  1
  S2-  S221  1  0.75239959  0.63475890  0.95985717  1
  S2-  S222  1  0.75727660  0.87746726  0.44916879  1
  S2-  S223  1  0.75699931  0.87818083  0.95207630  1
  S2-  S224  1  0.12855692  0.00581665  0.03923857  1
  S2-  S225  1  0.13632124  -0.00052250  0.53533213  1
  S2-  S226  1  0.12974077  0.25481824  0.04346975  1
  S2-  S227  1  0.13066814  0.25963438  0.54864537  1
  S2-  S228  1  0.13771416  0.51150431  0.04148079  1
  S2-  S229  1  0.14579533  0.51073384  0.54843577  1
  S2-  S230  1  0.13297610  0.75600888  0.05394046  1
  S2-  S231  1  0.13374751  0.74741125  0.54666250  1
  S2-  S232  1  0.38292697  0.00666692  0.04154366  1
  S2-  S233  1  0.38336758  0.00279244  0.54997010  1
  S2-  S234  1  0.38144165  0.25241525  0.04853761  1
  S2-  S235  1  0.38119226  0.25356177  0.54803635  1
  S2-  S236  1  0.38954295  0.50944573  0.04161863  1
  S2-  S237  1  0.37925219  0.50286554  0.54769235  1
  S2-  S238  1  0.38557286  0.76186015  0.03972233  1
  S2-  S239  1  0.38389949  0.75411857  0.53678161  1
  S2-  S240  1  0.63595485  0.00519794  0.04851158  1
  S2-  S241  1  0.63095244  0.00451180  0.54548916  1
  S2-  S242  1  0.63368016  0.25957636  0.04459660  1
  S2-  S243  1  0.62960680  0.25230603  0.55100511  1
  S2-  S244  1  0.63406922  0.50837997  0.05179929  1
  S2-  S245  1  0.62824416  0.49987180  0.54806060  1
  S2-  S246  1  0.62854232  0.75686295  0.04795305  1
  S2-  S247  1  0.63134994  0.75270424  0.54995474  1
  S2-  S248  1  0.88177497  0.00574365  0.04212446  1
  S2-  S249  1  0.87739976  0.00541425  0.54440725  1
  S2-  S250  1  0.88430109  0.25966562  0.03967686  1
  S2-  S251  1  0.88336764  0.25161282  0.55404986  1
  S2-  S252  1  0.87474738  0.50963280  0.03859813  1
  S2-  S253  1  0.88609247  0.49518308  0.55313636  1
  S2-  S254  1  0.88736177  0.75419484  0.03947113  1
  S2-  S255  1  0.88528214  0.75097906  0.54711324  1
