# generated using pymatgen
data_La12Ce14Pr13Nd13Sm12(BiS2)64
_symmetry_space_group_name_H-M   'P 1'
_cell_length_a   16.18496660
_cell_length_b   16.20086138
_cell_length_c   27.08335630
_cell_angle_alpha   90.00788173
_cell_angle_beta   89.99403849
_cell_angle_gamma   90.02633568
_symmetry_Int_Tables_number   1
_chemical_formula_structural   La12Ce14Pr13Nd13Sm12(BiS2)64
_chemical_formula_sum   'La12 Ce14 Pr13 Nd13 Sm12 Bi64 S128'
_cell_volume   7101.53684039
_cell_formula_units_Z   1
loop_
 _symmetry_equiv_pos_site_id
 _symmetry_equiv_pos_as_xyz
  1  'x, y, z'
loop_
 _atom_type_symbol
 _atom_type_oxidation_number
  La3+  3.0
  Ce3+  3.0
  Pr3+  3.0
  Nd3+  3.0
  Sm3+  3.0
  Bi2+  2.0
  S2-  -2.0
loop_
 _atom_site_type_symbol
 _atom_site_label
 _atom_site_symmetry_multiplicity
 _atom_site_fract_x
 _atom_site_fract_y
 _atom_site_fract_z
 _atom_site_occupancy
  La3+  La0  1  0.75451826  0.12659473  0.06971477  1
  La3+  La1  1  0.74928109  0.62989290  0.06878776  1
  La3+  La2  1  0.87550718  0.50745197  0.93038001  1
  La3+  La3  1  0.00330802  0.62126311  0.10449594  1
  La3+  La4  1  0.63604696  0.75913033  0.92128956  1
  La3+  La5  1  -0.00095800  0.12901760  0.56530742  1
  La3+  La6  1  0.74784396  0.63418280  0.60739353  1
  La3+  La7  1  0.38197370  0.51091924  0.92557319  1
  La3+  La8  1  0.88218465  0.00842847  0.41428890  1
  La3+  La9  1  0.13337102  0.50434916  0.91891446  1
  La3+  La10  1  0.12501811  0.75418590  0.94157879  1
  La3+  La11  1  0.00812596  0.88746240  0.09131915  1
  Ce3+  Ce12  1  0.50343277  0.38215930  0.55428656  1
  Ce3+  Ce13  1  0.37849835  0.75286190  0.94230814  1
  Ce3+  Ce14  1  0.63431251  0.00296453  0.93542996  1
  Ce3+  Ce15  1  0.24880082  0.63068751  0.56045145  1
  Ce3+  Ce16  1  0.50075302  0.37694730  0.05411774  1
  Ce3+  Ce17  1  0.24892937  0.88129914  0.55838672  1
  Ce3+  Ce18  1  0.62850872  0.75629387  0.44209332  1
  Ce3+  Ce19  1  0.50579059  0.62881754  0.56237028  1
  Ce3+  Ce20  1  0.37672415  0.00278357  0.94055593  1
  Ce3+  Ce21  1  0.13162364  0.00747415  0.43157470  1
  Ce3+  Ce22  1  0.37838931  0.75394066  0.44779466  1
  Ce3+  Ce23  1  0.87830749  0.25097439  0.94585696  1
  Ce3+  Ce24  1  0.00553086  0.38639881  0.05027756  1
  Ce3+  Ce25  1  0.37384723  0.00542391  0.43587518  1
  Pr3+  Pr26  1  0.75372428  0.12833539  0.56365978  1
  Pr3+  Pr27  1  0.50146587  0.88122331  0.56298846  1
  Pr3+  Pr28  1  0.50353209  0.87731513  0.05288435  1
  Pr3+  Pr29  1  0.00298883  0.63752229  0.57495304  1
  Pr3+  Pr30  1  0.12841710  0.25120225  0.94130832  1
  Pr3+  Pr31  1  0.75439746  0.88285061  0.56001442  1
  Pr3+  Pr32  1  0.38066489  0.24279334  0.92883603  1
  Pr3+  Pr33  1  0.25594890  0.38107280  0.05324295  1
  Pr3+  Pr34  1  0.12338090  0.50685894  0.43789163  1
  Pr3+  Pr35  1  0.62721610  0.50448367  0.93876136  1
  Pr3+  Pr36  1  0.75536761  0.38089535  0.05880583  1
  Pr3+  Pr37  1  0.00871215  0.13057642  0.06818206  1
  Pr3+  Pr38  1  0.12201359  0.00228587  0.93586990  1
  Nd3+  Nd39  1  0.75326020  0.87538773  0.06414447  1
  Nd3+  Nd40  1  0.63000359  0.50707306  0.43788736  1
  Nd3+  Nd41  1  0.87273072  0.75329099  0.43672680  1
  Nd3+  Nd42  1  0.25153080  0.87409940  0.06375101  1
  Nd3+  Nd43  1  0.12488771  0.75381839  0.43585131  1
  Nd3+  Nd44  1  0.87052010  0.25558409  0.43295356  1
  Nd3+  Nd45  1  0.75403661  0.38225396  0.56455426  1
  Nd3+  Nd46  1  0.12520460  0.25628241  0.44058736  1
  Nd3+  Nd47  1  0.50020658  0.13318782  0.55696849  1
  Nd3+  Nd48  1  0.25116761  0.13124373  0.55938263  1
  Nd3+  Nd49  1  0.25486695  0.12840958  0.06193141  1
  Nd3+  Nd50  1  0.00018499  0.88239273  0.56114900  1
  Nd3+  Nd51  1  0.37736331  0.25730318  0.44065922  1
  Sm3+  Sm52  1  0.37754388  0.50628926  0.44410125  1
  Sm3+  Sm53  1  0.88217485  0.75124134  0.95250940  1
  Sm3+  Sm54  1  0.62736248  0.25375970  0.44349435  1
  Sm3+  Sm55  1  0.24914448  0.38204888  0.55469261  1
  Sm3+  Sm56  1  0.50417728  0.12568727  0.05415819  1
  Sm3+  Sm57  1  0.25095032  0.62574117  0.05966695  1
  Sm3+  Sm58  1  0.62750243  0.00497261  0.44284088  1
  Sm3+  Sm59  1  0.63011135  0.25138580  0.94551258  1
  Sm3+  Sm60  1  0.00016322  0.38363903  0.55268218  1
  Sm3+  Sm61  1  0.87401145  0.50922312  0.44833824  1
  Sm3+  Sm62  1  0.50531532  0.62785385  0.06217012  1
  Sm3+  Sm63  1  0.87963973  0.00188917  0.94772370  1
  Bi2+  Bi64  1  0.01010133  0.14049262  0.28102897  1
  Bi2+  Bi65  1  0.00149330  0.12901874  0.79413685  1
  Bi2+  Bi66  1  0.00950797  0.37050846  0.28742205  1
  Bi2+  Bi67  1  -0.01353714  0.30966067  0.75064263  1
  Bi2+  Bi68  1  0.01141846  0.63072750  0.30624241  1
  Bi2+  Bi69  1  -0.01787126  0.63694384  0.80786961  1
  Bi2+  Bi70  1  0.01319894  0.87100575  0.29146091  1
  Bi2+  Bi71  1  0.01929657  0.89135654  0.78985719  1
  Bi2+  Bi72  1  0.28866640  0.15000065  0.29265182  1
  Bi2+  Bi73  1  0.27137947  0.17107871  0.78766271  1
  Bi2+  Bi74  1  0.20803808  0.33482410  0.29016104  1
  Bi2+  Bi75  1  0.29677173  0.38648517  0.74747790  1
  Bi2+  Bi76  1  0.28602587  0.60391862  0.28681262  1
  Bi2+  Bi77  1  0.23110226  0.61976329  0.79715720  1
  Bi2+  Bi78  1  0.27618801  0.88232029  0.28911410  1
  Bi2+  Bi79  1  0.27773951  0.88413198  0.78619165  1
  Bi2+  Bi80  1  0.48015961  0.08818508  0.28935191  1
  Bi2+  Bi81  1  0.50750758  0.07456798  0.79268513  1
  Bi2+  Bi82  1  0.44822402  0.38007145  0.28301864  1
  Bi2+  Bi83  1  0.50689442  0.35844973  0.78775880  1
  Bi2+  Bi84  1  0.48991908  0.64923877  0.29069053  1
  Bi2+  Bi85  1  0.49186545  0.56995716  0.80637722  1
  Bi2+  Bi86  1  0.47421730  0.84899003  0.29933503  1
  Bi2+  Bi87  1  0.47269062  0.88156124  0.77540323  1
  Bi2+  Bi88  1  0.74090660  0.13671551  0.29876497  1
  Bi2+  Bi89  1  0.69465264  0.11416832  0.81857761  1
  Bi2+  Bi90  1  0.72925184  0.36533709  0.26709475  1
  Bi2+  Bi91  1  0.78773855  0.29795127  0.77329759  1
  Bi2+  Bi92  1  0.75320370  0.60269355  0.30330172  1
  Bi2+  Bi93  1  0.74423445  0.61850224  0.81004202  1
  Bi2+  Bi94  1  0.68058316  0.88940661  0.29261059  1
  Bi2+  Bi95  1  0.77226589  0.93643003  0.78707334  1
  Bi2+  Bi96  1  0.18364880  0.00618501  0.22068569  1
  Bi2+  Bi97  1  0.11760997  -0.00807799  0.71037878  1
  Bi2+  Bi98  1  0.08759766  0.25399709  0.20095120  1
  Bi2+  Bi99  1  0.15192009  0.23668797  0.70888830  1
  Bi2+  Bi100  1  0.13640924  0.46458339  0.21086962  1
  Bi2+  Bi101  1  0.11084997  0.48817035  0.69895960  1
  Bi2+  Bi102  1  0.17419997  0.73467060  0.21061968  1
  Bi2+  Bi103  1  0.11248881  0.75402490  0.70549419  1
  Bi2+  Bi104  1  0.38720344  -0.02048905  0.20725515  1
  Bi2+  Bi105  1  0.36121765  0.01839552  0.71590947  1
  Bi2+  Bi106  1  0.34766499  0.27550082  0.20603983  1
  Bi2+  Bi107  1  0.45776629  0.23776390  0.70255829  1
  Bi2+  Bi108  1  0.38598703  0.59161720  0.18561785  1
  Bi2+  Bi109  1  0.38888196  0.54456431  0.70905225  1
  Bi2+  Bi110  1  0.36101507  0.78610253  0.18746522  1
  Bi2+  Bi111  1  0.36366995  0.73283169  0.73005537  1
  Bi2+  Bi112  1  0.59998368  0.02365785  0.20136670  1
  Bi2+  Bi113  1  0.65281091  0.03708844  0.71151232  1
  Bi2+  Bi114  1  0.54854498  0.25345620  0.22108326  1
  Bi2+  Bi115  1  0.65950021  0.23465724  0.69545380  1
  Bi2+  Bi116  1  0.56178945  0.52173219  0.21194123  1
  Bi2+  Bi117  1  0.59455299  0.48790234  0.71468813  1
  Bi2+  Bi118  1  0.59470670  0.75889652  0.21672074  1
  Bi2+  Bi119  1  0.61176600  0.76528329  0.71716949  1
  Bi2+  Bi120  1  0.85334124  -0.00396036  0.20667140  1
  Bi2+  Bi121  1  0.88213680  0.05729826  0.71131003  1
  Bi2+  Bi122  1  0.88660294  0.26218745  0.22166498  1
  Bi2+  Bi123  1  0.85092985  0.23097341  0.66565240  1
  Bi2+  Bi124  1  0.86898677  0.47005925  0.21299732  1
  Bi2+  Bi125  1  0.86284148  0.48157363  0.72003707  1
  Bi2+  Bi126  1  0.84743741  0.74373384  0.21826060  1
  Bi2+  Bi127  1  0.86603095  0.79973444  0.72387329  1
  S2-  S128  1  -0.02246593  0.04636653  0.15389800  1
  S2-  S129  1  0.00328831  0.00452858  0.63860904  1
  S2-  S130  1  0.00401514  0.45508902  0.14028277  1
  S2-  S131  1  0.00990816  0.37211422  0.65027952  1
  S2-  S132  1  0.01105490  0.67655800  0.20810581  1
  S2-  S133  1  -0.01690481  0.57003096  0.67089231  1
  S2-  S134  1  -0.04810759  0.86181335  0.18949061  1
  S2-  S135  1  -0.01122825  0.77800288  0.64465589  1
  S2-  S136  1  0.19950469  0.13258414  0.15635423  1
  S2-  S137  1  0.22218114  0.10876968  0.65708376  1
  S2-  S138  1  0.26001899  0.39309995  0.15475933  1
  S2-  S139  1  0.23274495  0.37410932  0.65288292  1
  S2-  S140  1  0.16807922  0.60646924  0.14577364  1
  S2-  S141  1  0.18299668  0.62463775  0.65151078  1
  S2-  S142  1  0.15739662  0.87976972  0.14834762  1
  S2-  S143  1  0.20422895  0.86951646  0.65366257  1
  S2-  S144  1  0.49232797  0.13339625  0.15188193  1
  S2-  S145  1  0.47634516  0.08646389  0.65161130  1
  S2-  S146  1  0.51390363  0.38618718  0.15186975  1
  S2-  S147  1  0.49809588  0.38911971  0.65180621  1
  S2-  S148  1  0.61575907  0.63965516  0.13955770  1
  S2-  S149  1  0.58630121  0.63303950  0.65111387  1
  S2-  S150  1  0.53677946  0.88252231  0.15201414  1
  S2-  S151  1  0.51717758  0.85739213  0.66424509  1
  S2-  S152  1  0.73345949  0.11378928  0.17021862  1
  S2-  S153  1  0.76593412  0.00677693  0.63675077  1
  S2-  S154  1  0.74979881  0.39219319  0.15988074  1
  S2-  S155  1  0.74035642  0.46870416  0.65117975  1
  S2-  S156  1  0.84206948  0.61730253  0.15439795  1
  S2-  S157  1  0.80642979  0.64052451  0.71140974  1
  S2-  S158  1  0.75838308  0.86351689  0.16425971  1
  S2-  S159  1  0.74513797  0.79652877  0.65095887  1
  S2-  S160  1  0.02913217  -0.00195558  0.35184325  1
  S2-  S161  1  0.15853809  -0.03386671  0.83838316  1
  S2-  S162  1  0.13382182  0.20056764  0.34619998  1
  S2-  S163  1  0.13278114  0.20710680  0.84383919  1
  S2-  S164  1  0.14031448  0.55181068  0.34122953  1
  S2-  S165  1  0.08585101  0.51707819  0.81435798  1
  S2-  S166  1  0.11697522  0.76915426  0.33498952  1
  S2-  S167  1  0.11487664  0.73172730  0.84017674  1
  S2-  S168  1  0.26273783  0.00677304  0.35927496  1
  S2-  S169  1  0.37337447  0.09923024  0.85967863  1
  S2-  S170  1  0.41858557  0.23621103  0.34489625  1
  S2-  S171  1  0.36527005  0.30450476  0.83376160  1
  S2-  S172  1  0.37408765  0.49055629  0.34613352  1
  S2-  S173  1  0.26799745  0.48976668  0.85066621  1
  S2-  S174  1  0.35684703  0.73066377  0.35114221  1
  S2-  S175  1  0.37810189  0.66920485  0.85734146  1
  S2-  S176  1  0.61916518  0.03688726  0.34569978  1
  S2-  S177  1  0.65394709  -0.09654534  0.85669264  1
  S2-  S178  1  0.68438044  0.26234917  0.35023827  1
  S2-  S179  1  0.60751854  0.25278267  0.84805702  1
  S2-  S180  1  0.65473935  0.49036844  0.33772308  1
  S2-  S181  1  0.65001319  0.49032839  0.83862645  1
  S2-  S182  1  0.68904016  0.74133888  0.35049957  1
  S2-  S183  1  0.60417838  0.70648090  0.82376446  1
  S2-  S184  1  0.82005057  -0.03723475  0.31503998  1
  S2-  S185  1  0.93038255  -0.01608072  0.85311785  1
  S2-  S186  1  0.87623333  0.15726305  0.35132830  1
  S2-  S187  1  0.87851888  0.22178046  0.84929090  1
  S2-  S188  1  0.88362785  0.53088232  0.34971195  1
  S2-  S189  1  0.87513163  0.50247488  0.82826887  1
  S2-  S190  1  0.90538247  0.76015318  0.33675120  1
  S2-  S191  1  0.85161918  0.73395875  0.85492096  1
  S2-  S192  1  0.00256711  0.13592622  0.45562812  1
  S2-  S193  1  0.00186486  0.12693716  0.95955598  1
  S2-  S194  1  -0.00298336  0.38037461  0.44675268  1
  S2-  S195  1  0.00390567  0.37852595  0.94156711  1
  S2-  S196  1  -0.00049734  0.63025499  0.45800955  1
  S2-  S197  1  0.00284476  0.62702187  0.94409857  1
  S2-  S198  1  0.00182482  0.87586805  0.45252352  1
  S2-  S199  1  0.00053525  0.87784277  0.96072253  1
  S2-  S200  1  0.25388932  0.13700284  0.45467040  1
  S2-  S201  1  0.24895055  0.12447978  0.95613335  1
  S2-  S202  1  0.25220249  0.38200712  0.44895790  1
  S2-  S203  1  0.25764654  0.37110532  0.94779783  1
  S2-  S204  1  0.25253142  0.62794399  0.45378904  1
  S2-  S205  1  0.25185789  0.63093345  0.95559869  1
  S2-  S206  1  0.25219874  0.87432124  0.45300823  1
  S2-  S207  1  0.25346135  0.87827768  0.95548084  1
  S2-  S208  1  0.50282762  0.13070734  0.45075121  1
  S2-  S209  1  0.51038160  0.12479627  0.95150958  1
  S2-  S210  1  0.50440022  0.38122700  0.44725040  1
  S2-  S211  1  0.50341246  0.37556946  0.94704450  1
  S2-  S212  1  0.50263576  0.62743047  0.45321559  1
  S2-  S213  1  0.50867683  0.63359985  0.95643553  1
  S2-  S214  1  0.50201042  0.88219076  0.45302084  1
  S2-  S215  1  0.50091607  0.87934716  0.94588108  1
  S2-  S216  1  0.74736689  0.12978938  0.45581399  1
  S2-  S217  1  0.75548926  0.12696816  0.95981776  1
  S2-  S218  1  0.75231237  0.38151866  0.45567011  1
  S2-  S219  1  0.75239627  0.37575676  0.95007032  1
  S2-  S220  1  0.75186537  0.62819490  0.45321720  1
  S2-  S221  1  0.75178589  0.63097876  0.95649105  1
  S2-  S222  1  0.75186749  0.88428746  0.44971281  1
  S2-  S223  1  0.76225761  0.87787651  0.95818869  1
  S2-  S224  1  0.13021579  0.00427828  0.04496546  1
  S2-  S225  1  0.12997039  0.00694773  0.53995652  1
  S2-  S226  1  0.13021701  0.25616789  0.04856616  1
  S2-  S227  1  0.12508447  0.25801793  0.54802430  1
  S2-  S228  1  0.13201241  0.50318736  0.03358198  1
  S2-  S229  1  0.12426591  0.50347197  0.54549158  1
  S2-  S230  1  0.12480686  0.74814842  0.05039944  1
  S2-  S231  1  0.12726646  0.75590338  0.54289679  1
  S2-  S232  1  0.37668089  0.00253222  0.04915200  1
  S2-  S233  1  0.37507982  0.00633420  0.54437007  1
  S2-  S234  1  0.37963595  0.24883209  0.04245698  1
  S2-  S235  1  0.37399068  0.25860067  0.54848330  1
  S2-  S236  1  0.38079549  0.50791632  0.04036659  1
  S2-  S237  1  0.37410779  0.50490412  0.54972061  1
  S2-  S238  1  0.37740946  0.74960785  0.04842485  1
  S2-  S239  1  0.37689967  0.75406853  0.55595591  1
  S2-  S240  1  0.62935086  0.00230346  0.04529597  1
  S2-  S241  1  0.62171152  0.00720479  0.54644279  1
  S2-  S242  1  0.62810910  0.25147778  0.05152837  1
  S2-  S243  1  0.62817409  0.25597628  0.54886829  1
  S2-  S244  1  0.62552884  0.50014360  0.04524363  1
  S2-  S245  1  0.62805099  0.50471006  0.54477645  1
  S2-  S246  1  0.62800085  0.75718928  0.03752252  1
  S2-  S247  1  0.62599914  0.75565129  0.54659786  1
  S2-  S248  1  0.87809303  0.00111984  0.05151389  1
  S2-  S249  1  0.87923243  0.00722202  0.53218594  1
  S2-  S250  1  0.88160870  0.25485913  0.05485057  1
  S2-  S251  1  0.87750547  0.25872009  0.53986431  1
  S2-  S252  1  0.87802339  0.50631931  0.04047673  1
  S2-  S253  1  0.87781841  0.50762828  0.55258173  1
  S2-  S254  1  0.88562710  0.75511581  0.05800366  1
  S2-  S255  1  0.87164558  0.75144100  0.54492531  1
