# generated using pymatgen
data_La12Ce14Pr13Nd13Sm12(BiS2)64
_symmetry_space_group_name_H-M   'P 1'
_cell_length_a   16.18638356
_cell_length_b   16.18456918
_cell_length_c   27.08174386
_cell_angle_alpha   90.07030927
_cell_angle_beta   89.96450600
_cell_angle_gamma   89.94145680
_symmetry_Int_Tables_number   1
_chemical_formula_structural   La12Ce14Pr13Nd13Sm12(BiS2)64
_chemical_formula_sum   'La12 Ce14 Pr13 Nd13 Sm12 Bi64 S128'
_cell_volume   7094.58440057
_cell_formula_units_Z   1
loop_
 _symmetry_equiv_pos_site_id
 _symmetry_equiv_pos_as_xyz
  1  'x, y, z'
loop_
 _atom_type_symbol
 _atom_type_oxidation_number
  La3+  3.0
  Ce3+  3.0
  Pr3+  3.0
  Nd3+  3.0
  Sm3+  3.0
  Bi2+  2.0
  S2-  -2.0
loop_
 _atom_site_type_symbol
 _atom_site_label
 _atom_site_symmetry_multiplicity
 _atom_site_fract_x
 _atom_site_fract_y
 _atom_site_fract_z
 _atom_site_occupancy
  La3+  La0  1  0.75112939  0.62772113  0.07622508  1
  La3+  La1  1  0.62241008  0.00139225  0.94102716  1
  La3+  La2  1  0.61449211  0.51221317  0.91205811  1
  La3+  La3  1  0.12574362  0.74726080  0.93685184  1
  La3+  La4  1  -0.00588386  0.11518222  0.58641918  1
  La3+  La5  1  0.75495157  0.61729218  0.60018963  1
  La3+  La6  1  0.12928139  -0.00705523  0.90957798  1
  La3+  La7  1  0.37558052  0.75243213  0.42079782  1
  La3+  La8  1  -0.00405977  0.37186571  0.07443811  1
  La3+  La9  1  0.49959674  0.37094109  0.08256245  1
  La3+  La10  1  0.12428902  0.48741821  0.41735917  1
  La3+  La11  1  0.87198739  0.48749312  0.42043580  1
  Ce3+  Ce12  1  0.74743369  0.86842637  0.54962749  1
  Ce3+  Ce13  1  0.87779132  0.00005179  0.93820275  1
  Ce3+  Ce14  1  0.24834844  0.63649093  0.07525077  1
  Ce3+  Ce15  1  0.62230349  0.25770853  0.94564017  1
  Ce3+  Ce16  1  0.24768863  0.37924670  0.06618849  1
  Ce3+  Ce17  1  0.12382571  0.23969291  0.44163016  1
  Ce3+  Ce18  1  0.74932919  0.11993395  0.56124386  1
  Ce3+  Ce19  1  0.00251254  0.61911821  0.55227741  1
  Ce3+  Ce20  1  0.24911642  0.88103547  0.06170337  1
  Ce3+  Ce21  1  -0.00288564  0.86829146  0.56020301  1
  Ce3+  Ce22  1  0.74870383  0.38299437  0.05290446  1
  Ce3+  Ce23  1  0.75048413  0.37447410  0.55183263  1
  Ce3+  Ce24  1  0.49838688  0.87925182  0.07198287  1
  Ce3+  Ce25  1  0.37636270  -0.00168618  0.94013945  1
  Pr3+  Pr26  1  0.11951969  0.75389910  0.42216303  1
  Pr3+  Pr27  1  0.12161075  -0.00297973  0.43792677  1
  Pr3+  Pr28  1  0.61964055  0.24305266  0.43486622  1
  Pr3+  Pr29  1  0.50323018  0.86618395  0.55855988  1
  Pr3+  Pr30  1  0.75227671  0.12799331  0.05492004  1
  Pr3+  Pr31  1  0.49803944  0.63506911  0.08426184  1
  Pr3+  Pr32  1  0.50125766  0.37128679  0.56077828  1
  Pr3+  Pr33  1  0.61975978  0.48931737  0.41968935  1
  Pr3+  Pr34  1  0.24508453  0.62168865  0.55201615  1
  Pr3+  Pr35  1  0.88156814  0.50716212  0.93265425  1
  Pr3+  Pr36  1  0.87639207  0.23322262  0.42982010  1
  Pr3+  Pr37  1  0.00231733  0.87830609  0.06644288  1
  Pr3+  Pr38  1  0.24661746  0.37052182  0.55592927  1
  Nd3+  Nd39  1  -0.00524485  0.37246916  0.55679852  1
  Nd3+  Nd40  1  0.12485038  0.50154662  0.94953085  1
  Nd3+  Nd41  1  0.49960693  0.12420097  0.06459228  1
  Nd3+  Nd42  1  0.12542210  0.25403811  0.94212315  1
  Nd3+  Nd43  1  0.87172783  0.73846079  0.43709618  1
  Nd3+  Nd44  1  0.87475110  0.25666221  0.93314782  1
  Nd3+  Nd45  1  0.49962382  0.11676430  0.55699885  1
  Nd3+  Nd46  1  0.62396844  -0.00483260  0.42694972  1
  Nd3+  Nd47  1  0.37484692  0.49644853  0.43578408  1
  Nd3+  Nd48  1  0.50407454  0.61677118  0.55677813  1
  Nd3+  Nd49  1  0.24811550  0.86617073  0.56068367  1
  Nd3+  Nd50  1  0.24674586  0.11812462  0.56329667  1
  Nd3+  Nd51  1  0.37779505  0.50338675  0.95509645  1
  Sm3+  Sm52  1  0.37701475  0.25546371  0.94872285  1
  Sm3+  Sm53  1  0.87319991  0.74814927  0.94929086  1
  Sm3+  Sm54  1  0.37729288  0.74896991  0.95072656  1
  Sm3+  Sm55  1  0.00296863  0.63355850  0.07587488  1
  Sm3+  Sm56  1  0.87327117  -0.00558765  0.44399497  1
  Sm3+  Sm57  1  0.37320271  0.24263658  0.44692310  1
  Sm3+  Sm58  1  0.75083226  0.87829204  0.05691966  1
  Sm3+  Sm59  1  0.37338898  -0.00878885  0.44294447  1
  Sm3+  Sm60  1  0.62752655  0.74016127  0.43762261  1
  Sm3+  Sm61  1  0.00171409  0.12359966  0.05042764  1
  Sm3+  Sm62  1  0.24701454  0.12473271  0.04937355  1
  Sm3+  Sm63  1  0.62481025  0.74657172  0.95140536  1
  Bi2+  Bi64  1  0.00197879  0.18055329  0.30370892  1
  Bi2+  Bi65  1  0.00291727  0.13896023  0.79167689  1
  Bi2+  Bi66  1  -0.01036593  0.38294906  0.29968615  1
  Bi2+  Bi67  1  0.05795133  0.39046140  0.78810476  1
  Bi2+  Bi68  1  0.00097319  0.65264216  0.28606540  1
  Bi2+  Bi69  1  0.03613920  0.63618141  0.79371885  1
  Bi2+  Bi70  1  -0.00589607  0.93394197  0.28416794  1
  Bi2+  Bi71  1  0.01916237  0.90443855  0.78736825  1
  Bi2+  Bi72  1  0.18382758  0.11151352  0.32739011  1
  Bi2+  Bi73  1  0.32727706  0.17362935  0.76498743  1
  Bi2+  Bi74  1  0.25437308  0.28355785  0.28710321  1
  Bi2+  Bi75  1  0.24937477  0.41918277  0.79908399  1
  Bi2+  Bi76  1  0.25594322  0.61271115  0.27837461  1
  Bi2+  Bi77  1  0.22868996  0.60915945  0.80778255  1
  Bi2+  Bi78  1  0.26001596  0.94935381  0.28195862  1
  Bi2+  Bi79  1  0.29748100  0.83554624  0.77956574  1
  Bi2+  Bi80  1  0.47888224  0.10315576  0.28716296  1
  Bi2+  Bi81  1  0.53375420  0.12809260  0.80320182  1
  Bi2+  Bi82  1  0.48731951  0.35481934  0.28908441  1
  Bi2+  Bi83  1  0.49913172  0.36721103  0.80928557  1
  Bi2+  Bi84  1  0.51433766  0.60881228  0.29201091  1
  Bi2+  Bi85  1  0.44300723  0.62718973  0.78178034  1
  Bi2+  Bi86  1  0.52985184  0.91827160  0.30507428  1
  Bi2+  Bi87  1  0.47889117  0.90155398  0.81140968  1
  Bi2+  Bi88  1  0.75516501  0.13770298  0.30395999  1
  Bi2+  Bi89  1  0.71389559  0.06864849  0.75398867  1
  Bi2+  Bi90  1  0.73550064  0.32577639  0.27203361  1
  Bi2+  Bi91  1  0.75409488  0.33952566  0.78702572  1
  Bi2+  Bi92  1  0.73536553  0.68529330  0.28979702  1
  Bi2+  Bi93  1  0.76335527  0.62504322  0.81281824  1
  Bi2+  Bi94  1  0.71918343  0.94360533  0.29098887  1
  Bi2+  Bi95  1  0.73638920  0.85521403  0.75572673  1
  Bi2+  Bi96  1  0.04581631  0.00377373  0.17783696  1
  Bi2+  Bi97  1  0.15911675  0.02014983  0.70175772  1
  Bi2+  Bi98  1  0.13278325  0.17784536  0.21554650  1
  Bi2+  Bi99  1  0.17570193  0.27394024  0.71707404  1
  Bi2+  Bi100  1  0.12580716  0.46628433  0.20680042  1
  Bi2+  Bi101  1  0.12141391  0.52319055  0.70943850  1
  Bi2+  Bi102  1  0.12585713  0.83838031  0.21558657  1
  Bi2+  Bi103  1  0.16125927  0.75017812  0.70938361  1
  Bi2+  Bi104  1  0.37399400  -0.01888540  0.18696782  1
  Bi2+  Bi105  1  0.43188578  0.02203522  0.72492050  1
  Bi2+  Bi106  1  0.35933954  0.18129643  0.20918792  1
  Bi2+  Bi107  1  0.43951812  0.30571015  0.70409880  1
  Bi2+  Bi108  1  0.37087236  0.50408143  0.19714647  1
  Bi2+  Bi109  1  0.34841322  0.49867242  0.70885155  1
  Bi2+  Bi110  1  0.37104264  0.79859460  0.22483323  1
  Bi2+  Bi111  1  0.34010080  0.69099256  0.68867228  1
  Bi2+  Bi112  1  0.56960971  -0.00245595  0.18939434  1
  Bi2+  Bi113  1  0.62584518  -0.04124682  0.67357810  1
  Bi2+  Bi114  1  0.62317089  0.18699213  0.21603060  1
  Bi2+  Bi115  1  0.61691252  0.23272998  0.71207805  1
  Bi2+  Bi116  1  0.64746474  0.48162829  0.20004701  1
  Bi2+  Bi117  1  0.62073827  0.51409444  0.70667564  1
  Bi2+  Bi118  1  0.63157627  0.81349980  0.21663905  1
  Bi2+  Bi119  1  0.55824788  0.76854602  0.74068380  1
  Bi2+  Bi120  1  0.85223974  -0.01756492  0.20405597  1
  Bi2+  Bi121  1  0.87008412  -0.02820072  0.70171345  1
  Bi2+  Bi122  1  0.87007170  0.20730950  0.21462753  1
  Bi2+  Bi123  1  0.87804566  0.24716129  0.71499262  1
  Bi2+  Bi124  1  0.87360243  0.48264576  0.20624246  1
  Bi2+  Bi125  1  0.87591625  0.49030311  0.70398926  1
  Bi2+  Bi126  1  0.89368276  0.79042064  0.22029413  1
  Bi2+  Bi127  1  0.91530235  0.76576652  0.74614048  1
  S2-  S128  1  -0.01244917  0.17886269  0.14247954  1
  S2-  S129  1  0.05373070  0.16049323  0.68282391  1
  S2-  S130  1  0.00320680  0.37259237  0.17693109  1
  S2-  S131  1  -0.04758538  0.35932244  0.65571421  1
  S2-  S132  1  -0.00379488  0.56838930  0.17030975  1
  S2-  S133  1  -0.07958706  0.59708455  0.63814936  1
  S2-  S134  1  0.00976129  0.76786394  0.14636879  1
  S2-  S135  1  0.00954829  0.95725077  0.64608490  1
  S2-  S136  1  0.24023399  0.09703206  0.14698174  1
  S2-  S137  1  0.26512387  0.13271337  0.66205465  1
  S2-  S138  1  0.25955280  0.37871127  0.16475140  1
  S2-  S139  1  0.21159524  0.39760575  0.65290929  1
  S2-  S140  1  0.22528734  0.59961209  0.17236319  1
  S2-  S141  1  0.13293714  0.63466609  0.63088890  1
  S2-  S142  1  0.24931175  0.79667626  0.14829011  1
  S2-  S143  1  0.24287637  0.90388452  0.65906350  1
  S2-  S144  1  0.49630174  0.21797475  0.14745058  1
  S2-  S145  1  0.51823727  0.11443333  0.65593769  1
  S2-  S146  1  0.49621313  0.40086451  0.18554016  1
  S2-  S147  1  0.49421292  0.45047768  0.65032782  1
  S2-  S148  1  0.52195997  0.59140541  0.18546482  1
  S2-  S149  1  0.59194916  0.63567359  0.64235969  1
  S2-  S150  1  0.48954816  0.77823901  0.15246242  1
  S2-  S151  1  0.49171238  0.85303464  0.65954443  1
  S2-  S152  1  0.75642886  0.11494353  0.15538152  1
  S2-  S153  1  0.84211416  0.12873850  0.64512274  1
  S2-  S154  1  0.76069967  0.37422121  0.15132305  1
  S2-  S155  1  0.74051434  0.44746121  0.64221156  1
  S2-  S156  1  0.76131258  0.60367614  0.17763648  1
  S2-  S157  1  0.75835507  0.61701752  0.71224925  1
  S2-  S158  1  0.76415065  0.82900681  0.15083051  1
  S2-  S159  1  0.75798354  0.84327353  0.64679941  1
  S2-  S160  1  0.10979131  -0.10098427  0.35489911  1
  S2-  S161  1  0.13165346  0.04657126  0.80962951  1
  S2-  S162  1  0.12892324  0.33215580  0.35766063  1
  S2-  S163  1  0.10248524  0.25372174  0.84307275  1
  S2-  S164  1  0.13081271  0.51570519  0.31307984  1
  S2-  S165  1  0.02915461  0.51061259  0.86626006  1
  S2-  S166  1  0.15357387  0.71155322  0.32346644  1
  S2-  S167  1  0.12282165  0.84359689  0.85353269  1
  S2-  S168  1  0.37320362  -0.09610148  0.35743406  1
  S2-  S169  1  0.32698038  -0.03047487  0.84809317  1
  S2-  S170  1  0.39600829  0.24478680  0.34920874  1
  S2-  S171  1  0.37893741  0.25135162  0.85059603  1
  S2-  S172  1  0.41820893  0.48691314  0.33809142  1
  S2-  S173  1  0.45316656  0.50372925  0.86500206  1
  S2-  S174  1  0.38021014  0.69811073  0.32277830  1
  S2-  S175  1  0.34657968  0.72250658  0.85396362  1
  S2-  S176  1  0.61183774  0.12238651  0.35822128  1
  S2-  S177  1  0.63043496  -0.00622770  0.84088615  1
  S2-  S178  1  0.61145308  0.35186642  0.35109857  1
  S2-  S179  1  0.63299354  0.25440897  0.84798573  1
  S2-  S180  1  0.66998937  0.54789344  0.32148001  1
  S2-  S181  1  0.63424961  0.46551482  0.80945550  1
  S2-  S182  1  0.59587249  0.74361350  0.33994580  1
  S2-  S183  1  0.62240654  0.67022574  0.86371041  1
  S2-  S184  1  0.89615413  0.09062134  0.36442670  1
  S2-  S185  1  0.91235138  0.01106766  0.84220534  1
  S2-  S186  1  0.85733221  0.34631686  0.35035949  1
  S2-  S187  1  0.87340961  0.24591094  0.83262161  1
  S2-  S188  1  0.90768863  0.53464370  0.31957728  1
  S2-  S189  1  0.83138013  0.47779326  0.83416994  1
  S2-  S190  1  0.88587060  0.74852073  0.33636566  1
  S2-  S191  1  0.89496384  0.71973123  0.85251561  1
  S2-  S192  1  0.00130886  0.11718807  0.46614937  1
  S2-  S193  1  0.00266447  0.12689037  0.94591304  1
  S2-  S194  1  -0.00208941  0.36437361  0.45125847  1
  S2-  S195  1  -0.00045365  0.37515543  0.96122100  1
  S2-  S196  1  0.00225657  0.61900035  0.44035964  1
  S2-  S197  1  -0.00064911  0.63011514  0.96720174  1
  S2-  S198  1  -0.00985191  0.87018568  0.45360830  1
  S2-  S199  1  -0.00388577  0.87378228  0.95637931  1
  S2-  S200  1  0.25384456  0.11664833  0.45669796  1
  S2-  S201  1  0.25085443  0.12827292  0.94412828  1
  S2-  S202  1  0.25516192  0.36881418  0.44989558  1
  S2-  S203  1  0.25125744  0.37840043  0.95734784  1
  S2-  S204  1  0.24883906  0.62156905  0.44219410  1
  S2-  S205  1  0.25113402  0.62499795  0.96423548  1
  S2-  S206  1  0.24834609  0.87073221  0.45442051  1
  S2-  S207  1  0.25370306  0.87350355  0.95573255  1
  S2-  S208  1  0.49207192  0.11541115  0.45275819  1
  S2-  S209  1  0.49782932  0.12906868  0.95684037  1
  S2-  S210  1  0.49237658  0.36831699  0.45444294  1
  S2-  S211  1  0.50038359  0.37846276  0.96740624  1
  S2-  S212  1  0.49948551  0.62217386  0.44732375  1
  S2-  S213  1  0.50029814  0.62819650  0.97139289  1
  S2-  S214  1  0.50548599  0.86954752  0.45199575  1
  S2-  S215  1  0.50075142  0.87132023  0.96007520  1
  S2-  S216  1  0.74686093  0.11594151  0.45652619  1
  S2-  S217  1  0.75105537  0.12849921  0.94651129  1
  S2-  S218  1  0.74563961  0.36606451  0.44891254  1
  S2-  S219  1  0.74774790  0.38446271  0.94703458  1
  S2-  S220  1  0.74727142  0.61730417  0.43615188  1
  S2-  S221  1  0.75022215  0.62323935  0.96341282  1
  S2-  S222  1  0.74865214  0.87017699  0.44145883  1
  S2-  S223  1  0.74925204  0.87186207  0.95042593  1
  S2-  S224  1  0.12453004  0.00221469  0.03697860  1
  S2-  S225  1  0.12630558  -0.00667246  0.54589382  1
  S2-  S226  1  0.12573186  0.24969367  0.04898224  1
  S2-  S227  1  0.12129810  0.24394121  0.55168931  1
  S2-  S228  1  0.12186032  0.50374154  0.05604996  1
  S2-  S229  1  0.12288651  0.49199283  0.53175467  1
  S2-  S230  1  0.12638288  0.75360191  0.04497070  1
  S2-  S231  1  0.12207527  0.75060510  0.53250078  1
  S2-  S232  1  0.37477098  0.00387872  0.04697503  1
  S2-  S233  1  0.37414539  -0.00817094  0.54903844  1
  S2-  S234  1  0.36853239  0.24963491  0.05227944  1
  S2-  S235  1  0.37452564  0.24381407  0.55286691  1
  S2-  S236  1  0.37521224  0.50486512  0.06240115  1
  S2-  S237  1  0.37187256  0.49812761  0.54335684  1
  S2-  S238  1  0.37388858  0.75556955  0.05207534  1
  S2-  S239  1  0.37498761  0.74369439  0.53932943  1
  S2-  S240  1  0.62671451  0.00100023  0.04922900  1
  S2-  S241  1  0.62369247  -0.00472444  0.53747376  1
  S2-  S242  1  0.62747471  0.25173819  0.05097060  1
  S2-  S243  1  0.62313077  0.24402896  0.54705881  1
  S2-  S244  1  0.62105745  0.50462966  0.06548541  1
  S2-  S245  1  0.62311030  0.49467774  0.53334837  1
  S2-  S246  1  0.62762654  0.75505267  0.05509928  1
  S2-  S247  1  0.62934665  0.74092626  0.54099032  1
  S2-  S248  1  0.87560819  0.00077487  0.04636936  1
  S2-  S249  1  0.87150954  -0.00806365  0.54644888  1
  S2-  S250  1  0.87380671  0.25244733  0.04095972  1
  S2-  S251  1  0.87270124  0.24612306  0.54125636  1
  S2-  S252  1  0.87934107  0.50486962  0.05108910  1
  S2-  S253  1  0.87228058  0.49561426  0.53234029  1
  S2-  S254  1  0.87406905  0.75277682  0.05166860  1
  S2-  S255  1  0.87120337  0.74222686  0.54377913  1
