# generated using pymatgen
data_La12Ce14Pr13Nd13Sm12(BiS2)64
_symmetry_space_group_name_H-M   'P 1'
_cell_length_a   16.07868522
_cell_length_b   16.14135887
_cell_length_c   27.36493395
_cell_angle_alpha   90.15321932
_cell_angle_beta   89.91695047
_cell_angle_gamma   90.11006487
_symmetry_Int_Tables_number   1
_chemical_formula_structural   La12Ce14Pr13Nd13Sm12(BiS2)64
_chemical_formula_sum   'La12 Ce14 Pr13 Nd13 Sm12 Bi64 S128'
_cell_volume   7102.02543384
_cell_formula_units_Z   1
loop_
 _symmetry_equiv_pos_site_id
 _symmetry_equiv_pos_as_xyz
  1  'x, y, z'
loop_
 _atom_type_symbol
 _atom_type_oxidation_number
  La3+  3.0
  Ce3+  3.0
  Pr3+  3.0
  Nd3+  3.0
  Sm3+  3.0
  Bi2+  2.0
  S2-  -2.0
loop_
 _atom_site_type_symbol
 _atom_site_label
 _atom_site_symmetry_multiplicity
 _atom_site_fract_x
 _atom_site_fract_y
 _atom_site_fract_z
 _atom_site_occupancy
  La3+  La0  1  0.37441719  0.74094791  0.91099240  1
  La3+  La1  1  0.00051203  0.13175557  0.56127914  1
  La3+  La2  1  0.24969970  0.63466256  0.58315928  1
  La3+  La3  1  -0.01293795  0.87110058  0.07394187  1
  La3+  La4  1  0.35397979  0.49016601  0.92681952  1
  La3+  La5  1  0.24370297  0.36312337  0.07275597  1
  La3+  La6  1  0.24943947  0.13720883  0.58719073  1
  La3+  La7  1  0.37607332  0.75459376  0.43715129  1
  La3+  La8  1  0.24308853  0.88353309  0.57455671  1
  La3+  La9  1  0.25326893  0.09269568  0.09988677  1
  La3+  La10  1  0.49712853  0.12942063  0.56442751  1
  La3+  La11  1  0.74562381  0.12670518  0.06885519  1
  Ce3+  Ce12  1  0.87510662  0.01353279  0.43181818  1
  Ce3+  Ce13  1  0.73914370  0.87236910  0.05658151  1
  Ce3+  Ce14  1  0.37160638  0.24411635  0.42745660  1
  Ce3+  Ce15  1  0.11058227  -0.00925045  0.93045251  1
  Ce3+  Ce16  1  0.88358486  0.26066532  0.42089994  1
  Ce3+  Ce17  1  0.62715862  0.00495910  0.44638230  1
  Ce3+  Ce18  1  0.11611442  0.49683524  0.94904806  1
  Ce3+  Ce19  1  0.75536192  0.88013242  0.55749851  1
  Ce3+  Ce20  1  -0.01007098  0.36701662  0.05398752  1
  Ce3+  Ce21  1  0.86610804  -0.00885079  0.93510219  1
  Ce3+  Ce22  1  0.12024091  -0.00360739  0.43249549  1
  Ce3+  Ce23  1  0.62525603  0.25322918  0.44305022  1
  Ce3+  Ce24  1  0.24526918  0.87153810  0.03571079  1
  Ce3+  Ce25  1  0.49822234  0.87948678  0.56336824  1
  Pr3+  Pr26  1  0.35570892  0.24240457  0.93122952  1
  Pr3+  Pr27  1  -0.00075974  0.62755765  0.56982020  1
  Pr3+  Pr28  1  0.50355893  0.62840326  0.57611006  1
  Pr3+  Pr29  1  -0.01608277  0.62282656  0.07275695  1
  Pr3+  Pr30  1  0.24998629  0.37748945  0.55449491  1
  Pr3+  Pr31  1  0.11560717  0.23811356  0.93579688  1
  Pr3+  Pr32  1  -0.00833609  0.88034981  0.56560628  1
  Pr3+  Pr33  1  0.73129712  0.61929904  0.06692819  1
  Pr3+  Pr34  1  0.48518632  0.62128235  0.06441406  1
  Pr3+  Pr35  1  0.49745578  0.37798404  0.55374688  1
  Pr3+  Pr36  1  0.87493390  0.50670221  0.42846569  1
  Pr3+  Pr37  1  0.12536472  0.75235732  0.44143792  1
  Pr3+  Pr38  1  0.37261671  0.00105303  0.43562275  1
  Nd3+  Nd39  1  0.86872806  0.24085574  0.92399393  1
  Nd3+  Nd40  1  0.62372622  0.50752033  0.44293575  1
  Nd3+  Nd41  1  0.61259757  0.49351463  0.94159982  1
  Nd3+  Nd42  1  0.87524945  0.75067730  0.43691532  1
  Nd3+  Nd43  1  0.86471739  0.74431076  0.93839285  1
  Nd3+  Nd44  1  0.47932404  0.87499927  0.05748049  1
  Nd3+  Nd45  1  0.37811597  0.00370116  0.91214580  1
  Nd3+  Nd46  1  -0.00498570  0.11465165  0.06130089  1
  Nd3+  Nd47  1  0.37457914  0.51100394  0.44113380  1
  Nd3+  Nd48  1  0.75473617  0.13242535  0.56604613  1
  Nd3+  Nd49  1  0.75334239  0.37878057  0.55536673  1
  Nd3+  Nd50  1  0.86656210  0.49766938  0.93901876  1
  Nd3+  Nd51  1  0.00067881  0.37847795  0.55069829  1
  Sm3+  Sm52  1  0.48847722  0.12013310  0.05459231  1
  Sm3+  Sm53  1  0.61744578  -0.00377121  0.94368448  1
  Sm3+  Sm54  1  0.24559174  0.62287228  0.05891476  1
  Sm3+  Sm55  1  0.61207859  0.74336145  0.94023701  1
  Sm3+  Sm56  1  0.61647858  0.24429426  0.94234136  1
  Sm3+  Sm57  1  0.48232186  0.36684700  0.05135204  1
  Sm3+  Sm58  1  0.11437103  0.74385341  0.93896919  1
  Sm3+  Sm59  1  0.12759725  0.51170699  0.44118760  1
  Sm3+  Sm60  1  0.62683203  0.75315616  0.45239536  1
  Sm3+  Sm61  1  0.74073421  0.36916210  0.04960514  1
  Sm3+  Sm62  1  0.13444415  0.24450223  0.42455388  1
  Sm3+  Sm63  1  0.75113370  0.62553623  0.57174952  1
  Bi2+  Bi64  1  -0.00189313  0.12135839  0.30104415  1
  Bi2+  Bi65  1  -0.01375962  0.10895445  0.78190745  1
  Bi2+  Bi66  1  0.00541215  0.42376520  0.30286468  1
  Bi2+  Bi67  1  -0.01996048  0.36921436  0.79381772  1
  Bi2+  Bi68  1  0.01112572  0.62648196  0.29527865  1
  Bi2+  Bi69  1  -0.02115916  0.56696998  0.78515627  1
  Bi2+  Bi70  1  -0.00194447  0.82818758  0.30265626  1
  Bi2+  Bi71  1  -0.04383317  0.85009964  0.78649619  1
  Bi2+  Bi72  1  0.26058366  0.15307048  0.28975230  1
  Bi2+  Bi73  1  0.26282900  0.14246344  0.79547856  1
  Bi2+  Bi74  1  0.24779691  0.44509544  0.28970009  1
  Bi2+  Bi75  1  0.35531946  0.36883244  0.80914086  1
  Bi2+  Bi76  1  0.26449982  0.64961577  0.29240699  1
  Bi2+  Bi77  1  0.23749370  0.62622709  0.79827358  1
  Bi2+  Bi78  1  0.25870826  0.85223627  0.28438847  1
  Bi2+  Bi79  1  0.20584715  0.88227633  0.79516660  1
  Bi2+  Bi80  1  0.50589482  0.15144082  0.28118363  1
  Bi2+  Bi81  1  0.54567161  0.13164032  0.78444004  1
  Bi2+  Bi82  1  0.50696233  0.36212682  0.25554485  1
  Bi2+  Bi83  1  0.54434004  0.38841391  0.78326279  1
  Bi2+  Bi84  1  0.51733348  0.62183313  0.29411703  1
  Bi2+  Bi85  1  0.52508271  0.62957744  0.79110941  1
  Bi2+  Bi86  1  0.51801597  0.86413144  0.30018447  1
  Bi2+  Bi87  1  0.58449409  0.89025572  0.77915461  1
  Bi2+  Bi88  1  0.72783309  0.15188658  0.28400419  1
  Bi2+  Bi89  1  0.80194235  0.09096396  0.82328307  1
  Bi2+  Bi90  1  0.73012263  0.34939672  0.25414237  1
  Bi2+  Bi91  1  0.77311610  0.27597697  0.79458589  1
  Bi2+  Bi92  1  0.75543130  0.55353953  0.29471953  1
  Bi2+  Bi93  1  0.75009546  0.69461782  0.80978618  1
  Bi2+  Bi94  1  0.81022104  0.89534082  0.28337760  1
  Bi2+  Bi95  1  0.77007183  0.89521759  0.82100403  1
  Bi2+  Bi96  1  0.10247615  -0.06411111  0.22826034  1
  Bi2+  Bi97  1  0.10834043  0.01426942  0.71273939  1
  Bi2+  Bi98  1  0.13110102  0.34555820  0.22078988  1
  Bi2+  Bi99  1  0.12234689  0.28347881  0.70878356  1
  Bi2+  Bi100  1  0.17489753  0.53637417  0.19408175  1
  Bi2+  Bi101  1  0.14417909  0.46524398  0.75667074  1
  Bi2+  Bi102  1  0.14983962  0.73951196  0.21193911  1
  Bi2+  Bi103  1  0.10386058  0.73696531  0.70762606  1
  Bi2+  Bi104  1  0.37273904  -0.03236232  0.19973513  1
  Bi2+  Bi105  1  0.38358318  0.00594154  0.71435758  1
  Bi2+  Bi106  1  0.37456240  0.25591848  0.19931785  1
  Bi2+  Bi107  1  0.39209172  0.27813384  0.70847088  1
  Bi2+  Bi108  1  0.37254710  0.51798888  0.20801952  1
  Bi2+  Bi109  1  0.40564169  0.48893057  0.72285310  1
  Bi2+  Bi110  1  0.47367569  0.72921399  0.20106975  1
  Bi2+  Bi111  1  0.38694956  0.75390320  0.71146921  1
  Bi2+  Bi112  1  0.63863926  -0.01654650  0.24357596  1
  Bi2+  Bi113  1  0.64546962  0.03241471  0.70197086  1
  Bi2+  Bi114  1  0.60597115  0.22793703  0.19056850  1
  Bi2+  Bi115  1  0.66620921  0.22350566  0.70083858  1
  Bi2+  Bi116  1  0.62279848  0.50266965  0.20843374  1
  Bi2+  Bi117  1  0.68706985  0.54102796  0.74154171  1
  Bi2+  Bi118  1  0.69315926  0.73919179  0.25978612  1
  Bi2+  Bi119  1  0.64513631  0.74702350  0.70868011  1
  Bi2+  Bi120  1  0.87369139  0.01299876  0.19646573  1
  Bi2+  Bi121  1  0.84474156  0.00868048  0.71623014  1
  Bi2+  Bi122  1  0.88893807  0.28207935  0.20335911  1
  Bi2+  Bi123  1  0.87722442  0.26608368  0.69648890  1
  Bi2+  Bi124  1  0.90814391  0.51723742  0.21976799  1
  Bi2+  Bi125  1  0.86537984  0.48512180  0.70302181  1
  Bi2+  Bi126  1  0.86933783  0.74735730  0.20569847  1
  Bi2+  Bi127  1  0.84264728  0.75571926  0.71012105  1
  S2-  S128  1  -0.11800493  0.15627144  0.13650286  1
  S2-  S129  1  0.09966159  0.14642974  0.64787362  1
  S2-  S130  1  -0.00398380  0.38319916  0.15225735  1
  S2-  S131  1  0.00386036  0.37117265  0.65091063  1
  S2-  S132  1  0.00969473  0.74625856  0.14614004  1
  S2-  S133  1  -0.12804919  0.61964372  0.64301267  1
  S2-  S134  1  0.01687543  0.99990192  0.14339342  1
  S2-  S135  1  0.07090681  0.88076553  0.65727482  1
  S2-  S136  1  0.21706377  0.05677582  0.20455552  1
  S2-  S137  1  0.25411635  -0.00101811  0.65520540  1
  S2-  S138  1  0.22246674  0.24838756  0.15005981  1
  S2-  S139  1  0.25152801  0.29771049  0.64455781  1
  S2-  S140  1  0.35753945  0.64458090  0.13603661  1
  S2-  S141  1  0.11158145  0.61095562  0.64978835  1
  S2-  S142  1  0.28470176  0.90986231  0.12780484  1
  S2-  S143  1  0.25326918  0.77067492  0.65693452  1
  S2-  S144  1  0.41674499  0.10315681  0.14430120  1
  S2-  S145  1  0.40546253  0.13866377  0.64954044  1
  S2-  S146  1  0.39270955  0.38717273  0.13532222  1
  S2-  S147  1  0.49196190  0.37955627  0.65413725  1
  S2-  S148  1  0.60466528  0.62731846  0.14221716  1
  S2-  S149  1  0.38725379  0.61355280  0.65307675  1
  S2-  S150  1  0.50757680  0.87339056  0.15721197  1
  S2-  S151  1  0.46329688  0.88286960  0.65961010  1
  S2-  S152  1  0.67992272  0.08156204  0.16184682  1
  S2-  S153  1  0.87507656  0.12796860  0.63912242  1
  S2-  S154  1  0.75385402  0.33842008  0.14552394  1
  S2-  S155  1  0.74753964  0.36955138  0.65526088  1
  S2-  S156  1  0.84664254  0.60698338  0.14304482  1
  S2-  S157  1  0.63338058  0.60818722  0.64864014  1
  S2-  S158  1  0.82714723  0.88046077  0.14045526  1
  S2-  S159  1  0.85200806  0.88395938  0.63866664  1
  S2-  S160  1  0.15063512  0.09573949  0.35078457  1
  S2-  S161  1  0.15200354  0.03850395  0.83536721  1
  S2-  S162  1  0.02324311  0.26180772  0.34742029  1
  S2-  S163  1  0.22566533  0.26694049  0.85470500  1
  S2-  S164  1  0.13566622  0.62605859  0.36580731  1
  S2-  S165  1  0.18802461  0.49353136  0.86130993  1
  S2-  S166  1  0.14411370  0.86051028  0.36062374  1
  S2-  S167  1  0.13100800  0.73913920  0.84050710  1
  S2-  S168  1  0.39010457  0.11364257  0.35415537  1
  S2-  S169  1  0.34282169  -0.03251341  0.81200651  1
  S2-  S170  1  0.26029388  0.28155170  0.35169112  1
  S2-  S171  1  0.40388392  0.15102048  0.84772130  1
  S2-  S172  1  0.38706205  0.62451393  0.36506378  1
  S2-  S173  1  0.38655648  0.59296144  0.84911802  1
  S2-  S174  1  0.38471975  0.87494236  0.36011645  1
  S2-  S175  1  0.32940492  0.77217458  0.80824363  1
  S2-  S176  1  0.61024787  -0.01167129  0.35015384  1
  S2-  S177  1  0.54958791  -0.00092662  0.85343094  1
  S2-  S178  1  0.61140514  0.23629197  0.34675179  1
  S2-  S179  1  0.61358929  0.25720644  0.84474593  1
  S2-  S180  1  0.60690121  0.50478477  0.34422941  1
  S2-  S181  1  0.62275117  0.50286344  0.84307996  1
  S2-  S182  1  0.60987055  0.74280826  0.35481048  1
  S2-  S183  1  0.53286525  0.75777498  0.85303507  1
  S2-  S184  1  0.98123362  -0.01427610  0.35612486  1
  S2-  S185  1  0.97535026  -0.04292566  0.86093998  1
  S2-  S186  1  0.84458397  0.13540235  0.35336344  1
  S2-  S187  1  0.99870938  0.22556340  0.85518919  1
  S2-  S188  1  0.85821460  0.38989386  0.35184144  1
  S2-  S189  1  0.86453220  0.47054767  0.84102889  1
  S2-  S190  1  0.86467161  0.63946448  0.35934891  1
  S2-  S191  1  0.91770285  0.70181953  0.84646064  1
  S2-  S192  1  0.00243993  0.13298618  0.45306423  1
  S2-  S193  1  -0.01304325  0.11433369  0.95576780  1
  S2-  S194  1  0.00912352  0.38649071  0.44789314  1
  S2-  S195  1  -0.00891852  0.37287652  0.94862415  1
  S2-  S196  1  -0.00159661  0.62724478  0.46178869  1
  S2-  S197  1  -0.00918227  0.62113784  0.96021252  1
  S2-  S198  1  -0.00742997  0.87401527  0.45902045  1
  S2-  S199  1  -0.00937246  0.86056174  0.96285141  1
  S2-  S200  1  0.25028120  0.12546239  0.45694461  1
  S2-  S201  1  0.24031710  0.10934209  0.94263103  1
  S2-  S202  1  0.24990624  0.38808895  0.45004921  1
  S2-  S203  1  0.23466817  0.36845217  0.96410194  1
  S2-  S204  1  0.25221863  0.62976071  0.46890414  1
  S2-  S205  1  0.23939046  0.62601086  0.95516753  1
  S2-  S206  1  0.25061198  0.87767509  0.46469672  1
  S2-  S207  1  0.24338241  0.86709133  0.93270572  1
  S2-  S208  1  0.50301269  0.12710893  0.45761330  1
  S2-  S209  1  0.49718568  0.12295534  0.95332639  1
  S2-  S210  1  0.49580413  0.37965976  0.44641479  1
  S2-  S211  1  0.48854548  0.36655172  0.94712413  1
  S2-  S212  1  0.50497296  0.63100224  0.46707661  1
  S2-  S213  1  0.49270473  0.61677542  0.95589994  1
  S2-  S214  1  0.50661686  0.87869820  0.46004263  1
  S2-  S215  1  0.49145777  0.87402162  0.95090358  1
  S2-  S216  1  0.74634251  0.13228632  0.46002150  1
  S2-  S217  1  0.73959502  0.12162957  0.95508412  1
  S2-  S218  1  0.74551196  0.38073411  0.45111299  1
  S2-  S219  1  0.74161619  0.36908679  0.94530519  1
  S2-  S220  1  0.74603260  0.62872511  0.46272122  1
  S2-  S221  1  0.73683471  0.61930665  0.95504379  1
  S2-  S222  1  0.75200454  0.87731513  0.44977740  1
  S2-  S223  1  0.73622247  0.86718397  0.95104816  1
  S2-  S224  1  0.12467872  -0.00368972  0.03940338  1
  S2-  S225  1  0.12053419  0.00439026  0.54407321  1
  S2-  S226  1  0.11201218  0.24102485  0.04422982  1
  S2-  S227  1  0.12602338  0.25658707  0.53535690  1
  S2-  S228  1  0.11742376  0.49943328  0.05416645  1
  S2-  S229  1  0.12586888  0.50253962  0.54467678  1
  S2-  S230  1  0.12260693  0.74396228  0.04453151  1
  S2-  S231  1  0.11868153  0.75540566  0.54832962  1
  S2-  S232  1  0.36761563  0.00145975  0.02895544  1
  S2-  S233  1  0.37577922  0.00344001  0.54554497  1
  S2-  S234  1  0.36432918  0.23735962  0.03956232  1
  S2-  S235  1  0.37454673  0.25313020  0.53698548  1
  S2-  S236  1  0.36292993  0.49594100  0.03543656  1
  S2-  S237  1  0.37514880  0.50370633  0.54639162  1
  S2-  S238  1  0.36710824  0.74713086  0.03009858  1
  S2-  S239  1  0.37938137  0.75513027  0.54887975  1
  S2-  S240  1  0.61358948  -0.00232181  0.04754997  1
  S2-  S241  1  0.62910800  0.00540098  0.55412976  1
  S2-  S242  1  0.61199713  0.24722676  0.04641831  1
  S2-  S243  1  0.62615775  0.25410379  0.54996457  1
  S2-  S244  1  0.61093997  0.48592273  0.04656734  1
  S2-  S245  1  0.62624061  0.50032630  0.54772911  1
  S2-  S246  1  0.61022538  0.75201429  0.04337930  1
  S2-  S247  1  0.62927305  0.75707751  0.55584267  1
  S2-  S248  1  0.86225604  -0.00403259  0.03905341  1
  S2-  S249  1  0.87178640  0.00724795  0.53712091  1
  S2-  S250  1  0.86559186  0.25084430  0.03013653  1
  S2-  S251  1  0.87465130  0.25752628  0.53588950  1
  S2-  S252  1  0.86259649  0.49168222  0.04413934  1
  S2-  S253  1  0.87380573  0.50210406  0.53987099  1
  S2-  S254  1  0.85789762  0.74195788  0.04337464  1
  S2-  S255  1  0.86988393  0.74908486  0.54173873  1
