# generated using pymatgen
data_La12Ce14Pr13Nd13Sm12(BiS2)64
_symmetry_space_group_name_H-M   'P 1'
_cell_length_a   16.11520100
_cell_length_b   16.13657316
_cell_length_c   27.27852565
_cell_angle_alpha   90.12348406
_cell_angle_beta   90.23181230
_cell_angle_gamma   89.97713353
_symmetry_Int_Tables_number   1
_chemical_formula_structural   La12Ce14Pr13Nd13Sm12(BiS2)64
_chemical_formula_sum   'La12 Ce14 Pr13 Nd13 Sm12 Bi64 S128'
_cell_volume   7093.54512429
_cell_formula_units_Z   1
loop_
 _symmetry_equiv_pos_site_id
 _symmetry_equiv_pos_as_xyz
  1  'x, y, z'
loop_
 _atom_type_symbol
 _atom_type_oxidation_number
  La3+  3.0
  Ce3+  3.0
  Pr3+  3.0
  Nd3+  3.0
  Sm3+  3.0
  Bi2+  2.0
  S2-  -2.0
loop_
 _atom_site_type_symbol
 _atom_site_label
 _atom_site_symmetry_multiplicity
 _atom_site_fract_x
 _atom_site_fract_y
 _atom_site_fract_z
 _atom_site_occupancy
  La3+  La0  1  0.73332686  0.61336957  0.57426110  1
  La3+  La1  1  0.60028328  -0.00987225  0.42550650  1
  La3+  La2  1  0.22381331  0.87984346  0.58336669  1
  La3+  La3  1  0.23137603  0.62582352  0.57919908  1
  La3+  La4  1  0.22280920  0.12389302  0.57047411  1
  La3+  La5  1  0.84939150  0.00032990  0.38851358  1
  La3+  La6  1  0.48237711  0.62963994  0.08072137  1
  La3+  La7  1  0.10309743  0.74517215  0.90433032  1
  La3+  La8  1  0.60542151  0.24908475  0.42296844  1
  La3+  La9  1  0.85348691  0.23673102  0.92320809  1
  La3+  La10  1  0.73079936  0.87469193  0.56452476  1
  La3+  La11  1  0.72772328  0.36381256  0.57183045  1
  Ce3+  Ce12  1  -0.00538713  0.62065382  0.06067885  1
  Ce3+  Ce13  1  0.61470239  -0.00564864  0.94631868  1
  Ce3+  Ce14  1  0.10710304  0.49829808  0.44800333  1
  Ce3+  Ce15  1  0.34883925  0.24550130  0.42513505  1
  Ce3+  Ce16  1  0.10101859  0.24585788  0.42597675  1
  Ce3+  Ce17  1  0.85350856  0.50134232  0.43727121  1
  Ce3+  Ce18  1  0.36362437  -0.00331941  0.94261965  1
  Ce3+  Ce19  1  0.23409763  0.86694398  0.04164354  1
  Ce3+  Ce20  1  0.35139079  0.74602888  0.45227368  1
  Ce3+  Ce21  1  0.36434831  0.49769561  0.94160434  1
  Ce3+  Ce22  1  0.48112193  0.87428377  0.56415688  1
  Ce3+  Ce23  1  0.23169413  0.36499913  0.55657324  1
  Ce3+  Ce24  1  -0.01956465  0.62059386  0.56217626  1
  Ce3+  Ce25  1  0.85314368  0.74536486  0.43362213  1
  Pr3+  Pr26  1  0.86017282  0.49081333  0.94077051  1
  Pr3+  Pr27  1  0.49048029  0.11532034  0.07489181  1
  Pr3+  Pr28  1  0.73043756  0.12260006  0.55090228  1
  Pr3+  Pr29  1  0.10429254  -0.01330224  0.43145062  1
  Pr3+  Pr30  1  0.36390649  0.73855087  0.92296965  1
  Pr3+  Pr31  1  0.48557581  0.86853094  0.05716407  1
  Pr3+  Pr32  1  0.74323043  0.36681005  0.07116834  1
  Pr3+  Pr33  1  0.74051543  0.11347011  0.07929909  1
  Pr3+  Pr34  1  -0.01208586  0.36609857  0.05488547  1
  Pr3+  Pr35  1  0.23330838  0.61987547  0.06402333  1
  Pr3+  Pr36  1  0.73958222  0.62070263  0.06925536  1
  Pr3+  Pr37  1  0.22843006  0.11625367  0.07524389  1
  Pr3+  Pr38  1  0.86273528  -0.00497720  0.94121389  1
  Nd3+  Nd39  1  0.48181426  0.61930340  0.56775395  1
  Nd3+  Nd40  1  0.23987860  0.36624826  0.06773452  1
  Nd3+  Nd41  1  -0.02535287  0.87244174  0.56494237  1
  Nd3+  Nd42  1  0.00274534  0.86989054  0.06491312  1
  Nd3+  Nd43  1  0.48939871  0.37176641  0.06376171  1
  Nd3+  Nd44  1  0.61514175  0.74336400  0.94272824  1
  Nd3+  Nd45  1  0.85347426  0.25015804  0.42122750  1
  Nd3+  Nd46  1  0.35218100  -0.00692200  0.43763004  1
  Nd3+  Nd47  1  0.11560690  0.24415475  0.93431676  1
  Nd3+  Nd48  1  0.11464853  0.49463820  0.93722136  1
  Nd3+  Nd49  1  0.86672265  0.74545324  0.94819157  1
  Nd3+  Nd50  1  0.36443616  0.24459273  0.95061444  1
  Nd3+  Nd51  1  0.60279824  0.49952178  0.43802230  1
  Sm3+  Sm52  1  0.35434994  0.50136926  0.44409204  1
  Sm3+  Sm53  1  0.48001351  0.36688364  0.55602934  1
  Sm3+  Sm54  1  0.61415991  0.49695466  0.95194873  1
  Sm3+  Sm55  1  0.47879558  0.12182436  0.54637501  1
  Sm3+  Sm56  1  0.10556704  0.74571579  0.44742503  1
  Sm3+  Sm57  1  0.74387570  0.87272234  0.06935985  1
  Sm3+  Sm58  1  0.11338265  0.00171415  0.93035222  1
  Sm3+  Sm59  1  0.60506549  0.74390874  0.44986483  1
  Sm3+  Sm60  1  -0.02043168  0.36895422  0.55206738  1
  Sm3+  Sm61  1  -0.02163880  0.12222730  0.54474538  1
  Sm3+  Sm62  1  -0.01820292  0.12401058  0.06224257  1
  Sm3+  Sm63  1  0.61534872  0.24377883  0.94924850  1
  Bi2+  Bi64  1  0.10103113  0.10112455  0.28618589  1
  Bi2+  Bi65  1  0.00431726  0.19671208  0.78761766  1
  Bi2+  Bi66  1  0.06280123  0.40554960  0.31580166  1
  Bi2+  Bi67  1  0.12789598  0.37639982  0.82426449  1
  Bi2+  Bi68  1  -0.02901329  0.64773056  0.29355117  1
  Bi2+  Bi69  1  -0.01608330  0.59760888  0.75624963  1
  Bi2+  Bi70  1  0.00394297  0.84235281  0.29168952  1
  Bi2+  Bi71  1  -0.01840256  0.94825961  0.78100381  1
  Bi2+  Bi72  1  0.28654266  0.09950780  0.32113925  1
  Bi2+  Bi73  1  0.25825138  0.13934599  0.79636317  1
  Bi2+  Bi74  1  0.22176220  0.37438148  0.25036426  1
  Bi2+  Bi75  1  0.32285381  0.39833192  0.82123345  1
  Bi2+  Bi76  1  0.25174693  0.63854049  0.29174830  1
  Bi2+  Bi77  1  0.24110687  0.57851666  0.80481783  1
  Bi2+  Bi78  1  0.26121783  0.90704817  0.31624538  1
  Bi2+  Bi79  1  0.26193178  0.88888271  0.79887784  1
  Bi2+  Bi80  1  0.52761727  0.05979511  0.28370689  1
  Bi2+  Bi81  1  0.49797145  0.18276540  0.77915583  1
  Bi2+  Bi82  1  0.48997809  0.37506895  0.29181531  1
  Bi2+  Bi83  1  0.52133506  0.38508909  0.77322725  1
  Bi2+  Bi84  1  0.50016552  0.60215332  0.31597561  1
  Bi2+  Bi85  1  0.48346265  0.58818851  0.76987087  1
  Bi2+  Bi86  1  0.54134270  0.84342942  0.28877941  1
  Bi2+  Bi87  1  0.55558705  0.95532486  0.75689796  1
  Bi2+  Bi88  1  0.71482567  0.14695348  0.27399921  1
  Bi2+  Bi89  1  0.74511386  0.11855430  0.79599002  1
  Bi2+  Bi90  1  0.86737285  0.39855498  0.31282764  1
  Bi2+  Bi91  1  0.76249354  0.38311085  0.80624145  1
  Bi2+  Bi92  1  0.76172253  0.66772381  0.25417563  1
  Bi2+  Bi93  1  0.72253584  0.60372386  0.79834587  1
  Bi2+  Bi94  1  0.78775438  0.86547136  0.25258305  1
  Bi2+  Bi95  1  0.72551579  0.86943403  0.80738463  1
  Bi2+  Bi96  1  0.19032687  -0.02137467  0.21472901  1
  Bi2+  Bi97  1  0.11138579  0.00786147  0.70702253  1
  Bi2+  Bi98  1  0.09498042  0.23489211  0.20546766  1
  Bi2+  Bi99  1  0.15930244  0.26466389  0.73059356  1
  Bi2+  Bi100  1  0.12487952  0.54202319  0.22029867  1
  Bi2+  Bi101  1  0.11087710  0.46094121  0.71696558  1
  Bi2+  Bi102  1  0.18854409  0.75140568  0.20394931  1
  Bi2+  Bi103  1  0.13927094  0.73185574  0.70326899  1
  Bi2+  Bi104  1  0.36543374  0.04095355  0.17954533  1
  Bi2+  Bi105  1  0.39384886  0.04384772  0.71743230  1
  Bi2+  Bi106  1  0.33464741  0.21668797  0.22750035  1
  Bi2+  Bi107  1  0.39002880  0.27144539  0.69335303  1
  Bi2+  Bi108  1  0.38786202  0.51091622  0.19684421  1
  Bi2+  Bi109  1  0.36513641  0.46142592  0.71295959  1
  Bi2+  Bi110  1  0.36748892  0.78494431  0.24901012  1
  Bi2+  Bi111  1  0.40927027  0.75220063  0.73213160  1
  Bi2+  Bi112  1  0.54000732  -0.04457793  0.18550089  1
  Bi2+  Bi113  1  0.65860515  0.02739617  0.66956493  1
  Bi2+  Bi114  1  0.53437922  0.23023850  0.21758053  1
  Bi2+  Bi115  1  0.65420240  0.21207160  0.71219088  1
  Bi2+  Bi116  1  0.66413101  0.49780909  0.22312334  1
  Bi2+  Bi117  1  0.63023656  0.49481250  0.69210660  1
  Bi2+  Bi118  1  0.64637034  0.78341816  0.18871161  1
  Bi2+  Bi119  1  0.70662466  0.80956046  0.70050159  1
  Bi2+  Bi120  1  0.89989107  0.03592403  0.20016301  1
  Bi2+  Bi121  1  0.84136262  -0.00061313  0.70639880  1
  Bi2+  Bi122  1  0.84691416  0.30138670  0.21435605  1
  Bi2+  Bi123  1  0.91598992  0.17919882  0.68764120  1
  Bi2+  Bi124  1  0.93006274  0.48666412  0.21614302  1
  Bi2+  Bi125  1  0.91521833  0.42569136  0.71919197  1
  Bi2+  Bi126  1  0.92076452  0.74492628  0.19877549  1
  Bi2+  Bi127  1  0.89241649  0.77376743  0.76721789  1
  S2-  S128  1  0.08342363  0.10402583  0.14124170  1
  S2-  S129  1  0.05324602  0.11597419  0.63571525  1
  S2-  S130  1  -0.00859256  0.35999098  0.15639481  1
  S2-  S131  1  -0.01755725  0.33050887  0.64821650  1
  S2-  S132  1  0.10226663  0.64514940  0.13610846  1
  S2-  S133  1  -0.00275479  0.64772403  0.65922973  1
  S2-  S134  1  -0.03411721  0.89959477  0.16286660  1
  S2-  S135  1  0.07885374  0.87093855  0.64949670  1
  S2-  S136  1  0.23285460  0.24805329  0.14383076  1
  S2-  S137  1  0.25467577  0.01696833  0.65090988  1
  S2-  S138  1  0.23654606  0.45892072  0.15380128  1
  S2-  S139  1  0.23897427  0.26313203  0.63527691  1
  S2-  S140  1  0.34152133  0.63680907  0.14403168  1
  S2-  S141  1  0.22114374  0.58005630  0.67688375  1
  S2-  S142  1  0.16670637  0.86825114  0.13107246  1
  S2-  S143  1  0.27874296  0.78389256  0.66690206  1
  S2-  S144  1  0.60912397  0.12683971  0.15104543  1
  S2-  S145  1  0.46559808  0.14078045  0.64497057  1
  S2-  S146  1  0.45545588  0.36273746  0.16080294  1
  S2-  S147  1  0.57808793  0.36951860  0.63849995  1
  S2-  S148  1  0.54650758  0.56768292  0.17134548  1
  S2-  S149  1  0.47872135  0.64286407  0.66691118  1
  S2-  S150  1  0.48809076  0.78620610  0.14472551  1
  S2-  S151  1  0.55749655  0.87979070  0.65221657  1
  S2-  S152  1  0.86655260  0.17103383  0.14382994  1
  S2-  S153  1  0.76255547  0.22306877  0.63455564  1
  S2-  S154  1  0.70340076  0.35895906  0.17023028  1
  S2-  S155  1  0.77865969  0.45962466  0.65405015  1
  S2-  S156  1  0.78012461  0.57039115  0.16311494  1
  S2-  S157  1  0.71735492  0.65257329  0.67331257  1
  S2-  S158  1  0.76345659  0.97432015  0.14898488  1
  S2-  S159  1  0.84789568  0.86023529  0.64160092  1
  S2-  S160  1  0.01476391  -0.01204920  0.34389392  1
  S2-  S161  1  0.10258682  -0.09307210  0.84663110  1
  S2-  S162  1  0.22411349  0.25246374  0.35652828  1
  S2-  S163  1  0.11858288  0.12902582  0.85811703  1
  S2-  S164  1  0.14457949  0.54731636  0.35786754  1
  S2-  S165  1  0.08996434  0.57930743  0.85031955  1
  S2-  S166  1  0.13452142  0.80847354  0.35619328  1
  S2-  S167  1  0.19574620  0.73707522  0.81173806  1
  S2-  S168  1  0.46133343  -0.03839296  0.35715930  1
  S2-  S169  1  0.34222963  0.01984368  0.84664418  1
  S2-  S170  1  0.47328311  0.25227829  0.35210319  1
  S2-  S171  1  0.37566497  0.23678042  0.85119149  1
  S2-  S172  1  0.38830123  0.47742017  0.34729795  1
  S2-  S173  1  0.39339334  0.59574502  0.86115340  1
  S2-  S174  1  0.36716322  0.69582513  0.35896864  1
  S2-  S175  1  0.39681492  0.81336359  0.82923222  1
  S2-  S176  1  0.68462793  0.01135377  0.33773675  1
  S2-  S177  1  0.63071212  0.00866562  0.84890979  1
  S2-  S178  1  0.72666513  0.25639342  0.34845288  1
  S2-  S179  1  0.69877212  0.24962507  0.86258766  1
  S2-  S180  1  0.61546053  0.48353034  0.33697758  1
  S2-  S181  1  0.63930719  0.49107338  0.85399869  1
  S2-  S182  1  0.60556906  0.72128051  0.35123793  1
  S2-  S183  1  0.63727036  0.73222508  0.84377301  1
  S2-  S184  1  0.86050247  0.09228591  0.29600590  1
  S2-  S185  1  0.86731048  0.08948132  0.85625120  1
  S2-  S186  1  0.98341159  0.25949685  0.34979355  1
  S2-  S187  1  0.90200849  0.31657232  0.83505944  1
  S2-  S188  1  0.84748754  0.61682141  0.36307170  1
  S2-  S189  1  0.84830568  0.52776932  0.84163664  1
  S2-  S190  1  0.84507896  0.84006811  0.34713572  1
  S2-  S191  1  0.94030285  0.74807978  0.85885644  1
  S2-  S192  1  -0.02633733  0.11443551  0.44255279  1
  S2-  S193  1  -0.01184056  0.12157516  0.95705602  1
  S2-  S194  1  -0.02108731  0.37876360  0.44999757  1
  S2-  S195  1  -0.01167339  0.36738222  0.94891369  1
  S2-  S196  1  -0.01516153  0.62241790  0.45728963  1
  S2-  S197  1  -0.01559529  0.61460787  0.95711179  1
  S2-  S198  1  -0.01996315  0.86501929  0.45622109  1
  S2-  S199  1  -0.01137294  0.87438261  0.95594660  1
  S2-  S200  1  0.22620884  0.11449867  0.45469461  1
  S2-  S201  1  0.24158690  0.12129704  0.96158988  1
  S2-  S202  1  0.23247046  0.37757637  0.45291183  1
  S2-  S203  1  0.23992988  0.36894068  0.95833713  1
  S2-  S204  1  0.23030338  0.62221092  0.46872650  1
  S2-  S205  1  0.23690801  0.61864944  0.95153482  1
  S2-  S206  1  0.23021609  0.86971140  0.46497463  1
  S2-  S207  1  0.23974363  0.86942079  0.93882430  1
  S2-  S208  1  0.47702705  0.11937211  0.44522802  1
  S2-  S209  1  0.49138148  0.12128434  0.96030998  1
  S2-  S210  1  0.47723806  0.37792009  0.45394749  1
  S2-  S211  1  0.49284100  0.37008963  0.95515847  1
  S2-  S212  1  0.47903710  0.62132960  0.46193530  1
  S2-  S213  1  0.49551089  0.62067344  0.96562092  1
  S2-  S214  1  0.47856957  0.86394608  0.45985103  1
  S2-  S215  1  0.48925371  0.86798036  0.94941372  1
  S2-  S216  1  0.73403613  0.11625692  0.44516431  1
  S2-  S217  1  0.73435682  0.11647488  0.96637964  1
  S2-  S218  1  0.72826961  0.37819039  0.45424327  1
  S2-  S219  1  0.73450608  0.37165025  0.96317554  1
  S2-  S220  1  0.72459203  0.62031958  0.46312699  1
  S2-  S221  1  0.73994555  0.62034682  0.96083165  1
  S2-  S222  1  0.72602714  0.86826187  0.45390687  1
  S2-  S223  1  0.74030451  0.86841213  0.96114691  1
  S2-  S224  1  0.11221791  -0.00269753  0.03488023  1
  S2-  S225  1  0.10036576  -0.00479255  0.53897528  1
  S2-  S226  1  0.11115519  0.24384751  0.03996888  1
  S2-  S227  1  0.10171802  0.24849231  0.53263926  1
  S2-  S228  1  0.11279449  0.48930044  0.04370435  1
  S2-  S229  1  0.10662595  0.49270245  0.55619237  1
  S2-  S230  1  0.11120325  0.74393329  0.02792263  1
  S2-  S231  1  0.10481838  0.74561641  0.55095294  1
  S2-  S232  1  0.35992225  -0.00554389  0.04830216  1
  S2-  S233  1  0.35795992  -0.00319315  0.54381583  1
  S2-  S234  1  0.37000707  0.24104164  0.05419127  1
  S2-  S235  1  0.35822353  0.24582193  0.53351174  1
  S2-  S236  1  0.36422082  0.49320187  0.04634660  1
  S2-  S237  1  0.35654340  0.49410744  0.55322188  1
  S2-  S238  1  0.35896722  0.74673593  0.03409167  1
  S2-  S239  1  0.35886457  0.74772301  0.55679671  1
  S2-  S240  1  0.61416203  -0.01119547  0.04998636  1
  S2-  S241  1  0.60233207  -0.00160453  0.53648081  1
  S2-  S242  1  0.61389020  0.24627404  0.05195918  1
  S2-  S243  1  0.60061043  0.24396845  0.53378899  1
  S2-  S244  1  0.61659227  0.49389659  0.05583373  1
  S2-  S245  1  0.60271070  0.49654751  0.54504825  1
  S2-  S246  1  0.62100089  0.74840943  0.04871622  1
  S2-  S247  1  0.60569673  0.74345892  0.55435421  1
  S2-  S248  1  0.87096012  -0.00860345  0.04627944  1
  S2-  S249  1  0.85675617  0.00200064  0.54786739  1
  S2-  S250  1  0.86088171  0.24581353  0.03661592  1
  S2-  S251  1  0.85926553  0.24799528  0.52927296  1
  S2-  S252  1  0.86498435  0.49492079  0.04942164  1
  S2-  S253  1  0.86009300  0.49403222  0.54441023  1
  S2-  S254  1  0.86676001  0.74719339  0.05512382  1
  S2-  S255  1  0.85454897  0.73991947  0.54312994  1
