# generated using pymatgen
data_La12Ce14Pr13Nd13Sm12(BiS2)64
_symmetry_space_group_name_H-M   'P 1'
_cell_length_a   16.08800928
_cell_length_b   16.12190912
_cell_length_c   27.40618367
_cell_angle_alpha   90.16388735
_cell_angle_beta   90.27021383
_cell_angle_gamma   89.88826881
_symmetry_Int_Tables_number   1
_chemical_formula_structural   La12Ce14Pr13Nd13Sm12(BiS2)64
_chemical_formula_sum   'La12 Ce14 Pr13 Nd13 Sm12 Bi64 S128'
_cell_volume   7108.20460152
_cell_formula_units_Z   1
loop_
 _symmetry_equiv_pos_site_id
 _symmetry_equiv_pos_as_xyz
  1  'x, y, z'
loop_
 _atom_type_symbol
 _atom_type_oxidation_number
  La3+  3.0
  Ce3+  3.0
  Pr3+  3.0
  Nd3+  3.0
  Sm3+  3.0
  Bi2+  2.0
  S2-  -2.0
loop_
 _atom_site_type_symbol
 _atom_site_label
 _atom_site_symmetry_multiplicity
 _atom_site_fract_x
 _atom_site_fract_y
 _atom_site_fract_z
 _atom_site_occupancy
  La3+  La0  1  0.86475152  0.50067886  0.41251959  1
  La3+  La1  1  0.36738583  0.00284028  0.43308247  1
  La3+  La2  1  0.76064226  0.62388535  0.57046831  1
  La3+  La3  1  0.86363312  0.76464016  0.41910834  1
  La3+  La4  1  0.02196284  0.64395194  0.10600845  1
  La3+  La5  1  0.26001129  0.12306278  0.06113969  1
  La3+  La6  1  0.37202753  0.27154013  0.88130204  1
  La3+  La7  1  0.76430403  0.37079101  0.08335655  1
  La3+  La8  1  0.86763720  0.73351074  0.89840714  1
  La3+  La9  1  0.37199563  0.50468185  0.43229772  1
  La3+  La10  1  0.37570032  0.75841069  0.42926509  1
  La3+  La11  1  0.76576165  0.86946400  0.06337851  1
  Ce3+  Ce12  1  0.76547390  0.61942854  0.08109140  1
  Ce3+  Ce13  1  0.50529232  0.87532824  0.06429619  1
  Ce3+  Ce14  1  0.00735977  0.37756342  0.06583290  1
  Ce3+  Ce15  1  0.49777565  0.14083424  0.56659722  1
  Ce3+  Ce16  1  0.88218561  0.50577184  0.95472032  1
  Ce3+  Ce17  1  0.38615351  0.75127946  0.93913441  1
  Ce3+  Ce18  1  0.12992456  0.50265748  0.95036830  1
  Ce3+  Ce19  1  0.50938318  0.62312514  0.06400435  1
  Ce3+  Ce20  1  0.87878311  0.25299724  0.94166644  1
  Ce3+  Ce21  1  0.62737802  0.75333049  0.45336916  1
  Ce3+  Ce22  1  0.11642670  0.50353860  0.43483952  1
  Ce3+  Ce23  1  0.13198732  0.00037842  0.94101209  1
  Ce3+  Ce24  1  0.24548295  0.63251875  0.55092160  1
  Ce3+  Ce25  1  0.62287961  0.50751705  0.43897989  1
  Pr3+  Pr26  1  0.74744130  0.37877969  0.55236320  1
  Pr3+  Pr27  1  0.86585408  0.24970679  0.42463922  1
  Pr3+  Pr28  1  0.25791484  0.37623722  0.06462419  1
  Pr3+  Pr29  1  0.63685603  0.25174040  0.93325012  1
  Pr3+  Pr30  1  0.12514723  0.75490790  0.42159429  1
  Pr3+  Pr31  1  0.74885104  0.12918151  0.55956619  1
  Pr3+  Pr32  1  0.63623458  -0.00334223  0.94859687  1
  Pr3+  Pr33  1  0.00109819  0.13708364  0.57277684  1
  Pr3+  Pr34  1  0.50864486  0.37261148  0.05824077  1
  Pr3+  Pr35  1  0.87814089  -0.00229418  0.93127651  1
  Pr3+  Pr36  1  0.12790735  0.74786604  0.92965037  1
  Pr3+  Pr37  1  0.00238093  0.88290568  0.57197326  1
  Pr3+  Pr38  1  0.37037194  0.25324700  0.43048765  1
  Nd3+  Nd39  1  0.00728506  0.12207332  0.05476834  1
  Nd3+  Nd40  1  0.49794043  0.88060504  0.57082086  1
  Nd3+  Nd41  1  0.63756379  0.50070276  0.94697776  1
  Nd3+  Nd42  1  0.49557791  0.38555527  0.56208539  1
  Nd3+  Nd43  1  0.38449574  0.00518742  0.93154249  1
  Nd3+  Nd44  1  0.50324275  0.63209207  0.57696935  1
  Nd3+  Nd45  1  0.13476404  0.25207562  0.94365760  1
  Nd3+  Nd46  1  0.38473581  0.50077711  0.94115823  1
  Nd3+  Nd47  1  -0.00287785  0.37658465  0.55169252  1
  Nd3+  Nd48  1  0.50916285  0.12589775  0.05345161  1
  Nd3+  Nd49  1  0.25766843  0.87167939  0.05155429  1
  Nd3+  Nd50  1  0.25388604  0.12989344  0.56513649  1
  Nd3+  Nd51  1  0.87606334  0.00537774  0.44131449  1
  Sm3+  Sm52  1  0.61598870  0.25078297  0.43200427  1
  Sm3+  Sm53  1  0.61944713  0.00295835  0.45125491  1
  Sm3+  Sm54  1  0.75812470  0.87856788  0.56929788  1
  Sm3+  Sm55  1  0.76148744  0.12627518  0.06555286  1
  Sm3+  Sm56  1  -0.00740778  0.63243427  0.54197434  1
  Sm3+  Sm57  1  0.12065396  0.00568879  0.44351431  1
  Sm3+  Sm58  1  0.12365889  0.25019688  0.43451587  1
  Sm3+  Sm59  1  0.25938743  0.62694103  0.05923754  1
  Sm3+  Sm60  1  0.00673319  0.86917321  0.04955830  1
  Sm3+  Sm61  1  0.24561853  0.87668898  0.55930296  1
  Sm3+  Sm62  1  0.63384885  0.74715725  0.95389522  1
  Sm3+  Sm63  1  0.24705018  0.38298923  0.55179892  1
  Bi2+  Bi64  1  0.00712764  0.12225940  0.35239796  1
  Bi2+  Bi65  1  0.02880344  0.19518502  0.78313075  1
  Bi2+  Bi66  1  0.01975640  0.29804731  0.29703748  1
  Bi2+  Bi67  1  -0.03797715  0.37978936  0.78495681  1
  Bi2+  Bi68  1  0.05001898  0.64506999  0.29498951  1
  Bi2+  Bi69  1  -0.00440011  0.59389125  0.79987448  1
  Bi2+  Bi70  1  -0.04178620  0.97832111  0.27641961  1
  Bi2+  Bi71  1  -0.00444772  0.89928034  0.78965545  1
  Bi2+  Bi72  1  0.22697053  0.11758591  0.29060014  1
  Bi2+  Bi73  1  0.21694035  0.11801613  0.78943749  1
  Bi2+  Bi74  1  0.33082652  0.35962238  0.29883692  1
  Bi2+  Bi75  1  0.21119241  0.41070145  0.79223462  1
  Bi2+  Bi76  1  0.25821520  0.65696382  0.25037509  1
  Bi2+  Bi77  1  0.24589279  0.67900928  0.79229121  1
  Bi2+  Bi78  1  0.25633873  0.86582880  0.30098177  1
  Bi2+  Bi79  1  0.24885325  0.87555240  0.79408158  1
  Bi2+  Bi80  1  0.43662623  0.11543372  0.28329604  1
  Bi2+  Bi81  1  0.49700234  0.06352910  0.78329980  1
  Bi2+  Bi82  1  0.53575375  0.35346457  0.28921018  1
  Bi2+  Bi83  1  0.49927429  0.39606794  0.78514780  1
  Bi2+  Bi84  1  0.51697634  0.62853383  0.30165189  1
  Bi2+  Bi85  1  0.43801697  0.63834881  0.76368537  1
  Bi2+  Bi86  1  0.51653280  0.82420126  0.29269633  1
  Bi2+  Bi87  1  0.44352373  0.88477571  0.82066324  1
  Bi2+  Bi88  1  0.81636815  0.11922698  0.29859736  1
  Bi2+  Bi89  1  0.76713264  0.10661466  0.79496192  1
  Bi2+  Bi90  1  0.73490946  0.36258841  0.29101419  1
  Bi2+  Bi91  1  0.76032753  0.35078908  0.77778424  1
  Bi2+  Bi92  1  0.77702025  0.63581757  0.29709786  1
  Bi2+  Bi93  1  0.71657608  0.58201610  0.79632451  1
  Bi2+  Bi94  1  0.71769935  0.88124181  0.29862794  1
  Bi2+  Bi95  1  0.68341413  0.85263306  0.79483487  1
  Bi2+  Bi96  1  0.09939703  0.04766345  0.20984251  1
  Bi2+  Bi97  1  0.11984739  -0.01282733  0.70815770  1
  Bi2+  Bi98  1  0.12463483  0.24627196  0.20694273  1
  Bi2+  Bi99  1  0.13099335  0.29687072  0.70405250  1
  Bi2+  Bi100  1  0.14266512  0.43315082  0.24488236  1
  Bi2+  Bi101  1  0.13287679  0.57505072  0.71599231  1
  Bi2+  Bi102  1  0.16019905  0.80424517  0.20477545  1
  Bi2+  Bi103  1  0.07978960  0.76761470  0.71987989  1
  Bi2+  Bi104  1  0.39589424  -0.01292609  0.19530677  1
  Bi2+  Bi105  1  0.33730774  -0.01709133  0.70887926  1
  Bi2+  Bi106  1  0.32496716  0.22784996  0.21096053  1
  Bi2+  Bi107  1  0.37478583  0.23852548  0.68109549  1
  Bi2+  Bi108  1  0.39663827  0.46213284  0.20677236  1
  Bi2+  Bi109  1  0.33244801  0.50817675  0.70463930  1
  Bi2+  Bi110  1  0.41557002  0.74409760  0.20598277  1
  Bi2+  Bi111  1  0.33690168  0.78191133  0.70005892  1
  Bi2+  Bi112  1  0.62337443  0.05392852  0.25737595  1
  Bi2+  Bi113  1  0.54408944  -0.08950183  0.71790519  1
  Bi2+  Bi114  1  0.58988744  0.22567017  0.20703507  1
  Bi2+  Bi115  1  0.61698799  0.21592398  0.75796778  1
  Bi2+  Bi116  1  0.62535825  0.51261113  0.23031372  1
  Bi2+  Bi117  1  0.61883929  0.45817895  0.68704381  1
  Bi2+  Bi118  1  0.63874932  0.71219497  0.22416083  1
  Bi2+  Bi119  1  0.61482065  0.70467029  0.72930439  1
  Bi2+  Bi120  1  0.81460010  0.02806018  0.19474356  1
  Bi2+  Bi121  1  0.82749331  -0.00949779  0.69301265  1
  Bi2+  Bi122  1  0.86915408  0.23690422  0.21357692  1
  Bi2+  Bi123  1  0.87901525  0.24020972  0.71193336  1
  Bi2+  Bi124  1  0.88927345  0.49712495  0.21309279  1
  Bi2+  Bi125  1  0.86793422  0.52661123  0.71705713  1
  Bi2+  Bi126  1  0.89619113  0.78883509  0.21601673  1
  Bi2+  Bi127  1  0.86966712  0.72445695  0.71124919  1
  S2-  S128  1  -0.03403559  0.09389384  0.14924728  1
  S2-  S129  1  -0.01058096  0.02770067  0.65211358  1
  S2-  S130  1  -0.08131700  0.36155150  0.14991589  1
  S2-  S131  1  0.00124130  0.28123696  0.63548981  1
  S2-  S132  1  0.04095470  0.53713984  0.19019346  1
  S2-  S133  1  -0.08948200  0.62395470  0.62984596  1
  S2-  S134  1  0.02013271  0.81962662  0.14507916  1
  S2-  S135  1  -0.12083555  0.84627818  0.64433612  1
  S2-  S136  1  0.25759323  0.08529941  0.15848663  1
  S2-  S137  1  0.21232183  0.16057684  0.66082181  1
  S2-  S138  1  0.25767297  0.42385513  0.16137343  1
  S2-  S139  1  0.26649972  0.37522888  0.64923063  1
  S2-  S140  1  0.19613563  0.65929848  0.14802558  1
  S2-  S141  1  0.25712371  0.63836321  0.64758288  1
  S2-  S142  1  0.28580748  0.87346415  0.14925747  1
  S2-  S143  1  0.14008338  0.86037613  0.63830637  1
  S2-  S144  1  0.49686458  0.10756359  0.15149465  1
  S2-  S145  1  0.43866201  0.08125165  0.65129811  1
  S2-  S146  1  0.51538682  0.36271061  0.15812844  1
  S2-  S147  1  0.52177238  0.27490681  0.63868448  1
  S2-  S148  1  0.44471567  0.60407043  0.15277205  1
  S2-  S149  1  0.47218759  0.49900314  0.64172191  1
  S2-  S150  1  0.51258724  0.87984328  0.16148380  1
  S2-  S151  1  0.47638223  0.76444091  0.64448731  1
  S2-  S152  1  0.73935435  0.22844095  0.14549068  1
  S2-  S153  1  0.76540695  0.14026976  0.65936802  1
  S2-  S154  1  0.73794315  0.49286418  0.15558675  1
  S2-  S155  1  0.76778988  0.43493219  0.64700912  1
  S2-  S156  1  0.86912216  0.65380047  0.16466219  1
  S2-  S157  1  0.64305641  0.61525121  0.64681541  1
  S2-  S158  1  0.77144751  0.87099414  0.16435319  1
  S2-  S159  1  0.68968146  0.91994319  0.65991712  1
  S2-  S160  1  0.22492429  0.00361434  0.36342103  1
  S2-  S161  1  0.14171708  0.00320353  0.84363160  1
  S2-  S162  1  0.24024269  0.25411988  0.35835662  1
  S2-  S163  1  0.19918917  0.26532789  0.85189943  1
  S2-  S164  1  0.14436100  0.51675242  0.33915457  1
  S2-  S165  1  0.12568747  0.50375821  0.85245112  1
  S2-  S166  1  0.10044408  0.81227554  0.32587188  1
  S2-  S167  1  0.02620150  0.74877602  0.84688612  1
  S2-  S168  1  0.40370254  -0.11210649  0.35783722  1
  S2-  S169  1  0.36751779  0.10159193  0.84810505  1
  S2-  S170  1  0.49512157  0.23105560  0.35761146  1
  S2-  S171  1  0.37624260  0.28232527  0.77182930  1
  S2-  S172  1  0.40586655  0.51441459  0.33430911  1
  S2-  S173  1  0.36852372  0.44428952  0.84806612  1
  S2-  S174  1  0.27641382  0.71766408  0.34592769  1
  S2-  S175  1  0.45538104  0.71919135  0.85268050  1
  S2-  S176  1  0.62008388  -0.00956832  0.35260803  1
  S2-  S177  1  0.67998384  0.00551240  0.85189523  1
  S2-  S178  1  0.72447952  0.23237633  0.35563211  1
  S2-  S179  1  0.54241250  0.26478665  0.84726787  1
  S2-  S180  1  0.70919996  0.50429733  0.35438170  1
  S2-  S181  1  0.60969986  0.49451740  0.84777248  1
  S2-  S182  1  0.70355737  0.75101246  0.36541357  1
  S2-  S183  1  0.69054135  0.72385118  0.86323813  1
  S2-  S184  1  0.85444195  -0.08234162  0.35613628  1
  S2-  S185  1  0.90805929  0.02179334  0.83316788  1
  S2-  S186  1  0.88385484  0.36143043  0.34570329  1
  S2-  S187  1  0.77512439  0.24917683  0.86331111  1
  S2-  S188  1  0.92482803  0.54386250  0.31337435  1
  S2-  S189  1  0.85617393  0.56579360  0.86284566  1
  S2-  S190  1  0.91088091  0.73465011  0.31772346  1
  S2-  S191  1  0.84256460  0.81336840  0.80352427  1
  S2-  S192  1  -0.00071708  0.13196503  0.46427271  1
  S2-  S193  1  0.00636761  0.12726068  0.94783415  1
  S2-  S194  1  0.00006595  0.37343821  0.44738233  1
  S2-  S195  1  0.00658892  0.37512761  0.95682072  1
  S2-  S196  1  -0.00664091  0.63192326  0.43871753  1
  S2-  S197  1  0.00503631  0.62713652  0.95109331  1
  S2-  S198  1  0.00261062  0.88119935  0.45118498  1
  S2-  S199  1  0.00445816  0.87546678  0.94747446  1
  S2-  S200  1  0.24616987  0.13054966  0.45973283  1
  S2-  S201  1  0.25566823  0.12505472  0.95460837  1
  S2-  S202  1  0.24317298  0.38281718  0.44957087  1
  S2-  S203  1  0.25920805  0.37628059  0.95795253  1
  S2-  S204  1  0.24382994  0.62669046  0.44818070  1
  S2-  S205  1  0.25847415  0.62628522  0.95179375  1
  S2-  S206  1  0.24198756  0.87605471  0.45744514  1
  S2-  S207  1  0.25866598  0.87483586  0.94512288  1
  S2-  S208  1  0.49397865  0.12433450  0.45942316  1
  S2-  S209  1  0.51295263  0.12229810  0.94937746  1
  S2-  S210  1  0.49827301  0.38043390  0.45213499  1
  S2-  S211  1  0.50737447  0.37647523  0.95302429  1
  S2-  S212  1  0.49837829  0.63235149  0.45325068  1
  S2-  S213  1  0.51088175  0.62316889  0.95893410  1
  S2-  S214  1  0.50193065  0.87829005  0.46505471  1
  S2-  S215  1  0.51032500  0.87425094  0.95736859  1
  S2-  S216  1  0.74443017  0.12259680  0.45460634  1
  S2-  S217  1  0.76019162  0.12304101  0.96192671  1
  S2-  S218  1  0.74104070  0.37502218  0.44942830  1
  S2-  S219  1  0.76025898  0.37809845  0.96595194  1
  S2-  S220  1  0.75013756  0.62648643  0.46000030  1
  S2-  S221  1  0.75680373  0.62649755  0.97072065  1
  S2-  S222  1  0.74493479  0.88625276  0.46508865  1
  S2-  S223  1  0.76287288  0.86663222  0.95456954  1
  S2-  S224  1  0.13079715  -0.00468141  0.04772931  1
  S2-  S225  1  0.12797538  0.00853567  0.54634049  1
  S2-  S226  1  0.13125320  0.24944053  0.05105511  1
  S2-  S227  1  0.12996092  0.25569670  0.53898014  1
  S2-  S228  1  0.13151097  0.50599444  0.05535077  1
  S2-  S229  1  0.11783402  0.50526761  0.54404168  1
  S2-  S230  1  0.13387634  0.74906890  0.03721318  1
  S2-  S231  1  0.11780413  0.75148560  0.53510601  1
  S2-  S232  1  0.38401628  -0.00186452  0.03966011  1
  S2-  S233  1  0.36859343  -0.00184265  0.54458733  1
  S2-  S234  1  0.38238931  0.24947533  0.05633881  1
  S2-  S235  1  0.36941417  0.26048773  0.53979982  1
  S2-  S236  1  0.38123923  0.50078236  0.04706775  1
  S2-  S237  1  0.36859113  0.50805705  0.53913496  1
  S2-  S238  1  0.38324138  0.74786516  0.04593235  1
  S2-  S239  1  0.37021741  0.75574705  0.53984468  1
  S2-  S240  1  0.63751126  0.00008002  0.05512772  1
  S2-  S241  1  0.61824065  0.00800612  0.55472950  1
  S2-  S242  1  0.63456648  0.24734572  0.04206403  1
  S2-  S243  1  0.62564303  0.25478343  0.53674245  1
  S2-  S244  1  0.63285209  0.49864404  0.05247167  1
  S2-  S245  1  0.62247843  0.50563794  0.54181730  1
  S2-  S246  1  0.63395594  0.74782705  0.05945240  1
  S2-  S247  1  0.63083343  0.75896234  0.55553265  1
  S2-  S248  1  0.88442809  -0.00209209  0.04086758  1
  S2-  S249  1  0.87573380  0.00661494  0.54623175  1
  S2-  S250  1  0.88536503  0.24645318  0.04565493  1
  S2-  S251  1  0.87106033  0.25367696  0.53728617  1
  S2-  S252  1  0.89364815  0.50680149  0.05758285  1
  S2-  S253  1  0.87733937  0.49831447  0.52974616  1
  S2-  S254  1  0.88979713  0.74550833  0.05359789  1
  S2-  S255  1  0.87594934  0.75848338  0.53280313  1
