# generated using pymatgen
data_La12Ce14Pr13Nd13Sm12(BiS2)64
_symmetry_space_group_name_H-M   'P 1'
_cell_length_a   16.13090620
_cell_length_b   16.14342650
_cell_length_c   27.23869584
_cell_angle_alpha   90.03778315
_cell_angle_beta   89.93157313
_cell_angle_gamma   90.19190318
_symmetry_Int_Tables_number   1
_chemical_formula_structural   La12Ce14Pr13Nd13Sm12(BiS2)64
_chemical_formula_sum   'La12 Ce14 Pr13 Nd13 Sm12 Bi64 S128'
_cell_volume   7093.13062395
_cell_formula_units_Z   1
loop_
 _symmetry_equiv_pos_site_id
 _symmetry_equiv_pos_as_xyz
  1  'x, y, z'
loop_
 _atom_type_symbol
 _atom_type_oxidation_number
  La3+  3.0
  Ce3+  3.0
  Pr3+  3.0
  Nd3+  3.0
  Sm3+  3.0
  Bi2+  2.0
  S2-  -2.0
loop_
 _atom_site_type_symbol
 _atom_site_label
 _atom_site_symmetry_multiplicity
 _atom_site_fract_x
 _atom_site_fract_y
 _atom_site_fract_z
 _atom_site_occupancy
  La3+  La0  1  -0.01550924  0.35720969  0.56459891  1
  La3+  La1  1  0.73329895  0.10405286  0.59488172  1
  La3+  La2  1  0.28295038  0.86777959  0.07301928  1
  La3+  La3  1  0.61724482  -0.01629507  0.43082908  1
  La3+  La4  1  0.73230207  0.36828676  0.59179449  1
  La3+  La5  1  0.24349969  0.60813462  0.58934569  1
  La3+  La6  1  0.15445368  0.24801938  0.93595653  1
  La3+  La7  1  0.24194138  0.85821582  0.57402850  1
  La3+  La8  1  0.15636972  0.75117211  0.92848987  1
  La3+  La9  1  0.11416379  -0.01211276  0.43808956  1
  La3+  La10  1  0.87110683  0.24052908  0.39050318  1
  La3+  La11  1  0.11230081  0.48458797  0.44416217  1
  Ce3+  Ce12  1  0.12280314  0.23398467  0.43419360  1
  Ce3+  Ce13  1  0.52951661  0.12151311  0.04860967  1
  Ce3+  Ce14  1  0.28303253  0.62657327  0.07395972  1
  Ce3+  Ce15  1  0.77993164  0.37095140  0.05211516  1
  Ce3+  Ce16  1  0.90969997  0.25549358  0.91954733  1
  Ce3+  Ce17  1  0.36323838  -0.01356285  0.44181910  1
  Ce3+  Ce18  1  0.11709186  0.73569939  0.44876749  1
  Ce3+  Ce19  1  0.61733018  0.48258716  0.44749961  1
  Ce3+  Ce20  1  0.36251304  0.23623213  0.44256891  1
  Ce3+  Ce21  1  0.86366948  0.74168411  0.43828424  1
  Ce3+  Ce22  1  0.02636643  0.37464024  0.05949877  1
  Ce3+  Ce23  1  0.15690285  0.50259802  0.94329046  1
  Ce3+  Ce24  1  0.77613600  0.88081034  0.05880542  1
  Ce3+  Ce25  1  0.39377715  -0.00422241  0.93447672  1
  Pr3+  Pr26  1  0.53200016  0.62305779  0.06869999  1
  Pr3+  Pr27  1  -0.01400531  0.86483197  0.56733920  1
  Pr3+  Pr28  1  0.28108488  0.11827172  0.07479420  1
  Pr3+  Pr29  1  0.35058085  0.73371551  0.41657464  1
  Pr3+  Pr30  1  0.73487670  0.61581244  0.56595049  1
  Pr3+  Pr31  1  0.40269212  0.74826674  0.93663108  1
  Pr3+  Pr32  1  0.90524614  0.00710172  0.92465521  1
  Pr3+  Pr33  1  -0.00984572  0.11589707  0.56265988  1
  Pr3+  Pr34  1  0.53572265  0.87683058  0.06218431  1
  Pr3+  Pr35  1  0.49064525  0.11044369  0.55992730  1
  Pr3+  Pr36  1  0.39927737  0.24647624  0.93289639  1
  Pr3+  Pr37  1  0.03014119  0.13517747  0.07486714  1
  Pr3+  Pr38  1  0.02563027  0.87703689  0.06154129  1
  Nd3+  Nd39  1  0.61530365  0.73334524  0.43349214  1
  Nd3+  Nd40  1  0.73447154  0.86118576  0.56390262  1
  Nd3+  Nd41  1  0.65429726  0.74912126  0.93587271  1
  Nd3+  Nd42  1  0.90328010  0.75073059  0.94703921  1
  Nd3+  Nd43  1  0.65908086  -0.00324421  0.92303010  1
  Nd3+  Nd44  1  0.65304702  0.24919463  0.93252231  1
  Nd3+  Nd45  1  0.65313614  0.49921349  0.93530883  1
  Nd3+  Nd46  1  0.86441736  -0.01291439  0.43885603  1
  Nd3+  Nd47  1  -0.01320419  0.61197292  0.56118244  1
  Nd3+  Nd48  1  0.48893110  0.35995894  0.56291960  1
  Nd3+  Nd49  1  0.90848270  0.49981800  0.93067853  1
  Nd3+  Nd50  1  0.28024533  0.37403904  0.06078363  1
  Nd3+  Nd51  1  0.36561608  0.48518102  0.43628477  1
  Sm3+  Sm52  1  0.02743352  0.62496333  0.05649808  1
  Sm3+  Sm53  1  0.23710577  0.10781182  0.57011136  1
  Sm3+  Sm54  1  0.78112614  0.12528605  0.05006108  1
  Sm3+  Sm55  1  0.77460464  0.62103258  0.05913486  1
  Sm3+  Sm56  1  0.40311644  0.50160895  0.94485931  1
  Sm3+  Sm57  1  0.48612149  0.85958200  0.54837818  1
  Sm3+  Sm58  1  0.23714950  0.36101678  0.56324851  1
  Sm3+  Sm59  1  0.14977884  0.00121230  0.94287601  1
  Sm3+  Sm60  1  0.86126901  0.48239968  0.44355749  1
  Sm3+  Sm61  1  0.52906529  0.37050974  0.05115468  1
  Sm3+  Sm62  1  0.62765797  0.23513039  0.44528947  1
  Sm3+  Sm63  1  0.48319675  0.61469279  0.55344504  1
  Bi2+  Bi64  1  -0.00872874  0.10048765  0.28966418  1
  Bi2+  Bi65  1  0.02102626  0.12523154  0.79003060  1
  Bi2+  Bi66  1  -0.01522362  0.46773805  0.27905371  1
  Bi2+  Bi67  1  0.01426316  0.39253628  0.79153767  1
  Bi2+  Bi68  1  -0.02764820  0.66810330  0.29454331  1
  Bi2+  Bi69  1  -0.01081430  0.64201718  0.80693569  1
  Bi2+  Bi70  1  -0.03982141  0.85540128  0.25471877  1
  Bi2+  Bi71  1  -0.05061292  0.87924346  0.80351582  1
  Bi2+  Bi72  1  0.23508646  0.18138873  0.25352503  1
  Bi2+  Bi73  1  0.24299747  0.11012810  0.79229751  1
  Bi2+  Bi74  1  0.33696305  0.36231687  0.31852518  1
  Bi2+  Bi75  1  0.26975207  0.38173581  0.79261436  1
  Bi2+  Bi76  1  0.23113518  0.60938974  0.28973666  1
  Bi2+  Bi77  1  0.29480245  0.63813769  0.78515482  1
  Bi2+  Bi78  1  0.23891120  0.88681711  0.30743240  1
  Bi2+  Bi79  1  0.28400230  0.93437207  0.74537358  1
  Bi2+  Bi80  1  0.50473332  0.16042551  0.24544460  1
  Bi2+  Bi81  1  0.44154356  0.18964071  0.80084769  1
  Bi2+  Bi82  1  0.52621374  0.33094857  0.30540977  1
  Bi2+  Bi83  1  0.47888107  0.38431777  0.79911719  1
  Bi2+  Bi84  1  0.50332926  0.55837787  0.29200214  1
  Bi2+  Bi85  1  0.48195543  0.71225403  0.80860250  1
  Bi2+  Bi86  1  0.50076611  0.91487385  0.29908948  1
  Bi2+  Bi87  1  0.45080607  0.90882566  0.80272545  1
  Bi2+  Bi88  1  0.72928213  0.12439077  0.28930237  1
  Bi2+  Bi89  1  0.73836447  0.09195997  0.79225032  1
  Bi2+  Bi90  1  0.77039539  0.47152962  0.27753262  1
  Bi2+  Bi91  1  0.74641795  0.37149852  0.78393731  1
  Bi2+  Bi92  1  0.78131012  0.65101540  0.32545607  1
  Bi2+  Bi93  1  0.75317132  0.58834250  0.79263925  1
  Bi2+  Bi94  1  0.76729467  0.87567579  0.28452541  1
  Bi2+  Bi95  1  0.64715269  0.85002646  0.77037547  1
  Bi2+  Bi96  1  0.12494882  0.00333376  0.19205697  1
  Bi2+  Bi97  1  0.10653285  0.02751606  0.70367686  1
  Bi2+  Bi98  1  0.14396444  0.34073645  0.29020866  1
  Bi2+  Bi99  1  0.15154712  0.29721966  0.71037657  1
  Bi2+  Bi100  1  0.15723198  0.50181471  0.20401424  1
  Bi2+  Bi101  1  0.17538419  0.51570788  0.72835497  1
  Bi2+  Bi102  1  0.12496505  0.72660076  0.21994927  1
  Bi2+  Bi103  1  0.10808168  0.74044201  0.71477905  1
  Bi2+  Bi104  1  0.35224341  0.02765554  0.23666091  1
  Bi2+  Bi105  1  0.36710048  0.10057869  0.69970414  1
  Bi2+  Bi106  1  0.37343967  0.29190404  0.20259253  1
  Bi2+  Bi107  1  0.37260029  0.29798811  0.70193021  1
  Bi2+  Bi108  1  0.35395389  0.50008584  0.21702040  1
  Bi2+  Bi109  1  0.44906507  0.54378476  0.73223788  1
  Bi2+  Bi110  1  0.38521720  0.74881599  0.21296171  1
  Bi2+  Bi111  1  0.45934154  0.75286115  0.69602945  1
  Bi2+  Bi112  1  0.57154941  -0.03187278  0.19720971  1
  Bi2+  Bi113  1  0.55525657  -0.01266988  0.71194730  1
  Bi2+  Bi114  1  0.63381466  0.31084143  0.20903667  1
  Bi2+  Bi115  1  0.56881302  0.25616723  0.71933289  1
  Bi2+  Bi116  1  0.62379667  0.51544449  0.20419696  1
  Bi2+  Bi117  1  0.63512380  0.55744539  0.70350186  1
  Bi2+  Bi118  1  0.62573485  0.70461561  0.26356312  1
  Bi2+  Bi119  1  0.65896539  0.74216938  0.66999653  1
  Bi2+  Bi120  1  0.81865543  -0.02168700  0.18918878  1
  Bi2+  Bi121  1  0.87520660  -0.07411858  0.70354129  1
  Bi2+  Bi122  1  0.87011721  0.22367362  0.17821113  1
  Bi2+  Bi123  1  0.90619726  0.22539230  0.70180939  1
  Bi2+  Bi124  1  0.88816176  0.54720516  0.19127310  1
  Bi2+  Bi125  1  0.90456428  0.54903442  0.71783561  1
  Bi2+  Bi126  1  0.82284563  0.72605947  0.21121801  1
  Bi2+  Bi127  1  0.84225037  0.73496640  0.71507523  1
  S2-  S128  1  -0.03579243  0.05895181  0.16240999  1
  S2-  S129  1  -0.04323755  0.07031505  0.65912353  1
  S2-  S130  1  0.00573383  0.28828941  0.14234788  1
  S2-  S131  1  0.00992236  0.35771255  0.66560132  1
  S2-  S132  1  0.04050327  0.61425069  0.15454376  1
  S2-  S133  1  0.03752797  0.60874866  0.65694887  1
  S2-  S134  1  0.04981108  0.85267308  0.16075308  1
  S2-  S135  1  0.03768319  0.86009727  0.66512327  1
  S2-  S136  1  0.16180368  0.14413396  0.15101494  1
  S2-  S137  1  0.14659700  0.16943362  0.64858671  1
  S2-  S138  1  0.23652495  0.37122997  0.15750527  1
  S2-  S139  1  0.24208294  0.45742751  0.64566578  1
  S2-  S140  1  0.25618282  0.74603426  0.14877854  1
  S2-  S141  1  0.23381206  0.74599890  0.65493776  1
  S2-  S142  1  0.28010544  0.98550816  0.14796999  1
  S2-  S143  1  0.24595898  0.98334975  0.64583525  1
  S2-  S144  1  0.49994961  0.10028525  0.14333625  1
  S2-  S145  1  0.57515346  0.11741124  0.64865333  1
  S2-  S146  1  0.51336825  0.37534801  0.14907654  1
  S2-  S147  1  0.57831742  0.36644344  0.64940639  1
  S2-  S148  1  0.41377925  0.61614869  0.14723124  1
  S2-  S149  1  0.40471912  0.61124846  0.64114092  1
  S2-  S150  1  0.45515009  0.85257924  0.15409981  1
  S2-  S151  1  0.45981761  0.89313018  0.64467670  1
  S2-  S152  1  0.74123625  0.10968516  0.14793077  1
  S2-  S153  1  0.76986352  0.13687301  0.69955253  1
  S2-  S154  1  0.77626403  0.36037236  0.14995030  1
  S2-  S155  1  0.78740867  0.33506453  0.69321569  1
  S2-  S156  1  0.66642070  0.63031394  0.13642465  1
  S2-  S157  1  0.77101662  0.52058539  0.64783067  1
  S2-  S158  1  0.67252171  0.88190248  0.13726558  1
  S2-  S159  1  0.73842812  0.95084725  0.64901578  1
  S2-  S160  1  0.11459700  -0.00988864  0.33558358  1
  S2-  S161  1  0.04355807  -0.00174852  0.85790251  1
  S2-  S162  1  0.03777544  0.23298533  0.34906749  1
  S2-  S163  1  0.05332719  0.26505131  0.85184488  1
  S2-  S164  1  0.13078007  0.49134554  0.34424562  1
  S2-  S165  1  0.08602444  0.51327915  0.85395124  1
  S2-  S166  1  0.18755057  0.75466725  0.35961050  1
  S2-  S167  1  0.08081814  0.77700429  0.83235439  1
  S2-  S168  1  0.36191604  0.00107089  0.34428167  1
  S2-  S169  1  0.26829740  -0.00376098  0.86642975  1
  S2-  S170  1  0.26306342  0.21442899  0.36232557  1
  S2-  S171  1  0.27743361  0.24456184  0.85974302  1
  S2-  S172  1  0.35919453  0.58824110  0.35567017  1
  S2-  S173  1  0.35001907  0.50788605  0.85188263  1
  S2-  S174  1  0.39050422  0.78981325  0.31791221  1
  S2-  S175  1  0.28861703  0.74678288  0.85917862  1
  S2-  S176  1  0.61401242  0.04152825  0.33475173  1
  S2-  S177  1  0.58669950  0.01223531  0.83011290  1
  S2-  S178  1  0.70419385  0.24066852  0.35475021  1
  S2-  S179  1  0.67599988  0.24139526  0.83339461  1
  S2-  S180  1  0.61420900  0.46614277  0.34965073  1
  S2-  S181  1  0.63451930  0.47855168  0.83686498  1
  S2-  S182  1  0.62316085  0.82378383  0.34833923  1
  S2-  S183  1  0.65484401  0.72279144  0.83662722  1
  S2-  S184  1  0.86722835  0.07273913  0.34914352  1
  S2-  S185  1  0.78955049  -0.03568058  0.85053570  1
  S2-  S186  1  0.87792731  0.22583707  0.27419062  1
  S2-  S187  1  0.88219850  0.14783585  0.84095358  1
  S2-  S188  1  0.87105221  0.41006182  0.35401423  1
  S2-  S189  1  0.88364500  0.39558075  0.84943817  1
  S2-  S190  1  0.87093441  0.85787146  0.36417323  1
  S2-  S191  1  0.87315883  0.74929885  0.84904336  1
  S2-  S192  1  -0.01058268  0.11415734  0.45522852  1
  S2-  S193  1  0.02923436  0.12706147  0.95944020  1
  S2-  S194  1  -0.01405289  0.35797378  0.45600876  1
  S2-  S195  1  0.03004111  0.38098346  0.95583034  1
  S2-  S196  1  -0.01501456  0.61184731  0.45267514  1
  S2-  S197  1  0.02760959  0.62680824  0.95343983  1
  S2-  S198  1  -0.00621354  0.86016915  0.46057345  1
  S2-  S199  1  0.02728358  0.87293369  0.95561255  1
  S2-  S200  1  0.24145965  0.10741894  0.46461112  1
  S2-  S201  1  0.27885141  0.12245115  0.96594403  1
  S2-  S202  1  0.24182428  0.36351816  0.45841653  1
  S2-  S203  1  0.28106337  0.37864124  0.95574621  1
  S2-  S204  1  0.23830014  0.60881997  0.46008120  1
  S2-  S205  1  0.28062722  0.62247980  0.96381238  1
  S2-  S206  1  0.23999845  0.86366307  0.46066828  1
  S2-  S207  1  0.27588662  0.87276935  0.96393882  1
  S2-  S208  1  0.49160273  0.11553698  0.45107553  1
  S2-  S209  1  0.52640373  0.12275458  0.94224328  1
  S2-  S210  1  0.49137142  0.35766205  0.45577059  1
  S2-  S211  1  0.52524989  0.37394733  0.94604918  1
  S2-  S212  1  0.49122613  0.61131207  0.44986840  1
  S2-  S213  1  0.52933554  0.62223198  0.95300511  1
  S2-  S214  1  0.48442344  0.85639136  0.44492867  1
  S2-  S215  1  0.53004227  0.87408178  0.94701030  1
  S2-  S216  1  0.73907607  0.10772880  0.45578471  1
  S2-  S217  1  0.77578854  0.12799190  0.94722311  1
  S2-  S218  1  0.74043182  0.36352800  0.46384498  1
  S2-  S219  1  0.77582914  0.37516525  0.94806086  1
  S2-  S220  1  0.73996192  0.61129810  0.45771038  1
  S2-  S221  1  0.77857691  0.62141132  0.95314363  1
  S2-  S222  1  0.73694375  0.85822994  0.45878809  1
  S2-  S223  1  0.77786102  0.87130409  0.95489393  1
  S2-  S224  1  0.14958982  -0.00033982  0.04781664  1
  S2-  S225  1  0.11178003  -0.01264804  0.54771882  1
  S2-  S226  1  0.15572055  0.25462220  0.04389445  1
  S2-  S227  1  0.11703349  0.24035780  0.54095473  1
  S2-  S228  1  0.15384656  0.50223114  0.05013196  1
  S2-  S229  1  0.11110618  0.48671842  0.55055411  1
  S2-  S230  1  0.14683019  0.74705147  0.04284679  1
  S2-  S231  1  0.11088923  0.73522128  0.55171665  1
  S2-  S232  1  0.40746023  -0.00391204  0.04076289  1
  S2-  S233  1  0.36593123  -0.01187629  0.54501055  1
  S2-  S234  1  0.40325653  0.24877094  0.04353422  1
  S2-  S235  1  0.36109463  0.23639442  0.55260682  1
  S2-  S236  1  0.40745909  0.49495254  0.04776504  1
  S2-  S237  1  0.36644327  0.48219662  0.54209229  1
  S2-  S238  1  0.41158621  0.74796735  0.04277248  1
  S2-  S239  1  0.36376433  0.73688403  0.53937793  1
  S2-  S240  1  0.65636849  0.00391880  0.03204162  1
  S2-  S241  1  0.61053483  -0.01688491  0.54161021  1
  S2-  S242  1  0.65279035  0.24793200  0.04028406  1
  S2-  S243  1  0.61817107  0.23669543  0.54868081  1
  S2-  S244  1  0.65262152  0.49334784  0.04138729  1
  S2-  S245  1  0.60804889  0.49264790  0.55113018  1
  S2-  S246  1  0.65602893  0.74852003  0.03894580  1
  S2-  S247  1  0.60824497  0.73706742  0.54038422  1
  S2-  S248  1  0.90150957  0.00217537  0.04037430  1
  S2-  S249  1  0.86215997  -0.01240020  0.54677665  1
  S2-  S250  1  0.90164515  0.24937186  0.03478125  1
  S2-  S251  1  0.85570975  0.23455060  0.57214223  1
  S2-  S252  1  0.90127518  0.50202113  0.04209353  1
  S2-  S253  1  0.86451135  0.48635768  0.54730413  1
  S2-  S254  1  0.89852200  0.74599653  0.05428652  1
  S2-  S255  1  0.86289438  0.73787373  0.55112026  1
