# generated using pymatgen
data_La12Ce14Pr13Nd13Sm12(BiS2)64
_symmetry_space_group_name_H-M   'P 1'
_cell_length_a   16.14763704
_cell_length_b   16.14280600
_cell_length_c   27.27367394
_cell_angle_alpha   90.08561877
_cell_angle_beta   89.91347267
_cell_angle_gamma   90.06824125
_symmetry_Int_Tables_number   1
_chemical_formula_structural   La12Ce14Pr13Nd13Sm12(BiS2)64
_chemical_formula_sum   'La12 Ce14 Pr13 Nd13 Sm12 Bi64 S128'
_cell_volume   7109.35766104
_cell_formula_units_Z   1
loop_
 _symmetry_equiv_pos_site_id
 _symmetry_equiv_pos_as_xyz
  1  'x, y, z'
loop_
 _atom_type_symbol
 _atom_type_oxidation_number
  La3+  3.0
  Ce3+  3.0
  Pr3+  3.0
  Nd3+  3.0
  Sm3+  3.0
  Bi2+  2.0
  S2-  -2.0
loop_
 _atom_site_type_symbol
 _atom_site_label
 _atom_site_symmetry_multiplicity
 _atom_site_fract_x
 _atom_site_fract_y
 _atom_site_fract_z
 _atom_site_occupancy
  La3+  La0  1  0.02135155  0.36798398  0.57427583  1
  La3+  La1  1  0.36036178  0.74046334  0.90997766  1
  La3+  La2  1  0.86729491  0.74526960  0.93198429  1
  La3+  La3  1  0.52089201  0.88900745  0.61050644  1
  La3+  La4  1  0.61293679  -0.01370331  0.93261073  1
  La3+  La5  1  0.12026453  0.00139474  0.92521567  1
  La3+  La6  1  0.13879993  0.76282006  0.42902118  1
  La3+  La7  1  0.73346104  0.38088332  0.10777729  1
  La3+  La8  1  0.51013573  0.62947964  0.57620606  1
  La3+  La9  1  0.76984041  0.63072924  0.57259436  1
  La3+  La10  1  0.61071375  0.24276053  0.92696334  1
  La3+  La11  1  0.39740406  0.75312753  0.43158640  1
  Ce3+  Ce12  1  0.51264849  0.13127072  0.55939980  1
  Ce3+  Ce13  1  0.49489252  0.37267306  0.06029980  1
  Ce3+  Ce14  1  0.39209007  0.50711287  0.43759464  1
  Ce3+  Ce15  1  0.14523098  0.00522694  0.43828158  1
  Ce3+  Ce16  1  0.01258225  0.62935146  0.56221800  1
  Ce3+  Ce17  1  0.63894817  0.25769350  0.44535082  1
  Ce3+  Ce18  1  -0.01248099  0.36709752  0.06051177  1
  Ce3+  Ce19  1  0.02014677  0.87976594  0.56385528  1
  Ce3+  Ce20  1  -0.01099282  0.62201219  0.05399449  1
  Ce3+  Ce21  1  0.88778188  0.75445976  0.44246574  1
  Ce3+  Ce22  1  0.01695080  0.13045768  0.55057043  1
  Ce3+  Ce23  1  0.74047721  0.12675344  0.05898844  1
  Ce3+  Ce24  1  0.49084404  0.62671423  0.05717585  1
  Ce3+  Ce25  1  0.76445786  0.12991633  0.55505789  1
  Pr3+  Pr26  1  0.23973000  0.37118597  0.05576662  1
  Pr3+  Pr27  1  0.88893009  0.25442647  0.42776537  1
  Pr3+  Pr28  1  0.63986404  0.75026001  0.44557461  1
  Pr3+  Pr29  1  0.51261798  0.37980196  0.57139075  1
  Pr3+  Pr30  1  0.49297276  0.12276145  0.06350317  1
  Pr3+  Pr31  1  0.13652575  0.50494079  0.43532344  1
  Pr3+  Pr32  1  0.62212730  0.73713479  0.92197599  1
  Pr3+  Pr33  1  0.26998641  0.12936934  0.55609608  1
  Pr3+  Pr34  1  0.88862614  0.00348387  0.44378111  1
  Pr3+  Pr35  1  0.23159212  0.87119874  0.06697038  1
  Pr3+  Pr36  1  0.73857654  0.62890871  0.06838846  1
  Pr3+  Pr37  1  0.85432090  0.24756406  0.92949507  1
  Pr3+  Pr38  1  0.14910810  0.25212839  0.42248920  1
  Nd3+  Nd39  1  0.48876911  0.86886611  0.05685577  1
  Nd3+  Nd40  1  -0.00979775  0.12429160  0.05207077  1
  Nd3+  Nd41  1  0.86271698  0.49333110  0.94850936  1
  Nd3+  Nd42  1  0.23910230  0.62439031  0.06034713  1
  Nd3+  Nd43  1  0.23741838  0.12408491  0.05637031  1
  Nd3+  Nd44  1  0.77037308  0.37852386  0.56416704  1
  Nd3+  Nd45  1  0.26711148  0.87853825  0.56584840  1
  Nd3+  Nd46  1  0.36568836  0.49701508  0.93874106  1
  Nd3+  Nd47  1  0.36229506  -0.00716827  0.94788454  1
  Nd3+  Nd48  1  0.26461130  0.37768347  0.55674756  1
  Nd3+  Nd49  1  0.11617311  0.49393970  0.93763409  1
  Nd3+  Nd50  1  0.26362122  0.62974893  0.55777590  1
  Nd3+  Nd51  1  0.11349718  0.75409366  0.92776185  1
  Sm3+  Sm52  1  0.39370581  0.26288598  0.42952405  1
  Sm3+  Sm53  1  0.76025670  0.88171822  0.55755985  1
  Sm3+  Sm54  1  0.86379102  -0.00163492  0.94534257  1
  Sm3+  Sm55  1  0.63243105  0.00331720  0.44095102  1
  Sm3+  Sm56  1  0.61598452  0.50011359  0.94392265  1
  Sm3+  Sm57  1  0.39824937  -0.00169645  0.43275496  1
  Sm3+  Sm58  1  0.36913943  0.24570673  0.94021337  1
  Sm3+  Sm59  1  0.73993478  0.87106028  0.06008271  1
  Sm3+  Sm60  1  -0.00836877  0.87048540  0.05745177  1
  Sm3+  Sm61  1  0.64215606  0.50425360  0.44807975  1
  Sm3+  Sm62  1  0.89092619  0.50221146  0.44242909  1
  Sm3+  Sm63  1  0.10454426  0.25382847  0.91072755  1
  Bi2+  Bi64  1  -0.09227204  0.07472059  0.27426345  1
  Bi2+  Bi65  1  0.00736266  0.13465265  0.76893352  1
  Bi2+  Bi66  1  0.02293878  0.36594094  0.30501827  1
  Bi2+  Bi67  1  0.02983583  0.42075637  0.75290932  1
  Bi2+  Bi68  1  0.00648119  0.69454729  0.30850412  1
  Bi2+  Bi69  1  0.01477686  0.60195474  0.79635740  1
  Bi2+  Bi70  1  -0.01059197  0.88509436  0.27749256  1
  Bi2+  Bi71  1  -0.04150341  0.78540916  0.80969615  1
  Bi2+  Bi72  1  0.17377644  0.07361093  0.30610381  1
  Bi2+  Bi73  1  0.23999622  0.20079036  0.79212659  1
  Bi2+  Bi74  1  0.27125457  0.30610549  0.25824753  1
  Bi2+  Bi75  1  0.25122458  0.39619876  0.79151615  1
  Bi2+  Bi76  1  0.25988809  0.58109866  0.28108072  1
  Bi2+  Bi77  1  0.23393131  0.59249399  0.78724506  1
  Bi2+  Bi78  1  0.23785237  0.85158389  0.28549563  1
  Bi2+  Bi79  1  0.24355585  0.87622948  0.80099472  1
  Bi2+  Bi80  1  0.43783249  0.14302408  0.31292243  1
  Bi2+  Bi81  1  0.42769516  0.18638739  0.76235990  1
  Bi2+  Bi82  1  0.53554860  0.31768776  0.30273122  1
  Bi2+  Bi83  1  0.44901760  0.39422488  0.80946824  1
  Bi2+  Bi84  1  0.51873744  0.60794598  0.30301359  1
  Bi2+  Bi85  1  0.50272925  0.57459297  0.77921843  1
  Bi2+  Bi86  1  0.49120970  0.87545197  0.29795880  1
  Bi2+  Bi87  1  0.48272274  0.95816717  0.80838220  1
  Bi2+  Bi88  1  0.71167834  0.08970627  0.28142333  1
  Bi2+  Bi89  1  0.81659074  0.16542844  0.78831298  1
  Bi2+  Bi90  1  0.77299243  0.40339392  0.30772066  1
  Bi2+  Bi91  1  0.85338742  0.36715456  0.80032324  1
  Bi2+  Bi92  1  0.73416548  0.66201485  0.28268524  1
  Bi2+  Bi93  1  0.74670002  0.61779011  0.79053122  1
  Bi2+  Bi94  1  0.74031736  0.86311924  0.28399426  1
  Bi2+  Bi95  1  0.73067389  0.95123277  0.80299846  1
  Bi2+  Bi96  1  0.08904493  0.01801051  0.20891058  1
  Bi2+  Bi97  1  0.10337447  -0.00739279  0.71010276  1
  Bi2+  Bi98  1  0.13133664  0.25233041  0.18302596  1
  Bi2+  Bi99  1  0.12968001  0.26231409  0.70355596  1
  Bi2+  Bi100  1  0.07289015  0.53239345  0.25143380  1
  Bi2+  Bi101  1  0.11249366  0.57949534  0.69550646  1
  Bi2+  Bi102  1  0.14180675  0.75349339  0.19205825  1
  Bi2+  Bi103  1  0.09612243  0.76994419  0.72062071  1
  Bi2+  Bi104  1  0.33342191  0.01696437  0.25018629  1
  Bi2+  Bi105  1  0.34853902  0.04348370  0.69640488  1
  Bi2+  Bi106  1  0.39748852  0.18980725  0.20219520  1
  Bi2+  Bi107  1  0.36108570  0.28365861  0.66103993  1
  Bi2+  Bi108  1  0.40516123  0.45228179  0.25829228  1
  Bi2+  Bi109  1  0.36917722  0.47157714  0.70071434  1
  Bi2+  Bi110  1  0.38385674  0.72627043  0.19510379  1
  Bi2+  Bi111  1  0.37459720  0.74397970  0.71376165  1
  Bi2+  Bi112  1  0.60848744  -0.04102589  0.21762298  1
  Bi2+  Bi113  1  0.65926714  0.03033921  0.70860876  1
  Bi2+  Bi114  1  0.61748154  0.22043256  0.21432080  1
  Bi2+  Bi115  1  0.54563483  0.24967960  0.67950062  1
  Bi2+  Bi116  1  0.59842331  0.49516037  0.21217769  1
  Bi2+  Bi117  1  0.59406594  0.41850797  0.73102683  1
  Bi2+  Bi118  1  0.60701763  0.72722648  0.20227750  1
  Bi2+  Bi119  1  0.64867847  0.76869791  0.71995278  1
  Bi2+  Bi120  1  0.79268501  0.01371076  0.18292056  1
  Bi2+  Bi121  1  0.91179819  -0.01426146  0.71522818  1
  Bi2+  Bi122  1  0.89045056  0.25296988  0.20304097  1
  Bi2+  Bi123  1  0.85695319  0.26907974  0.68729076  1
  Bi2+  Bi124  1  0.90037521  0.62137374  0.22277718  1
  Bi2+  Bi125  1  0.81716241  0.52926762  0.70050922  1
  Bi2+  Bi126  1  0.86597134  0.83593542  0.19269135  1
  Bi2+  Bi127  1  0.90168159  0.79363940  0.70125927  1
  S2-  S128  1  -0.00233788  0.13647431  0.15213917  1
  S2-  S129  1  0.00161696  0.21175538  0.63586141  1
  S2-  S130  1  -0.00154448  0.36259426  0.15914326  1
  S2-  S131  1  -0.06426722  0.41449944  0.66047169  1
  S2-  S132  1  0.00452979  0.67308848  0.14648908  1
  S2-  S133  1  -0.09057150  0.64081107  0.64340999  1
  S2-  S134  1  0.09257834  0.88755343  0.13607703  1
  S2-  S135  1  0.13404754  0.87036981  0.63832737  1
  S2-  S136  1  0.21986069  0.10748522  0.15452170  1
  S2-  S137  1  0.21389457  0.09545360  0.65191608  1
  S2-  S138  1  0.24155547  0.36760508  0.15687394  1
  S2-  S139  1  0.16372216  0.37878174  0.63900986  1
  S2-  S140  1  0.25065482  0.62725380  0.16100042  1
  S2-  S141  1  0.31889934  0.63226924  0.65405611  1
  S2-  S142  1  0.28402211  0.84420735  0.16579639  1
  S2-  S143  1  0.35515343  0.88686384  0.65426664  1
  S2-  S144  1  0.52847633  0.09556282  0.16081667  1
  S2-  S145  1  0.51203072  0.05609559  0.64825902  1
  S2-  S146  1  0.56982215  0.35905726  0.14918951  1
  S2-  S147  1  0.51279100  0.49668427  0.64838654  1
  S2-  S148  1  0.49197130  0.60507300  0.15543777  1
  S2-  S149  1  0.51283316  0.73220815  0.65954330  1
  S2-  S150  1  0.50128682  0.84048323  0.15596017  1
  S2-  S151  1  0.53978142  0.89731022  0.72493537  1
  S2-  S152  1  0.74982449  0.21380587  0.14442928  1
  S2-  S153  1  0.75805253  0.12955091  0.65362451  1
  S2-  S154  1  0.79484770  0.38135806  0.21199949  1
  S2-  S155  1  0.72911410  0.37801782  0.66206190  1
  S2-  S156  1  0.72175761  0.53948854  0.15538160  1
  S2-  S157  1  0.69618249  0.62857198  0.66638613  1
  S2-  S158  1  0.73287825  0.76313410  0.13738415  1
  S2-  S159  1  0.69583228  0.88549654  0.64876150  1
  S2-  S160  1  0.12866744  -0.08803800  0.35687352  1
  S2-  S161  1  0.09344463  -0.11574556  0.85131585  1
  S2-  S162  1  0.07897950  0.21473744  0.32984381  1
  S2-  S163  1  0.12511355  0.12064539  0.84915725  1
  S2-  S164  1  0.16494293  0.46734316  0.33730751  1
  S2-  S165  1  0.11429693  0.39931673  0.85330499  1
  S2-  S166  1  0.17899487  0.70617060  0.33408677  1
  S2-  S167  1  0.21504149  0.72398799  0.84842498  1
  S2-  S168  1  0.36087518  -0.12394753  0.35808056  1
  S2-  S169  1  0.31861458  -0.00563571  0.85083060  1
  S2-  S170  1  0.28381262  0.23988578  0.35214838  1
  S2-  S171  1  0.47361227  0.24373085  0.86078166  1
  S2-  S172  1  0.41868360  0.39847971  0.36329493  1
  S2-  S173  1  0.37482321  0.58421230  0.85141921  1
  S2-  S174  1  0.38099253  0.62011129  0.35875370  1
  S2-  S175  1  0.40003317  0.80219199  0.81494482  1
  S2-  S176  1  0.53008470  0.00988647  0.36047228  1
  S2-  S177  1  0.60984206  0.06488454  0.84066863  1
  S2-  S178  1  0.68115184  0.27044572  0.35090053  1
  S2-  S179  1  0.72769621  0.26204493  0.84981924  1
  S2-  S180  1  0.65896704  0.52257267  0.34937816  1
  S2-  S181  1  0.61627345  0.59058276  0.85738258  1
  S2-  S182  1  0.55174833  0.75260218  0.35750016  1
  S2-  S183  1  0.59929577  0.86234914  0.85295776  1
  S2-  S184  1  0.87472756  -0.03965464  0.34660598  1
  S2-  S185  1  0.86317911  0.01250032  0.84696167  1
  S2-  S186  1  0.88442695  0.27775749  0.32719943  1
  S2-  S187  1  0.96044887  0.25658663  0.84863482  1
  S2-  S188  1  0.90669181  0.48530729  0.34471987  1
  S2-  S189  1  0.85992425  0.52043094  0.84903993  1
  S2-  S190  1  0.84036053  0.72437951  0.35064885  1
  S2-  S191  1  0.76900928  0.74434612  0.84909862  1
  S2-  S192  1  0.01481046  0.12782438  0.44428982  1
  S2-  S193  1  -0.01296171  0.12304298  0.94768118  1
  S2-  S194  1  0.01536079  0.37563084  0.44932285  1
  S2-  S195  1  -0.01102261  0.37212200  0.95517558  1
  S2-  S196  1  0.01183993  0.62983578  0.45261433  1
  S2-  S197  1  -0.00655681  0.61925626  0.94753810  1
  S2-  S198  1  0.01066087  0.87981775  0.45750010  1
  S2-  S199  1  -0.01295897  0.87623148  0.95488484  1
  S2-  S200  1  0.27391763  0.12245563  0.44944533  1
  S2-  S201  1  0.24548824  0.12934603  0.95130511  1
  S2-  S202  1  0.26314156  0.38290793  0.45256257  1
  S2-  S203  1  0.24425491  0.36723051  0.94914505  1
  S2-  S204  1  0.25833422  0.63166951  0.45322070  1
  S2-  S205  1  0.23826828  0.61845618  0.95449691  1
  S2-  S206  1  0.26527385  0.88182983  0.46001220  1
  S2-  S207  1  0.24130485  0.86723754  0.95700642  1
  S2-  S208  1  0.51373156  0.13580688  0.45427806  1
  S2-  S209  1  0.48670331  0.11554552  0.95763421  1
  S2-  S210  1  0.52183572  0.38285985  0.46419958  1
  S2-  S211  1  0.49109023  0.37721529  0.95572899  1
  S2-  S212  1  0.51972252  0.62402925  0.46453483  1
  S2-  S213  1  0.48788452  0.62435693  0.95356022  1
  S2-  S214  1  0.51901067  0.87890609  0.45840778  1
  S2-  S215  1  0.48024425  0.86377540  0.95200111  1
  S2-  S216  1  0.76128614  0.12688988  0.44692586  1
  S2-  S217  1  0.73753359  0.11631985  0.95368727  1
  S2-  S218  1  0.76777330  0.38088189  0.45576715  1
  S2-  S219  1  0.73347592  0.37823295  0.94901069  1
  S2-  S220  1  0.76815787  0.62490754  0.46106460  1
  S2-  S221  1  0.74332827  0.61919875  0.96074339  1
  S2-  S222  1  0.75888284  0.88169342  0.45272381  1
  S2-  S223  1  0.74425727  0.87130792  0.95656157  1
  S2-  S224  1  0.11436263  0.00147551  0.03599158  1
  S2-  S225  1  0.13991746  0.00611385  0.54178550  1
  S2-  S226  1  0.11472684  0.24699050  0.04045450  1
  S2-  S227  1  0.14403623  0.24923133  0.53200084  1
  S2-  S228  1  0.11427987  0.49601965  0.04587225  1
  S2-  S229  1  0.13578168  0.50607802  0.54252902  1
  S2-  S230  1  0.11232883  0.74505884  0.03652516  1
  S2-  S231  1  0.13684662  0.74973212  0.54110113  1
  S2-  S232  1  0.36334717  -0.00300087  0.05520517  1
  S2-  S233  1  0.39297416  0.00418326  0.54171395  1
  S2-  S234  1  0.36758814  0.24721207  0.04604559  1
  S2-  S235  1  0.39080450  0.25686997  0.53573222  1
  S2-  S236  1  0.36490148  0.49775787  0.04662689  1
  S2-  S237  1  0.38535835  0.50231777  0.54476597  1
  S2-  S238  1  0.36175756  0.74701729  0.04907621  1
  S2-  S239  1  0.38611936  0.75289809  0.54491659  1
  S2-  S240  1  0.61656943  -0.00735292  0.04688162  1
  S2-  S241  1  0.63888710  0.00653282  0.54452831  1
  S2-  S242  1  0.61439248  0.24723115  0.04088751  1
  S2-  S243  1  0.64211156  0.25591541  0.55052340  1
  S2-  S244  1  0.61548358  0.49844477  0.04682883  1
  S2-  S245  1  0.64603664  0.50205684  0.55209680  1
  S2-  S246  1  0.61397500  0.75000670  0.03602819  1
  S2-  S247  1  0.64142441  0.75525064  0.55132895  1
  S2-  S248  1  0.86686022  -0.00545212  0.05018500  1
  S2-  S249  1  0.88925619  0.00292260  0.55169288  1
  S2-  S250  1  0.86439188  0.24769203  0.04013287  1
  S2-  S251  1  0.88794034  0.25284964  0.53567845  1
  S2-  S252  1  0.86294447  0.49440648  0.05544326  1
  S2-  S253  1  0.89499819  0.49930583  0.54573131  1
  S2-  S254  1  0.86950471  0.74948646  0.04066615  1
  S2-  S255  1  0.88890830  0.76316402  0.54661494  1
