# generated using pymatgen
data_La12Ce14Pr13Nd13Sm12(BiS2)64
_symmetry_space_group_name_H-M   'P 1'
_cell_length_a   16.17871725
_cell_length_b   16.18539244
_cell_length_c   27.12355003
_cell_angle_alpha   89.98295323
_cell_angle_beta   89.99946951
_cell_angle_gamma   89.96219019
_symmetry_Int_Tables_number   1
_chemical_formula_structural   La12Ce14Pr13Nd13Sm12(BiS2)64
_chemical_formula_sum   'La12 Ce14 Pr13 Nd13 Sm12 Bi64 S128'
_cell_volume   7102.54078534
_cell_formula_units_Z   1
loop_
 _symmetry_equiv_pos_site_id
 _symmetry_equiv_pos_as_xyz
  1  'x, y, z'
loop_
 _atom_type_symbol
 _atom_type_oxidation_number
  La3+  3.0
  Ce3+  3.0
  Pr3+  3.0
  Nd3+  3.0
  Sm3+  3.0
  Bi2+  2.0
  S2-  -2.0
loop_
 _atom_site_type_symbol
 _atom_site_label
 _atom_site_symmetry_multiplicity
 _atom_site_fract_x
 _atom_site_fract_y
 _atom_site_fract_z
 _atom_site_occupancy
  La3+  La0  1  0.37971128  0.26738620  0.42608817  1
  La3+  La1  1  0.75158630  0.36379542  0.07135644  1
  La3+  La2  1  0.88889131  0.01166236  0.42053728  1
  La3+  La3  1  0.01133290  0.63227126  0.10258273  1
  La3+  La4  1  0.87118764  0.25744493  0.90579741  1
  La3+  La5  1  0.63531144  -0.00594681  0.92299497  1
  La3+  La6  1  0.88061517  0.26280927  0.40789989  1
  La3+  La7  1  0.26086705  0.14546014  0.58976532  1
  La3+  La8  1  0.88639812  0.76265725  0.41419190  1
  La3+  La9  1  0.13535932  0.76289575  0.43763708  1
  La3+  La10  1  0.50355048  0.86691669  0.06379024  1
  La3+  La11  1  0.49430120  0.12134000  0.07438171  1
  Ce3+  Ce12  1  0.37666264  0.24598503  0.93861708  1
  Ce3+  Ce13  1  0.63447888  0.51353712  0.43684234  1
  Ce3+  Ce14  1  0.62970235  0.49527145  0.94734274  1
  Ce3+  Ce15  1  0.75341434  0.86981620  0.06051750  1
  Ce3+  Ce16  1  0.00246448  0.63878253  0.56418134  1
  Ce3+  Ce17  1  0.75037102  0.12080851  0.05421242  1
  Ce3+  Ce18  1  0.00514395  0.88817474  0.56069802  1
  Ce3+  Ce19  1  0.37707765  0.74734441  0.94118396  1
  Ce3+  Ce20  1  0.12587161  0.26572334  0.44688698  1
  Ce3+  Ce21  1  0.12768305  0.24777125  0.93752365  1
  Ce3+  Ce22  1  0.37877456  -0.00172534  0.93924049  1
  Ce3+  Ce23  1  0.25391405  0.12323444  0.05970004  1
  Ce3+  Ce24  1  0.50520684  0.14205469  0.56057212  1
  Ce3+  Ce25  1  0.25824284  0.63604713  0.57090367  1
  Pr3+  Pr26  1  0.00002299  0.87439558  0.06774338  1
  Pr3+  Pr27  1  0.00127351  0.37230827  0.06116461  1
  Pr3+  Pr28  1  0.50461421  0.38828421  0.55800346  1
  Pr3+  Pr29  1  0.75687679  0.13700779  0.56106652  1
  Pr3+  Pr30  1  0.75702678  0.38755941  0.55599317  1
  Pr3+  Pr31  1  0.89011267  0.51336206  0.42379604  1
  Pr3+  Pr32  1  0.62977462  0.76691162  0.43720540  1
  Pr3+  Pr33  1  0.12600787  0.49595545  0.93778618  1
  Pr3+  Pr34  1  0.50655811  0.63964755  0.55208642  1
  Pr3+  Pr35  1  0.50200524  0.62142900  0.05450445  1
  Pr3+  Pr36  1  0.25486943  0.39093481  0.57035389  1
  Pr3+  Pr37  1  0.12970400  0.51206899  0.44400661  1
  Pr3+  Pr38  1  -0.00034184  0.12587721  0.05440462  1
  Nd3+  Nd39  1  0.00017451  0.39228559  0.57330031  1
  Nd3+  Nd40  1  0.87719222  0.49532976  0.94578318  1
  Nd3+  Nd41  1  0.13032693  0.01909862  0.44497135  1
  Nd3+  Nd42  1  0.75673120  0.64055791  0.55619512  1
  Nd3+  Nd43  1  0.63025556  0.26292422  0.43045771  1
  Nd3+  Nd44  1  0.88051217  -0.00407621  0.93739050  1
  Nd3+  Nd45  1  0.62922449  0.74729905  0.93097149  1
  Nd3+  Nd46  1  0.25357836  0.89084997  0.55928547  1
  Nd3+  Nd47  1  0.37897319  0.51336346  0.43567324  1
  Nd3+  Nd48  1  0.12472546  0.74577548  0.93995814  1
  Nd3+  Nd49  1  0.62397644  0.23987335  0.93404153  1
  Nd3+  Nd50  1  0.63007638  0.01540804  0.43928488  1
  Nd3+  Nd51  1  0.12580811  -0.00180074  0.94114062  1
  Sm3+  Sm52  1  0.88038870  0.74592376  0.94735355  1
  Sm3+  Sm53  1  0.24949568  0.37583240  0.05543460  1
  Sm3+  Sm54  1  0.50101437  0.37396593  0.05365700  1
  Sm3+  Sm55  1  0.24869123  0.62234751  0.05806287  1
  Sm3+  Sm56  1  0.75608590  0.89110930  0.55417784  1
  Sm3+  Sm57  1  0.37936495  0.01774222  0.44391077  1
  Sm3+  Sm58  1  0.37744400  0.49739666  0.94163689  1
  Sm3+  Sm59  1  0.00373197  0.13901422  0.56241543  1
  Sm3+  Sm60  1  0.75429752  0.62175796  0.05694442  1
  Sm3+  Sm61  1  0.50254135  0.89043604  0.55666451  1
  Sm3+  Sm62  1  0.37856787  0.76576731  0.43832600  1
  Sm3+  Sm63  1  0.24845632  0.87143826  0.05376956  1
  Bi2+  Bi64  1  0.03460924  0.12869672  0.28856411  1
  Bi2+  Bi65  1  -0.00883985  0.08761036  0.76731390  1
  Bi2+  Bi66  1  0.00344524  0.38622766  0.28434655  1
  Bi2+  Bi67  1  -0.00164546  0.37164713  0.79302385  1
  Bi2+  Bi68  1  0.00262530  0.63854944  0.29456634  1
  Bi2+  Bi69  1  -0.03785259  0.64587133  0.78058406  1
  Bi2+  Bi70  1  -0.00789591  0.89130754  0.28218225  1
  Bi2+  Bi71  1  0.02455977  0.86012941  0.80267957  1
  Bi2+  Bi72  1  0.24480133  0.10312194  0.29843575  1
  Bi2+  Bi73  1  0.29435789  0.12034757  0.77671947  1
  Bi2+  Bi74  1  0.22993144  0.30045157  0.31875053  1
  Bi2+  Bi75  1  0.23758285  0.37111887  0.80650168  1
  Bi2+  Bi76  1  0.25393880  0.60506481  0.30318407  1
  Bi2+  Bi77  1  0.23354107  0.65481428  0.77890898  1
  Bi2+  Bi78  1  0.24134118  0.88593337  0.29590436  1
  Bi2+  Bi79  1  0.34064176  0.85106676  0.78774158  1
  Bi2+  Bi80  1  0.51002323  0.11135594  0.29040138  1
  Bi2+  Bi81  1  0.49467475  0.13466840  0.76018268  1
  Bi2+  Bi82  1  0.46701568  0.36643501  0.28218856  1
  Bi2+  Bi83  1  0.49001801  0.42721360  0.79456210  1
  Bi2+  Bi84  1  0.44741013  0.58353380  0.30259266  1
  Bi2+  Bi85  1  0.52072905  0.65734937  0.78060182  1
  Bi2+  Bi86  1  0.43686491  0.85276927  0.29581610  1
  Bi2+  Bi87  1  0.53721288  0.85885625  0.76193699  1
  Bi2+  Bi88  1  0.75772642  0.11765831  0.27823660  1
  Bi2+  Bi89  1  0.72498082  0.10921634  0.79092608  1
  Bi2+  Bi90  1  0.72645967  0.38217680  0.28611681  1
  Bi2+  Bi91  1  0.74847683  0.44176588  0.77472779  1
  Bi2+  Bi92  1  0.68185319  0.64290726  0.25299827  1
  Bi2+  Bi93  1  0.70432746  0.63906601  0.80905814  1
  Bi2+  Bi94  1  0.72241358  0.82555317  0.28732710  1
  Bi2+  Bi95  1  0.75916759  0.84817525  0.79841845  1
  Bi2+  Bi96  1  0.14339412  -0.00286319  0.21719907  1
  Bi2+  Bi97  1  0.15957006  -0.06761115  0.72231457  1
  Bi2+  Bi98  1  0.15728050  0.26171659  0.21188342  1
  Bi2+  Bi99  1  0.10975158  0.21791441  0.70833543  1
  Bi2+  Bi100  1  0.17219259  0.45651099  0.24003572  1
  Bi2+  Bi101  1  0.11807302  0.53585920  0.71588072  1
  Bi2+  Bi102  1  0.19348307  0.73554987  0.21972067  1
  Bi2+  Bi103  1  0.09418199  0.72610158  0.70124887  1
  Bi2+  Bi104  1  0.34105542  -0.01707608  0.20625593  1
  Bi2+  Bi105  1  0.39680172  -0.01501680  0.70079164  1
  Bi2+  Bi106  1  0.35096924  0.22883149  0.23120714  1
  Bi2+  Bi107  1  0.39222965  0.28569402  0.70542359  1
  Bi2+  Bi108  1  0.35318821  0.50715059  0.20659692  1
  Bi2+  Bi109  1  0.37470589  0.51504938  0.71641960  1
  Bi2+  Bi110  1  0.38791291  0.71465677  0.21785721  1
  Bi2+  Bi111  1  0.35293103  0.71429931  0.69650746  1
  Bi2+  Bi112  1  0.61480275  -0.01054232  0.22532852  1
  Bi2+  Bi113  1  0.64627116  0.01950842  0.70083722  1
  Bi2+  Bi114  1  0.63197377  0.26764415  0.19546914  1
  Bi2+  Bi115  1  0.62237458  0.28675505  0.76696082  1
  Bi2+  Bi116  1  0.55140003  0.50612421  0.21161098  1
  Bi2+  Bi117  1  0.58430959  0.49237644  0.69799111  1
  Bi2+  Bi118  1  0.60207092  0.80169906  0.19454917  1
  Bi2+  Bi119  1  0.68679272  0.74334200  0.70980730  1
  Bi2+  Bi120  1  0.88599704  0.01087243  0.21746769  1
  Bi2+  Bi121  1  0.88900917  -0.06486920  0.72392202  1
  Bi2+  Bi122  1  0.89185156  0.25276631  0.19692549  1
  Bi2+  Bi123  1  0.85958003  0.25587184  0.69582013  1
  Bi2+  Bi124  1  0.82769108  0.52457097  0.22610586  1
  Bi2+  Bi125  1  0.85553103  0.54719654  0.70276331  1
  Bi2+  Bi126  1  0.86182173  0.76953329  0.20416642  1
  Bi2+  Bi127  1  0.89668049  0.74147700  0.68677196  1
  S2-  S128  1  -0.02261899  0.12333107  0.15510710  1
  S2-  S129  1  -0.02357138  0.13300006  0.66155132  1
  S2-  S130  1  -0.00618589  0.35958978  0.16239405  1
  S2-  S131  1  0.01442504  0.33203919  0.67381907  1
  S2-  S132  1  -0.02788789  0.57214346  0.19606674  1
  S2-  S133  1  -0.00462645  0.52971924  0.64151156  1
  S2-  S134  1  0.00157955  0.78656878  0.15533829  1
  S2-  S135  1  0.02666181  0.91733365  0.65665792  1
  S2-  S136  1  0.34772972  0.12513060  0.14186262  1
  S2-  S137  1  0.20466160  0.07464259  0.67910659  1
  S2-  S138  1  0.24993974  0.37706748  0.15362629  1
  S2-  S139  1  0.25048141  0.28866404  0.65506794  1
  S2-  S140  1  0.17282937  0.62347597  0.14586347  1
  S2-  S141  1  0.24877380  0.51741240  0.64490531  1
  S2-  S142  1  0.23509038  0.87282733  0.15178607  1
  S2-  S143  1  0.28103055  0.86684429  0.65667764  1
  S2-  S144  1  0.56128481  0.13026745  0.16910827  1
  S2-  S145  1  0.41647588  0.13979526  0.64494711  1
  S2-  S146  1  0.51278568  0.36316999  0.15149716  1
  S2-  S147  1  0.53684895  0.34648543  0.65460522  1
  S2-  S148  1  0.51709620  0.67381248  0.14924108  1
  S2-  S149  1  0.47634957  0.61780469  0.64997004  1
  S2-  S150  1  0.48751073  0.92682212  0.15776553  1
  S2-  S151  1  0.51812673  0.89560129  0.65469884  1
  S2-  S152  1  0.75943452  0.18972484  0.14349612  1
  S2-  S153  1  0.72619400  0.15544215  0.66117787  1
  S2-  S154  1  0.75062815  0.39569308  0.17156459  1
  S2-  S155  1  0.79678146  0.38305490  0.65545972  1
  S2-  S156  1  0.76205948  0.64469113  0.15419754  1
  S2-  S157  1  0.70522333  0.60610195  0.65033777  1
  S2-  S158  1  0.79983572  0.90655656  0.15309054  1
  S2-  S159  1  0.75734605  0.92430170  0.65164895  1
  S2-  S160  1  0.04972344  0.00243702  0.35649116  1
  S2-  S161  1  0.08463997  0.00314408  0.84441513  1
  S2-  S162  1  0.04706117  0.26654585  0.35758019  1
  S2-  S163  1  0.11246409  0.26159132  0.83913094  1
  S2-  S164  1  0.04728594  0.50770842  0.35441710  1
  S2-  S165  1  0.10867350  0.47631544  0.83711140  1
  S2-  S166  1  0.03730617  0.76579370  0.35178272  1
  S2-  S167  1  0.14650578  0.76002706  0.84152941  1
  S2-  S168  1  0.41602423  0.01053644  0.34676557  1
  S2-  S169  1  0.33995967  0.00356812  0.84252765  1
  S2-  S170  1  0.50785898  0.24503501  0.35321506  1
  S2-  S171  1  0.34450910  0.24769920  0.84135698  1
  S2-  S172  1  0.35652388  0.40448143  0.35778747  1
  S2-  S173  1  0.34070212  0.47921218  0.84591976  1
  S2-  S174  1  0.26543919  0.75418201  0.36370148  1
  S2-  S175  1  0.39362649  0.71592667  0.84585671  1
  S2-  S176  1  0.64253451  0.02923478  0.33983746  1
  S2-  S177  1  0.58288180  0.10501814  0.85135238  1
  S2-  S178  1  0.72584380  0.25120404  0.34563040  1
  S2-  S179  1  0.71920306  0.26195099  0.85189771  1
  S2-  S180  1  0.63279097  0.48097937  0.34138250  1
  S2-  S181  1  0.64010309  0.48306533  0.85043866  1
  S2-  S182  1  0.57414194  0.78714440  0.34173484  1
  S2-  S183  1  0.61285303  0.86018018  0.85443238  1
  S2-  S184  1  0.85686718  -0.10820966  0.34506663  1
  S2-  S185  1  0.78745190  -0.00043358  0.85295459  1
  S2-  S186  1  0.88387991  0.12616141  0.34188190  1
  S2-  S187  1  0.90811448  0.21256732  0.80390607  1
  S2-  S188  1  0.87253605  0.40198874  0.34183698  1
  S2-  S189  1  0.88035718  0.41915448  0.85448005  1
  S2-  S190  1  0.86645686  0.63144226  0.34522481  1
  S2-  S191  1  0.89081073  0.76487396  0.84928864  1
  S2-  S192  1  0.00307007  0.13988422  0.45825864  1
  S2-  S193  1  -0.00157287  0.12597638  0.94621547  1
  S2-  S194  1  0.00321192  0.38774788  0.46336901  1
  S2-  S195  1  0.00177178  0.36952911  0.95372650  1
  S2-  S196  1  0.00618416  0.64063116  0.45817374  1
  S2-  S197  1  0.00061675  0.62117757  0.94496198  1
  S2-  S198  1  0.00772391  0.88721972  0.45726466  1
  S2-  S199  1  0.00246054  0.87186550  0.95800949  1
  S2-  S200  1  0.25582564  0.14044493  0.44923576  1
  S2-  S201  1  0.25049670  0.12170943  0.95212338  1
  S2-  S202  1  0.25181484  0.38892206  0.46211611  1
  S2-  S203  1  0.25319099  0.37349601  0.95140675  1
  S2-  S204  1  0.25835012  0.63416708  0.46242260  1
  S2-  S205  1  0.25191144  0.62079452  0.95138892  1
  S2-  S206  1  0.25771778  0.89567934  0.45387394  1
  S2-  S207  1  0.24951981  0.87246208  0.94842938  1
  S2-  S208  1  0.50455867  0.13647190  0.45583637  1
  S2-  S209  1  0.49770455  0.12169457  0.96101977  1
  S2-  S210  1  0.50815051  0.39226080  0.45145153  1
  S2-  S211  1  0.50083409  0.37237958  0.94813186  1
  S2-  S212  1  0.50183557  0.64020017  0.44515362  1
  S2-  S213  1  0.50330889  0.62059526  0.94743489  1
  S2-  S214  1  0.50059936  0.89037115  0.45214381  1
  S2-  S215  1  0.50043043  0.87171839  0.95491415  1
  S2-  S216  1  0.75686100  0.13498115  0.45312896  1
  S2-  S217  1  0.75695128  0.12616076  0.95092279  1
  S2-  S218  1  0.75653378  0.38761403  0.44986855  1
  S2-  S219  1  0.75163096  0.37174319  0.96100985  1
  S2-  S220  1  0.75370309  0.64272268  0.44958661  1
  S2-  S221  1  0.75522456  0.62331790  0.95147178  1
  S2-  S222  1  0.75412958  0.88927954  0.45039744  1
  S2-  S223  1  0.75670724  0.86734566  0.95538305  1
  S2-  S224  1  0.12683932  -0.00180222  0.04911161  1
  S2-  S225  1  0.13371094  0.01979821  0.55129052  1
  S2-  S226  1  0.12944559  0.24902076  0.04711142  1
  S2-  S227  1  0.12664995  0.26232224  0.55338316  1
  S2-  S228  1  0.12426492  0.49933530  0.04614364  1
  S2-  S229  1  0.12790821  0.51467847  0.54787139  1
  S2-  S230  1  0.12548484  0.74772672  0.04544459  1
  S2-  S231  1  0.13314072  0.76233324  0.55026834  1
  S2-  S232  1  0.37266578  -0.00829399  0.04460668  1
  S2-  S233  1  0.37878280  0.01342102  0.54786041  1
  S2-  S234  1  0.37485848  0.25576472  0.04541159  1
  S2-  S235  1  0.37993846  0.26494752  0.54082574  1
  S2-  S236  1  0.37437783  0.49818922  0.04774272  1
  S2-  S237  1  0.38264064  0.51373659  0.54252828  1
  S2-  S238  1  0.37096970  0.74591128  0.04933483  1
  S2-  S239  1  0.37991147  0.76586366  0.54375930  1
  S2-  S240  1  0.62795176  -0.00449540  0.04759773  1
  S2-  S241  1  0.62741993  0.01199342  0.54637886  1
  S2-  S242  1  0.62017225  0.24720233  0.04310489  1
  S2-  S243  1  0.63140268  0.26270572  0.54100759  1
  S2-  S244  1  0.62869219  0.49733470  0.05399410  1
  S2-  S245  1  0.63065572  0.51349650  0.54319828  1
  S2-  S246  1  0.63115510  0.74403691  0.03973573  1
  S2-  S247  1  0.62991923  0.76841377  0.54643173  1
  S2-  S248  1  0.87787554  -0.00223779  0.04380588  1
  S2-  S249  1  0.88156989  0.01271764  0.54631670  1
  S2-  S250  1  0.87770720  0.24839203  0.04333728  1
  S2-  S251  1  0.88220097  0.26133362  0.55274296  1
  S2-  S252  1  0.87985436  0.50218008  0.05431142  1
  S2-  S253  1  0.87636674  0.51619420  0.53947408  1
  S2-  S254  1  0.88041235  0.74220374  0.05090459  1
  S2-  S255  1  0.87753869  0.76673851  0.54700873  1
