# generated using pymatgen
data_La12Ce14Pr13Nd13Sm12(BiS2)64
_symmetry_space_group_name_H-M   'P 1'
_cell_length_a   16.13402977
_cell_length_b   16.02987605
_cell_length_c   27.45412524
_cell_angle_alpha   90.04888085
_cell_angle_beta   89.82667002
_cell_angle_gamma   89.94879729
_symmetry_Int_Tables_number   1
_chemical_formula_structural   La12Ce14Pr13Nd13Sm12(BiS2)64
_chemical_formula_sum   'La12 Ce14 Pr13 Nd13 Sm12 Bi64 S128'
_cell_volume   7100.32632755
_cell_formula_units_Z   1
loop_
 _symmetry_equiv_pos_site_id
 _symmetry_equiv_pos_as_xyz
  1  'x, y, z'
loop_
 _atom_type_symbol
 _atom_type_oxidation_number
  La3+  3.0
  Ce3+  3.0
  Pr3+  3.0
  Nd3+  3.0
  Sm3+  3.0
  Bi2+  2.0
  S2-  -2.0
loop_
 _atom_site_type_symbol
 _atom_site_label
 _atom_site_symmetry_multiplicity
 _atom_site_fract_x
 _atom_site_fract_y
 _atom_site_fract_z
 _atom_site_occupancy
  La3+  La0  1  0.37855973  0.25098527  0.92023822  1
  La3+  La1  1  0.13710998  0.76774640  0.92059516  1
  La3+  La2  1  0.38564197  0.75684269  0.93113250  1
  La3+  La3  1  0.74597651  0.12924914  0.57257532  1
  La3+  La4  1  0.74659617  0.63320982  0.57356967  1
  La3+  La5  1  -0.00399169  0.62218527  0.59790215  1
  La3+  La6  1  0.12436963  0.51331640  0.43754476  1
  La3+  La7  1  0.12088076  0.25755590  0.42154489  1
  La3+  La8  1  0.26118030  0.14116180  0.08034454  1
  La3+  La9  1  0.25594026  0.63214511  0.60395773  1
  La3+  La10  1  0.00370422  0.61383478  0.10714678  1
  La3+  La11  1  0.12467734  0.00404806  0.41829391  1
  Ce3+  Ce12  1  0.25851748  0.87972628  0.06005021  1
  Ce3+  Ce13  1  0.13376582  0.51437212  0.93739159  1
  Ce3+  Ce14  1  -0.00012782  0.88756326  0.56498646  1
  Ce3+  Ce15  1  0.25587743  0.38113208  0.05121491  1
  Ce3+  Ce16  1  0.62765265  0.75192242  0.43787579  1
  Ce3+  Ce17  1  0.00143315  0.13124666  0.55247462  1
  Ce3+  Ce18  1  0.62502113  0.50085170  0.43547341  1
  Ce3+  Ce19  1  0.24350699  0.13273705  0.55514781  1
  Ce3+  Ce20  1  0.62713739  0.00522510  0.44102751  1
  Ce3+  Ce21  1  0.24603972  0.87523736  0.55682282  1
  Ce3+  Ce22  1  0.75753859  0.63447815  0.05802336  1
  Ce3+  Ce23  1  0.13336890  0.00890290  0.94680004  1
  Ce3+  Ce24  1  0.50927268  0.88420422  0.05975586  1
  Ce3+  Ce25  1  0.87585092  0.00450900  0.43583058  1
  Pr3+  Pr26  1  0.12529283  0.75186487  0.44930345  1
  Pr3+  Pr27  1  0.76368227  0.38694792  0.06271839  1
  Pr3+  Pr28  1  0.74832538  0.88187861  0.56675240  1
  Pr3+  Pr29  1  0.25739187  0.63707302  0.06630620  1
  Pr3+  Pr30  1  0.37705534  0.25526445  0.43549241  1
  Pr3+  Pr31  1  0.50906949  0.14308128  0.07520821  1
  Pr3+  Pr32  1  0.50416398  0.63440102  0.06567619  1
  Pr3+  Pr33  1  0.38120098  0.75358112  0.42828922  1
  Pr3+  Pr34  1  0.12738047  0.25566114  0.93057352  1
  Pr3+  Pr35  1  0.49344186  0.87734797  0.55744456  1
  Pr3+  Pr36  1  0.49737244  0.38239240  0.56401398  1
  Pr3+  Pr37  1  0.88279466  0.00816041  0.94835912  1
  Pr3+  Pr38  1  0.76294345  0.14208300  0.07504958  1
  Nd3+  Nd39  1  0.87059000  0.51168689  0.43997411  1
  Nd3+  Nd40  1  0.87500668  0.25687831  0.42871094  1
  Nd3+  Nd41  1  0.62639411  0.25115985  0.43854647  1
  Nd3+  Nd42  1  0.62864550  0.75880590  0.93408857  1
  Nd3+  Nd43  1  0.49793577  0.62931322  0.55987053  1
  Nd3+  Nd44  1  0.74931434  0.37732820  0.56112340  1
  Nd3+  Nd45  1  0.49109089  0.13169950  0.56142738  1
  Nd3+  Nd46  1  0.88200035  0.75921789  0.93694468  1
  Nd3+  Nd47  1  0.01170578  0.13138108  0.06842933  1
  Nd3+  Nd48  1  0.63459981  0.50658661  0.94087270  1
  Nd3+  Nd49  1  0.88537274  0.51114033  0.93925072  1
  Nd3+  Nd50  1  0.63319492  0.01451137  0.94645424  1
  Nd3+  Nd51  1  0.00868580  0.87427087  0.06449772  1
  Sm3+  Sm52  1  0.38414941  0.01534088  0.94912606  1
  Sm3+  Sm53  1  0.01098499  0.38394549  0.05408533  1
  Sm3+  Sm54  1  0.75607776  0.88204444  0.05513154  1
  Sm3+  Sm55  1  0.87402060  0.75553978  0.45024851  1
  Sm3+  Sm56  1  0.37281882  0.00461115  0.43933764  1
  Sm3+  Sm57  1  0.63485784  0.25813285  0.94366659  1
  Sm3+  Sm58  1  0.24647484  0.38673586  0.55274325  1
  Sm3+  Sm59  1  0.00044252  0.38264504  0.55428574  1
  Sm3+  Sm60  1  0.38379324  0.50748475  0.94080694  1
  Sm3+  Sm61  1  0.88488810  0.25609484  0.93938876  1
  Sm3+  Sm62  1  0.50765031  0.38034720  0.05203627  1
  Sm3+  Sm63  1  0.37609672  0.50675453  0.44162102  1
  Bi2+  Bi64  1  0.01774528  0.12101513  0.28545996  1
  Bi2+  Bi65  1  -0.00133924  0.11690954  0.79559987  1
  Bi2+  Bi66  1  -0.05891007  0.37744167  0.27267011  1
  Bi2+  Bi67  1  -0.03266797  0.37174811  0.73203893  1
  Bi2+  Bi68  1  -0.00847129  0.61194277  0.32370018  1
  Bi2+  Bi69  1  -0.00794499  0.59464778  0.79861567  1
  Bi2+  Bi70  1  -0.00442345  0.87536055  0.27340675  1
  Bi2+  Bi71  1  -0.04548040  0.91790907  0.79768188  1
  Bi2+  Bi72  1  0.29051498  0.09061081  0.30030616  1
  Bi2+  Bi73  1  0.20072854  0.11244981  0.80721405  1
  Bi2+  Bi74  1  0.22905818  0.34938436  0.26535171  1
  Bi2+  Bi75  1  0.22212058  0.28182991  0.74589953  1
  Bi2+  Bi76  1  0.23898471  0.60698311  0.31437415  1
  Bi2+  Bi77  1  0.23185733  0.62778546  0.80548140  1
  Bi2+  Bi78  1  0.19868565  0.94160483  0.23874523  1
  Bi2+  Bi79  1  0.23081110  0.90535138  0.78679292  1
  Bi2+  Bi80  1  0.52181539  0.16941144  0.30921814  1
  Bi2+  Bi81  1  0.53090609  0.16167258  0.81295477  1
  Bi2+  Bi82  1  0.51895763  0.40417102  0.22325497  1
  Bi2+  Bi83  1  0.55688200  0.39589228  0.77826154  1
  Bi2+  Bi84  1  0.47920844  0.64416212  0.30499423  1
  Bi2+  Bi85  1  0.48074077  0.62078475  0.78875480  1
  Bi2+  Bi86  1  0.61810775  0.89175029  0.27867275  1
  Bi2+  Bi87  1  0.52386686  0.89580271  0.79701941  1
  Bi2+  Bi88  1  0.80845443  0.05484094  0.31159009  1
  Bi2+  Bi89  1  0.74451955  0.16286579  0.76205381  1
  Bi2+  Bi90  1  0.69849941  0.41931564  0.29745658  1
  Bi2+  Bi91  1  0.83278763  0.31926029  0.81112772  1
  Bi2+  Bi92  1  0.71948975  0.62259369  0.25815287  1
  Bi2+  Bi93  1  0.73492464  0.59967297  0.78984129  1
  Bi2+  Bi94  1  0.80579240  0.84572417  0.31155300  1
  Bi2+  Bi95  1  0.70300256  0.80080644  0.80558476  1
  Bi2+  Bi96  1  0.00982440  0.00891726  0.18642589  1
  Bi2+  Bi97  1  0.11611372  0.02027779  0.71455956  1
  Bi2+  Bi98  1  0.12472134  0.22458405  0.20313848  1
  Bi2+  Bi99  1  0.12513275  0.19528411  0.66387551  1
  Bi2+  Bi100  1  0.11610368  0.47889213  0.21185412  1
  Bi2+  Bi101  1  0.14765370  0.45345024  0.71433331  1
  Bi2+  Bi102  1  0.11912449  0.73655808  0.21754935  1
  Bi2+  Bi103  1  0.12012083  0.77753646  0.70888247  1
  Bi2+  Bi104  1  0.42994272  -0.07334460  0.25288883  1
  Bi2+  Bi105  1  0.38189394  0.02266512  0.76242599  1
  Bi2+  Bi106  1  0.37989257  0.26120766  0.20493838  1
  Bi2+  Bi107  1  0.42016112  0.19091040  0.70390937  1
  Bi2+  Bi108  1  0.35172132  0.50107274  0.23890909  1
  Bi2+  Bi109  1  0.44199239  0.49064451  0.70347115  1
  Bi2+  Bi110  1  0.36755154  0.75113058  0.20750943  1
  Bi2+  Bi111  1  0.40691056  0.78776970  0.70859255  1
  Bi2+  Bi112  1  0.54366423  0.07237146  0.21078196  1
  Bi2+  Bi113  1  0.60959735  0.00734956  0.70620602  1
  Bi2+  Bi114  1  0.66501866  0.23152397  0.21697490  1
  Bi2+  Bi115  1  0.65525728  0.31180710  0.69935336  1
  Bi2+  Bi116  1  0.60758449  0.55851547  0.17123626  1
  Bi2+  Bi117  1  0.61910671  0.50360140  0.65208317  1
  Bi2+  Bi118  1  0.60483083  0.75384496  0.19940953  1
  Bi2+  Bi119  1  0.61703224  0.69528450  0.71642831  1
  Bi2+  Bi120  1  0.82177059  -0.02735653  0.20730772  1
  Bi2+  Bi121  1  0.78331777  -0.04588498  0.74323705  1
  Bi2+  Bi122  1  0.80597532  0.24889273  0.30362326  1
  Bi2+  Bi123  1  0.91196443  0.19100045  0.69891202  1
  Bi2+  Bi124  1  0.77835908  0.45936046  0.19311607  1
  Bi2+  Bi125  1  0.78921580  0.46141868  0.71256621  1
  Bi2+  Bi126  1  0.85377497  0.75629909  0.20876274  1
  Bi2+  Bi127  1  0.86172120  0.74367377  0.70581212  1
  S2-  S128  1  -0.02557542  0.18191078  0.16148897  1
  S2-  S129  1  -0.00770925  0.05523667  0.64006699  1
  S2-  S130  1  0.00067324  0.43849513  0.14749045  1
  S2-  S131  1  0.01705685  0.45362503  0.64391597  1
  S2-  S132  1  0.00361043  0.61136861  0.22812251  1
  S2-  S133  1  0.01346026  0.65337844  0.70265594  1
  S2-  S134  1  -0.00052875  0.77969813  0.14754619  1
  S2-  S135  1  -0.01799375  0.83665536  0.65796044  1
  S2-  S136  1  0.18385300  0.07885781  0.16639811  1
  S2-  S137  1  0.29358426  0.11788606  0.64731184  1
  S2-  S138  1  0.25220057  0.30315986  0.13766490  1
  S2-  S139  1  0.25021581  0.46126187  0.64108761  1
  S2-  S140  1  0.16263859  0.61229033  0.15109713  1
  S2-  S141  1  0.21584484  0.63720719  0.70879900  1
  S2-  S142  1  0.23696925  0.83262720  0.15425769  1
  S2-  S143  1  0.26372161  0.81747894  0.64827842  1
  S2-  S144  1  0.39575307  0.12035079  0.15235805  1
  S2-  S145  1  0.56894375  0.13961761  0.64941322  1
  S2-  S146  1  0.51289624  0.29850030  0.13847582  1
  S2-  S147  1  0.43219976  0.33461110  0.65463425  1
  S2-  S148  1  0.38474917  0.63500328  0.14150275  1
  S2-  S149  1  0.41521896  0.64555457  0.64770975  1
  S2-  S150  1  0.47026151  0.86244874  0.15363430  1
  S2-  S151  1  0.50164777  0.88747930  0.65788673  1
  S2-  S152  1  0.70457256  0.08411862  0.16374143  1
  S2-  S153  1  0.75330164  0.00118998  0.64373893  1
  S2-  S154  1  0.76658969  0.29153329  0.14628626  1
  S2-  S155  1  0.78000740  0.26372019  0.63636844  1
  S2-  S156  1  0.83671770  0.61982201  0.14386506  1
  S2-  S157  1  0.84689018  0.60161196  0.65483977  1
  S2-  S158  1  0.73498750  0.84468982  0.14993107  1
  S2-  S159  1  0.72600137  0.76915262  0.64608810  1
  S2-  S160  1  0.21736574  -0.05346833  0.33370243  1
  S2-  S161  1  0.11114034  -0.07411976  0.86121323  1
  S2-  S162  1  0.14820420  0.14152801  0.34570967  1
  S2-  S163  1  0.23214560  0.26726787  0.85025157  1
  S2-  S164  1  0.11752084  0.48658295  0.33822859  1
  S2-  S165  1  0.11602833  0.50084716  0.83857751  1
  S2-  S166  1  0.12307846  0.71605241  0.34971091  1
  S2-  S167  1  0.08207265  0.71615041  0.82523313  1
  S2-  S168  1  0.42191281  0.00782692  0.34555304  1
  S2-  S169  1  0.39379725  0.09523995  0.86207486  1
  S2-  S170  1  0.37235489  0.23885538  0.33602575  1
  S2-  S171  1  0.44971348  0.30226401  0.83108848  1
  S2-  S172  1  0.38528658  0.50503011  0.34354419  1
  S2-  S173  1  0.36723347  0.53737312  0.84509358  1
  S2-  S174  1  0.34948846  0.74121033  0.32845461  1
  S2-  S175  1  0.28075743  0.77092214  0.85058077  1
  S2-  S176  1  0.64296446  0.05597271  0.34811690  1
  S2-  S177  1  0.61539984  0.01423012  0.84805429  1
  S2-  S178  1  0.58778664  0.31328058  0.34895667  1
  S2-  S179  1  0.68461562  0.24979369  0.85013997  1
  S2-  S180  1  0.62906232  0.56434294  0.34485590  1
  S2-  S181  1  0.61191695  0.52393497  0.84408127  1
  S2-  S182  1  0.55807556  0.77772545  0.35009091  1
  S2-  S183  1  0.51257844  0.75082012  0.85938202  1
  S2-  S184  1  0.98196657  -0.00564546  0.35401438  1
  S2-  S185  1  0.86787933  0.03368039  0.85046660  1
  S2-  S186  1  0.98668825  0.27150318  0.34905923  1
  S2-  S187  1  0.98499311  0.25717411  0.85904902  1
  S2-  S188  1  0.88034226  0.47539194  0.34137955  1
  S2-  S189  1  0.85789667  0.50086734  0.84207036  1
  S2-  S190  1  0.85203508  0.69310244  0.35929641  1
  S2-  S191  1  0.87373762  0.78027872  0.83722721  1
  S2-  S192  1  -0.00202901  0.13071587  0.44922644  1
  S2-  S193  1  0.00692774  0.13078860  0.96065948  1
  S2-  S194  1  -0.00293410  0.38649906  0.45158274  1
  S2-  S195  1  0.00824604  0.38678808  0.95178142  1
  S2-  S196  1  -0.00522530  0.63136938  0.45786754  1
  S2-  S197  1  0.00654313  0.63743830  0.94086678  1
  S2-  S198  1  -0.00003477  0.87634952  0.45682367  1
  S2-  S199  1  0.00381565  0.88152990  0.95938512  1
  S2-  S200  1  0.25143829  0.12929113  0.44980643  1
  S2-  S201  1  0.25510089  0.13262574  0.96188476  1
  S2-  S202  1  0.25037024  0.38197754  0.44558223  1
  S2-  S203  1  0.25893364  0.38532606  0.94851278  1
  S2-  S204  1  0.25607318  0.63082827  0.44824504  1
  S2-  S205  1  0.26016241  0.63230942  0.95578388  1
  S2-  S206  1  0.25329755  0.87691288  0.45089216  1
  S2-  S207  1  0.26368228  0.89047511  0.95549615  1
  S2-  S208  1  0.49784281  0.12836967  0.45487370  1
  S2-  S209  1  0.51216572  0.13788017  0.96383804  1
  S2-  S210  1  0.49807099  0.38135852  0.45603904  1
  S2-  S211  1  0.50948196  0.38229456  0.94880715  1
  S2-  S212  1  0.50097011  0.62757272  0.45357220  1
  S2-  S213  1  0.50890901  0.62639788  0.95899354  1
  S2-  S214  1  0.49895511  0.88304754  0.45228142  1
  S2-  S215  1  0.50805477  0.89093682  0.95509450  1
  S2-  S216  1  0.75222016  0.13162353  0.45599995  1
  S2-  S217  1  0.76034438  0.13730404  0.96187329  1
  S2-  S218  1  0.74969130  0.37824531  0.45300936  1
  S2-  S219  1  0.76135283  0.38164487  0.95510110  1
  S2-  S220  1  0.74713251  0.63038732  0.46281286  1
  S2-  S221  1  0.75538018  0.63512121  0.94946429  1
  S2-  S222  1  0.74940369  0.87938216  0.45580896  1
  S2-  S223  1  0.75373244  0.88370825  0.95069981  1
  S2-  S224  1  0.13284063  0.00398908  0.05142811  1
  S2-  S225  1  0.12671946  0.00408513  0.53829968  1
  S2-  S226  1  0.12807021  0.25670857  0.04121480  1
  S2-  S227  1  0.12440607  0.26233975  0.53287155  1
  S2-  S228  1  0.13124093  0.50892373  0.04352992  1
  S2-  S229  1  0.12389628  0.51158829  0.54417875  1
  S2-  S230  1  0.13498565  0.75816361  0.03994181  1
  S2-  S231  1  0.12215527  0.74656322  0.55622202  1
  S2-  S232  1  0.38308220  0.00874628  0.05112315  1
  S2-  S233  1  0.36973339  0.00457226  0.54455178  1
  S2-  S234  1  0.38402511  0.26035226  0.03703443  1
  S2-  S235  1  0.36804531  0.25872673  0.54170910  1
  S2-  S236  1  0.38426801  0.50206022  0.04518055  1
  S2-  S237  1  0.37221143  0.50747271  0.54439878  1
  S2-  S238  1  0.38589766  0.76079893  0.03956712  1
  S2-  S239  1  0.37099884  0.75094432  0.53924009  1
  S2-  S240  1  0.63445833  0.01116124  0.05211405  1
  S2-  S241  1  0.61682604  0.00537054  0.54521496  1
  S2-  S242  1  0.63814681  0.26078744  0.04465976  1
  S2-  S243  1  0.62000993  0.25614681  0.54394347  1
  S2-  S244  1  0.63207800  0.50489235  0.04565872  1
  S2-  S245  1  0.62483983  0.50338291  0.53971869  1
  S2-  S246  1  0.63084214  0.75868407  0.04106832  1
  S2-  S247  1  0.61927593  0.75540222  0.54357054  1
  S2-  S248  1  0.88141910  0.00575186  0.05487189  1
  S2-  S249  1  0.87374143  0.00692055  0.53962692  1
  S2-  S250  1  0.88928702  0.25925818  0.04290348  1
  S2-  S251  1  0.88058360  0.25739300  0.53527207  1
  S2-  S252  1  0.88905384  0.51124479  0.04308279  1
  S2-  S253  1  0.87327679  0.50173754  0.54649037  1
  S2-  S254  1  0.87809418  0.75955194  0.04201695  1
  S2-  S255  1  0.87993238  0.75447980  0.55225069  1
