# generated using pymatgen
data_La12Ce14Pr13Nd13Sm12(BiS2)64
_symmetry_space_group_name_H-M   'P 1'
_cell_length_a   16.06832497
_cell_length_b   16.10369843
_cell_length_c   27.47676925
_cell_angle_alpha   89.97221294
_cell_angle_beta   90.10557480
_cell_angle_gamma   89.90534903
_symmetry_Int_Tables_number   1
_chemical_formula_structural   La12Ce14Pr13Nd13Sm12(BiS2)64
_chemical_formula_sum   'La12 Ce14 Pr13 Nd13 Sm12 Bi64 S128'
_cell_volume   7109.85134016
_cell_formula_units_Z   1
loop_
 _symmetry_equiv_pos_site_id
 _symmetry_equiv_pos_as_xyz
  1  'x, y, z'
loop_
 _atom_type_symbol
 _atom_type_oxidation_number
  La3+  3.0
  Ce3+  3.0
  Pr3+  3.0
  Nd3+  3.0
  Sm3+  3.0
  Bi2+  2.0
  S2-  -2.0
loop_
 _atom_site_type_symbol
 _atom_site_label
 _atom_site_symmetry_multiplicity
 _atom_site_fract_x
 _atom_site_fract_y
 _atom_site_fract_z
 _atom_site_occupancy
  La3+  La0  1  0.76052140  0.87648834  0.07568784  1
  La3+  La1  1  0.50618345  0.13347444  0.07321179  1
  La3+  La2  1  0.02348763  0.38945239  0.58671241  1
  La3+  La3  1  0.69964437  0.62473529  0.12638739  1
  La3+  La4  1  -0.00717155  0.62123609  0.08341880  1
  La3+  La5  1  0.25298842  0.11825787  0.06266129  1
  La3+  La6  1  0.02527082  0.12136100  0.58800025  1
  La3+  La7  1  0.51836473  0.88082908  0.55642039  1
  La3+  La8  1  0.76959896  0.62615594  0.56894236  1
  La3+  La9  1  0.63293398  -0.01338445  0.38119902  1
  La3+  La10  1  0.27631558  0.62844967  0.56371858  1
  La3+  La11  1  0.87087304  -0.00868357  0.92101709  1
  Ce3+  Ce12  1  0.89730275  0.25296276  0.45770872  1
  Ce3+  Ce13  1  0.76972045  0.12979703  0.56753782  1
  Ce3+  Ce14  1  0.64341915  0.50106742  0.43072717  1
  Ce3+  Ce15  1  0.25393086  0.36561634  0.07296356  1
  Ce3+  Ce16  1  0.39362132  0.75526775  0.42964662  1
  Ce3+  Ce17  1  0.64326892  0.24371417  0.44579134  1
  Ce3+  Ce18  1  0.51329146  0.12976375  0.56184022  1
  Ce3+  Ce19  1  0.02303023  0.62914385  0.55782644  1
  Ce3+  Ce20  1  0.39234936  0.00876370  0.43492557  1
  Ce3+  Ce21  1  0.13162810  0.25221533  0.93088203  1
  Ce3+  Ce22  1  0.26735594  0.87945707  0.54558055  1
  Ce3+  Ce23  1  0.88981293  0.75799671  0.44915776  1
  Ce3+  Ce24  1  0.02010602  0.88301360  0.55618905  1
  Ce3+  Ce25  1  0.62995423  0.00193447  0.93820806  1
  Pr3+  Pr26  1  0.89277554  0.01595011  0.43180072  1
  Pr3+  Pr27  1  0.12142293  0.00239689  0.92148109  1
  Pr3+  Pr28  1  0.75994832  0.38190818  0.06098984  1
  Pr3+  Pr29  1  0.00560864  0.88986798  0.06733114  1
  Pr3+  Pr30  1  0.12838111  0.75078378  0.94564880  1
  Pr3+  Pr31  1  0.76945364  0.88458752  0.56209213  1
  Pr3+  Pr32  1  0.50618163  0.37909958  0.05773966  1
  Pr3+  Pr33  1  0.64712292  0.75674050  0.43884085  1
  Pr3+  Pr34  1  0.37837931  0.24972055  0.93229974  1
  Pr3+  Pr35  1  0.24941984  0.62778666  0.07155896  1
  Pr3+  Pr36  1  0.39475527  0.50259798  0.42269626  1
  Pr3+  Pr37  1  0.13328495  0.49909163  0.94138053  1
  Pr3+  Pr38  1  0.89274216  0.50280440  0.43349780  1
  Nd3+  Nd39  1  0.13930900  0.01003136  0.43376632  1
  Nd3+  Nd40  1  0.76856283  0.37810299  0.56096457  1
  Nd3+  Nd41  1  0.27363678  0.38217678  0.56586513  1
  Nd3+  Nd42  1  0.14296408  0.50528988  0.43242975  1
  Nd3+  Nd43  1  0.63438325  0.50089059  0.93896390  1
  Nd3+  Nd44  1  0.27053184  0.12753846  0.56936466  1
  Nd3+  Nd45  1  0.50943988  0.87132001  0.05971442  1
  Nd3+  Nd46  1  0.37761751  0.75719514  0.92916193  1
  Nd3+  Nd47  1  0.87550417  0.26158900  0.89156174  1
  Nd3+  Nd48  1  0.01104247  0.37415339  0.06350871  1
  Nd3+  Nd49  1  0.14091254  0.25701162  0.45145643  1
  Nd3+  Nd50  1  0.75897999  0.12455198  0.05361861  1
  Nd3+  Nd51  1  0.51938061  0.62847264  0.55159960  1
  Sm3+  Sm52  1  0.87913338  0.74969911  0.94978552  1
  Sm3+  Sm53  1  0.39075879  0.25421215  0.44135636  1
  Sm3+  Sm54  1  0.38048870  -0.00012856  0.94025791  1
  Sm3+  Sm55  1  0.63141231  0.25101524  0.94008568  1
  Sm3+  Sm56  1  0.88315302  0.49859398  0.94057450  1
  Sm3+  Sm57  1  0.51359495  0.38065008  0.55708849  1
  Sm3+  Sm58  1  0.37755150  0.50142059  0.94717165  1
  Sm3+  Sm59  1  0.14187131  0.75297707  0.43947840  1
  Sm3+  Sm60  1  0.49872055  0.62756525  0.04871734  1
  Sm3+  Sm61  1  0.63324945  0.74893357  0.94351027  1
  Sm3+  Sm62  1  0.00159369  0.12678847  0.04050116  1
  Sm3+  Sm63  1  0.25612360  0.87955232  0.05635419  1
  Bi2+  Bi64  1  0.03234801  0.15368746  0.30645302  1
  Bi2+  Bi65  1  0.03396004  0.12499912  0.78449959  1
  Bi2+  Bi66  1  0.00758814  0.36117827  0.29044984  1
  Bi2+  Bi67  1  0.00867894  0.39758911  0.78458851  1
  Bi2+  Bi68  1  -0.01173836  0.62180161  0.29718514  1
  Bi2+  Bi69  1  -0.03971741  0.61245213  0.77207601  1
  Bi2+  Bi70  1  0.03151530  0.89788248  0.27735535  1
  Bi2+  Bi71  1  0.01761602  0.85454540  0.79765254  1
  Bi2+  Bi72  1  0.23913166  0.07894594  0.30390387  1
  Bi2+  Bi73  1  0.31247131  0.12924417  0.79960317  1
  Bi2+  Bi74  1  0.27553988  0.34265361  0.29677807  1
  Bi2+  Bi75  1  0.26842574  0.38397091  0.78431380  1
  Bi2+  Bi76  1  0.23411620  0.61737284  0.28718407  1
  Bi2+  Bi77  1  0.24154464  0.61814290  0.81675589  1
  Bi2+  Bi78  1  0.22730219  0.88508361  0.29515091  1
  Bi2+  Bi79  1  0.29311122  0.85657031  0.77490432  1
  Bi2+  Bi80  1  0.51096612  0.13542762  0.29344773  1
  Bi2+  Bi81  1  0.49364939  0.10792984  0.85104546  1
  Bi2+  Bi82  1  0.60567800  0.36457705  0.28976136  1
  Bi2+  Bi83  1  0.48142334  0.29427328  0.81105341  1
  Bi2+  Bi84  1  0.42430045  0.56431956  0.28314317  1
  Bi2+  Bi85  1  0.48741190  0.65342779  0.75565544  1
  Bi2+  Bi86  1  0.40210538  0.83493748  0.25564227  1
  Bi2+  Bi87  1  0.50990410  0.85979859  0.79389789  1
  Bi2+  Bi88  1  0.78487537  0.13363924  0.29372351  1
  Bi2+  Bi89  1  0.69840177  0.13889262  0.79312206  1
  Bi2+  Bi90  1  0.80630024  0.37308424  0.29404167  1
  Bi2+  Bi91  1  0.72892215  0.42054408  0.79221189  1
  Bi2+  Bi92  1  0.74558218  0.66762751  0.31442083  1
  Bi2+  Bi93  1  0.76419770  0.64414842  0.76269246  1
  Bi2+  Bi94  1  0.78155099  0.85352821  0.28527440  1
  Bi2+  Bi95  1  0.75698998  0.86630964  0.79582546  1
  Bi2+  Bi96  1  0.12417386  0.03291251  0.20658723  1
  Bi2+  Bi97  1  0.13976860  -0.06935575  0.71562583  1
  Bi2+  Bi98  1  0.18149603  0.23785488  0.21732322  1
  Bi2+  Bi99  1  0.19167641  0.25059572  0.71481186  1
  Bi2+  Bi100  1  0.11816080  0.48340858  0.20578687  1
  Bi2+  Bi101  1  0.12302700  0.51798931  0.70644416  1
  Bi2+  Bi102  1  0.14563855  0.77868360  0.20740611  1
  Bi2+  Bi103  1  0.08944679  0.73697020  0.71292824  1
  Bi2+  Bi104  1  0.33379241  0.08451209  0.20436245  1
  Bi2+  Bi105  1  0.35808032  0.00971416  0.71156258  1
  Bi2+  Bi106  1  0.43643042  0.32721788  0.22838008  1
  Bi2+  Bi107  1  0.38927862  0.25946815  0.70569821  1
  Bi2+  Bi108  1  0.31853167  0.48223133  0.19433372  1
  Bi2+  Bi109  1  0.37405922  0.50846800  0.71116547  1
  Bi2+  Bi110  1  0.32015485  0.68799537  0.19142111  1
  Bi2+  Bi111  1  0.36191507  0.75816601  0.68433101  1
  Bi2+  Bi112  1  0.60752800  -0.04498520  0.18694472  1
  Bi2+  Bi113  1  0.54913639  0.03535573  0.74567164  1
  Bi2+  Bi114  1  0.71365780  0.25393142  0.21354768  1
  Bi2+  Bi115  1  0.58390592  0.23888767  0.71799569  1
  Bi2+  Bi116  1  0.58228801  0.43058810  0.18321448  1
  Bi2+  Bi117  1  0.55030994  0.45457366  0.74773087  1
  Bi2+  Bi118  1  0.55566359  0.73300299  0.21613175  1
  Bi2+  Bi119  1  0.62599404  0.76756260  0.70373019  1
  Bi2+  Bi120  1  0.88267990  0.02154139  0.19707768  1
  Bi2+  Bi121  1  0.86890050  0.00426346  0.69799191  1
  Bi2+  Bi122  1  0.91185690  0.23520708  0.21755452  1
  Bi2+  Bi123  1  0.83922559  0.25752930  0.70668604  1
  Bi2+  Bi124  1  0.87304735  0.51286658  0.22148623  1
  Bi2+  Bi125  1  0.83589285  0.51123966  0.69075611  1
  Bi2+  Bi126  1  0.93373242  0.75839404  0.22224915  1
  Bi2+  Bi127  1  0.89141297  0.77179393  0.71123354  1
  S2-  S128  1  0.01461744  0.05205795  0.12955900  1
  S2-  S129  1  -0.03803684  0.13983216  0.68573822  1
  S2-  S130  1  -0.02444024  0.47125624  0.14863236  1
  S2-  S131  1  -0.03656137  0.35188117  0.68499232  1
  S2-  S132  1  -0.13277975  0.64674882  0.15629325  1
  S2-  S133  1  -0.00704365  0.54808896  0.64073439  1
  S2-  S134  1  -0.10356884  0.88061633  0.14808116  1
  S2-  S135  1  0.01314743  0.95394240  0.64449770  1
  S2-  S136  1  0.29138917  0.22220715  0.14153197  1
  S2-  S137  1  0.16991672  0.12982646  0.65196572  1
  S2-  S138  1  0.12856593  0.34823334  0.14303254  1
  S2-  S139  1  0.17099007  0.39591032  0.64956232  1
  S2-  S140  1  0.12929965  0.63152849  0.15006173  1
  S2-  S141  1  0.20426936  0.65086932  0.65687058  1
  S2-  S142  1  0.24780090  0.98235748  0.13497743  1
  S2-  S143  1  0.26863693  0.89559462  0.64196554  1
  S2-  S144  1  0.49483071  0.07255808  0.16730278  1
  S2-  S145  1  0.40500532  0.11881845  0.63867208  1
  S2-  S146  1  0.51422734  0.28090045  0.14039089  1
  S2-  S147  1  0.40688336  0.39315803  0.63513579  1
  S2-  S148  1  0.52316824  0.61342245  0.14501892  1
  S2-  S149  1  0.41768216  0.62130561  0.63168469  1
  S2-  S150  1  0.46584756  0.85703923  0.15606316  1
  S2-  S151  1  0.50466240  0.84919811  0.65503503  1
  S2-  S152  1  0.74742362  0.03512351  0.14052583  1
  S2-  S153  1  0.75702507  0.11271235  0.66561797  1
  S2-  S154  1  0.74173915  0.45530449  0.15156904  1
  S2-  S155  1  0.74159714  0.38131799  0.65914489  1
  S2-  S156  1  0.67422240  0.61682339  0.23525980  1
  S2-  S157  1  0.69690464  0.61868450  0.65988016  1
  S2-  S158  1  0.68484089  0.79795466  0.15879323  1
  S2-  S159  1  0.76096985  0.87267358  0.66278509  1
  S2-  S160  1  0.02345964  0.00876432  0.35911083  1
  S2-  S161  1  0.17435097  0.05335089  0.82716283  1
  S2-  S162  1  0.13440991  0.28071227  0.35245289  1
  S2-  S163  1  0.03727368  0.26505177  0.84493366  1
  S2-  S164  1  0.01745878  0.49258414  0.35893526  1
  S2-  S165  1  0.11122378  0.49995108  0.84078790  1
  S2-  S166  1  0.12443541  0.69627279  0.34762271  1
  S2-  S167  1  0.15334292  0.76085360  0.84632242  1
  S2-  S168  1  0.46192324  0.00841622  0.34605906  1
  S2-  S169  1  0.37571367  -0.10599463  0.86002944  1
  S2-  S170  1  0.40281032  0.24943093  0.34375239  1
  S2-  S171  1  0.25496097  0.26432632  0.85956058  1
  S2-  S172  1  0.26065936  0.48746852  0.35659204  1
  S2-  S173  1  0.33228868  0.48258316  0.85430107  1
  S2-  S174  1  0.41425111  0.72016502  0.33505930  1
  S2-  S175  1  0.38640071  0.67390755  0.84115150  1
  S2-  S176  1  0.62550976  0.00936270  0.27382647  1
  S2-  S177  1  0.72961590  -0.00541613  0.85569671  1
  S2-  S178  1  0.64283520  0.16458870  0.35848455  1
  S2-  S179  1  0.70661017  0.27840274  0.85297101  1
  S2-  S180  1  0.52628753  0.49231731  0.35181826  1
  S2-  S181  1  0.61875577  0.51322287  0.84064523  1
  S2-  S182  1  0.64505157  0.81558365  0.34312926  1
  S2-  S183  1  0.62904476  0.77818514  0.84589710  1
  S2-  S184  1  0.80125493  -0.01851235  0.34586713  1
  S2-  S185  1  0.98815977  0.00288322  0.84527116  1
  S2-  S186  1  0.89376549  0.18585685  0.36811401  1
  S2-  S187  1  0.86646090  0.17650068  0.80099245  1
  S2-  S188  1  0.76655728  0.51613271  0.35987432  1
  S2-  S189  1  0.87828598  0.42367086  0.84967963  1
  S2-  S190  1  0.88842390  0.75240957  0.35243839  1
  S2-  S191  1  0.87465998  0.81904669  0.85731118  1
  S2-  S192  1  0.02241941  0.13059609  0.46877015  1
  S2-  S193  1  -0.00540071  0.13369217  0.94074856  1
  S2-  S194  1  0.01872509  0.38031042  0.46467158  1
  S2-  S195  1  0.00464631  0.37488544  0.95563355  1
  S2-  S196  1  0.01611698  0.63284781  0.45553834  1
  S2-  S197  1  0.00290431  0.62527280  0.94841316  1
  S2-  S198  1  0.01923797  0.87752383  0.45247398  1
  S2-  S199  1  0.00437893  0.87440813  0.95554106  1
  S2-  S200  1  0.26643085  0.13121316  0.45452625  1
  S2-  S201  1  0.25663442  0.11847600  0.95193368  1
  S2-  S202  1  0.26939740  0.37721758  0.45887889  1
  S2-  S203  1  0.25725037  0.37749129  0.96398251  1
  S2-  S204  1  0.26913116  0.63345218  0.45179812  1
  S2-  S205  1  0.25783698  0.62761053  0.96034261  1
  S2-  S206  1  0.26452678  0.88022486  0.43963136  1
  S2-  S207  1  0.25221062  0.87969973  0.95435931  1
  S2-  S208  1  0.51252796  0.12959550  0.45820558  1
  S2-  S209  1  0.50722262  0.12788137  0.96241855  1
  S2-  S210  1  0.51906006  0.37153560  0.45407701  1
  S2-  S211  1  0.50589628  0.37807884  0.95072262  1
  S2-  S212  1  0.52067698  0.63235941  0.44776723  1
  S2-  S213  1  0.50454503  0.62568496  0.94649055  1
  S2-  S214  1  0.51975926  0.88247112  0.44818665  1
  S2-  S215  1  0.50923865  0.87304508  0.95463037  1
  S2-  S216  1  0.76918943  0.13047077  0.46490162  1
  S2-  S217  1  0.75740667  0.13380939  0.94949404  1
  S2-  S218  1  0.76641870  0.37273634  0.45542566  1
  S2-  S219  1  0.75729522  0.37599201  0.95560912  1
  S2-  S220  1  0.76783432  0.63072234  0.46152573  1
  S2-  S221  1  0.75860646  0.62538681  0.93912493  1
  S2-  S222  1  0.76573957  0.88565181  0.45641409  1
  S2-  S223  1  0.75010459  0.87040465  0.96229928  1
  S2-  S224  1  0.12833201  0.00138452  0.02875255  1
  S2-  S225  1  0.14635793  0.00490219  0.54031148  1
  S2-  S226  1  0.12932215  0.24316501  0.03776191  1
  S2-  S227  1  0.14527218  0.25677466  0.55451880  1
  S2-  S228  1  0.13163322  0.50266040  0.04690493  1
  S2-  S229  1  0.14827716  0.50792238  0.54090183  1
  S2-  S230  1  0.12945188  0.75884374  0.05094830  1
  S2-  S231  1  0.14369497  0.75550843  0.54401445  1
  S2-  S232  1  0.38721368  -0.00257448  0.04276105  1
  S2-  S233  1  0.39062523  0.00327799  0.53917724  1
  S2-  S234  1  0.38235658  0.25169221  0.03741515  1
  S2-  S235  1  0.39184237  0.25455590  0.54348056  1
  S2-  S236  1  0.37657084  0.50156871  0.05158889  1
  S2-  S237  1  0.39786053  0.50334440  0.52936789  1
  S2-  S238  1  0.37620156  0.75263686  0.04230360  1
  S2-  S239  1  0.39456329  0.75671257  0.53450523  1
  S2-  S240  1  0.62700711  0.00077523  0.04373172  1
  S2-  S241  1  0.64053839  0.00744298  0.56254727  1
  S2-  S242  1  0.63723535  0.25338015  0.04346774  1
  S2-  S243  1  0.63870031  0.25555591  0.55382288  1
  S2-  S244  1  0.62954392  0.50822269  0.04401537  1
  S2-  S245  1  0.63995494  0.50051237  0.54420482  1
  S2-  S246  1  0.63011618  0.74127614  0.04623348  1
  S2-  S247  1  0.64483705  0.75436635  0.54661458  1
  S2-  S248  1  0.87883067  0.00262493  0.03159059  1
  S2-  S249  1  0.89365655  0.00752250  0.54571046  1
  S2-  S250  1  0.88217483  0.24935471  0.06056382  1
  S2-  S251  1  0.89829085  0.25552335  0.56268924  1
  S2-  S252  1  0.88499025  0.49861100  0.04048006  1
  S2-  S253  1  0.89089659  0.50147854  0.54166352  1
  S2-  S254  1  0.88906412  0.75561231  0.04796771  1
  S2-  S255  1  0.89493330  0.75539759  0.55566021  1
