# generated using pymatgen
data_La12Ce14Pr13Nd13Sm12(BiS2)64
_symmetry_space_group_name_H-M   'P 1'
_cell_length_a   16.12202734
_cell_length_b   16.08890874
_cell_length_c   27.14013732
_cell_angle_alpha   89.91471635
_cell_angle_beta   90.27408576
_cell_angle_gamma   89.97550087
_symmetry_Int_Tables_number   1
_chemical_formula_structural   La12Ce14Pr13Nd13Sm12(BiS2)64
_chemical_formula_sum   'La12 Ce14 Pr13 Nd13 Sm12 Bi64 S128'
_cell_volume   7039.67793951
_cell_formula_units_Z   1
loop_
 _symmetry_equiv_pos_site_id
 _symmetry_equiv_pos_as_xyz
  1  'x, y, z'
loop_
 _atom_type_symbol
 _atom_type_oxidation_number
  La3+  3.0
  Ce3+  3.0
  Pr3+  3.0
  Nd3+  3.0
  Sm3+  3.0
  Bi2+  2.0
  S2-  -2.0
loop_
 _atom_site_type_symbol
 _atom_site_label
 _atom_site_symmetry_multiplicity
 _atom_site_fract_x
 _atom_site_fract_y
 _atom_site_fract_z
 _atom_site_occupancy
  La3+  La0  1  0.86806910  0.75283849  0.92321972  1
  La3+  La1  1  0.12059563  0.00621605  0.42334755  1
  La3+  La2  1  0.73832958  0.36190034  0.59597751  1
  La3+  La3  1  0.62967882  0.24382688  0.93241916  1
  La3+  La4  1  0.11553059  0.49503052  0.92238515  1
  La3+  La5  1  0.49402399  0.11586142  0.07886725  1
  La3+  La6  1  0.62175841  0.25529580  0.41904734  1
  La3+  La7  1  0.86434096  0.24498483  0.43036063  1
  La3+  La8  1  0.11988404  0.74741383  0.88046299  1
  La3+  La9  1  0.37287776  0.49192007  0.92549825  1
  La3+  La10  1  0.86927182  0.49625723  0.92952803  1
  La3+  La11  1  0.00624186  0.88333900  0.58501980  1
  Ce3+  Ce12  1  -0.00227115  0.12236782  0.56017587  1
  Ce3+  Ce13  1  0.11864759  0.25085959  0.43880892  1
  Ce3+  Ce14  1  0.75146948  0.87757466  0.06771253  1
  Ce3+  Ce15  1  0.37813892  0.00204227  0.93487842  1
  Ce3+  Ce16  1  0.74897070  0.62519082  0.56723965  1
  Ce3+  Ce17  1  0.87209583  0.24339701  0.94968804  1
  Ce3+  Ce18  1  -0.00681376  0.37194433  0.56504899  1
  Ce3+  Ce19  1  0.74658110  0.12680093  0.07993076  1
  Ce3+  Ce20  1  0.00135402  0.86718633  0.05475840  1
  Ce3+  Ce21  1  0.87283130  -0.00527707  0.44126093  1
  Ce3+  Ce22  1  0.74772395  0.61673123  0.06125706  1
  Ce3+  Ce23  1  0.50078974  0.37256203  0.54975322  1
  Ce3+  Ce24  1  0.37318094  0.75104201  0.42950543  1
  Ce3+  Ce25  1  0.74496950  0.11567103  0.56120098  1
  Pr3+  Pr26  1  0.12489111  -0.00398513  0.93064519  1
  Pr3+  Pr27  1  -0.00118745  0.62128649  0.05528162  1
  Pr3+  Pr28  1  0.25257895  0.12642669  0.55609983  1
  Pr3+  Pr29  1  0.49944769  0.62439127  0.56514707  1
  Pr3+  Pr30  1  0.87505488  0.49843803  0.44425964  1
  Pr3+  Pr31  1  0.62619312  0.49005618  0.92717326  1
  Pr3+  Pr32  1  0.62591412  0.50237886  0.43709018  1
  Pr3+  Pr33  1  0.37229018  -0.00242666  0.42557060  1
  Pr3+  Pr34  1  0.37030720  0.24953781  0.40777314  1
  Pr3+  Pr35  1  0.62414693  -0.01024741  0.42371784  1
  Pr3+  Pr36  1  0.25724580  0.62596353  0.57492388  1
  Pr3+  Pr37  1  0.49935573  0.37195011  0.06269262  1
  Pr3+  Pr38  1  0.37107868  0.50301451  0.43161592  1
  Nd3+  Nd39  1  0.87614297  0.75099893  0.45208753  1
  Nd3+  Nd40  1  0.00650628  0.11890983  0.06751792  1
  Nd3+  Nd41  1  0.37324673  0.24529093  0.93605956  1
  Nd3+  Nd42  1  0.24906174  0.37246261  0.05767931  1
  Nd3+  Nd43  1  0.37333944  0.74643297  0.92745801  1
  Nd3+  Nd44  1  0.24891297  0.11631211  0.06563085  1
  Nd3+  Nd45  1  0.62453568  0.75044575  0.93455640  1
  Nd3+  Nd46  1  0.50579996  0.86453604  0.07061789  1
  Nd3+  Nd47  1  0.62221044  0.00016698  0.94436835  1
  Nd3+  Nd48  1  0.25075131  0.37410904  0.56007795  1
  Nd3+  Nd49  1  0.12324354  0.75100688  0.44468737  1
  Nd3+  Nd50  1  0.25658283  0.87940297  0.56128075  1
  Nd3+  Nd51  1  0.87393296  -0.00305043  0.94149399  1
  Sm3+  Sm52  1  0.62297606  0.75007017  0.44379277  1
  Sm3+  Sm53  1  0.74494801  0.37347986  0.07107573  1
  Sm3+  Sm54  1  0.49953353  0.61958745  0.04682157  1
  Sm3+  Sm55  1  0.50158771  0.12679228  0.54297180  1
  Sm3+  Sm56  1  0.12306118  0.50171970  0.45119765  1
  Sm3+  Sm57  1  0.49573940  0.87669448  0.55947088  1
  Sm3+  Sm58  1  0.25023147  0.86873863  0.04946415  1
  Sm3+  Sm59  1  0.24826351  0.62253044  0.05026864  1
  Sm3+  Sm60  1  0.74812005  0.87617584  0.56590246  1
  Sm3+  Sm61  1  0.12285009  0.24598557  0.93639059  1
  Sm3+  Sm62  1  0.00082404  0.37196977  0.05675715  1
  Sm3+  Sm63  1  -0.00348427  0.62254891  0.56743985  1
  Bi2+  Bi64  1  0.00632131  0.10184029  0.27556698  1
  Bi2+  Bi65  1  0.02892159  0.14610440  0.82771638  1
  Bi2+  Bi66  1  0.03487063  0.38979256  0.27731786  1
  Bi2+  Bi67  1  -0.00543547  0.33437396  0.78793563  1
  Bi2+  Bi68  1  -0.01928642  0.62864288  0.31774867  1
  Bi2+  Bi69  1  0.02096977  0.58554028  0.77597455  1
  Bi2+  Bi70  1  0.02375521  0.85034653  0.29677179  1
  Bi2+  Bi71  1  -0.03324432  0.84629277  0.77655121  1
  Bi2+  Bi72  1  0.22329100  0.14119734  0.27375932  1
  Bi2+  Bi73  1  0.22087987  0.18024382  0.81252672  1
  Bi2+  Bi74  1  0.22510463  0.33174144  0.28980998  1
  Bi2+  Bi75  1  0.25472883  0.38266053  0.78489463  1
  Bi2+  Bi76  1  0.31709392  0.62761216  0.32169719  1
  Bi2+  Bi77  1  0.27731471  0.63280709  0.77182521  1
  Bi2+  Bi78  1  0.28926411  0.80479014  0.27291609  1
  Bi2+  Bi79  1  0.24297492  0.98866087  0.81039249  1
  Bi2+  Bi80  1  0.47238738  0.13102443  0.27296754  1
  Bi2+  Bi81  1  0.49812286  0.06540582  0.79337194  1
  Bi2+  Bi82  1  0.49119658  0.40829685  0.28911273  1
  Bi2+  Bi83  1  0.48919577  0.46381472  0.78848761  1
  Bi2+  Bi84  1  0.51142834  0.62242787  0.34033288  1
  Bi2+  Bi85  1  0.52658697  0.71914546  0.78517710  1
  Bi2+  Bi86  1  0.51142424  0.80885802  0.29140459  1
  Bi2+  Bi87  1  0.51134191  0.88793896  0.85038497  1
  Bi2+  Bi88  1  0.74781012  0.07069453  0.29199730  1
  Bi2+  Bi89  1  0.75912603  0.12570132  0.79782799  1
  Bi2+  Bi90  1  0.78898039  0.36937724  0.30673109  1
  Bi2+  Bi91  1  0.72045598  0.37459337  0.79432618  1
  Bi2+  Bi92  1  0.70154292  0.60692745  0.30357115  1
  Bi2+  Bi93  1  0.69944816  0.63141538  0.77220431  1
  Bi2+  Bi94  1  0.77416635  0.84691738  0.28612514  1
  Bi2+  Bi95  1  0.71368152  0.88997843  0.80404718  1
  Bi2+  Bi96  1  0.13931352  -0.03826531  0.20197428  1
  Bi2+  Bi97  1  0.13059094  -0.00466758  0.71295984  1
  Bi2+  Bi98  1  0.06148163  0.24390744  0.19532445  1
  Bi2+  Bi99  1  0.11351733  0.19302045  0.71154269  1
  Bi2+  Bi100  1  0.19559941  0.53856951  0.24431277  1
  Bi2+  Bi101  1  0.11877240  0.38214520  0.70134600  1
  Bi2+  Bi102  1  0.12503174  0.70787143  0.20765297  1
  Bi2+  Bi103  1  0.09940278  0.72539312  0.67659786  1
  Bi2+  Bi104  1  0.35860253  -0.00493611  0.21388263  1
  Bi2+  Bi105  1  0.38108272  0.03030803  0.70121601  1
  Bi2+  Bi106  1  0.36473570  0.27042522  0.21307382  1
  Bi2+  Bi107  1  0.41538212  0.30987108  0.72783968  1
  Bi2+  Bi108  1  0.37670251  0.48834469  0.20729624  1
  Bi2+  Bi109  1  0.36591894  0.49178306  0.68233182  1
  Bi2+  Bi110  1  0.41529418  0.69056893  0.21637570  1
  Bi2+  Bi111  1  0.37067471  0.85855932  0.76557295  1
  Bi2+  Bi112  1  0.63200344  -0.02132485  0.20263762  1
  Bi2+  Bi113  1  0.63581616  -0.00316518  0.71536138  1
  Bi2+  Bi114  1  0.64902425  0.26223781  0.21626012  1
  Bi2+  Bi115  1  0.59010383  0.22567117  0.70349834  1
  Bi2+  Bi116  1  0.62649174  0.50882042  0.21121251  1
  Bi2+  Bi117  1  0.54154115  0.58739694  0.69773258  1
  Bi2+  Bi118  1  0.65156537  0.71434926  0.21088794  1
  Bi2+  Bi119  1  0.54851790  0.82728637  0.68582368  1
  Bi2+  Bi120  1  0.89868889  -0.04275696  0.22210897  1
  Bi2+  Bi121  1  0.91582071  0.05341912  0.74573110  1
  Bi2+  Bi122  1  0.87653457  0.23349451  0.23191152  1
  Bi2+  Bi123  1  0.85844785  0.23424999  0.72045698  1
  Bi2+  Bi124  1  0.89558033  0.50229817  0.20504918  1
  Bi2+  Bi125  1  0.86048935  0.49562217  0.70786164  1
  Bi2+  Bi126  1  0.84803890  0.69189359  0.22180725  1
  Bi2+  Bi127  1  0.74350737  0.80877001  0.69843081  1
  S2-  S128  1  0.12803940  0.10666072  0.14076159  1
  S2-  S129  1  -0.00542766  0.03483250  0.64633694  1
  S2-  S130  1  0.00553114  0.40254344  0.15398804  1
  S2-  S131  1  -0.09911346  0.36215679  0.64799625  1
  S2-  S132  1  -0.01357064  0.63394711  0.15810737  1
  S2-  S133  1  -0.00989534  0.58574707  0.66473674  1
  S2-  S134  1  0.01466537  0.88399260  0.15425037  1
  S2-  S135  1  -0.04767180  0.81181239  0.67666393  1
  S2-  S136  1  0.35484333  0.12859017  0.14802344  1
  S2-  S137  1  0.24487615  0.09903520  0.65641903  1
  S2-  S138  1  0.26628194  0.37882208  0.15806787  1
  S2-  S139  1  0.29360052  0.33072576  0.65420407  1
  S2-  S140  1  0.22850975  0.62629447  0.15041700  1
  S2-  S141  1  0.21478275  0.58680262  0.67468211  1
  S2-  S142  1  0.25591583  0.88849146  0.14964785  1
  S2-  S143  1  0.16048016  0.87843290  0.64598612  1
  S2-  S144  1  0.61068515  0.13434541  0.15658032  1
  S2-  S145  1  0.49534340  0.12001639  0.64362599  1
  S2-  S146  1  0.57915524  0.36942407  0.15465497  1
  S2-  S147  1  0.55788232  0.34639400  0.64025302  1
  S2-  S148  1  0.52389567  0.61295468  0.14510405  1
  S2-  S149  1  0.39589821  0.65228456  0.64464435  1
  S2-  S150  1  0.48164211  0.96172754  0.15404142  1
  S2-  S151  1  0.38454667  0.89243577  0.63551239  1
  S2-  S152  1  0.77494465  -0.00097035  0.14828808  1
  S2-  S153  1  0.73338264  0.20756647  0.64664243  1
  S2-  S154  1  0.77616235  0.26538904  0.15024659  1
  S2-  S155  1  0.71757124  0.43044829  0.69399691  1
  S2-  S156  1  0.75596765  0.50555599  0.14056963  1
  S2-  S157  1  0.76360725  0.64283479  0.66663427  1
  S2-  S158  1  0.63984005  0.83984819  0.14207741  1
  S2-  S159  1  0.74752632  0.99228058  0.63875200  1
  S2-  S160  1  0.14530005  -0.06051621  0.32879585  1
  S2-  S161  1  0.09492657  -0.08656751  0.84200013  1
  S2-  S162  1  0.11540136  0.15638419  0.35573067  1
  S2-  S163  1  0.13117641  0.35278529  0.85573922  1
  S2-  S164  1  0.07208168  0.50574875  0.35666314  1
  S2-  S165  1  0.15866363  0.58312720  0.83630902  1
  S2-  S166  1  0.10757895  0.72190947  0.34550652  1
  S2-  S167  1  0.11622742  0.75455055  0.76903845  1
  S2-  S168  1  0.34750620  0.10348475  0.34279794  1
  S2-  S169  1  0.38333443  0.12468506  0.86048047  1
  S2-  S170  1  0.50476521  0.25013528  0.33829843  1
  S2-  S171  1  0.37384705  0.35893739  0.85549900  1
  S2-  S172  1  0.34993647  0.39806861  0.34957103  1
  S2-  S173  1  0.39016073  0.58197890  0.83561971  1
  S2-  S174  1  0.38101937  0.86885008  0.35298710  1
  S2-  S175  1  0.28663088  0.76230819  0.83974586  1
  S2-  S176  1  0.59145881  0.03992021  0.32419117  1
  S2-  S177  1  0.62545733  0.10901072  0.86195902  1
  S2-  S178  1  0.74196735  0.21965388  0.34610657  1
  S2-  S179  1  0.59388664  0.36241800  0.85394573  1
  S2-  S180  1  0.63658910  0.40990893  0.34925510  1
  S2-  S181  1  0.74667662  0.50789863  0.84931128  1
  S2-  S182  1  0.64060963  0.84112762  0.35943171  1
  S2-  S183  1  0.72914861  0.73421287  0.85296372  1
  S2-  S184  1  0.89501925  0.04346685  0.34847116  1
  S2-  S185  1  0.86128666  -0.08914090  0.85337860  1
  S2-  S186  1  0.93897606  0.30766602  0.34390599  1
  S2-  S187  1  0.79350134  0.26155628  0.86226023  1
  S2-  S188  1  0.83945339  0.52947002  0.34605386  1
  S2-  S189  1  0.96926358  0.48630647  0.84470681  1
  S2-  S190  1  0.88632333  0.77804216  0.35258248  1
  S2-  S191  1  0.95551593  0.71145581  0.83637403  1
  S2-  S192  1  -0.00662615  0.12555221  0.45549018  1
  S2-  S193  1  0.00106173  0.12050504  0.95998845  1
  S2-  S194  1  -0.00046022  0.37560373  0.45946047  1
  S2-  S195  1  -0.00452207  0.36574989  0.95314414  1
  S2-  S196  1  -0.00055596  0.62519195  0.46286322  1
  S2-  S197  1  -0.00278088  0.62620933  0.94836892  1
  S2-  S198  1  0.00163648  0.87569747  0.45568896  1
  S2-  S199  1  -0.00080322  0.86970890  0.95087686  1
  S2-  S200  1  0.24942361  0.13040766  0.45007074  1
  S2-  S201  1  0.24385370  0.12298691  0.95690364  1
  S2-  S202  1  0.24311419  0.37562471  0.45339171  1
  S2-  S203  1  0.24577736  0.37062875  0.95441090  1
  S2-  S204  1  0.24610729  0.62465347  0.46006560  1
  S2-  S205  1  0.25070080  0.62304372  0.94731653  1
  S2-  S206  1  0.24477835  0.87509897  0.45269906  1
  S2-  S207  1  0.25314704  0.87261217  0.94576180  1
  S2-  S208  1  0.49935688  0.12094158  0.44047880  1
  S2-  S209  1  0.49888822  0.12302917  0.96624529  1
  S2-  S210  1  0.49511544  0.37891829  0.44697960  1
  S2-  S211  1  0.49759556  0.37013253  0.95851177  1
  S2-  S212  1  0.49860048  0.62623946  0.45810452  1
  S2-  S213  1  0.50278855  0.62198591  0.94245042  1
  S2-  S214  1  0.49890555  0.87083018  0.45614028  1
  S2-  S215  1  0.49743252  0.86921242  0.96312251  1
  S2-  S216  1  0.74352864  0.11381488  0.45234828  1
  S2-  S217  1  0.75208798  0.11747068  0.96701078  1
  S2-  S218  1  0.75039038  0.37741365  0.45333528  1
  S2-  S219  1  0.74984854  0.37061122  0.96525744  1
  S2-  S220  1  0.74833909  0.62896174  0.45842680  1
  S2-  S221  1  0.74624450  0.62191694  0.95676987  1
  S2-  S222  1  0.74940970  0.87138137  0.46142260  1
  S2-  S223  1  0.74605547  0.87606542  0.96049473  1
  S2-  S224  1  0.12665291  -0.00961459  0.03872228  1
  S2-  S225  1  0.12698294  0.00287676  0.53839762  1
  S2-  S226  1  0.12552523  0.24864914  0.04297201  1
  S2-  S227  1  0.12341255  0.25033923  0.54930799  1
  S2-  S228  1  0.12480503  0.49660877  0.04183213  1
  S2-  S229  1  0.12391726  0.49964668  0.55622934  1
  S2-  S230  1  0.12740161  0.74532637  0.04773171  1
  S2-  S231  1  0.12388579  0.74505442  0.55167537  1
  S2-  S232  1  0.37255920  -0.00917866  0.04249326  1
  S2-  S233  1  0.37696237  0.00474251  0.53309138  1
  S2-  S234  1  0.37224063  0.24831842  0.04562311  1
  S2-  S235  1  0.37640008  0.25009041  0.53779027  1
  S2-  S236  1  0.37344976  0.49850180  0.04248130  1
  S2-  S237  1  0.37409758  0.49862686  0.54213266  1
  S2-  S238  1  0.37512717  0.74369447  0.04326035  1
  S2-  S239  1  0.37443973  0.75155286  0.53753561  1
  S2-  S240  1  0.62306527  -0.00429983  0.04867096  1
  S2-  S241  1  0.61757256  -0.00511356  0.53744818  1
  S2-  S242  1  0.62500569  0.24913323  0.04570491  1
  S2-  S243  1  0.62428615  0.24744569  0.53311170  1
  S2-  S244  1  0.62123285  0.49625616  0.03843510  1
  S2-  S245  1  0.62725933  0.49974206  0.54893674  1
  S2-  S246  1  0.62488044  0.73949040  0.03973142  1
  S2-  S247  1  0.62325365  0.75222195  0.55049995  1
  S2-  S248  1  0.88365547  -0.00194163  0.04739381  1
  S2-  S249  1  0.87626081  -0.00570871  0.54434151  1
  S2-  S250  1  0.88376910  0.24437881  0.05368476  1
  S2-  S251  1  0.87204408  0.24365232  0.54423626  1
  S2-  S252  1  0.87731683  0.49249738  0.04120932  1
  S2-  S253  1  0.87099341  0.50086091  0.55184083  1
  S2-  S254  1  0.87083372  0.74621916  0.04888560  1
  S2-  S255  1  0.87548283  0.75205893  0.55744167  1
