# generated using pymatgen
data_La12Ce14Pr13Nd13Sm12(BiS2)64
_symmetry_space_group_name_H-M   'P 1'
_cell_length_a   16.19089013
_cell_length_b   16.18739165
_cell_length_c   27.26667488
_cell_angle_alpha   89.76118312
_cell_angle_beta   89.99693728
_cell_angle_gamma   90.02376296
_symmetry_Int_Tables_number   1
_chemical_formula_structural   La12Ce14Pr13Nd13Sm12(BiS2)64
_chemical_formula_sum   'La12 Ce14 Pr13 Nd13 Sm12 Bi64 S128'
_cell_volume   7146.21321094
_cell_formula_units_Z   1
loop_
 _symmetry_equiv_pos_site_id
 _symmetry_equiv_pos_as_xyz
  1  'x, y, z'
loop_
 _atom_type_symbol
 _atom_type_oxidation_number
  La3+  3.0
  Ce3+  3.0
  Pr3+  3.0
  Nd3+  3.0
  Sm3+  3.0
  Bi2+  2.0
  S2-  -2.0
loop_
 _atom_site_type_symbol
 _atom_site_label
 _atom_site_symmetry_multiplicity
 _atom_site_fract_x
 _atom_site_fract_y
 _atom_site_fract_z
 _atom_site_occupancy
  La3+  La0  1  -0.01860932  0.11622369  0.58812442  1
  La3+  La1  1  -0.01604648  0.63108810  0.57358300  1
  La3+  La2  1  0.86561819  0.01073700  0.41779791  1
  La3+  La3  1  0.86711456  0.75492276  0.38755973  1
  La3+  La4  1  0.37394921  0.50371423  0.91258444  1
  La3+  La5  1  0.23712103  0.63238860  0.57228325  1
  La3+  La6  1  0.11216307  -0.00895178  0.89602900  1
  La3+  La7  1  -0.00131357  0.61137467  0.07313859  1
  La3+  La8  1  0.48903396  0.87879095  0.56503429  1
  La3+  La9  1  0.49514009  0.61827887  0.07275132  1
  La3+  La10  1  0.73749932  0.62865769  0.57203824  1
  La3+  La11  1  0.37287310  -0.00600331  0.93604379  1
  Ce3+  Ce12  1  0.12429495  0.49838258  0.93387498  1
  Ce3+  Ce13  1  0.62036678  0.75181359  0.43904325  1
  Ce3+  Ce14  1  0.11184144  0.25357028  0.44992274  1
  Ce3+  Ce15  1  0.87366602  0.49837205  0.93630284  1
  Ce3+  Ce16  1  0.48931923  0.12294195  0.56569933  1
  Ce3+  Ce17  1  0.73921456  0.12867216  0.56135627  1
  Ce3+  Ce18  1  0.37125351  0.24426153  0.94101517  1
  Ce3+  Ce19  1  0.12109672  0.74870205  0.94368370  1
  Ce3+  Ce20  1  0.87484196  0.24514882  0.93844907  1
  Ce3+  Ce21  1  0.74874223  0.36954498  0.05391786  1
  Ce3+  Ce22  1  0.62419470  -0.00678079  0.94652523  1
  Ce3+  Ce23  1  0.62371581  0.74212689  0.94844848  1
  Ce3+  Ce24  1  0.48621159  0.38030879  0.56158751  1
  Ce3+  Ce25  1  -0.01147393  0.37624618  0.55972698  1
  Pr3+  Pr26  1  -0.00148544  0.36953296  0.05381402  1
  Pr3+  Pr27  1  0.48966930  0.62602185  0.58940549  1
  Pr3+  Pr28  1  0.73710515  0.37784091  0.56009124  1
  Pr3+  Pr29  1  0.36485349  0.00548828  0.42950167  1
  Pr3+  Pr30  1  0.49690751  0.37056655  0.05389659  1
  Pr3+  Pr31  1  0.86495864  0.25317231  0.44006958  1
  Pr3+  Pr32  1  0.24730488  0.87025165  0.05891535  1
  Pr3+  Pr33  1  0.74167110  0.87964445  0.55315939  1
  Pr3+  Pr34  1  0.11277469  0.50700542  0.44486532  1
  Pr3+  Pr35  1  0.75063372  0.86926491  0.06782458  1
  Pr3+  Pr36  1  0.24958473  0.37061770  0.05612115  1
  Pr3+  Pr37  1  0.61011127  0.50527514  0.43865813  1
  Pr3+  Pr38  1  0.87361796  0.74641985  0.94263128  1
  Nd3+  Nd39  1  0.23818031  0.12581215  0.56105980  1
  Nd3+  Nd40  1  0.12389595  0.24409926  0.93916585  1
  Nd3+  Nd41  1  0.36295137  0.51295414  0.43638480  1
  Nd3+  Nd42  1  0.24643753  0.11545965  0.05460983  1
  Nd3+  Nd43  1  0.62277141  0.24613742  0.93992917  1
  Nd3+  Nd44  1  0.49890670  0.11824869  0.05925934  1
  Nd3+  Nd45  1  0.61341038  0.00440032  0.43434539  1
  Nd3+  Nd46  1  0.36350941  0.75526460  0.44389483  1
  Nd3+  Nd47  1  0.60952569  0.25440445  0.44277069  1
  Nd3+  Nd48  1  0.87170305  -0.00355779  0.93889954  1
  Nd3+  Nd49  1  0.23834681  0.37792620  0.56022895  1
  Nd3+  Nd50  1  0.86273510  0.51033439  0.44282345  1
  Nd3+  Nd51  1  0.75025560  0.11946576  0.05822461  1
  Sm3+  Sm52  1  0.36205834  0.25354300  0.44807212  1
  Sm3+  Sm53  1  0.75000975  0.61795285  0.06157045  1
  Sm3+  Sm54  1  0.49873060  0.86835914  0.05897756  1
  Sm3+  Sm55  1  -0.00142898  0.87035465  0.06121020  1
  Sm3+  Sm56  1  0.10943279  0.75297461  0.44127401  1
  Sm3+  Sm57  1  0.37342184  0.74512993  0.94320042  1
  Sm3+  Sm58  1  0.10960704  0.00577553  0.44274362  1
  Sm3+  Sm59  1  -0.00098490  0.11736223  0.05632751  1
  Sm3+  Sm60  1  0.62335565  0.49762757  0.94474170  1
  Sm3+  Sm61  1  -0.01429288  0.87733930  0.55153400  1
  Sm3+  Sm62  1  0.23748304  0.88292110  0.55435479  1
  Sm3+  Sm63  1  0.24918040  0.62011320  0.05522018  1
  Bi2+  Bi64  1  -0.00683733  0.14804316  0.28814885  1
  Bi2+  Bi65  1  -0.00441309  0.13385396  0.78415134  1
  Bi2+  Bi66  1  -0.01036922  0.39593528  0.29805817  1
  Bi2+  Bi67  1  0.03346113  0.40445915  0.78802482  1
  Bi2+  Bi68  1  0.00746921  0.61709768  0.29457943  1
  Bi2+  Bi69  1  0.04665651  0.60495503  0.80222619  1
  Bi2+  Bi70  1  0.00901346  0.90252098  0.28288056  1
  Bi2+  Bi71  1  -0.07467500  0.87164499  0.77921980  1
  Bi2+  Bi72  1  0.27690096  0.10722306  0.31558829  1
  Bi2+  Bi73  1  0.24748039  0.14482533  0.78940268  1
  Bi2+  Bi74  1  0.20304574  0.34813265  0.30583584  1
  Bi2+  Bi75  1  0.26400123  0.37500278  0.78806919  1
  Bi2+  Bi76  1  0.25742735  0.62390327  0.28267971  1
  Bi2+  Bi77  1  0.24443381  0.64407275  0.78902746  1
  Bi2+  Bi78  1  0.28939246  0.91208613  0.31528310  1
  Bi2+  Bi79  1  0.31766231  0.85090338  0.79904459  1
  Bi2+  Bi80  1  0.48320635  0.11451235  0.29082838  1
  Bi2+  Bi81  1  0.49997787  0.06334897  0.79737463  1
  Bi2+  Bi82  1  0.51368093  0.35103576  0.29072757  1
  Bi2+  Bi83  1  0.54646542  0.33475332  0.76813871  1
  Bi2+  Bi84  1  0.48446246  0.60103659  0.29965464  1
  Bi2+  Bi85  1  0.51981678  0.59740713  0.79649101  1
  Bi2+  Bi86  1  0.47077759  0.88209401  0.26888182  1
  Bi2+  Bi87  1  0.51043475  0.86703064  0.78074706  1
  Bi2+  Bi88  1  0.73720130  0.16337446  0.28859568  1
  Bi2+  Bi89  1  0.72866972  0.16755655  0.78127270  1
  Bi2+  Bi90  1  0.79874277  0.37760699  0.28331418  1
  Bi2+  Bi91  1  0.84299934  0.35542368  0.77642344  1
  Bi2+  Bi92  1  0.72899313  0.63544202  0.28379210  1
  Bi2+  Bi93  1  0.76352994  0.63155774  0.80789589  1
  Bi2+  Bi94  1  0.71877779  0.90272610  0.27978328  1
  Bi2+  Bi95  1  0.71744533  0.88147180  0.79764989  1
  Bi2+  Bi96  1  0.15112841  0.02288740  0.24172618  1
  Bi2+  Bi97  1  0.11946803  -0.00293327  0.69031070  1
  Bi2+  Bi98  1  0.15476831  0.23019447  0.21479197  1
  Bi2+  Bi99  1  0.13161498  0.30882592  0.70518549  1
  Bi2+  Bi100  1  0.12442498  0.43242263  0.21625876  1
  Bi2+  Bi101  1  0.15477124  0.52708223  0.71023662  1
  Bi2+  Bi102  1  0.16505562  0.78857676  0.26552763  1
  Bi2+  Bi103  1  0.10768521  0.77629715  0.75879565  1
  Bi2+  Bi104  1  0.33871458  -0.00443252  0.19915584  1
  Bi2+  Bi105  1  0.33986811  -0.03538611  0.69949947  1
  Bi2+  Bi106  1  0.34766894  0.25590499  0.24847480  1
  Bi2+  Bi107  1  0.41334368  0.20770630  0.73463455  1
  Bi2+  Bi108  1  0.38152428  0.49380270  0.18884345  1
  Bi2+  Bi109  1  0.37022008  0.47280623  0.71182251  1
  Bi2+  Bi110  1  0.34628429  0.74161697  0.20552974  1
  Bi2+  Bi111  1  0.39168521  0.72488408  0.72356653  1
  Bi2+  Bi112  1  0.59723263  0.03716731  0.20872052  1
  Bi2+  Bi113  1  0.61322968  0.02111409  0.70551183  1
  Bi2+  Bi114  1  0.61518929  0.23348378  0.20951408  1
  Bi2+  Bi115  1  0.58369095  0.21261099  0.67538727  1
  Bi2+  Bi116  1  0.64409556  0.42632271  0.21653487  1
  Bi2+  Bi117  1  0.63625805  0.48698095  0.71828719  1
  Bi2+  Bi118  1  0.58086453  0.74614070  0.22385850  1
  Bi2+  Bi119  1  0.63751280  0.76308075  0.70994530  1
  Bi2+  Bi120  1  0.86542106  0.02224648  0.18890587  1
  Bi2+  Bi121  1  0.80878914  0.01129653  0.72968764  1
  Bi2+  Bi122  1  0.91767512  0.27522410  0.21508094  1
  Bi2+  Bi123  1  0.77234623  0.27002900  0.68357997  1
  Bi2+  Bi124  1  0.87566482  0.51903622  0.19321236  1
  Bi2+  Bi125  1  0.95511398  0.53031503  0.70661669  1
  Bi2+  Bi126  1  0.87749766  0.76533851  0.18177171  1
  Bi2+  Bi127  1  0.91358071  0.78186523  0.68142372  1
  S2-  S128  1  -0.03531500  0.13432126  0.15221444  1
  S2-  S129  1  0.03874061  0.15154187  0.68529120  1
  S2-  S130  1  0.00677534  0.46219869  0.13804046  1
  S2-  S131  1  -0.00980050  0.37613349  0.65657261  1
  S2-  S132  1  0.00152510  0.66255652  0.17029251  1
  S2-  S133  1  0.05674569  0.70746849  0.65756294  1
  S2-  S134  1  -0.01735645  0.90016153  0.15728476  1
  S2-  S135  1  -0.01213073  0.94852456  0.64236432  1
  S2-  S136  1  0.22725522  0.11115507  0.15316259  1
  S2-  S137  1  0.25296689  0.09794751  0.65914294  1
  S2-  S138  1  0.25829459  0.39028374  0.15509472  1
  S2-  S139  1  0.27355469  0.35533553  0.65702190  1
  S2-  S140  1  0.26957472  0.61943057  0.15270687  1
  S2-  S141  1  0.34594971  0.61209635  0.64959979  1
  S2-  S142  1  0.25646297  0.86301603  0.15872292  1
  S2-  S143  1  0.23702875  0.86674257  0.65281810  1
  S2-  S144  1  0.46625528  0.10136578  0.15605889  1
  S2-  S145  1  0.47667799  0.00454461  0.63849049  1
  S2-  S146  1  0.48799448  0.39029623  0.15342330  1
  S2-  S147  1  0.49713809  0.44857822  0.65147098  1
  S2-  S148  1  0.50987337  0.60731779  0.17321645  1
  S2-  S149  1  0.62792585  0.62035413  0.65364875  1
  S2-  S150  1  0.50245277  0.84611736  0.15587080  1
  S2-  S151  1  0.49559208  0.77573657  0.64833580  1
  S2-  S152  1  0.74162649  0.12225350  0.15740704  1
  S2-  S153  1  0.83127570  0.11315135  0.64414645  1
  S2-  S154  1  0.77482762  0.39891736  0.14829641  1
  S2-  S155  1  0.74794976  0.43934799  0.65478395  1
  S2-  S156  1  0.76391423  0.63325042  0.15921494  1
  S2-  S157  1  0.85572666  0.63227055  0.65037807  1
  S2-  S158  1  0.74893587  0.88942386  0.16891389  1
  S2-  S159  1  0.74637442  0.84322004  0.65377181  1
  S2-  S160  1  0.03500431  0.01756547  0.35486127  1
  S2-  S161  1  0.13245139  0.02578094  0.79240191  1
  S2-  S162  1  0.07724825  0.25623592  0.35408094  1
  S2-  S163  1  0.11519843  0.21153352  0.84156808  1
  S2-  S164  1  0.14465375  0.55275514  0.34851562  1
  S2-  S165  1  0.22616279  0.49209896  0.85416703  1
  S2-  S166  1  0.03760782  0.75621635  0.35146926  1
  S2-  S167  1  0.11685533  0.82735001  0.85667838  1
  S2-  S168  1  0.49055885  -0.00378752  0.35797909  1
  S2-  S169  1  0.33253287  0.01403680  0.83929799  1
  S2-  S170  1  0.40207856  0.24083266  0.35315342  1
  S2-  S171  1  0.35569775  0.25092956  0.84440099  1
  S2-  S172  1  0.41344033  0.47416975  0.34286427  1
  S2-  S173  1  0.43645159  0.45711481  0.81857187  1
  S2-  S174  1  0.37810968  0.68479690  0.35226593  1
  S2-  S175  1  0.40088215  0.65804207  0.86121011  1
  S2-  S176  1  0.69905705  0.02075168  0.34385312  1
  S2-  S177  1  0.64406157  0.01246235  0.85095628  1
  S2-  S178  1  0.63203214  0.27074326  0.34501747  1
  S2-  S179  1  0.63943665  0.26904443  0.84183574  1
  S2-  S180  1  0.63679345  0.54318805  0.34007416  1
  S2-  S181  1  0.64166744  0.51935887  0.84731418  1
  S2-  S182  1  0.69540808  0.75987739  0.34854958  1
  S2-  S183  1  0.64940782  0.74100367  0.85154427  1
  S2-  S184  1  0.86204350  -0.09312585  0.33403232  1
  S2-  S185  1  0.95070316  0.00201693  0.85061689  1
  S2-  S186  1  0.86316185  0.15744122  0.35605205  1
  S2-  S187  1  0.87759089  0.22058116  0.84135332  1
  S2-  S188  1  0.87493543  0.58485789  0.35347173  1
  S2-  S189  1  0.84979065  0.49951719  0.83871881  1
  S2-  S190  1  0.87417959  0.72542203  0.27503306  1
  S2-  S191  1  0.87767573  0.73320397  0.84208454  1
  S2-  S192  1  -0.00910900  0.13110612  0.46271051  1
  S2-  S193  1  0.00125613  0.11801340  0.95178866  1
  S2-  S194  1  -0.01278049  0.38219173  0.45274636  1
  S2-  S195  1  0.00016004  0.37113644  0.94656070  1
  S2-  S196  1  -0.00968756  0.63008641  0.46089706  1
  S2-  S197  1  -0.00134528  0.62142622  0.95600483  1
  S2-  S198  1  -0.01150239  0.87840402  0.44971721  1
  S2-  S199  1  -0.00344927  0.87423201  0.95666790  1
  S2-  S200  1  0.23690515  0.12878418  0.45353443  1
  S2-  S201  1  0.24138366  0.11422930  0.94827071  1
  S2-  S202  1  0.24084896  0.38033440  0.45324080  1
  S2-  S203  1  0.24967287  0.36879027  0.95052490  1
  S2-  S204  1  0.23717525  0.63336551  0.46066694  1
  S2-  S205  1  0.24659792  0.62626233  0.95211052  1
  S2-  S206  1  0.23362123  0.87893504  0.44881123  1
  S2-  S207  1  0.24872494  0.86980908  0.95252902  1
  S2-  S208  1  0.48637207  0.13127258  0.45832025  1
  S2-  S209  1  0.49911056  0.12090093  0.95172324  1
  S2-  S210  1  0.48378779  0.37878160  0.45504807  1
  S2-  S211  1  0.49818829  0.37320152  0.94673806  1
  S2-  S212  1  0.48854697  0.63111102  0.45701800  1
  S2-  S213  1  0.50116070  0.61857836  0.96306504  1
  S2-  S214  1  0.48944522  0.87420559  0.45492240  1
  S2-  S215  1  0.49813821  0.86711519  0.95199470  1
  S2-  S216  1  0.73400017  0.13278244  0.45600286  1
  S2-  S217  1  0.74835926  0.12165688  0.95173873  1
  S2-  S218  1  0.73849996  0.37972756  0.45094260  1
  S2-  S219  1  0.74728974  0.37162123  0.94787277  1
  S2-  S220  1  0.73707416  0.62649353  0.45841896  1
  S2-  S221  1  0.74900654  0.61937512  0.95673761  1
  S2-  S222  1  0.74007398  0.88133206  0.44775273  1
  S2-  S223  1  0.74966849  0.87076589  0.95875574  1
  S2-  S224  1  0.11968718  -0.00600766  0.05378201  1
  S2-  S225  1  0.11339165  0.00363500  0.54574391  1
  S2-  S226  1  0.12268015  0.24268744  0.04705156  1
  S2-  S227  1  0.11347735  0.25015047  0.55588667  1
  S2-  S228  1  0.12876392  0.49619974  0.04039681  1
  S2-  S229  1  0.11439277  0.50405042  0.55312868  1
  S2-  S230  1  0.12231670  0.74424155  0.05205573  1
  S2-  S231  1  0.11549715  0.75984953  0.54407508  1
  S2-  S232  1  0.37609887  -0.00727843  0.04481298  1
  S2-  S233  1  0.35927788  0.00317641  0.53679888  1
  S2-  S234  1  0.37255839  0.24099557  0.04856059  1
  S2-  S235  1  0.36345647  0.25032079  0.55263426  1
  S2-  S236  1  0.37156037  0.49722022  0.04191572  1
  S2-  S237  1  0.36051552  0.50303741  0.54414613  1
  S2-  S238  1  0.37404060  0.74562225  0.04778653  1
  S2-  S239  1  0.35825184  0.75684697  0.54832124  1
  S2-  S240  1  0.62296180  -0.00709844  0.05301831  1
  S2-  S241  1  0.61689524  0.00576212  0.54232982  1
  S2-  S242  1  0.62311901  0.24371146  0.04771096  1
  S2-  S243  1  0.61076499  0.25436698  0.54804890  1
  S2-  S244  1  0.62471651  0.49637031  0.05048183  1
  S2-  S245  1  0.61066108  0.50182313  0.54481673  1
  S2-  S246  1  0.62480283  0.74366596  0.05563759  1
  S2-  S247  1  0.61486800  0.75298920  0.54382337  1
  S2-  S248  1  0.87429518  -0.00472142  0.04556369  1
  S2-  S249  1  0.86444663  0.00269177  0.53718187  1
  S2-  S250  1  0.87477384  0.24328203  0.04567865  1
  S2-  S251  1  0.86496655  0.25422632  0.54692109  1
  S2-  S252  1  0.87038347  0.49523372  0.04101897  1
  S2-  S253  1  0.86392248  0.49996872  0.54723574  1
  S2-  S254  1  0.87486890  0.74360368  0.05015155  1
  S2-  S255  1  0.86574395  0.75669073  0.54764850  1
