# generated using pymatgen
data_La12Ce14Pr13Nd13Sm12(BiS2)64
_symmetry_space_group_name_H-M   'P 1'
_cell_length_a   16.11370957
_cell_length_b   16.11664302
_cell_length_c   27.37914344
_cell_angle_alpha   90.04054880
_cell_angle_beta   90.03524466
_cell_angle_gamma   89.87596817
_symmetry_Int_Tables_number   1
_chemical_formula_structural   La12Ce14Pr13Nd13Sm12(BiS2)64
_chemical_formula_sum   'La12 Ce14 Pr13 Nd13 Sm12 Bi64 S128'
_cell_volume   7110.31378360
_cell_formula_units_Z   1
loop_
 _symmetry_equiv_pos_site_id
 _symmetry_equiv_pos_as_xyz
  1  'x, y, z'
loop_
 _atom_type_symbol
 _atom_type_oxidation_number
  La3+  3.0
  Ce3+  3.0
  Pr3+  3.0
  Nd3+  3.0
  Sm3+  3.0
  Bi2+  2.0
  S2-  -2.0
loop_
 _atom_site_type_symbol
 _atom_site_label
 _atom_site_symmetry_multiplicity
 _atom_site_fract_x
 _atom_site_fract_y
 _atom_site_fract_z
 _atom_site_occupancy
  La3+  La0  1  0.50714828  0.87768740  0.56394925  1
  La3+  La1  1  0.11224222  0.51810493  0.90798096  1
  La3+  La2  1  0.62583791  -0.00537867  0.42051801  1
  La3+  La3  1  0.61474176  0.52593940  0.92535121  1
  La3+  La4  1  0.85971458  0.51665625  0.93676019  1
  La3+  La5  1  0.73507215  0.39291108  0.07175655  1
  La3+  La6  1  0.10804303  0.01351545  0.93147954  1
  La3+  La7  1  0.87612316  0.74365935  0.40378743  1
  La3+  La8  1  0.26435269  0.63108011  0.60745242  1
  La3+  La9  1  0.01584095  0.36289364  0.58231829  1
  La3+  La10  1  0.48478553  0.90348384  0.07445015  1
  La3+  La11  1  0.88846012  0.49103805  0.42179052  1
  Ce3+  Ce12  1  0.76250723  0.62330290  0.55759687  1
  Ce3+  Ce13  1  0.23749753  0.14188832  0.05474923  1
  Ce3+  Ce14  1  0.36148432  0.01069718  0.93189709  1
  Ce3+  Ce15  1  0.25643150  0.12119092  0.56030548  1
  Ce3+  Ce16  1  0.86445411  0.76988683  0.95515750  1
  Ce3+  Ce17  1  0.23936192  0.88572520  0.06885972  1
  Ce3+  Ce18  1  -0.01113473  0.64037288  0.06099661  1
  Ce3+  Ce19  1  0.00401285  0.12509556  0.55213199  1
  Ce3+  Ce20  1  0.38093462  -0.00637120  0.43358279  1
  Ce3+  Ce21  1  0.75931768  0.37591111  0.56567595  1
  Ce3+  Ce22  1  0.37935961  0.50142177  0.44226809  1
  Ce3+  Ce23  1  0.75395705  0.12307099  0.55284500  1
  Ce3+  Ce24  1  0.63144540  0.74524974  0.44267313  1
  Ce3+  Ce25  1  -0.01170224  0.39460044  0.06584111  1
  Pr3+  Pr26  1  0.12781660  -0.00442115  0.43579149  1
  Pr3+  Pr27  1  0.23585474  0.63869813  0.06354895  1
  Pr3+  Pr28  1  0.11381617  0.27029877  0.93856998  1
  Pr3+  Pr29  1  0.50754052  0.62586106  0.56509785  1
  Pr3+  Pr30  1  -0.00966350  0.14010396  0.06434672  1
  Pr3+  Pr31  1  0.86243543  0.26916869  0.93980474  1
  Pr3+  Pr32  1  0.00900659  0.62494356  0.56276918  1
  Pr3+  Pr33  1  0.13001913  0.25002747  0.43297419  1
  Pr3+  Pr34  1  0.12775173  0.50330506  0.44570608  1
  Pr3+  Pr35  1  0.48563977  0.64325353  0.05975297  1
  Pr3+  Pr36  1  0.25423758  0.87777782  0.56712573  1
  Pr3+  Pr37  1  0.37993961  0.25104608  0.43597722  1
  Pr3+  Pr38  1  0.73605862  0.64384780  0.06853849  1
  Nd3+  Nd39  1  0.11024476  0.76818201  0.93828440  1
  Nd3+  Nd40  1  0.36091085  0.76813691  0.93786653  1
  Nd3+  Nd41  1  0.61477121  0.77247980  0.94813856  1
  Nd3+  Nd42  1  0.63172581  0.25456028  0.44318839  1
  Nd3+  Nd43  1  -0.01120316  0.89396339  0.07708470  1
  Nd3+  Nd44  1  0.73294487  0.90113300  0.08463461  1
  Nd3+  Nd45  1  0.36251115  0.27214422  0.94594258  1
  Nd3+  Nd46  1  0.73810879  0.14083608  0.05806410  1
  Nd3+  Nd47  1  0.85900079  0.01295697  0.93784565  1
  Nd3+  Nd48  1  0.37823596  0.74414840  0.44283629  1
  Nd3+  Nd49  1  0.61201718  0.26977839  0.93523387  1
  Nd3+  Nd50  1  0.50426074  0.37578186  0.56287540  1
  Nd3+  Nd51  1  0.87758838  -0.00094924  0.43279375  1
  Sm3+  Sm52  1  0.25775520  0.37486662  0.55435833  1
  Sm3+  Sm53  1  0.23092308  0.39739703  0.06819920  1
  Sm3+  Sm54  1  0.48669813  0.14205294  0.04905751  1
  Sm3+  Sm55  1  0.63269108  0.50133704  0.44834137  1
  Sm3+  Sm56  1  0.75814952  0.87598850  0.55076153  1
  Sm3+  Sm57  1  0.50735290  0.12559556  0.54895741  1
  Sm3+  Sm58  1  0.00461139  0.87511379  0.55127659  1
  Sm3+  Sm59  1  0.36075627  0.52623368  0.93248704  1
  Sm3+  Sm60  1  0.49085418  0.39417498  0.05769710  1
  Sm3+  Sm61  1  0.12818834  0.74811369  0.44458252  1
  Sm3+  Sm62  1  0.61582719  0.01530614  0.93702646  1
  Sm3+  Sm63  1  0.87947870  0.25267764  0.44078039  1
  Bi2+  Bi64  1  -0.05801826  0.15081819  0.27656695  1
  Bi2+  Bi65  1  0.06101961  0.12074641  0.78583522  1
  Bi2+  Bi66  1  -0.03085305  0.34500862  0.26318980  1
  Bi2+  Bi67  1  -0.01998475  0.37443243  0.78523302  1
  Bi2+  Bi68  1  0.01557010  0.62713183  0.30553402  1
  Bi2+  Bi69  1  -0.00493591  0.63120713  0.79036544  1
  Bi2+  Bi70  1  0.01971585  0.88736067  0.28688199  1
  Bi2+  Bi71  1  -0.01798667  0.89522584  0.80326036  1
  Bi2+  Bi72  1  0.23767038  0.12819611  0.29617175  1
  Bi2+  Bi73  1  0.27728393  0.07377220  0.80698497  1
  Bi2+  Bi74  1  0.24932104  0.36545836  0.28079861  1
  Bi2+  Bi75  1  0.24840970  0.27841582  0.78245761  1
  Bi2+  Bi76  1  0.21034467  0.55162620  0.31404260  1
  Bi2+  Bi77  1  0.25979958  0.62232039  0.79506638  1
  Bi2+  Bi78  1  0.26646397  0.83917169  0.28962756  1
  Bi2+  Bi79  1  0.24515665  0.88016635  0.78559495  1
  Bi2+  Bi80  1  0.42991280  0.17281146  0.28980208  1
  Bi2+  Bi81  1  0.47691538  0.08510627  0.79126307  1
  Bi2+  Bi82  1  0.51851375  0.40716006  0.28730515  1
  Bi2+  Bi83  1  0.53086800  0.34439151  0.81372377  1
  Bi2+  Bi84  1  0.44099732  0.60709815  0.26165861  1
  Bi2+  Bi85  1  0.52173659  0.53689416  0.79747897  1
  Bi2+  Bi86  1  0.51078357  0.86885130  0.29259444  1
  Bi2+  Bi87  1  0.51638486  0.89721280  0.80464355  1
  Bi2+  Bi88  1  0.70734814  0.17155098  0.27352612  1
  Bi2+  Bi89  1  0.76212181  0.04065018  0.77180981  1
  Bi2+  Bi90  1  0.75575360  0.36413751  0.29124862  1
  Bi2+  Bi91  1  0.74038875  0.34092898  0.79413567  1
  Bi2+  Bi92  1  0.69665431  0.62123881  0.29446368  1
  Bi2+  Bi93  1  0.73550617  0.61028196  0.78919381  1
  Bi2+  Bi94  1  0.75943643  0.88892882  0.28653955  1
  Bi2+  Bi95  1  0.69713887  0.84024622  0.80259982  1
  Bi2+  Bi96  1  0.16752316  -0.01946922  0.23233741  1
  Bi2+  Bi97  1  0.12973737  -0.00218983  0.70760276  1
  Bi2+  Bi98  1  0.05157981  0.21411683  0.18981937  1
  Bi2+  Bi99  1  0.15395058  0.19230339  0.68661834  1
  Bi2+  Bi100  1  0.12615272  0.49229372  0.20385094  1
  Bi2+  Bi101  1  0.11952277  0.48761222  0.69045462  1
  Bi2+  Bi102  1  0.17990691  0.69056554  0.23408002  1
  Bi2+  Bi103  1  0.13072242  0.77836434  0.71336737  1
  Bi2+  Bi104  1  0.36462189  -0.01130322  0.23800800  1
  Bi2+  Bi105  1  0.39433254  -0.02873731  0.70864414  1
  Bi2+  Bi106  1  0.33371492  0.24912319  0.19619072  1
  Bi2+  Bi107  1  0.35545833  0.17685274  0.70470744  1
  Bi2+  Bi108  1  0.38136118  0.44193666  0.20315154  1
  Bi2+  Bi109  1  0.35915483  0.43722089  0.76783387  1
  Bi2+  Bi110  1  0.37297174  0.74607618  0.18861989  1
  Bi2+  Bi111  1  0.42293131  0.76710756  0.72417390  1
  Bi2+  Bi112  1  0.59432000  0.02149430  0.20540551  1
  Bi2+  Bi113  1  0.65013969  0.00985150  0.68241362  1
  Bi2+  Bi114  1  0.53533777  0.26145462  0.20702935  1
  Bi2+  Bi115  1  0.53996945  0.24707314  0.71194857  1
  Bi2+  Bi116  1  0.66396547  0.47791248  0.21507820  1
  Bi2+  Bi117  1  0.59165902  0.44675476  0.69474203  1
  Bi2+  Bi118  1  0.57911446  0.73899779  0.22151734  1
  Bi2+  Bi119  1  0.59023947  0.64509852  0.70695778  1
  Bi2+  Bi120  1  0.86714625  0.01391615  0.20492206  1
  Bi2+  Bi121  1  0.89132193  -0.04130076  0.69680663  1
  Bi2+  Bi122  1  0.82802207  0.24255252  0.19401836  1
  Bi2+  Bi123  1  0.89665406  0.15137358  0.71971533  1
  Bi2+  Bi124  1  0.87753277  0.50356236  0.21549708  1
  Bi2+  Bi125  1  0.82910450  0.51104459  0.70445318  1
  Bi2+  Bi126  1  0.89809727  0.72768481  0.19810327  1
  Bi2+  Bi127  1  0.86147322  0.76219683  0.75297675  1
  S2-  S128  1  -0.01034227  0.03104098  0.14381260  1
  S2-  S129  1  -0.00363784  0.20412180  0.63884843  1
  S2-  S130  1  0.10392411  0.36983050  0.14077448  1
  S2-  S131  1  -0.04269081  0.41272609  0.67806019  1
  S2-  S132  1  -0.00052080  0.59537175  0.15623857  1
  S2-  S133  1  0.09342458  0.64421966  0.65068392  1
  S2-  S134  1  0.01247749  0.82625061  0.17350016  1
  S2-  S135  1  0.03137843  0.88266559  0.64834086  1
  S2-  S136  1  0.20246361  0.15497639  0.15035826  1
  S2-  S137  1  0.26454670  0.00886623  0.63655035  1
  S2-  S138  1  0.25906392  0.51929086  0.14040312  1
  S2-  S139  1  0.17903613  0.34917216  0.63943585  1
  S2-  S140  1  0.21966364  0.75251012  0.14236403  1
  S2-  S141  1  0.27380552  0.54365953  0.69798675  1
  S2-  S142  1  0.35517651  0.90405448  0.14449194  1
  S2-  S143  1  0.26610198  0.78632876  0.65550769  1
  S2-  S144  1  0.49383465  0.07800899  0.13936353  1
  S2-  S145  1  0.51485792  0.10810575  0.64553527  1
  S2-  S146  1  0.59587917  0.38608884  0.13846902  1
  S2-  S147  1  0.45048211  0.37006638  0.65671745  1
  S2-  S148  1  0.50799774  0.62365649  0.15862076  1
  S2-  S149  1  0.43377260  0.63766170  0.65495385  1
  S2-  S150  1  0.59476928  0.88048291  0.15368823  1
  S2-  S151  1  0.51627151  0.86514842  0.66420253  1
  S2-  S152  1  0.72998653  0.05260217  0.14359402  1
  S2-  S153  1  0.75766466  0.13352412  0.65011105  1
  S2-  S154  1  0.86601297  0.39520557  0.14239924  1
  S2-  S155  1  0.74545025  0.37424227  0.66435371  1
  S2-  S156  1  0.76130284  0.61626355  0.16686388  1
  S2-  S157  1  0.74825565  0.63889082  0.65370846  1
  S2-  S158  1  0.79851282  0.85546661  0.17962225  1
  S2-  S159  1  0.74710991  0.89107404  0.64805524  1
  S2-  S160  1  0.12297740  0.00841893  0.33639450  1
  S2-  S161  1  0.12368514  -0.11604147  0.86028529  1
  S2-  S162  1  0.14474387  0.25982354  0.33345572  1
  S2-  S163  1  0.09407442  0.29027882  0.83886443  1
  S2-  S164  1  0.04336170  0.49392955  0.35761005  1
  S2-  S165  1  0.10276847  0.49299516  0.78504317  1
  S2-  S166  1  0.10101159  0.76821235  0.34829005  1
  S2-  S167  1  0.12089209  0.66894887  0.85256720  1
  S2-  S168  1  0.48140084  -0.00506818  0.35486957  1
  S2-  S169  1  0.36841747  -0.11410996  0.86236247  1
  S2-  S170  1  0.39353382  0.32244320  0.34493638  1
  S2-  S171  1  0.38174644  0.27066708  0.84842250  1
  S2-  S172  1  0.37105224  0.56759162  0.35301475  1
  S2-  S173  1  0.26559565  0.48221967  0.85409769  1
  S2-  S174  1  0.39622817  0.78535179  0.34634454  1
  S2-  S175  1  0.37201760  0.65659764  0.85839504  1
  S2-  S176  1  0.68821234  0.01608539  0.32637093  1
  S2-  S177  1  0.73158903  -0.01479430  0.86636351  1
  S2-  S178  1  0.63332291  0.26599776  0.34500831  1
  S2-  S179  1  0.65791067  0.22534594  0.84174636  1
  S2-  S180  1  0.61411857  0.51979813  0.35098693  1
  S2-  S181  1  0.73861284  0.48403255  0.85715110  1
  S2-  S182  1  0.66686876  0.77593834  0.34817320  1
  S2-  S183  1  0.63241099  0.70348130  0.85671038  1
  S2-  S184  1  0.89363671  -0.02721762  0.33496634  1
  S2-  S185  1  0.97101963  0.03379162  0.85930862  1
  S2-  S186  1  0.88392341  0.34539789  0.35871647  1
  S2-  S187  1  0.86898344  0.27294547  0.83818529  1
  S2-  S188  1  0.85204753  0.59701045  0.34439065  1
  S2-  S189  1  0.95487625  0.50494202  0.85239270  1
  S2-  S190  1  0.89466163  0.77798116  0.30283113  1
  S2-  S191  1  0.89702031  0.76793434  0.85913214  1
  S2-  S192  1  0.00167671  0.12599901  0.44356720  1
  S2-  S193  1  -0.01209355  0.14582015  0.95793474  1
  S2-  S194  1  0.00738031  0.36923920  0.46377842  1
  S2-  S195  1  -0.01005870  0.39248617  0.95609026  1
  S2-  S196  1  -0.00147071  0.63172325  0.45628837  1
  S2-  S197  1  -0.01188725  0.64168178  0.95680713  1
  S2-  S198  1  -0.00155559  0.87006783  0.44703577  1
  S2-  S199  1  -0.01523395  0.89377028  0.96639985  1
  S2-  S200  1  0.25631729  0.12229713  0.44848395  1
  S2-  S201  1  0.23873760  0.14287342  0.94707135  1
  S2-  S202  1  0.25342526  0.37687388  0.44996085  1
  S2-  S203  1  0.23829122  0.39343418  0.96027040  1
  S2-  S204  1  0.25081570  0.62743127  0.45418498  1
  S2-  S205  1  0.23500913  0.64112533  0.95753235  1
  S2-  S206  1  0.25373200  0.87221794  0.45295602  1
  S2-  S207  1  0.23761818  0.89186420  0.96213143  1
  S2-  S208  1  0.50676412  0.12919795  0.44617614  1
  S2-  S209  1  0.48917728  0.13993571  0.94508828  1
  S2-  S210  1  0.50656638  0.37852972  0.45616956  1
  S2-  S211  1  0.48850361  0.39843682  0.95267433  1
  S2-  S212  1  0.50706661  0.62349591  0.45782041  1
  S2-  S213  1  0.49113968  0.64486758  0.95537699  1
  S2-  S214  1  0.50581241  0.86837424  0.45616218  1
  S2-  S215  1  0.49280978  0.89582916  0.96089510  1
  S2-  S216  1  0.75534941  0.12705318  0.44443352  1
  S2-  S217  1  0.73626380  0.14342148  0.95378994  1
  S2-  S218  1  0.75554629  0.37807275  0.45801177  1
  S2-  S219  1  0.73375072  0.38882465  0.96174667  1
  S2-  S220  1  0.75914210  0.62314558  0.45342302  1
  S2-  S221  1  0.73910499  0.64640076  0.96131607  1
  S2-  S222  1  0.76021636  0.86990066  0.44642881  1
  S2-  S223  1  0.73723615  0.88985851  0.97063751  1
  S2-  S224  1  0.11719209  0.01491384  0.04365949  1
  S2-  S225  1  0.12643414  0.00058512  0.54117679  1
  S2-  S226  1  0.11436284  0.26511342  0.04233243  1
  S2-  S227  1  0.13556262  0.24337617  0.53794987  1
  S2-  S228  1  0.10993728  0.51665670  0.04336718  1
  S2-  S229  1  0.13597010  0.50071133  0.55111045  1
  S2-  S230  1  0.10609841  0.76851076  0.04487718  1
  S2-  S231  1  0.13097268  0.75467172  0.54662369  1
  S2-  S232  1  0.35996985  0.02180880  0.03814135  1
  S2-  S233  1  0.38515520  0.00140346  0.53826702  1
  S2-  S234  1  0.36491655  0.27164561  0.05173178  1
  S2-  S235  1  0.38085153  0.24868780  0.54430241  1
  S2-  S236  1  0.36818133  0.51311075  0.03933835  1
  S2-  S237  1  0.37669364  0.50158534  0.55081612  1
  S2-  S238  1  0.36380049  0.76579805  0.04336758  1
  S2-  S239  1  0.37999593  0.75072906  0.54868516  1
  S2-  S240  1  0.61272159  0.02128164  0.03886236  1
  S2-  S241  1  0.63112034  -0.00019847  0.53431401  1
  S2-  S242  1  0.61004138  0.26186248  0.04221002  1
  S2-  S243  1  0.62916557  0.25181078  0.54931020  1
  S2-  S244  1  0.61236868  0.52002962  0.04103707  1
  S2-  S245  1  0.63183863  0.49986678  0.55277960  1
  S2-  S246  1  0.61190066  0.76796466  0.05345426  1
  S2-  S247  1  0.63449619  0.75068688  0.54917026  1
  S2-  S248  1  0.86172381  0.01706090  0.04362105  1
  S2-  S249  1  0.88077250  -0.00047860  0.54004897  1
  S2-  S250  1  0.86321512  0.26355475  0.04612795  1
  S2-  S251  1  0.87712236  0.24973149  0.54346566  1
  S2-  S252  1  0.85995866  0.52069824  0.04511882  1
  S2-  S253  1  0.88693425  0.49590390  0.55168700  1
  S2-  S254  1  0.86144232  0.77047323  0.06079153  1
  S2-  S255  1  0.88285413  0.75404870  0.55547160  1
