# generated using pymatgen
data_La12Ce14Pr13Nd13Sm12(BiS2)64
_symmetry_space_group_name_H-M   'P 1'
_cell_length_a   16.14540371
_cell_length_b   16.10559546
_cell_length_c   27.31736631
_cell_angle_alpha   90.02071392
_cell_angle_beta   89.97628380
_cell_angle_gamma   89.95453217
_symmetry_Int_Tables_number   1
_chemical_formula_structural   La12Ce14Pr13Nd13Sm12(BiS2)64
_chemical_formula_sum   'La12 Ce14 Pr13 Nd13 Sm12 Bi64 S128'
_cell_volume   7103.36807623
_cell_formula_units_Z   1
loop_
 _symmetry_equiv_pos_site_id
 _symmetry_equiv_pos_as_xyz
  1  'x, y, z'
loop_
 _atom_type_symbol
 _atom_type_oxidation_number
  La3+  3.0
  Ce3+  3.0
  Pr3+  3.0
  Nd3+  3.0
  Sm3+  3.0
  Bi2+  2.0
  S2-  -2.0
loop_
 _atom_site_type_symbol
 _atom_site_label
 _atom_site_symmetry_multiplicity
 _atom_site_fract_x
 _atom_site_fract_y
 _atom_site_fract_z
 _atom_site_occupancy
  La3+  La0  1  0.40456494  -0.00976115  0.92271170  1
  La3+  La1  1  0.63232059  0.76095441  0.42348229  1
  La3+  La2  1  0.49561564  0.38592479  0.56830824  1
  La3+  La3  1  0.27781983  0.11592374  0.06229261  1
  La3+  La4  1  0.74720243  0.63809025  0.56525382  1
  La3+  La5  1  0.40224631  0.24449821  0.92239622  1
  La3+  La6  1  0.27741054  0.37014637  0.06942999  1
  La3+  La7  1  0.23280863  0.37349107  0.61292022  1
  La3+  La8  1  0.75212329  0.89501295  0.59425966  1
  La3+  La9  1  0.24954630  0.63529629  0.55952724  1
  La3+  La10  1  0.36754300  0.76357508  0.41546706  1
  La3+  La11  1  0.77258308  0.12499874  0.10888669  1
  Ce3+  Ce12  1  0.65604060  0.49372657  0.93610908  1
  Ce3+  Ce13  1  0.14544722  0.49109864  0.94356889  1
  Ce3+  Ce14  1  0.87442947  0.75886603  0.43917045  1
  Ce3+  Ce15  1  0.52289819  0.11196122  0.06429372  1
  Ce3+  Ce16  1  0.89590221  0.24215418  0.94985894  1
  Ce3+  Ce17  1  0.24740860  0.13249402  0.56094130  1
  Ce3+  Ce18  1  0.39847454  0.49555283  0.92810827  1
  Ce3+  Ce19  1  0.24840473  0.88172053  0.56690421  1
  Ce3+  Ce20  1  0.37366783  0.51002488  0.43792746  1
  Ce3+  Ce21  1  0.02232915  0.11968082  0.06791602  1
  Ce3+  Ce22  1  -0.00135293  0.63331080  0.56179924  1
  Ce3+  Ce23  1  0.62216173  0.26175937  0.43968362  1
  Ce3+  Ce24  1  0.77577234  0.61766453  0.05598103  1
  Ce3+  Ce25  1  0.27401464  0.62184325  0.05138702  1
  Pr3+  Pr26  1  0.49618706  0.13217866  0.55540311  1
  Pr3+  Pr27  1  0.74493098  0.38617110  0.57591015  1
  Pr3+  Pr28  1  0.14635795  0.24397524  0.94086845  1
  Pr3+  Pr29  1  0.12346205  0.01725522  0.43192430  1
  Pr3+  Pr30  1  0.89482123  0.75204844  0.92463597  1
  Pr3+  Pr31  1  0.12135844  0.75902200  0.43698123  1
  Pr3+  Pr32  1  0.51998519  0.61950670  0.06263259  1
  Pr3+  Pr33  1  0.77296039  0.86767952  0.06951736  1
  Pr3+  Pr34  1  0.87021462  0.26706399  0.42867998  1
  Pr3+  Pr35  1  -0.00136564  0.13756158  0.55835382  1
  Pr3+  Pr36  1  0.13213537  0.26154630  0.42534572  1
  Pr3+  Pr37  1  0.87232976  0.01392260  0.43209552  1
  Pr3+  Pr38  1  0.50206555  0.88201194  0.55839810  1
  Nd3+  Nd39  1  0.02758181  0.36946460  0.07094967  1
  Nd3+  Nd40  1  0.12237217  0.50553769  0.43228973  1
  Nd3+  Nd41  1  0.62370447  0.50785931  0.43995531  1
  Nd3+  Nd42  1  0.64635718  0.24383746  0.94088310  1
  Nd3+  Nd43  1  0.89493795  -0.00499191  0.94380028  1
  Nd3+  Nd44  1  0.14796925  -0.00623514  0.94736485  1
  Nd3+  Nd45  1  0.62389227  0.00884476  0.43652612  1
  Nd3+  Nd46  1  0.27588212  0.86709452  0.05636038  1
  Nd3+  Nd47  1  0.52319921  0.36653880  0.06085053  1
  Nd3+  Nd48  1  0.39883311  0.73876329  0.92576228  1
  Nd3+  Nd49  1  0.90533229  0.49001298  0.92953282  1
  Nd3+  Nd50  1  0.52530300  0.86487898  0.07359774  1
  Nd3+  Nd51  1  0.77417580  0.36905827  0.06941430  1
  Sm3+  Sm52  1  0.74959496  0.13581549  0.55427903  1
  Sm3+  Sm53  1  0.37076757  0.26306497  0.44524583  1
  Sm3+  Sm54  1  0.14528697  0.74446086  0.94366114  1
  Sm3+  Sm55  1  0.64709095  0.74337070  0.94289822  1
  Sm3+  Sm56  1  0.36847500  0.00399875  0.43472568  1
  Sm3+  Sm57  1  -0.00517375  0.88683807  0.55492487  1
  Sm3+  Sm58  1  0.00139465  0.38324349  0.55772572  1
  Sm3+  Sm59  1  0.50019809  0.64065113  0.54844156  1
  Sm3+  Sm60  1  0.01467151  0.86853604  0.06347593  1
  Sm3+  Sm61  1  0.01880564  0.62025621  0.05420561  1
  Sm3+  Sm62  1  0.87233459  0.50617981  0.44440721  1
  Sm3+  Sm63  1  0.64532688  -0.00783274  0.94853364  1
  Bi2+  Bi64  1  0.03515687  0.10402105  0.25474989  1
  Bi2+  Bi65  1  -0.05093291  0.13533079  0.81440205  1
  Bi2+  Bi66  1  -0.03174545  0.45940586  0.29503924  1
  Bi2+  Bi67  1  -0.01637206  0.40041790  0.78357037  1
  Bi2+  Bi68  1  -0.00241208  0.64224338  0.34798659  1
  Bi2+  Bi69  1  0.04119843  0.74478708  0.78440678  1
  Bi2+  Bi70  1  0.01852892  0.83202710  0.29929891  1
  Bi2+  Bi71  1  0.02085775  0.95656054  0.78402654  1
  Bi2+  Bi72  1  0.22517918  0.13790652  0.29070480  1
  Bi2+  Bi73  1  0.23014988  0.10390182  0.78853995  1
  Bi2+  Bi74  1  0.24845590  0.38637677  0.30357398  1
  Bi2+  Bi75  1  0.19327967  0.39711953  0.81793266  1
  Bi2+  Bi76  1  0.17780682  0.62218755  0.30285068  1
  Bi2+  Bi77  1  0.19480895  0.61531529  0.78248700  1
  Bi2+  Bi78  1  0.26706693  0.89160899  0.28876103  1
  Bi2+  Bi79  1  0.28761663  0.89371762  0.76163153  1
  Bi2+  Bi80  1  0.42507572  0.11275978  0.26811983  1
  Bi2+  Bi81  1  0.51456791  0.12897122  0.79557759  1
  Bi2+  Bi82  1  0.45308618  0.38335548  0.24018911  1
  Bi2+  Bi83  1  0.47122001  0.46515999  0.79656177  1
  Bi2+  Bi84  1  0.49925153  0.57454876  0.29276615  1
  Bi2+  Bi85  1  0.44843374  0.67095717  0.74714819  1
  Bi2+  Bi86  1  0.48154539  0.84184547  0.26891568  1
  Bi2+  Bi87  1  0.52360613  0.85553256  0.79738561  1
  Bi2+  Bi88  1  0.74952136  0.11219863  0.30470062  1
  Bi2+  Bi89  1  0.75718630  0.14272171  0.79718304  1
  Bi2+  Bi90  1  0.71162331  0.38252799  0.29781940  1
  Bi2+  Bi91  1  0.72510121  0.33729033  0.77490119  1
  Bi2+  Bi92  1  0.82670151  0.61483311  0.28976176  1
  Bi2+  Bi93  1  0.75081262  0.61540061  0.80991988  1
  Bi2+  Bi94  1  0.72257374  0.87470049  0.29983731  1
  Bi2+  Bi95  1  0.77914760  0.85750446  0.79175495  1
  Bi2+  Bi96  1  0.11263525  -0.06993941  0.21262472  1
  Bi2+  Bi97  1  0.21690153  0.02756936  0.67945261  1
  Bi2+  Bi98  1  0.07150446  0.27314861  0.20214769  1
  Bi2+  Bi99  1  0.02432596  0.23533455  0.72496164  1
  Bi2+  Bi100  1  0.08078522  0.53154451  0.21178683  1
  Bi2+  Bi101  1  0.08230864  0.53268511  0.70372644  1
  Bi2+  Bi102  1  0.10371612  0.73025388  0.20805549  1
  Bi2+  Bi103  1  0.12933310  0.85484688  0.69565646  1
  Bi2+  Bi104  1  0.32192076  0.00855623  0.18990498  1
  Bi2+  Bi105  1  0.41205257  0.01607887  0.70103594  1
  Bi2+  Bi106  1  0.33386645  0.22607397  0.19070007  1
  Bi2+  Bi107  1  0.37480472  0.25364998  0.71049574  1
  Bi2+  Bi108  1  0.28140273  0.51509885  0.22647636  1
  Bi2+  Bi109  1  0.33684939  0.51495191  0.72192002  1
  Bi2+  Bi110  1  0.36910883  0.72305232  0.20979562  1
  Bi2+  Bi111  1  0.40017957  0.82588216  0.67434732  1
  Bi2+  Bi112  1  0.59077088  0.00085878  0.20664446  1
  Bi2+  Bi113  1  0.65131413  -0.00940570  0.76027128  1
  Bi2+  Bi114  1  0.57600345  0.23253005  0.23931020  1
  Bi2+  Bi115  1  0.68737351  0.20473557  0.69080386  1
  Bi2+  Bi116  1  0.62499194  0.41247676  0.18461174  1
  Bi2+  Bi117  1  0.63080938  0.47730648  0.71457327  1
  Bi2+  Bi118  1  0.63118794  0.73878588  0.21054896  1
  Bi2+  Bi119  1  0.60987560  0.74538717  0.70069865  1
  Bi2+  Bi120  1  0.90468042  -0.02881919  0.22003431  1
  Bi2+  Bi121  1  0.88383413  0.02496330  0.71110578  1
  Bi2+  Bi122  1  0.85927099  0.29695007  0.23726592  1
  Bi2+  Bi123  1  0.85450517  0.30658563  0.68549789  1
  Bi2+  Bi124  1  0.79206387  0.50406091  0.19906453  1
  Bi2+  Bi125  1  0.84508949  0.49553788  0.72587386  1
  Bi2+  Bi126  1  0.89826208  0.75125043  0.22088598  1
  Bi2+  Bi127  1  0.88464533  0.76664630  0.71389447  1
  S2-  S128  1  -0.05226248  0.12232075  0.15568066  1
  S2-  S129  1  0.00391289  0.11101376  0.65871949  1
  S2-  S130  1  -0.05274013  0.37145923  0.16079013  1
  S2-  S131  1  0.06641906  0.38428390  0.64918635  1
  S2-  S132  1  -0.01584399  0.62828823  0.15064958  1
  S2-  S133  1  -0.01116307  0.65136584  0.65929846  1
  S2-  S134  1  -0.09720139  0.85999136  0.13998832  1
  S2-  S135  1  -0.08693211  0.89194015  0.64349496  1
  S2-  S136  1  0.20266727  0.13486930  0.15402303  1
  S2-  S137  1  0.24599074  0.20562291  0.64973777  1
  S2-  S138  1  0.15807772  0.37002621  0.14664511  1
  S2-  S139  1  0.24050092  0.35732219  0.73041134  1
  S2-  S140  1  0.32749410  0.59711105  0.14238366  1
  S2-  S141  1  0.23060860  0.54241270  0.64559627  1
  S2-  S142  1  0.29700926  0.84151998  0.15500763  1
  S2-  S143  1  0.25059169  0.76046517  0.63863484  1
  S2-  S144  1  0.60198561  0.14521654  0.15067036  1
  S2-  S145  1  0.49002801  0.15084583  0.65661859  1
  S2-  S146  1  0.40818071  0.36495256  0.13892559  1
  S2-  S147  1  0.39795569  0.38373466  0.65332941  1
  S2-  S148  1  0.50602947  0.72777347  0.14366037  1
  S2-  S149  1  0.51023677  0.62798459  0.64807835  1
  S2-  S150  1  0.47308741  0.99081833  0.13881124  1
  S2-  S151  1  0.59671058  0.88448807  0.64521510  1
  S2-  S152  1  0.76278778  0.04928163  0.20425986  1
  S2-  S153  1  0.75205438  0.05965401  0.64279814  1
  S2-  S154  1  0.76217011  0.28025407  0.15697247  1
  S2-  S155  1  0.61435535  0.36081003  0.64700213  1
  S2-  S156  1  0.73488444  0.64801954  0.14972261  1
  S2-  S157  1  0.74998917  0.52380558  0.64485385  1
  S2-  S158  1  0.65851671  0.87010161  0.15047296  1
  S2-  S159  1  0.75538823  0.74218198  0.64929997  1
  S2-  S160  1  0.24722866  0.01116513  0.35930703  1
  S2-  S161  1  0.15206778  -0.00915520  0.84769271  1
  S2-  S162  1  0.09110469  0.13850230  0.35319354  1
  S2-  S163  1  0.16108564  0.23153402  0.83983421  1
  S2-  S164  1  0.10602732  0.38928291  0.35284295  1
  S2-  S165  1  0.04801676  0.48703411  0.86196735  1
  S2-  S166  1  0.21695895  0.77654038  0.35291620  1
  S2-  S167  1  0.17648699  0.74611114  0.84697976  1
  S2-  S168  1  0.40678377  -0.09924954  0.35233350  1
  S2-  S169  1  0.37376036  0.11516884  0.84899108  1
  S2-  S170  1  0.29100415  0.25240421  0.35768535  1
  S2-  S171  1  0.35709729  0.37464881  0.85673307  1
  S2-  S172  1  0.40319888  0.46106930  0.34402262  1
  S2-  S173  1  0.40364470  0.61320354  0.85274140  1
  S2-  S174  1  0.38875885  0.67414375  0.32196622  1
  S2-  S175  1  0.38657395  0.85902924  0.85187167  1
  S2-  S176  1  0.62569648  -0.00844263  0.33619907  1
  S2-  S177  1  0.56475358  -0.00773094  0.85996613  1
  S2-  S178  1  0.63482205  0.23663648  0.34248214  1
  S2-  S179  1  0.55121247  0.24900704  0.85513883  1
  S2-  S180  1  0.64202807  0.51587323  0.34059668  1
  S2-  S181  1  0.60080892  0.52395894  0.84258492  1
  S2-  S182  1  0.58812969  0.74509214  0.32097724  1
  S2-  S183  1  0.65488945  0.75606726  0.84364783  1
  S2-  S184  1  0.84780411  -0.02167082  0.33357657  1
  S2-  S185  1  0.89558551  -0.10201272  0.85960432  1
  S2-  S186  1  0.87263695  0.19963127  0.33262136  1
  S2-  S187  1  0.91992759  0.29042581  0.85827406  1
  S2-  S188  1  0.85131532  0.40858223  0.36337585  1
  S2-  S189  1  0.78600319  0.47748900  0.85979975  1
  S2-  S190  1  0.78096423  0.75073471  0.35688827  1
  S2-  S191  1  0.89974606  0.66488353  0.83584523  1
  S2-  S192  1  -0.00639081  0.14154485  0.45371807  1
  S2-  S193  1  0.02170683  0.11631392  0.95855004  1
  S2-  S194  1  -0.00202050  0.38300051  0.45570800  1
  S2-  S195  1  0.02173663  0.36624338  0.96428648  1
  S2-  S196  1  -0.00321948  0.62984044  0.45830865  1
  S2-  S197  1  0.02044533  0.62527591  0.95128470  1
  S2-  S198  1  -0.00154724  0.88867495  0.44868559  1
  S2-  S199  1  0.02346176  0.86910455  0.95912478  1
  S2-  S200  1  0.25233304  0.13451386  0.45826178  1
  S2-  S201  1  0.27037130  0.11805240  0.95506766  1
  S2-  S202  1  0.25140627  0.38894777  0.45252971  1
  S2-  S203  1  0.26790821  0.36907819  0.96167748  1
  S2-  S204  1  0.24610720  0.63140810  0.44922784  1
  S2-  S205  1  0.26637231  0.61950763  0.94836539  1
  S2-  S206  1  0.24465851  0.88588312  0.45996741  1
  S2-  S207  1  0.26824895  0.86621655  0.95234457  1
  S2-  S208  1  0.49230497  0.13314587  0.44609062  1
  S2-  S209  1  0.52510071  0.11853189  0.95888430  1
  S2-  S210  1  0.49788381  0.38270236  0.45514554  1
  S2-  S211  1  0.52590300  0.37443077  0.95613018  1
  S2-  S212  1  0.50078522  0.63731025  0.44314852  1
  S2-  S213  1  0.52759055  0.62011041  0.95610272  1
  S2-  S214  1  0.50318991  0.88492057  0.45195574  1
  S2-  S215  1  0.52684152  0.86331433  0.96028510  1
  S2-  S216  1  0.74755671  0.13753456  0.44964336  1
  S2-  S217  1  0.76894847  0.11610075  0.94321360  1
  S2-  S218  1  0.74389322  0.38416268  0.46435136  1
  S2-  S219  1  0.77333407  0.36559447  0.96227585  1
  S2-  S220  1  0.75107247  0.62771170  0.45506439  1
  S2-  S221  1  0.77659726  0.62322190  0.95191578  1
  S2-  S222  1  0.75028800  0.88944425  0.45002493  1
  S2-  S223  1  0.76768613  0.86992972  0.95904326  1
  S2-  S224  1  0.14409742  -0.01213169  0.05369109  1
  S2-  S225  1  0.11981705  0.00789917  0.54387533  1
  S2-  S226  1  0.14704695  0.24082133  0.04686009  1
  S2-  S227  1  0.12514144  0.26086378  0.54402550  1
  S2-  S228  1  0.14546221  0.50124703  0.04833463  1
  S2-  S229  1  0.11876781  0.50868704  0.54025054  1
  S2-  S230  1  0.14185554  0.74634257  0.04988608  1
  S2-  S231  1  0.11570140  0.76183174  0.54323626  1
  S2-  S232  1  0.39531320  -0.01151466  0.03398740  1
  S2-  S233  1  0.37275303  0.00634711  0.54402107  1
  S2-  S234  1  0.40152107  0.23949824  0.04010656  1
  S2-  S235  1  0.37101844  0.25844411  0.54703845  1
  S2-  S236  1  0.39946393  0.49662737  0.03704734  1
  S2-  S237  1  0.37971289  0.51670631  0.54334287  1
  S2-  S238  1  0.39718966  0.74405957  0.03606835  1
  S2-  S239  1  0.37672530  0.76087894  0.53356138  1
  S2-  S240  1  0.65676160  0.00080613  0.05084624  1
  S2-  S241  1  0.62642436  0.01263901  0.54172826  1
  S2-  S242  1  0.65021884  0.24548352  0.04589858  1
  S2-  S243  1  0.62309376  0.25424474  0.54363786  1
  S2-  S244  1  0.64792437  0.49423229  0.04719421  1
  S2-  S245  1  0.61960725  0.51201919  0.54456649  1
  S2-  S246  1  0.64965970  0.74132271  0.04485092  1
  S2-  S247  1  0.62610819  0.76061811  0.53644036  1
  S2-  S248  1  0.89346732  -0.00045353  0.04847996  1
  S2-  S249  1  0.87351296  0.01217896  0.53938197  1
  S2-  S250  1  0.89536393  0.24221049  0.05341196  1
  S2-  S251  1  0.87144071  0.26166221  0.54547486  1
  S2-  S252  1  0.90001024  0.49317828  0.04443099  1
  S2-  S253  1  0.87739013  0.50532975  0.54814714  1
  S2-  S254  1  0.89756851  0.74362866  0.03730853  1
  S2-  S255  1  0.87608389  0.76155445  0.54306971  1
