# generated using pymatgen
data_La12Ce14Pr13Nd13Sm12(BiS2)64
_symmetry_space_group_name_H-M   'P 1'
_cell_length_a   16.15335847
_cell_length_b   16.16448668
_cell_length_c   27.14449653
_cell_angle_alpha   90.00471083
_cell_angle_beta   89.72607572
_cell_angle_gamma   90.05966063
_symmetry_Int_Tables_number   1
_chemical_formula_structural   La12Ce14Pr13Nd13Sm12(BiS2)64
_chemical_formula_sum   'La12 Ce14 Pr13 Nd13 Sm12 Bi64 S128'
_cell_volume   7087.63492676
_cell_formula_units_Z   1
loop_
 _symmetry_equiv_pos_site_id
 _symmetry_equiv_pos_as_xyz
  1  'x, y, z'
loop_
 _atom_type_symbol
 _atom_type_oxidation_number
  La3+  3.0
  Ce3+  3.0
  Pr3+  3.0
  Nd3+  3.0
  Sm3+  3.0
  Bi2+  2.0
  S2-  -2.0
loop_
 _atom_site_type_symbol
 _atom_site_label
 _atom_site_symmetry_multiplicity
 _atom_site_fract_x
 _atom_site_fract_y
 _atom_site_fract_z
 _atom_site_occupancy
  La3+  La0  1  0.88947160  0.74078196  0.92739125  1
  La3+  La1  1  0.76653967  0.61441069  0.07150917  1
  La3+  La2  1  0.38320241  0.00511716  0.89884415  1
  La3+  La3  1  0.38015291  0.48384499  0.42309150  1
  La3+  La4  1  0.88684361  -0.00780807  0.93318187  1
  La3+  La5  1  0.74465136  0.35996587  0.58079733  1
  La3+  La6  1  0.37228109  -0.02206231  0.42068729  1
  La3+  La7  1  0.49571373  0.11349913  0.09184901  1
  La3+  La8  1  0.63602303  0.49072408  0.93452924  1
  La3+  La9  1  0.88867183  0.48476588  0.90900888  1
  La3+  La10  1  0.64542424  0.23648855  0.42237955  1
  La3+  La11  1  0.64193389  -0.01728827  0.41740058  1
  Ce3+  Ce12  1  0.38111466  0.49253192  0.93889062  1
  Ce3+  Ce13  1  0.00717343  0.60346428  0.55892847  1
  Ce3+  Ce14  1  0.38339888  0.74831630  0.94321361  1
  Ce3+  Ce15  1  0.38757967  0.24988330  0.94047999  1
  Ce3+  Ce16  1  0.88394826  0.24378518  0.93501796  1
  Ce3+  Ce17  1  0.88096569  -0.01451714  0.44183691  1
  Ce3+  Ce18  1  0.87604486  0.48066185  0.44034696  1
  Ce3+  Ce19  1  0.51148558  0.36125879  0.54552208  1
  Ce3+  Ce20  1  0.50924640  0.60917378  0.55417555  1
  Ce3+  Ce21  1  0.13942768  -0.00590030  0.94284578  1
  Ce3+  Ce22  1  0.00722812  0.61351929  0.05527746  1
  Ce3+  Ce23  1  0.38296177  0.23286679  0.43378838  1
  Ce3+  Ce24  1  0.62983284  0.23885150  0.94985317  1
  Ce3+  Ce25  1  0.51465437  0.86866823  0.07089677  1
  Pr3+  Pr26  1  0.63495435  0.73896717  0.43294796  1
  Pr3+  Pr27  1  0.75760998  0.86845522  0.06453175  1
  Pr3+  Pr28  1  0.00739992  0.10957106  0.56110797  1
  Pr3+  Pr29  1  0.76205447  0.85735821  0.57104013  1
  Pr3+  Pr30  1  0.25923707  0.86811160  0.06241033  1
  Pr3+  Pr31  1  0.25642283  0.61589017  0.06563352  1
  Pr3+  Pr32  1  0.75741783  0.10881719  0.57002991  1
  Pr3+  Pr33  1  0.26526240  0.35406387  0.56807832  1
  Pr3+  Pr34  1  0.25796600  0.86180031  0.56912536  1
  Pr3+  Pr35  1  0.63012058  -0.00685743  0.94709497  1
  Pr3+  Pr36  1  0.76353659  0.11958371  0.06940869  1
  Pr3+  Pr37  1  0.26278293  0.10620738  0.56286557  1
  Pr3+  Pr38  1  0.88482293  0.73332174  0.43949791  1
  Nd3+  Nd39  1  0.62880817  0.49476252  0.41951224  1
  Nd3+  Nd40  1  0.25841447  0.36591732  0.06322230  1
  Nd3+  Nd41  1  0.76051967  0.36680335  0.05902039  1
  Nd3+  Nd42  1  0.50983898  0.61794508  0.05540691  1
  Nd3+  Nd43  1  0.13281885  0.73429891  0.44200568  1
  Nd3+  Nd44  1  0.13817136  0.24124760  0.93855155  1
  Nd3+  Nd45  1  0.51007526  0.37088031  0.06930843  1
  Nd3+  Nd46  1  0.13415612  0.74003425  0.93592282  1
  Nd3+  Nd47  1  0.13260253  0.48095009  0.43577872  1
  Nd3+  Nd48  1  0.51033220  0.10543049  0.54618380  1
  Nd3+  Nd49  1  0.63811220  0.74307521  0.93871833  1
  Nd3+  Nd50  1  0.00465322  0.86599200  0.06451965  1
  Nd3+  Nd51  1  0.13596805  0.48759502  0.92616085  1
  Sm3+  Sm52  1  0.00810016  0.36359294  0.56801488  1
  Sm3+  Sm53  1  0.00679810  0.85529598  0.56315151  1
  Sm3+  Sm54  1  0.38238155  0.73853849  0.45141917  1
  Sm3+  Sm55  1  0.25858344  0.60794200  0.55812461  1
  Sm3+  Sm56  1  0.13037327  -0.01338654  0.44319155  1
  Sm3+  Sm57  1  0.75528382  0.60695405  0.56185098  1
  Sm3+  Sm58  1  0.13311432  0.23599538  0.45080281  1
  Sm3+  Sm59  1  0.88194639  0.23737452  0.45224952  1
  Sm3+  Sm60  1  0.00921803  0.36847265  0.05266441  1
  Sm3+  Sm61  1  0.51161210  0.86172767  0.55997738  1
  Sm3+  Sm62  1  0.25976030  0.11446511  0.05965163  1
  Sm3+  Sm63  1  0.00738160  0.11875509  0.06003565  1
  Bi2+  Bi64  1  0.00195261  0.16160451  0.29424639  1
  Bi2+  Bi65  1  0.03302680  0.11679392  0.81215297  1
  Bi2+  Bi66  1  -0.00164572  0.43638441  0.32917334  1
  Bi2+  Bi67  1  0.04853468  0.37976679  0.77072715  1
  Bi2+  Bi68  1  -0.01298820  0.61132658  0.27997522  1
  Bi2+  Bi69  1  0.08980579  0.64527651  0.79236068  1
  Bi2+  Bi70  1  0.01472870  0.89741670  0.28188851  1
  Bi2+  Bi71  1  -0.00365255  0.92464566  0.79243692  1
  Bi2+  Bi72  1  0.18638040  0.09850341  0.29291735  1
  Bi2+  Bi73  1  0.22575587  0.17194891  0.80575364  1
  Bi2+  Bi74  1  0.16564571  0.37938667  0.28433036  1
  Bi2+  Bi75  1  0.26803650  0.45294006  0.81244387  1
  Bi2+  Bi76  1  0.19751102  0.62335240  0.29718109  1
  Bi2+  Bi77  1  0.26844360  0.63866868  0.84650849  1
  Bi2+  Bi78  1  0.19862628  0.82256171  0.28754128  1
  Bi2+  Bi79  1  0.20306334  0.87594990  0.78248209  1
  Bi2+  Bi80  1  0.48216519  0.16299240  0.29451513  1
  Bi2+  Bi81  1  0.53804465  0.13124621  0.80780667  1
  Bi2+  Bi82  1  0.43661602  0.38967402  0.26890745  1
  Bi2+  Bi83  1  0.51159645  0.37317908  0.78353716  1
  Bi2+  Bi84  1  0.46784542  0.63539392  0.29114583  1
  Bi2+  Bi85  1  0.43393557  0.64298893  0.78110263  1
  Bi2+  Bi86  1  0.47873675  0.86844491  0.29527053  1
  Bi2+  Bi87  1  0.48377167  0.85555919  0.78166860  1
  Bi2+  Bi88  1  0.73770529  0.13758573  0.29608561  1
  Bi2+  Bi89  1  0.74796871  0.13145614  0.74100923  1
  Bi2+  Bi90  1  0.83145499  0.36788738  0.28812281  1
  Bi2+  Bi91  1  0.74278665  0.38348451  0.80136988  1
  Bi2+  Bi92  1  0.75395171  0.61915399  0.29342512  1
  Bi2+  Bi93  1  0.70726204  0.63671434  0.79324320  1
  Bi2+  Bi94  1  0.75832028  0.87142532  0.28626540  1
  Bi2+  Bi95  1  0.72067300  0.87776306  0.80095679  1
  Bi2+  Bi96  1  0.06912401  0.04851766  0.20334672  1
  Bi2+  Bi97  1  0.12348442  0.01590437  0.71323876  1
  Bi2+  Bi98  1  0.09012508  0.26073016  0.19712144  1
  Bi2+  Bi99  1  0.12326909  0.22051260  0.71310227  1
  Bi2+  Bi100  1  0.12293336  0.61225401  0.18897589  1
  Bi2+  Bi101  1  0.16685618  0.51716661  0.71725640  1
  Bi2+  Bi102  1  0.09794728  0.80955865  0.18460465  1
  Bi2+  Bi103  1  0.13291029  0.82357882  0.67630984  1
  Bi2+  Bi104  1  0.34032406  0.00310398  0.21586271  1
  Bi2+  Bi105  1  0.38194348  0.06332073  0.69419151  1
  Bi2+  Bi106  1  0.27800745  0.24589812  0.22551292  1
  Bi2+  Bi107  1  0.33797571  0.30425859  0.72565612  1
  Bi2+  Bi108  1  0.31489116  0.51826766  0.22259804  1
  Bi2+  Bi109  1  0.40336109  0.48705025  0.71530567  1
  Bi2+  Bi110  1  0.37327104  0.76764351  0.22142894  1
  Bi2+  Bi111  1  0.30652785  0.75154223  0.71658491  1
  Bi2+  Bi112  1  0.60586288  -0.00116160  0.20786018  1
  Bi2+  Bi113  1  0.61937829  -0.01178051  0.69239549  1
  Bi2+  Bi114  1  0.64452169  0.26509137  0.20263791  1
  Bi2+  Bi115  1  0.60066954  0.25092368  0.70756852  1
  Bi2+  Bi116  1  0.61709310  0.50916096  0.19950833  1
  Bi2+  Bi117  1  0.65152799  0.50601231  0.69237364  1
  Bi2+  Bi118  1  0.56920271  0.73607797  0.20709569  1
  Bi2+  Bi119  1  0.55207771  0.74851344  0.69824764  1
  Bi2+  Bi120  1  0.87578239  -0.01860465  0.21749114  1
  Bi2+  Bi121  1  0.85862272  -0.01270278  0.70457012  1
  Bi2+  Bi122  1  0.89551637  0.24575301  0.20869455  1
  Bi2+  Bi123  1  0.92989198  0.21897918  0.73583228  1
  Bi2+  Bi124  1  0.88127657  0.49339804  0.20284859  1
  Bi2+  Bi125  1  0.89677354  0.52925382  0.70625528  1
  Bi2+  Bi126  1  0.90829964  0.76548984  0.21829308  1
  Bi2+  Bi127  1  0.96755236  0.76496946  0.72330452  1
  S2-  S128  1  -0.09818136  0.12309878  0.13798210  1
  S2-  S129  1  -0.06005496  0.10293366  0.65407111  1
  S2-  S130  1  -0.00775633  0.38594508  0.15132091  1
  S2-  S131  1  -0.00912378  0.40452365  0.66398552  1
  S2-  S132  1  -0.09079935  0.61394311  0.13735990  1
  S2-  S133  1  0.00212444  0.63280777  0.65574920  1
  S2-  S134  1  -0.11924080  0.86941162  0.13817056  1
  S2-  S135  1  -0.09964914  0.85671654  0.64150616  1
  S2-  S136  1  0.32691000  0.13216905  0.15013711  1
  S2-  S137  1  0.31736431  0.19782640  0.64514969  1
  S2-  S138  1  0.27859229  0.38951574  0.16162867  1
  S2-  S139  1  0.21413803  0.37698569  0.66426167  1
  S2-  S140  1  0.28939392  0.66662691  0.16000494  1
  S2-  S141  1  0.26647199  0.61390526  0.65624818  1
  S2-  S142  1  0.24300859  0.91864507  0.16027845  1
  S2-  S143  1  0.26945662  0.98813987  0.64162549  1
  S2-  S144  1  0.52203154  0.15798376  0.19359991  1
  S2-  S145  1  0.52711108  0.12013019  0.64658190  1
  S2-  S146  1  0.51554731  0.36690144  0.17039393  1
  S2-  S147  1  0.57725731  0.37358763  0.63571459  1
  S2-  S148  1  0.49995143  0.58816856  0.15428674  1
  S2-  S149  1  0.51593145  0.60148304  0.65232806  1
  S2-  S150  1  0.47317285  0.96440831  0.15239415  1
  S2-  S151  1  0.48042017  0.90269819  0.65536485  1
  S2-  S152  1  0.70079190  0.11492886  0.16779406  1
  S2-  S153  1  0.73822263  0.21930782  0.64643832  1
  S2-  S154  1  0.74009061  0.39866857  0.15748649  1
  S2-  S155  1  0.78229146  0.41322651  0.68246818  1
  S2-  S156  1  0.70404494  0.63792749  0.17002009  1
  S2-  S157  1  0.76466125  0.62070475  0.66204791  1
  S2-  S158  1  0.64537763  0.86154310  0.14680370  1
  S2-  S159  1  0.68835833  0.84852309  0.66667049  1
  S2-  S160  1  0.20910970  -0.04075691  0.35800836  1
  S2-  S161  1  0.22088595  -0.00079378  0.85525403  1
  S2-  S162  1  0.13399572  0.23940613  0.35251728  1
  S2-  S163  1  0.15355343  0.32158339  0.84896149  1
  S2-  S164  1  0.24378126  0.48365750  0.35701595  1
  S2-  S165  1  0.03180812  0.50096544  0.84470488  1
  S2-  S166  1  0.07602071  0.72667993  0.34812385  1
  S2-  S167  1  0.02504926  0.75587441  0.85693596  1
  S2-  S168  1  0.39727494  0.01762571  0.32157807  1
  S2-  S169  1  0.42188418  0.01134457  0.78827163  1
  S2-  S170  1  0.37406260  0.28006173  0.33923704  1
  S2-  S171  1  0.38420867  0.16852391  0.85301700  1
  S2-  S172  1  0.49548370  0.47921410  0.34385059  1
  S2-  S173  1  0.40186579  0.38081932  0.86426206  1
  S2-  S174  1  0.38492396  0.75288481  0.35336116  1
  S2-  S175  1  0.39147866  0.84033741  0.86083655  1
  S2-  S176  1  0.60591318  0.05592180  0.32178583  1
  S2-  S177  1  0.61388644  -0.00181678  0.84569501  1
  S2-  S178  1  0.61391829  0.26206904  0.31910678  1
  S2-  S179  1  0.63529395  0.26598010  0.85174677  1
  S2-  S180  1  0.62327892  0.63395956  0.34937615  1
  S2-  S181  1  0.61709857  0.49994705  0.83302552  1
  S2-  S182  1  0.62394548  0.84900209  0.35089764  1
  S2-  S183  1  0.60568049  0.75882927  0.84028230  1
  S2-  S184  1  0.79882954  -0.00675630  0.35607083  1
  S2-  S185  1  0.83907655  -0.03033847  0.83669218  1
  S2-  S186  1  0.80690829  0.23639741  0.36388844  1
  S2-  S187  1  0.87146203  0.33103202  0.84993194  1
  S2-  S188  1  0.76976829  0.48149079  0.35907871  1
  S2-  S189  1  0.82997869  0.53300033  0.81144493  1
  S2-  S190  1  0.81846667  0.74106177  0.34558556  1
  S2-  S191  1  0.80624100  0.74540373  0.83602085  1
  S2-  S192  1  0.00758382  0.11239190  0.45266577  1
  S2-  S193  1  0.01136657  0.11984806  0.95450246  1
  S2-  S194  1  0.00831248  0.35786071  0.46095159  1
  S2-  S195  1  0.01283744  0.36440210  0.94920045  1
  S2-  S196  1  0.00842608  0.60466218  0.45207111  1
  S2-  S197  1  0.01188706  0.61002057  0.95108809  1
  S2-  S198  1  0.00908044  0.86145068  0.45527889  1
  S2-  S199  1  0.01300630  0.87200652  0.95767483  1
  S2-  S200  1  0.25448702  0.11023865  0.45405745  1
  S2-  S201  1  0.26223412  0.12007868  0.95692976  1
  S2-  S202  1  0.25693840  0.35603865  0.45862938  1
  S2-  S203  1  0.25659554  0.36904090  0.95848485  1
  S2-  S204  1  0.25845529  0.61389259  0.45418088  1
  S2-  S205  1  0.25642381  0.61560517  0.95976087  1
  S2-  S206  1  0.25352717  0.85685630  0.46146771  1
  S2-  S207  1  0.25438648  0.86532715  0.95636004  1
  S2-  S208  1  0.50896609  0.10664981  0.43940239  1
  S2-  S209  1  0.50465809  0.11675879  0.95517156  1
  S2-  S210  1  0.51180672  0.35813811  0.44232854  1
  S2-  S211  1  0.51344001  0.37011511  0.96320752  1
  S2-  S212  1  0.50155209  0.61447149  0.45080958  1
  S2-  S213  1  0.50813265  0.61818976  0.94790018  1
  S2-  S214  1  0.50500498  0.86302729  0.45463255  1
  S2-  S215  1  0.51419986  0.86443073  0.96202982  1
  S2-  S216  1  0.76075183  0.10917941  0.46240844  1
  S2-  S217  1  0.76055876  0.11828581  0.95415437  1
  S2-  S218  1  0.75868562  0.35926734  0.46391780  1
  S2-  S219  1  0.75785545  0.36467980  0.95343943  1
  S2-  S220  1  0.75785579  0.61288698  0.45734573  1
  S2-  S221  1  0.76279889  0.61335110  0.94844950  1
  S2-  S222  1  0.76210871  0.85870560  0.46083169  1
  S2-  S223  1  0.75931438  0.86856318  0.95474415  1
  S2-  S224  1  0.13022685  -0.00484447  0.05058151  1
  S2-  S225  1  0.12764313  -0.01778177  0.54746934  1
  S2-  S226  1  0.13333238  0.24076300  0.04828000  1
  S2-  S227  1  0.13152457  0.23604901  0.55619228  1
  S2-  S228  1  0.13407027  0.48955716  0.04526807  1
  S2-  S229  1  0.13639611  0.48215652  0.54701839  1
  S2-  S230  1  0.13102780  0.74206602  0.04555176  1
  S2-  S231  1  0.13220025  0.73170690  0.54843567  1
  S2-  S232  1  0.38000264  -0.00671633  0.04729947  1
  S2-  S233  1  0.38552295  -0.01894292  0.53496964  1
  S2-  S234  1  0.38558578  0.24543407  0.05080237  1
  S2-  S235  1  0.38960963  0.23414070  0.53788536  1
  S2-  S236  1  0.38281284  0.49207861  0.04884177  1
  S2-  S237  1  0.38184807  0.48496892  0.54293925  1
  S2-  S238  1  0.38554030  0.74362539  0.05106328  1
  S2-  S239  1  0.38260674  0.73661507  0.55632731  1
  S2-  S240  1  0.63381203  0.00166786  0.05265519  1
  S2-  S241  1  0.63550944  -0.01824630  0.54634487  1
  S2-  S242  1  0.63093609  0.24114794  0.05732984  1
  S2-  S243  1  0.63059865  0.23157996  0.53529695  1
  S2-  S244  1  0.63587563  0.49346706  0.04574894  1
  S2-  S245  1  0.63322186  0.48973296  0.53521325  1
  S2-  S246  1  0.63832625  0.73592400  0.04559024  1
  S2-  S247  1  0.63340229  0.73559160  0.54649594  1
  S2-  S248  1  0.88568498  -0.00515016  0.04013876  1
  S2-  S249  1  0.88414959  -0.01468827  0.54571299  1
  S2-  S250  1  0.88672799  0.24665440  0.04104323  1
  S2-  S251  1  0.88610417  0.24010939  0.55499493  1
  S2-  S252  1  0.88475600  0.48610640  0.03706560  1
  S2-  S253  1  0.87899375  0.48172835  0.55046515  1
  S2-  S254  1  0.88470933  0.74206623  0.03684514  1
  S2-  S255  1  0.88331049  0.72790447  0.54603090  1
