# generated using pymatgen
data_La12Ce14Pr13Nd13Sm12(BiS2)64
_symmetry_space_group_name_H-M   'P 1'
_cell_length_a   16.12740238
_cell_length_b   16.10211582
_cell_length_c   27.23048045
_cell_angle_alpha   89.92888046
_cell_angle_beta   90.24108787
_cell_angle_gamma   90.04157036
_symmetry_Int_Tables_number   1
_chemical_formula_structural   La12Ce14Pr13Nd13Sm12(BiS2)64
_chemical_formula_sum   'La12 Ce14 Pr13 Nd13 Sm12 Bi64 S128'
_cell_volume   7071.28562881
_cell_formula_units_Z   1
loop_
 _symmetry_equiv_pos_site_id
 _symmetry_equiv_pos_as_xyz
  1  'x, y, z'
loop_
 _atom_type_symbol
 _atom_type_oxidation_number
  La3+  3.0
  Ce3+  3.0
  Pr3+  3.0
  Nd3+  3.0
  Sm3+  3.0
  Bi2+  2.0
  S2-  -2.0
loop_
 _atom_site_type_symbol
 _atom_site_label
 _atom_site_symmetry_multiplicity
 _atom_site_fract_x
 _atom_site_fract_y
 _atom_site_fract_z
 _atom_site_occupancy
  La3+  La0  1  0.13479685  0.25151105  0.42542034  1
  La3+  La1  1  0.51217856  0.12331722  0.57266163  1
  La3+  La2  1  -0.00278489  0.86590417  0.06989228  1
  La3+  La3  1  0.64116860  0.25259384  0.42356869  1
  La3+  La4  1  0.76671644  0.87410478  0.56811775  1
  La3+  La5  1  0.38560649  0.01406126  0.42723983  1
  La3+  La6  1  0.11642280  0.76152823  0.37626728  1
  La3+  La7  1  0.74675949  0.86949843  0.10386820  1
  La3+  La8  1  0.08463149  0.25140538  0.88056751  1
  La3+  La9  1  0.76405469  0.37546690  0.56852426  1
  La3+  La10  1  0.24838965  0.12366467  0.08455945  1
  La3+  La11  1  0.86577504  -0.00319684  0.93520542  1
  Ce3+  Ce12  1  0.63610302  0.75081905  0.44476380  1
  Ce3+  Ce13  1  0.35618783  0.23925486  0.94281503  1
  Ce3+  Ce14  1  -0.00504593  0.62127106  0.06486125  1
  Ce3+  Ce15  1  0.00963914  0.63212448  0.55433379  1
  Ce3+  Ce16  1  0.50008492  0.11674059  0.06416587  1
  Ce3+  Ce17  1  0.25876641  0.37504682  0.55310347  1
  Ce3+  Ce18  1  0.62123356  0.48673137  0.94044405  1
  Ce3+  Ce19  1  0.62175093  -0.00730461  0.94309962  1
  Ce3+  Ce20  1  0.50796687  0.87903248  0.55262078  1
  Ce3+  Ce21  1  0.50262196  0.86715577  0.06147789  1
  Ce3+  Ce22  1  0.11925597  0.74696176  0.93542881  1
  Ce3+  Ce23  1  0.76403817  0.12449078  0.56560096  1
  Ce3+  Ce24  1  0.37012864  -0.00671806  0.95676842  1
  Ce3+  Ce25  1  0.88388883  0.25129173  0.43832187  1
  Pr3+  Pr26  1  0.74383440  0.36933465  0.08066992  1
  Pr3+  Pr27  1  0.62034606  0.73472999  0.93030933  1
  Pr3+  Pr28  1  0.87185083  0.74291212  0.42220059  1
  Pr3+  Pr29  1  0.12690667  -0.00368605  0.93919814  1
  Pr3+  Pr30  1  0.25915889  0.87925011  0.55228150  1
  Pr3+  Pr31  1  0.24582376  0.61909946  0.06098005  1
  Pr3+  Pr32  1  0.13574317  0.00674859  0.42542747  1
  Pr3+  Pr33  1  0.01376440  0.37520017  0.55587009  1
  Pr3+  Pr34  1  0.25517351  0.12910642  0.57158083  1
  Pr3+  Pr35  1  -0.00098847  0.11344002  0.06687060  1
  Pr3+  Pr36  1  0.13381334  0.50910517  0.43205079  1
  Pr3+  Pr37  1  0.26073408  0.62874171  0.55960916  1
  Pr3+  Pr38  1  0.76678382  0.62216397  0.57632175  1
  Nd3+  Nd39  1  0.51276318  0.37484889  0.55746875  1
  Nd3+  Nd40  1  0.63739261  0.50075816  0.43169767  1
  Nd3+  Nd41  1  0.74441338  0.62034754  0.06176437  1
  Nd3+  Nd42  1  0.12069402  0.49287595  0.94021072  1
  Nd3+  Nd43  1  0.38757018  0.25703307  0.43601115  1
  Nd3+  Nd44  1  0.74941817  0.12010846  0.07369143  1
  Nd3+  Nd45  1  0.51139734  0.62688574  0.55590820  1
  Nd3+  Nd46  1  0.87952488  -0.00223925  0.42623215  1
  Nd3+  Nd47  1  0.37091095  0.74451157  0.94317985  1
  Nd3+  Nd48  1  0.63723853  0.00721924  0.43574147  1
  Nd3+  Nd49  1  0.87029313  0.74547511  0.94256051  1
  Nd3+  Nd50  1  0.37891010  0.75423539  0.43062338  1
  Nd3+  Nd51  1  0.87173635  0.48934585  0.94767103  1
  Sm3+  Sm52  1  -0.00012043  0.36752421  0.05930775  1
  Sm3+  Sm53  1  0.24385417  0.36837510  0.06405007  1
  Sm3+  Sm54  1  0.01195119  0.87695531  0.54160887  1
  Sm3+  Sm55  1  0.86940909  0.24324471  0.95165975  1
  Sm3+  Sm56  1  0.88443162  0.50528937  0.44156876  1
  Sm3+  Sm57  1  0.38553982  0.50021892  0.43527038  1
  Sm3+  Sm58  1  0.36881997  0.49092414  0.94900956  1
  Sm3+  Sm59  1  0.24681281  0.86134042  0.07426930  1
  Sm3+  Sm60  1  0.49878542  0.61842674  0.05823799  1
  Sm3+  Sm61  1  0.00932344  0.12293598  0.55786356  1
  Sm3+  Sm62  1  0.49564604  0.36829073  0.05940446  1
  Sm3+  Sm63  1  0.62085003  0.24412604  0.95134276  1
  Bi2+  Bi64  1  0.00357240  0.19530861  0.30534690  1
  Bi2+  Bi65  1  -0.04188254  0.11150102  0.78920268  1
  Bi2+  Bi66  1  0.06434731  0.37681482  0.32161256  1
  Bi2+  Bi67  1  -0.07397045  0.37878779  0.78454322  1
  Bi2+  Bi68  1  -0.00218988  0.55125972  0.28214031  1
  Bi2+  Bi69  1  0.08556490  0.61814892  0.82099665  1
  Bi2+  Bi70  1  0.01500919  0.88936430  0.26464731  1
  Bi2+  Bi71  1  0.01502993  0.79428797  0.79829532  1
  Bi2+  Bi72  1  0.29200961  0.09000552  0.29032583  1
  Bi2+  Bi73  1  0.23663250  0.10563198  0.79610346  1
  Bi2+  Bi74  1  0.25235532  0.33038600  0.29797923  1
  Bi2+  Bi75  1  0.23975950  0.42319774  0.78088449  1
  Bi2+  Bi76  1  0.28357828  0.52535013  0.30667627  1
  Bi2+  Bi77  1  0.26941560  0.67920293  0.79618258  1
  Bi2+  Bi78  1  0.26013679  0.86242726  0.26907382  1
  Bi2+  Bi79  1  0.21463161  0.86400440  0.77344567  1
  Bi2+  Bi80  1  0.51163786  0.17253004  0.26675222  1
  Bi2+  Bi81  1  0.44313359  0.07772907  0.80048471  1
  Bi2+  Bi82  1  0.50505378  0.46720514  0.29750433  1
  Bi2+  Bi83  1  0.45463864  0.35230815  0.78494642  1
  Bi2+  Bi84  1  0.44536728  0.66477791  0.31635199  1
  Bi2+  Bi85  1  0.48416621  0.54922169  0.78476237  1
  Bi2+  Bi86  1  0.52018995  0.85175634  0.29862017  1
  Bi2+  Bi87  1  0.48166245  0.87031403  0.79305174  1
  Bi2+  Bi88  1  0.75811979  0.11434648  0.30568234  1
  Bi2+  Bi89  1  0.70954087  0.21326839  0.77200409  1
  Bi2+  Bi90  1  0.80037719  0.46025716  0.30368426  1
  Bi2+  Bi91  1  0.69957965  0.42974351  0.81560987  1
  Bi2+  Bi92  1  0.65459218  0.59782057  0.29811971  1
  Bi2+  Bi93  1  0.78278695  0.65102867  0.75882180  1
  Bi2+  Bi94  1  0.77820757  0.84714302  0.29289164  1
  Bi2+  Bi95  1  0.77061989  0.88562133  0.81072296  1
  Bi2+  Bi96  1  0.14130818  0.05017080  0.20065542  1
  Bi2+  Bi97  1  0.08006946  -0.01485498  0.69554090  1
  Bi2+  Bi98  1  0.12206645  0.26485830  0.21481821  1
  Bi2+  Bi99  1  0.09473458  0.29010200  0.68184897  1
  Bi2+  Bi100  1  0.18019965  0.45741744  0.19448949  1
  Bi2+  Bi101  1  0.13471299  0.51038312  0.69885759  1
  Bi2+  Bi102  1  0.11871071  0.63438558  0.19122878  1
  Bi2+  Bi103  1  0.12825067  0.71972393  0.71229632  1
  Bi2+  Bi104  1  0.43618201  -0.09647993  0.19902694  1
  Bi2+  Bi105  1  0.35719266  -0.02222004  0.69972803  1
  Bi2+  Bi106  1  0.40553689  0.31225717  0.21113278  1
  Bi2+  Bi107  1  0.33911701  0.23692893  0.72314043  1
  Bi2+  Bi108  1  0.37341046  0.50818486  0.20257382  1
  Bi2+  Bi109  1  0.32918112  0.54436748  0.70449879  1
  Bi2+  Bi110  1  0.38275308  0.71005261  0.20696575  1
  Bi2+  Bi111  1  0.42845425  0.78473469  0.68589154  1
  Bi2+  Bi112  1  0.59890330  0.00993892  0.22182870  1
  Bi2+  Bi113  1  0.61247967  0.01090943  0.76588100  1
  Bi2+  Bi114  1  0.65452222  0.29306359  0.22524413  1
  Bi2+  Bi115  1  0.54456913  0.21931502  0.70884132  1
  Bi2+  Bi116  1  0.71072609  0.47994702  0.19723904  1
  Bi2+  Bi117  1  0.61378884  0.46029907  0.71456650  1
  Bi2+  Bi118  1  0.60121493  0.72875264  0.21909736  1
  Bi2+  Bi119  1  0.60415192  0.72167686  0.73576036  1
  Bi2+  Bi120  1  0.89144687  0.04413542  0.20772685  1
  Bi2+  Bi121  1  0.78501033  0.07047183  0.70631038  1
  Bi2+  Bi122  1  0.84898031  0.30958529  0.23524302  1
  Bi2+  Bi123  1  0.79366151  0.34261050  0.70210129  1
  Bi2+  Bi124  1  0.90219466  0.50467811  0.18278994  1
  Bi2+  Bi125  1  0.95197414  0.55858871  0.73519161  1
  Bi2+  Bi126  1  0.86586829  0.69351820  0.21270976  1
  Bi2+  Bi127  1  0.87115077  0.78789836  0.69219094  1
  S2-  S128  1  -0.00836551  0.15490012  0.16698239  1
  S2-  S129  1  -0.11125480  0.12036508  0.63659562  1
  S2-  S130  1  0.01919177  0.38140185  0.15764378  1
  S2-  S131  1  -0.05138421  0.36104687  0.64952743  1
  S2-  S132  1  -0.00176067  0.72879183  0.14296621  1
  S2-  S133  1  -0.07315550  0.64055400  0.64097252  1
  S2-  S134  1  0.00250518  0.95721149  0.15809294  1
  S2-  S135  1  -0.01444769  0.89290131  0.64127315  1
  S2-  S136  1  0.29693101  0.09528745  0.18662920  1
  S2-  S137  1  0.11647593  0.12819359  0.63878634  1
  S2-  S138  1  0.26217759  0.28431514  0.15016727  1
  S2-  S139  1  0.25505696  0.31457554  0.64430070  1
  S2-  S140  1  0.24425568  0.72045262  0.14218127  1
  S2-  S141  1  0.28295579  0.69402884  0.65380693  1
  S2-  S142  1  0.21573737  0.91455420  0.16906609  1
  S2-  S143  1  0.22057293  0.93522591  0.64644614  1
  S2-  S144  1  0.52446293  0.12376441  0.16181612  1
  S2-  S145  1  0.37828940  0.12432196  0.64494525  1
  S2-  S146  1  0.53984144  0.36884636  0.15439384  1
  S2-  S147  1  0.50612017  0.37030709  0.65766228  1
  S2-  S148  1  0.50920666  0.61698764  0.15654924  1
  S2-  S149  1  0.51215545  0.64382483  0.65542508  1
  S2-  S150  1  0.58574618  0.86337593  0.14806072  1
  S2-  S151  1  0.50199854  0.93330353  0.64543668  1
  S2-  S152  1  0.74015466  0.02633927  0.15794513  1
  S2-  S153  1  0.64516922  0.13224257  0.64161871  1
  S2-  S154  1  0.76490315  0.24432071  0.15185340  1
  S2-  S155  1  0.74467332  0.48625389  0.64597465  1
  S2-  S156  1  0.73643411  0.70161631  0.14970590  1
  S2-  S157  1  0.72662566  0.71057633  0.66221111  1
  S2-  S158  1  0.83294368  0.86021427  0.19863506  1
  S2-  S159  1  0.76178542  0.91520026  0.66729178  1
  S2-  S160  1  0.13868683  -0.07732464  0.33368417  1
  S2-  S161  1  0.09699418  0.08158038  0.84993842  1
  S2-  S162  1  0.15371007  0.13304948  0.34932101  1
  S2-  S163  1  0.06706478  0.24513121  0.77152275  1
  S2-  S164  1  0.13716172  0.59383345  0.34363694  1
  S2-  S165  1  0.11505547  0.42096661  0.84930023  1
  S2-  S166  1  0.11936267  0.76339975  0.26347910  1
  S2-  S167  1  0.13115877  0.86545571  0.86321033  1
  S2-  S168  1  0.38236169  -0.04957492  0.32986199  1
  S2-  S169  1  0.32351954  0.00067754  0.86328182  1
  S2-  S170  1  0.39416147  0.15388740  0.35400230  1
  S2-  S171  1  0.25900249  0.23335533  0.86099814  1
  S2-  S172  1  0.39062970  0.38185674  0.35885423  1
  S2-  S173  1  0.37012979  0.46878617  0.85109911  1
  S2-  S174  1  0.28895754  0.74998303  0.34431210  1
  S2-  S175  1  0.40474951  0.74006039  0.84554571  1
  S2-  S176  1  0.74442779  -0.03551077  0.35664109  1
  S2-  S177  1  0.70832632  0.01899202  0.85928662  1
  S2-  S178  1  0.61220816  0.12127568  0.35267727  1
  S2-  S179  1  0.64052910  0.28084383  0.85591313  1
  S2-  S180  1  0.62518445  0.38973433  0.35286223  1
  S2-  S181  1  0.61530683  0.57399192  0.85636124  1
  S2-  S182  1  0.71799491  0.73500170  0.35904383  1
  S2-  S183  1  0.62733174  0.79697835  0.83548243  1
  S2-  S184  1  0.92966295  0.05145568  0.32891031  1
  S2-  S185  1  0.91065060  -0.02385663  0.83631944  1
  S2-  S186  1  0.79068457  0.24796978  0.35595344  1
  S2-  S187  1  0.90482812  0.23531123  0.85468910  1
  S2-  S188  1  0.87904786  0.58872502  0.35512094  1
  S2-  S189  1  0.86022158  0.48215324  0.84803598  1
  S2-  S190  1  0.94624760  0.79771137  0.33282690  1
  S2-  S191  1  0.85230470  0.73860762  0.84150812  1
  S2-  S192  1  0.00672047  0.12711377  0.45072489  1
  S2-  S193  1  -0.00542891  0.12170967  0.95866811  1
  S2-  S194  1  0.00770577  0.38112178  0.44857140  1
  S2-  S195  1  -0.00294897  0.36505654  0.95444786  1
  S2-  S196  1  0.01136949  0.63451327  0.44888112  1
  S2-  S197  1  -0.00622036  0.61786019  0.95626244  1
  S2-  S198  1  0.01032012  0.87567021  0.43942326  1
  S2-  S199  1  -0.00707142  0.87084536  0.95856975  1
  S2-  S200  1  0.26049817  0.13323790  0.45782120  1
  S2-  S201  1  0.24954279  0.11238262  0.97365146  1
  S2-  S202  1  0.25550768  0.38101525  0.44974310  1
  S2-  S203  1  0.24512285  0.37281244  0.96119099  1
  S2-  S204  1  0.26721548  0.62220060  0.45297941  1
  S2-  S205  1  0.24702873  0.61764836  0.95238491  1
  S2-  S206  1  0.26031139  0.88144120  0.44625824  1
  S2-  S207  1  0.24968731  0.86571525  0.96635609  1
  S2-  S208  1  0.51272584  0.13214578  0.46163774  1
  S2-  S209  1  0.49665097  0.12129219  0.95560400  1
  S2-  S210  1  0.51347873  0.37997211  0.45488209  1
  S2-  S211  1  0.49126475  0.36470079  0.95391234  1
  S2-  S212  1  0.50921363  0.62454123  0.44805279  1
  S2-  S213  1  0.49151684  0.61376443  0.95455286  1
  S2-  S214  1  0.51116944  0.87791448  0.44524902  1
  S2-  S215  1  0.49762387  0.86735409  0.95378184  1
  S2-  S216  1  0.76426159  0.12514679  0.45827089  1
  S2-  S217  1  0.74459370  0.12512974  0.96455131  1
  S2-  S218  1  0.76415891  0.38267374  0.45762052  1
  S2-  S219  1  0.74688203  0.36618259  0.96672165  1
  S2-  S220  1  0.75593842  0.62121246  0.46303006  1
  S2-  S221  1  0.74871838  0.61498719  0.95518432  1
  S2-  S222  1  0.75989483  0.87268709  0.45910004  1
  S2-  S223  1  0.74323454  0.86486573  0.94918881  1
  S2-  S224  1  0.12764702  -0.00917463  0.05161611  1
  S2-  S225  1  0.13216380  0.00191513  0.53367695  1
  S2-  S226  1  0.12006053  0.24585800  0.05772659  1
  S2-  S227  1  0.13367054  0.25098879  0.53495182  1
  S2-  S228  1  0.12100271  0.49420975  0.04842814  1
  S2-  S229  1  0.13524954  0.50401798  0.54344372  1
  S2-  S230  1  0.12202239  0.74246270  0.04079002  1
  S2-  S231  1  0.13472529  0.75408081  0.55077998  1
  S2-  S232  1  0.37318411  -0.01012936  0.06319897  1
  S2-  S233  1  0.38371164  0.00259364  0.53826113  1
  S2-  S234  1  0.37620866  0.24432285  0.04985914  1
  S2-  S235  1  0.38619693  0.25480330  0.54272020  1
  S2-  S236  1  0.37226508  0.49262921  0.05424619  1
  S2-  S237  1  0.38622393  0.50123538  0.54409451  1
  S2-  S238  1  0.37781019  0.74282809  0.04915692  1
  S2-  S239  1  0.38586062  0.75231094  0.53845200  1
  S2-  S240  1  0.62527483  -0.00635237  0.04813715  1
  S2-  S241  1  0.63833849  -0.00277763  0.54187862  1
  S2-  S242  1  0.62024826  0.24569942  0.05415359  1
  S2-  S243  1  0.63869430  0.25558108  0.54169148  1
  S2-  S244  1  0.62032988  0.49243697  0.04828835  1
  S2-  S245  1  0.63286333  0.50286115  0.54177339  1
  S2-  S246  1  0.62006779  0.73944353  0.04007798  1
  S2-  S247  1  0.63404468  0.75199990  0.54981935  1
  S2-  S248  1  0.86737538  -0.00851649  0.05013725  1
  S2-  S249  1  0.88819058  -0.00214601  0.53425451  1
  S2-  S250  1  0.87647713  0.24716463  0.05368244  1
  S2-  S251  1  0.88830122  0.25208444  0.54143766  1
  S2-  S252  1  0.87080436  0.49226090  0.05297455  1
  S2-  S253  1  0.89033999  0.50169802  0.54431430  1
  S2-  S254  1  0.86298151  0.74821577  0.04787204  1
  S2-  S255  1  0.88626978  0.75255752  0.53588179  1
