# generated using pymatgen
data_La12Ce14Pr13Nd13Sm12(BiS2)64
_symmetry_space_group_name_H-M   'P 1'
_cell_length_a   16.14494090
_cell_length_b   16.13856038
_cell_length_c   27.13573567
_cell_angle_alpha   90.02517129
_cell_angle_beta   90.12981328
_cell_angle_gamma   90.14144839
_symmetry_Int_Tables_number   1
_chemical_formula_structural   La12Ce14Pr13Nd13Sm12(BiS2)64
_chemical_formula_sum   'La12 Ce14 Pr13 Nd13 Sm12 Bi64 S128'
_cell_volume   7070.34116322
_cell_formula_units_Z   1
loop_
 _symmetry_equiv_pos_site_id
 _symmetry_equiv_pos_as_xyz
  1  'x, y, z'
loop_
 _atom_type_symbol
 _atom_type_oxidation_number
  La3+  3.0
  Ce3+  3.0
  Pr3+  3.0
  Nd3+  3.0
  Sm3+  3.0
  Bi2+  2.0
  S2-  -2.0
loop_
 _atom_site_type_symbol
 _atom_site_label
 _atom_site_symmetry_multiplicity
 _atom_site_fract_x
 _atom_site_fract_y
 _atom_site_fract_z
 _atom_site_occupancy
  La3+  La0  1  -0.00059910  0.37049235  0.56712740  1
  La3+  La1  1  0.24570061  0.12506197  0.59509140  1
  La3+  La2  1  0.62160185  0.51941707  0.93059988  1
  La3+  La3  1  0.50600132  0.87197059  0.57479512  1
  La3+  La4  1  0.73831555  0.35346737  0.56684008  1
  La3+  La5  1  0.00500429  0.89278845  0.08255535  1
  La3+  La6  1  0.51019616  0.12649470  0.56863845  1
  La3+  La7  1  0.12204220  0.26576964  0.91732098  1
  La3+  La8  1  0.38033555  0.25377753  0.89320708  1
  La3+  La9  1  0.23606647  0.85940061  0.58931514  1
  La3+  La10  1  0.61610802  -0.00852267  0.42231516  1
  La3+  La11  1  0.12779430  0.74032173  0.41640215  1
  Ce3+  Ce12  1  0.49885275  0.61855613  0.56626939  1
  Ce3+  Ce13  1  0.12903347  0.49374227  0.42824566  1
  Ce3+  Ce14  1  0.62101439  0.74265879  0.43872136  1
  Ce3+  Ce15  1  0.75007034  0.63703747  0.05758812  1
  Ce3+  Ce16  1  0.74793129  0.38784145  0.05438672  1
  Ce3+  Ce17  1  0.37485819  0.23925583  0.43701948  1
  Ce3+  Ce18  1  0.00156217  0.13924521  0.06295594  1
  Ce3+  Ce19  1  0.24348942  0.61944303  0.55996197  1
  Ce3+  Ce20  1  0.87396343  -0.01096342  0.43001332  1
  Ce3+  Ce21  1  0.36686472  -0.00845339  0.45907002  1
  Ce3+  Ce22  1  0.49955078  0.13562751  0.05251043  1
  Ce3+  Ce23  1  0.62351181  0.26004902  0.93082791  1
  Ce3+  Ce24  1  0.62178896  0.77277762  0.93231243  1
  Ce3+  Ce25  1  0.49595173  0.63936673  0.05149000  1
  Pr3+  Pr26  1  0.24971568  0.38156284  0.06267709  1
  Pr3+  Pr27  1  0.87553948  0.51944967  0.93611783  1
  Pr3+  Pr28  1  0.25339579  0.89651515  0.07273403  1
  Pr3+  Pr29  1  0.75281586  0.88292102  0.06253655  1
  Pr3+  Pr30  1  0.87859530  0.76337980  0.93510121  1
  Pr3+  Pr31  1  0.87104870  0.73928309  0.43555765  1
  Pr3+  Pr32  1  -0.01010005  0.61978647  0.56904379  1
  Pr3+  Pr33  1  0.26357958  0.62901665  0.08553708  1
  Pr3+  Pr34  1  0.36110501  0.75994468  0.93024942  1
  Pr3+  Pr35  1  0.37075941  0.50835577  0.93679574  1
  Pr3+  Pr36  1  0.87288692  0.27027287  0.93110919  1
  Pr3+  Pr37  1  0.61833788  0.25400016  0.41557216  1
  Pr3+  Pr38  1  0.74061975  0.61359489  0.57457204  1
  Nd3+  Nd39  1  0.24838096  0.36892026  0.55960192  1
  Nd3+  Nd40  1  0.37311282  0.00469863  0.92556559  1
  Nd3+  Nd41  1  0.13016437  0.51239999  0.94150659  1
  Nd3+  Nd42  1  0.12532779  0.01497514  0.93506276  1
  Nd3+  Nd43  1  -0.00079125  0.38629766  0.05847155  1
  Nd3+  Nd44  1  0.87368294  0.49175901  0.44453034  1
  Nd3+  Nd45  1  0.37141991  0.49826175  0.43815848  1
  Nd3+  Nd46  1  0.74859346  0.13739908  0.06080669  1
  Nd3+  Nd47  1  0.37266866  0.74851087  0.44423268  1
  Nd3+  Nd48  1  0.12212926  0.24328405  0.44117799  1
  Nd3+  Nd49  1  0.12506700  -0.00691415  0.44228199  1
  Nd3+  Nd50  1  0.87787813  0.01324839  0.94343934  1
  Nd3+  Nd51  1  0.86978029  0.24201454  0.43510478  1
  Sm3+  Sm52  1  -0.00013423  0.86754018  0.55031758  1
  Sm3+  Sm53  1  0.75051417  0.87004449  0.55646027  1
  Sm3+  Sm54  1  0.75147379  0.11474244  0.54660261  1
  Sm3+  Sm55  1  0.62225282  0.49686021  0.43960884  1
  Sm3+  Sm56  1  0.25132287  0.13740314  0.05087487  1
  Sm3+  Sm57  1  -0.00159607  0.11756933  0.56379394  1
  Sm3+  Sm58  1  0.49415673  0.36623250  0.55154342  1
  Sm3+  Sm59  1  0.00426909  0.63773291  0.06307794  1
  Sm3+  Sm60  1  0.12898853  0.76483399  0.95132156  1
  Sm3+  Sm61  1  0.50040733  0.38202849  0.05342328  1
  Sm3+  Sm62  1  0.49942139  0.88769889  0.05840328  1
  Sm3+  Sm63  1  0.62460671  0.01176283  0.93967839  1
  Bi2+  Bi64  1  0.03042534  0.16878364  0.21692672  1
  Bi2+  Bi65  1  -0.02411252  0.12540417  0.78574431  1
  Bi2+  Bi66  1  0.03606641  0.38629532  0.30832197  1
  Bi2+  Bi67  1  0.00102150  0.39616865  0.79008801  1
  Bi2+  Bi68  1  -0.03029687  0.56038059  0.26336940  1
  Bi2+  Bi69  1  0.04979058  0.59228795  0.78858358  1
  Bi2+  Bi70  1  -0.00981084  0.93016964  0.29781553  1
  Bi2+  Bi71  1  -0.04459452  0.77527657  0.80300424  1
  Bi2+  Bi72  1  0.28068995  0.14041293  0.27608733  1
  Bi2+  Bi73  1  0.23545479  0.07552944  0.79906736  1
  Bi2+  Bi74  1  0.28803708  0.33351464  0.30767853  1
  Bi2+  Bi75  1  0.25441531  0.40685367  0.77807971  1
  Bi2+  Bi76  1  0.23556770  0.61117370  0.29126734  1
  Bi2+  Bi77  1  0.31768211  0.60849109  0.81725153  1
  Bi2+  Bi78  1  0.24337772  0.88904556  0.31453096  1
  Bi2+  Bi79  1  0.24250727  0.83598312  0.78945648  1
  Bi2+  Bi80  1  0.46949322  0.16897806  0.25658248  1
  Bi2+  Bi81  1  0.55876694  0.04901939  0.79949999  1
  Bi2+  Bi82  1  0.48851070  0.36876889  0.28819826  1
  Bi2+  Bi83  1  0.50944705  0.38894973  0.78106385  1
  Bi2+  Bi84  1  0.49456255  0.62560549  0.34600955  1
  Bi2+  Bi85  1  0.49271039  0.60706999  0.76974732  1
  Bi2+  Bi86  1  0.49299949  0.80615096  0.28201796  1
  Bi2+  Bi87  1  0.52318844  0.79660134  0.80383693  1
  Bi2+  Bi88  1  0.77268139  0.11934464  0.26964625  1
  Bi2+  Bi89  1  0.71947363  0.16074828  0.80285515  1
  Bi2+  Bi90  1  0.78525028  0.37432860  0.30687673  1
  Bi2+  Bi91  1  0.74689371  0.35483534  0.79197475  1
  Bi2+  Bi92  1  0.69198848  0.64268596  0.32715930  1
  Bi2+  Bi93  1  0.78426122  0.66294022  0.77407301  1
  Bi2+  Bi94  1  0.73009750  0.90688237  0.29830623  1
  Bi2+  Bi95  1  0.79974533  0.89821985  0.79448974  1
  Bi2+  Bi96  1  0.15900272  0.01923596  0.20659319  1
  Bi2+  Bi97  1  0.03328315  -0.01421349  0.71769103  1
  Bi2+  Bi98  1  0.20942937  0.21974515  0.17431820  1
  Bi2+  Bi99  1  0.11482910  0.23696392  0.70851226  1
  Bi2+  Bi100  1  0.16661056  0.41167193  0.22352314  1
  Bi2+  Bi101  1  0.15613930  0.51824069  0.70027474  1
  Bi2+  Bi102  1  0.07237670  0.75103627  0.21094134  1
  Bi2+  Bi103  1  0.05452517  0.72277875  0.70624323  1
  Bi2+  Bi104  1  0.39330811  -0.02496697  0.25440316  1
  Bi2+  Bi105  1  0.40648598  -0.03400649  0.71675692  1
  Bi2+  Bi106  1  0.36304232  0.35496940  0.19047542  1
  Bi2+  Bi107  1  0.38647890  0.23065724  0.70551691  1
  Bi2+  Bi108  1  0.43129170  0.56347163  0.24251453  1
  Bi2+  Bi109  1  0.35545890  0.51416674  0.69600675  1
  Bi2+  Bi110  1  0.35619181  0.74427298  0.21298076  1
  Bi2+  Bi111  1  0.34519154  0.71002523  0.71336784  1
  Bi2+  Bi112  1  0.59967811  0.01047764  0.18899537  1
  Bi2+  Bi113  1  0.68238266  0.00742132  0.71705397  1
  Bi2+  Bi114  1  0.62674815  0.26802098  0.18818469  1
  Bi2+  Bi115  1  0.63606676  0.27865515  0.69977607  1
  Bi2+  Bi116  1  0.62567574  0.50602636  0.25401414  1
  Bi2+  Bi117  1  0.65948216  0.53461512  0.71997198  1
  Bi2+  Bi118  1  0.65026509  0.74320434  0.22499724  1
  Bi2+  Bi119  1  0.67112992  0.80152320  0.72639731  1
  Bi2+  Bi120  1  0.85985847  -0.04154009  0.20354736  1
  Bi2+  Bi121  1  0.86036094  0.05192702  0.66766229  1
  Bi2+  Bi122  1  0.90765128  0.31277892  0.20960356  1
  Bi2+  Bi123  1  0.85012725  0.23105514  0.71884329  1
  Bi2+  Bi124  1  0.80897025  0.51035820  0.20350581  1
  Bi2+  Bi125  1  0.88623607  0.52126904  0.71007245  1
  Bi2+  Bi126  1  0.83681486  0.71243270  0.26103622  1
  Bi2+  Bi127  1  0.89652948  0.85759934  0.68335546  1
  S2-  S128  1  -0.01464332  0.04662098  0.14760078  1
  S2-  S129  1  0.09232726  0.10343150  0.64861962  1
  S2-  S130  1  0.02929176  0.38046062  0.15688099  1
  S2-  S131  1  -0.01199265  0.28248236  0.65718831  1
  S2-  S132  1  0.00249169  0.62052088  0.16163697  1
  S2-  S133  1  0.01681818  0.49624164  0.64171777  1
  S2-  S134  1  -0.07381550  0.82574736  0.16682002  1
  S2-  S135  1  0.06963193  0.86264051  0.64195745  1
  S2-  S136  1  0.27215014  0.04354536  0.13509861  1
  S2-  S137  1  0.28460471  0.10772425  0.69836470  1
  S2-  S138  1  0.26198497  0.47942125  0.14672127  1
  S2-  S139  1  0.24629569  0.28930064  0.64950973  1
  S2-  S140  1  0.20836337  0.67513762  0.18241217  1
  S2-  S141  1  0.21818233  0.70368938  0.64505811  1
  S2-  S142  1  0.13886300  0.87769400  0.15283850  1
  S2-  S143  1  0.26268890  0.90852165  0.69042480  1
  S2-  S144  1  0.50798593  0.14989772  0.15117821  1
  S2-  S145  1  0.47670903  0.11018299  0.66862361  1
  S2-  S146  1  0.52847822  0.38457701  0.15216614  1
  S2-  S147  1  0.49855621  0.34061200  0.65066333  1
  S2-  S148  1  0.42782296  0.63974637  0.14173180  1
  S2-  S149  1  0.60456356  0.62496235  0.64345140  1
  S2-  S150  1  0.47823768  0.91831774  0.15555344  1
  S2-  S151  1  0.45510137  0.83376192  0.67119414  1
  S2-  S152  1  0.73542901  0.12991005  0.16193453  1
  S2-  S153  1  0.67339575  0.18843535  0.62287372  1
  S2-  S154  1  0.75657761  0.35919732  0.15172351  1
  S2-  S155  1  0.74810146  0.42677938  0.65911369  1
  S2-  S156  1  0.74668481  0.65070913  0.15495783  1
  S2-  S157  1  0.86234514  0.64238098  0.64657753  1
  S2-  S158  1  0.70484447  0.89558520  0.15982439  1
  S2-  S159  1  0.65416740  0.88732014  0.63858062  1
  S2-  S160  1  0.11631185  0.00849366  0.34136481  1
  S2-  S161  1  0.15600751  -0.06554150  0.84305531  1
  S2-  S162  1  0.13829080  0.25875805  0.34110505  1
  S2-  S163  1  0.11565292  0.12489555  0.85460571  1
  S2-  S164  1  0.10312642  0.60091184  0.35046472  1
  S2-  S165  1  0.13125782  0.41675442  0.85561733  1
  S2-  S166  1  0.08589999  0.80049256  0.31553993  1
  S2-  S167  1  0.21188081  0.72315930  0.86700243  1
  S2-  S168  1  0.38125035  -0.03734502  0.36157457  1
  S2-  S169  1  0.39629022  0.09215084  0.83870681  1
  S2-  S170  1  0.47537457  0.22668023  0.35468164  1
  S2-  S171  1  0.26718424  0.24998706  0.81150741  1
  S2-  S172  1  0.26893836  0.48902684  0.35611001  1
  S2-  S173  1  0.38365200  0.41950215  0.84900274  1
  S2-  S174  1  0.28359410  0.74449046  0.35551920  1
  S2-  S175  1  0.37720481  0.87130191  0.85028036  1
  S2-  S176  1  0.64046721  0.03789606  0.31913604  1
  S2-  S177  1  0.61764153  -0.08570354  0.85869291  1
  S2-  S178  1  0.71809871  0.23031001  0.33155507  1
  S2-  S179  1  0.53778319  0.26518047  0.84398374  1
  S2-  S180  1  0.62936274  0.41124457  0.35299709  1
  S2-  S181  1  0.63389170  0.46969491  0.83373625  1
  S2-  S182  1  0.60641744  0.84711153  0.35961779  1
  S2-  S183  1  0.63547612  0.68874950  0.84842759  1
  S2-  S184  1  0.87997798  0.05253953  0.33810021  1
  S2-  S185  1  0.90439149  0.00099983  0.84509895  1
  S2-  S186  1  0.91740377  0.27998172  0.34134516  1
  S2-  S187  1  0.97681833  0.26073296  0.84985975  1
  S2-  S188  1  0.87716337  0.51292881  0.34395852  1
  S2-  S189  1  0.86369417  0.42126724  0.85093277  1
  S2-  S190  1  0.86848622  0.81578058  0.34330659  1
  S2-  S191  1  0.87382321  0.64308456  0.85997556  1
  S2-  S192  1  -0.00226057  0.11881690  0.45445560  1
  S2-  S193  1  -0.00463615  0.14060526  0.95756087  1
  S2-  S194  1  -0.00106395  0.36901779  0.45610574  1
  S2-  S195  1  -0.00165376  0.39311518  0.95474333  1
  S2-  S196  1  -0.00445463  0.61753452  0.45685166  1
  S2-  S197  1  0.00891035  0.63899207  0.95618859  1
  S2-  S198  1  0.00066787  0.86516032  0.44678794  1
  S2-  S199  1  0.00397345  0.88551468  0.95539556  1
  S2-  S200  1  0.24754188  0.11973126  0.44798676  1
  S2-  S201  1  0.25808157  0.14062106  0.94741290  1
  S2-  S202  1  0.25089544  0.36465556  0.45517821  1
  S2-  S203  1  0.25173456  0.38076807  0.95472394  1
  S2-  S204  1  0.24980229  0.62081117  0.45681204  1
  S2-  S205  1  0.25102867  0.63152369  0.97078132  1
  S2-  S206  1  0.24398492  0.86635473  0.46365257  1
  S2-  S207  1  0.24743927  0.88920626  0.96280343  1
  S2-  S208  1  0.49464763  0.11176428  0.45720201  1
  S2-  S209  1  0.50175703  0.13380601  0.94738014  1
  S2-  S210  1  0.49241231  0.37588919  0.44850959  1
  S2-  S211  1  0.50117914  0.38459142  0.95008293  1
  S2-  S212  1  0.49744150  0.61891895  0.46163587  1
  S2-  S213  1  0.49217024  0.64079631  0.94528539  1
  S2-  S214  1  0.49527413  0.86877545  0.46494372  1
  S2-  S215  1  0.49630960  0.88762490  0.95519737  1
  S2-  S216  1  0.74621918  0.11696406  0.44411775  1
  S2-  S217  1  0.75050276  0.13554829  0.95128231  1
  S2-  S218  1  0.74921737  0.36918754  0.45494038  1
  S2-  S219  1  0.74459720  0.39009016  0.95034773  1
  S2-  S220  1  0.74667927  0.61577644  0.46024418  1
  S2-  S221  1  0.74611243  0.64277845  0.95459167  1
  S2-  S222  1  0.74824234  0.86810596  0.45283308  1
  S2-  S223  1  0.75406783  0.88801625  0.95476430  1
  S2-  S224  1  0.12412233  0.01688747  0.04277242  1
  S2-  S225  1  0.12497939  -0.00542270  0.54755879  1
  S2-  S226  1  0.12415129  0.26013009  0.04088728  1
  S2-  S227  1  0.12329881  0.24041611  0.54648942  1
  S2-  S228  1  0.12277501  0.51171282  0.04891404  1
  S2-  S229  1  0.12749299  0.49297778  0.53894550  1
  S2-  S230  1  0.12867633  0.75753157  0.05379612  1
  S2-  S231  1  0.11540824  0.73931064  0.53882553  1
  S2-  S232  1  0.38040497  0.01156655  0.03488316  1
  S2-  S233  1  0.36882520  -0.00484568  0.56551555  1
  S2-  S234  1  0.37674512  0.25920802  0.05157259  1
  S2-  S235  1  0.37169374  0.24017996  0.54560008  1
  S2-  S236  1  0.38066268  0.50513628  0.04307325  1
  S2-  S237  1  0.37327878  0.49283206  0.54725776  1
  S2-  S238  1  0.37366364  0.76831586  0.04568851  1
  S2-  S239  1  0.37399263  0.74340038  0.55250562  1
  S2-  S240  1  0.62645320  0.00914324  0.04429313  1
  S2-  S241  1  0.62782415  -0.00267803  0.53723542  1
  S2-  S242  1  0.62602610  0.26049890  0.03985754  1
  S2-  S243  1  0.61552519  0.24856781  0.52261489  1
  S2-  S244  1  0.62122425  0.51253555  0.04361521  1
  S2-  S245  1  0.61796456  0.48710361  0.54457319  1
  S2-  S246  1  0.62165878  0.76312446  0.04547523  1
  S2-  S247  1  0.62703454  0.74430238  0.54378567  1
  S2-  S248  1  0.87198736  0.01136841  0.04869350  1
  S2-  S249  1  0.87600909  -0.00818956  0.53854613  1
  S2-  S250  1  0.87304435  0.26182064  0.04468249  1
  S2-  S251  1  0.87386303  0.23908226  0.54400608  1
  S2-  S252  1  0.87732720  0.51402765  0.04650240  1
  S2-  S253  1  0.86460692  0.48844831  0.54896277  1
  S2-  S254  1  0.87998856  0.75978873  0.04473302  1
  S2-  S255  1  0.87109218  0.74879909  0.54250051  1
