# generated using pymatgen
data_La12Ce14Pr13Nd13Sm12(BiS2)64
_symmetry_space_group_name_H-M   'P 1'
_cell_length_a   16.13702759
_cell_length_b   16.10578473
_cell_length_c   27.26395683
_cell_angle_alpha   89.95332087
_cell_angle_beta   89.99130875
_cell_angle_gamma   89.94248725
_symmetry_Int_Tables_number   1
_chemical_formula_structural   La12Ce14Pr13Nd13Sm12(BiS2)64
_chemical_formula_sum   'La12 Ce14 Pr13 Nd13 Sm12 Bi64 S128'
_cell_volume   7085.88254297
_cell_formula_units_Z   1
loop_
 _symmetry_equiv_pos_site_id
 _symmetry_equiv_pos_as_xyz
  1  'x, y, z'
loop_
 _atom_type_symbol
 _atom_type_oxidation_number
  La3+  3.0
  Ce3+  3.0
  Pr3+  3.0
  Nd3+  3.0
  Sm3+  3.0
  Bi2+  2.0
  S2-  -2.0
loop_
 _atom_site_type_symbol
 _atom_site_label
 _atom_site_symmetry_multiplicity
 _atom_site_fract_x
 _atom_site_fract_y
 _atom_site_fract_z
 _atom_site_occupancy
  La3+  La0  1  0.26039660  0.65264358  0.08781126  1
  La3+  La1  1  0.61455192  0.23748671  0.42553193  1
  La3+  La2  1  -0.02013096  0.37157517  0.57843501  1
  La3+  La3  1  0.10904302  0.49639494  0.43650847  1
  La3+  La4  1  -0.01165072  0.62652234  0.59283602  1
  La3+  La5  1  0.86252328  0.50303662  0.42803707  1
  La3+  La6  1  -0.01594862  0.12024267  0.56736838  1
  La3+  La7  1  0.25583489  0.14984099  0.04853937  1
  La3+  La8  1  0.88310478  0.27863687  0.92853033  1
  La3+  La9  1  0.48574325  0.37369624  0.56324568  1
  La3+  La10  1  0.62847525  0.01834631  0.91262922  1
  La3+  La11  1  0.36785983  0.74511841  0.41774404  1
  Ce3+  Ce12  1  0.62880773  0.52348227  0.94652567  1
  Ce3+  Ce13  1  0.75583896  0.64809215  0.05700549  1
  Ce3+  Ce14  1  0.74402713  0.36923938  0.54921576  1
  Ce3+  Ce15  1  0.38142414  0.01984607  0.93079590  1
  Ce3+  Ce16  1  0.61136859  0.49655480  0.43936262  1
  Ce3+  Ce17  1  0.48186937  0.62051378  0.56613660  1
  Ce3+  Ce18  1  0.13067002  0.02176081  0.93757660  1
  Ce3+  Ce19  1  0.37695941  0.76619009  0.93850376  1
  Ce3+  Ce20  1  0.75563486  0.89772188  0.05883417  1
  Ce3+  Ce21  1  0.74354060  0.12716710  0.56572289  1
  Ce3+  Ce22  1  0.10824346  0.24552632  0.44341078  1
  Ce3+  Ce23  1  0.88480966  0.52417647  0.93779936  1
  Ce3+  Ce24  1  0.00715332  0.89745834  0.05881356  1
  Ce3+  Ce25  1  0.13639642  0.52277836  0.94452724  1
  Pr3+  Pr26  1  0.50297398  0.39709268  0.06339474  1
  Pr3+  Pr27  1  0.75540563  0.39789881  0.06359326  1
  Pr3+  Pr28  1  0.74043161  0.62106818  0.56169847  1
  Pr3+  Pr29  1  0.36160796  0.49587681  0.43329697  1
  Pr3+  Pr30  1  0.86359615  0.24446748  0.40005167  1
  Pr3+  Pr31  1  0.24130044  0.86894707  0.55285687  1
  Pr3+  Pr32  1  0.13425448  0.28013767  0.92590110  1
  Pr3+  Pr33  1  0.38336540  0.52658326  0.93772977  1
  Pr3+  Pr34  1  0.36396881  0.24502276  0.42896779  1
  Pr3+  Pr35  1  0.85961113  -0.00621666  0.43854383  1
  Pr3+  Pr36  1  0.13108029  0.76549309  0.93967193  1
  Pr3+  Pr37  1  0.75550527  0.14745447  0.05603110  1
  Pr3+  Pr38  1  0.00665614  0.39955971  0.06667597  1
  Nd3+  Nd39  1  0.11170113  -0.00243150  0.43694882  1
  Nd3+  Nd40  1  0.73499019  0.87013438  0.57050073  1
  Nd3+  Nd41  1  0.50498526  0.65537980  0.06834779  1
  Nd3+  Nd42  1  0.25545628  0.89772272  0.05989188  1
  Nd3+  Nd43  1  0.23409936  0.36892690  0.56129122  1
  Nd3+  Nd44  1  0.63135032  0.26904936  0.93470457  1
  Nd3+  Nd45  1  0.50581402  0.14674063  0.05325108  1
  Nd3+  Nd46  1  -0.01326249  0.86792595  0.56245419  1
  Nd3+  Nd47  1  0.86044119  0.74793691  0.43706952  1
  Nd3+  Nd48  1  0.39334396  0.28072867  0.90436730  1
  Nd3+  Nd49  1  0.23899123  0.62064964  0.56357171  1
  Nd3+  Nd50  1  0.50714509  0.89995990  0.05139350  1
  Nd3+  Nd51  1  0.63259459  0.77262030  0.93377449  1
  Sm3+  Sm52  1  0.88303835  0.02221206  0.94138789  1
  Sm3+  Sm53  1  0.48660310  0.87356678  0.55716518  1
  Sm3+  Sm54  1  0.48634804  0.13193032  0.56909367  1
  Sm3+  Sm55  1  0.60842604  0.74754263  0.44491188  1
  Sm3+  Sm56  1  0.88245084  0.77176848  0.94784269  1
  Sm3+  Sm57  1  0.61483988  -0.00006932  0.45290660  1
  Sm3+  Sm58  1  0.00463347  0.64582357  0.06847730  1
  Sm3+  Sm59  1  0.36415468  -0.00097555  0.44890353  1
  Sm3+  Sm60  1  0.00474292  0.14966365  0.05352611  1
  Sm3+  Sm61  1  0.11323576  0.74583538  0.44065799  1
  Sm3+  Sm62  1  0.23257499  0.12156469  0.56029787  1
  Sm3+  Sm63  1  0.25632588  0.39908020  0.05969448  1
  Bi2+  Bi64  1  0.00399308  0.03963371  0.28336533  1
  Bi2+  Bi65  1  -0.01327385  0.09435674  0.81016694  1
  Bi2+  Bi66  1  0.02756064  0.36684888  0.29650119  1
  Bi2+  Bi67  1  -0.00312811  0.34598569  0.80304536  1
  Bi2+  Bi68  1  -0.00997240  0.60754961  0.29629506  1
  Bi2+  Bi69  1  -0.01105054  0.60140477  0.80924753  1
  Bi2+  Bi70  1  -0.09117597  0.87042833  0.31819134  1
  Bi2+  Bi71  1  0.10383374  0.84530192  0.81506166  1
  Bi2+  Bi72  1  0.26154001  0.20870510  0.29371911  1
  Bi2+  Bi73  1  0.32178250  -0.01837526  0.74513238  1
  Bi2+  Bi74  1  0.32920491  0.38901233  0.31431510  1
  Bi2+  Bi75  1  0.24889664  0.35668638  0.79600417  1
  Bi2+  Bi76  1  0.22553879  0.67154000  0.28724701  1
  Bi2+  Bi77  1  0.25387520  0.61301452  0.78901822  1
  Bi2+  Bi78  1  0.27464084  0.96241488  0.27920955  1
  Bi2+  Bi79  1  0.30557332  0.83109686  0.81863333  1
  Bi2+  Bi80  1  0.49824824  0.11593750  0.29450796  1
  Bi2+  Bi81  1  0.52757515  0.16005179  0.78953812  1
  Bi2+  Bi82  1  0.49188842  0.35165207  0.25845014  1
  Bi2+  Bi83  1  0.50001361  0.42549739  0.78068740  1
  Bi2+  Bi84  1  0.46839966  0.61530064  0.28700209  1
  Bi2+  Bi85  1  0.50668435  0.67403794  0.79353876  1
  Bi2+  Bi86  1  0.47463126  0.86976993  0.29914110  1
  Bi2+  Bi87  1  0.50270906  0.87117547  0.79967413  1
  Bi2+  Bi88  1  0.73920094  0.10316953  0.29134084  1
  Bi2+  Bi89  1  0.73120142  0.05789984  0.74753781  1
  Bi2+  Bi90  1  0.73563067  0.39737413  0.28557500  1
  Bi2+  Bi91  1  0.74130943  0.31504197  0.73250379  1
  Bi2+  Bi92  1  0.72464619  0.68200553  0.29571912  1
  Bi2+  Bi93  1  0.72496046  0.55449981  0.80266527  1
  Bi2+  Bi94  1  0.72290053  0.86177509  0.35086795  1
  Bi2+  Bi95  1  0.75421921  0.74671947  0.80594472  1
  Bi2+  Bi96  1  0.16260502  -0.03983433  0.18397649  1
  Bi2+  Bi97  1  0.13405623  -0.05198470  0.71431293  1
  Bi2+  Bi98  1  0.12027625  0.15319457  0.21806742  1
  Bi2+  Bi99  1  0.14354169  0.18629784  0.71577971  1
  Bi2+  Bi100  1  0.12584504  0.47100892  0.20529954  1
  Bi2+  Bi101  1  0.13218729  0.46098703  0.70131389  1
  Bi2+  Bi102  1  0.05812531  0.83359751  0.24605276  1
  Bi2+  Bi103  1  0.10450924  0.69613469  0.73532548  1
  Bi2+  Bi104  1  0.42615790  -0.02943945  0.20214491  1
  Bi2+  Bi105  1  0.48472417  0.03409476  0.69320896  1
  Bi2+  Bi106  1  0.38370754  0.17176352  0.20629761  1
  Bi2+  Bi107  1  0.36429027  0.28149633  0.71084806  1
  Bi2+  Bi108  1  0.34539225  0.48947871  0.21519165  1
  Bi2+  Bi109  1  0.38333031  0.53947628  0.71330124  1
  Bi2+  Bi110  1  0.37840155  0.76092664  0.20595113  1
  Bi2+  Bi111  1  0.35646484  0.78327684  0.70818095  1
  Bi2+  Bi112  1  0.64304252  -0.05636983  0.25436293  1
  Bi2+  Bi113  1  0.63968379  -0.09099645  0.70461424  1
  Bi2+  Bi114  1  0.62624875  0.23081516  0.19560434  1
  Bi2+  Bi115  1  0.63321925  0.17743738  0.68068902  1
  Bi2+  Bi116  1  0.62094671  0.53839386  0.23624625  1
  Bi2+  Bi117  1  0.63731238  0.47292534  0.70374416  1
  Bi2+  Bi118  1  0.59832921  0.73463111  0.21198842  1
  Bi2+  Bi119  1  0.64322418  0.67570531  0.71444457  1
  Bi2+  Bi120  1  0.85837148  -0.04050341  0.21638548  1
  Bi2+  Bi121  1  0.94854804  -0.07095329  0.75820441  1
  Bi2+  Bi122  1  0.87959991  0.24558827  0.19831134  1
  Bi2+  Bi123  1  0.90635458  0.24183312  0.69999748  1
  Bi2+  Bi124  1  0.88175159  0.50174291  0.19539258  1
  Bi2+  Bi125  1  0.87771126  0.52873944  0.73147201  1
  Bi2+  Bi126  1  0.79821807  0.76243440  0.20098865  1
  Bi2+  Bi127  1  0.87069331  0.76317658  0.71155277  1
  S2-  S128  1  -0.01107228  0.14082253  0.15123147  1
  S2-  S129  1  0.08301495  0.08008050  0.65156353  1
  S2-  S130  1  -0.00579316  0.36917035  0.16636004  1
  S2-  S131  1  0.07134388  0.30663253  0.66447027  1
  S2-  S132  1  -0.00547472  0.60425418  0.16525291  1
  S2-  S133  1  -0.01204476  0.48778743  0.65775835  1
  S2-  S134  1  -0.00324770  0.88105143  0.15656219  1
  S2-  S135  1  -0.00115393  0.78002303  0.64832659  1
  S2-  S136  1  0.24842477  0.11623012  0.14755506  1
  S2-  S137  1  0.27048918  0.17422946  0.65133910  1
  S2-  S138  1  0.24707402  0.38240531  0.15936787  1
  S2-  S139  1  0.28194912  0.40985839  0.65547609  1
  S2-  S140  1  0.20448750  0.60819957  0.18707006  1
  S2-  S141  1  0.14381576  0.61152087  0.64975364  1
  S2-  S142  1  0.25250688  0.80992466  0.14696389  1
  S2-  S143  1  0.23323952  0.85270662  0.65291468  1
  S2-  S144  1  0.52957596  0.11524472  0.15075808  1
  S2-  S145  1  0.47791675  0.25918045  0.64175320  1
  S2-  S146  1  0.53053786  0.36410857  0.16120191  1
  S2-  S147  1  0.49897318  0.49774263  0.63826765  1
  S2-  S148  1  0.40897019  0.62064138  0.14864337  1
  S2-  S149  1  0.35834379  0.65360999  0.63635452  1
  S2-  S150  1  0.50231612  0.84158208  0.14494459  1
  S2-  S151  1  0.48925816  0.85803082  0.65450870  1
  S2-  S152  1  0.75345422  0.14830449  0.15735831  1
  S2-  S153  1  0.85656717  0.12126280  0.64276545  1
  S2-  S154  1  0.76958630  0.37322783  0.16377886  1
  S2-  S155  1  0.82141349  0.35666687  0.63827479  1
  S2-  S156  1  0.77254618  0.60816747  0.15123443  1
  S2-  S157  1  0.82994160  0.62663831  0.64902541  1
  S2-  S158  1  0.72725258  0.91272916  0.15478503  1
  S2-  S159  1  0.79921603  0.89700834  0.66052389  1
  S2-  S160  1  0.12995838  -0.01938121  0.33875558  1
  S2-  S161  1  0.13948541  0.01177721  0.84110876  1
  S2-  S162  1  0.11376015  0.24382905  0.34609849  1
  S2-  S163  1  0.11529307  0.22509025  0.82568058  1
  S2-  S164  1  0.11540735  0.50900305  0.33423641  1
  S2-  S165  1  0.12607255  0.42004338  0.86102383  1
  S2-  S166  1  0.09072966  0.72702131  0.34163375  1
  S2-  S167  1  0.13973319  0.63660219  0.86849168  1
  S2-  S168  1  0.38609292  0.01929607  0.35278882  1
  S2-  S169  1  0.47977214  0.02656548  0.84931499  1
  S2-  S170  1  0.48522102  0.24932000  0.35456600  1
  S2-  S171  1  0.34273653  0.21687271  0.81377568  1
  S2-  S172  1  0.34051578  0.60219147  0.35270703  1
  S2-  S173  1  0.36803199  0.42883163  0.85131343  1
  S2-  S174  1  0.29678550  0.80194583  0.32578900  1
  S2-  S175  1  0.37147376  0.65236902  0.86273141  1
  S2-  S176  1  0.61582880  0.07826986  0.36515353  1
  S2-  S177  1  0.67293791  0.12070696  0.83283072  1
  S2-  S178  1  0.71767194  0.26297830  0.34087215  1
  S2-  S179  1  0.54867101  0.29785185  0.84922047  1
  S2-  S180  1  0.61678275  0.49223654  0.34149937  1
  S2-  S181  1  0.56949113  0.53748351  0.85489532  1
  S2-  S182  1  0.51872893  0.73689067  0.35887775  1
  S2-  S183  1  0.65355974  0.87335646  0.85165388  1
  S2-  S184  1  0.86518489  0.08539493  0.35237588  1
  S2-  S185  1  0.86893987  -0.01266879  0.84580832  1
  S2-  S186  1  0.91704437  0.25210947  0.29572857  1
  S2-  S187  1  0.88561763  0.22059853  0.83146082  1
  S2-  S188  1  0.87581753  0.44054003  0.33084720  1
  S2-  S189  1  0.88613463  0.42330942  0.85883061  1
  S2-  S190  1  0.86684633  0.64151795  0.35542382  1
  S2-  S191  1  0.91281595  0.73395830  0.85368079  1
  S2-  S192  1  -0.01260993  0.11910260  0.45367404  1
  S2-  S193  1  0.00791442  0.14911361  0.94858289  1
  S2-  S194  1  -0.01773225  0.36627192  0.44315146  1
  S2-  S195  1  0.00796949  0.39908392  0.96111968  1
  S2-  S196  1  -0.00937922  0.62694193  0.45332446  1
  S2-  S197  1  0.00388051  0.64613913  0.96441516  1
  S2-  S198  1  -0.01044171  0.86994791  0.45365747  1
  S2-  S199  1  0.00508131  0.89558211  0.95200759  1
  S2-  S200  1  0.23794728  0.12005844  0.45234268  1
  S2-  S201  1  0.25977118  0.15155079  0.94061532  1
  S2-  S202  1  0.23716035  0.36853110  0.45132791  1
  S2-  S203  1  0.26418347  0.39255933  0.95736133  1
  S2-  S204  1  0.23438361  0.62362745  0.45504573  1
  S2-  S205  1  0.25701466  0.64766627  0.97084261  1
  S2-  S206  1  0.23959566  0.87339826  0.44633933  1
  S2-  S207  1  0.25386047  0.89640691  0.95322927  1
  S2-  S208  1  0.48534724  0.11992079  0.46510600  1
  S2-  S209  1  0.50253999  0.15069571  0.94817373  1
  S2-  S210  1  0.48730771  0.37344916  0.45342387  1
  S2-  S211  1  0.50634783  0.39572095  0.95771397  1
  S2-  S212  1  0.48897885  0.61819249  0.45861585  1
  S2-  S213  1  0.50954261  0.65185131  0.96218695  1
  S2-  S214  1  0.49113427  0.87963818  0.45373204  1
  S2-  S215  1  0.50316272  0.89201267  0.94757123  1
  S2-  S216  1  0.74351451  0.12139085  0.45964448  1
  S2-  S217  1  0.75870884  0.14573757  0.94850075  1
  S2-  S218  1  0.73947438  0.37178614  0.44561809  1
  S2-  S219  1  0.75129942  0.39823402  0.95545086  1
  S2-  S220  1  0.73118321  0.62670849  0.45386614  1
  S2-  S221  1  0.75730449  0.64829486  0.95072779  1
  S2-  S222  1  0.73278274  0.87018717  0.46472867  1
  S2-  S223  1  0.76114448  0.89741143  0.95421012  1
  S2-  S224  1  0.12759822  0.02325428  0.04428695  1
  S2-  S225  1  0.11410237  -0.00776737  0.54269842  1
  S2-  S226  1  0.12946401  0.27407566  0.04485999  1
  S2-  S227  1  0.11060788  0.24475526  0.54736407  1
  S2-  S228  1  0.13246548  0.52475123  0.05514183  1
  S2-  S229  1  0.10997614  0.49062690  0.54479424  1
  S2-  S230  1  0.12659562  0.76909792  0.04908156  1
  S2-  S231  1  0.11422892  0.74665715  0.54348651  1
  S2-  S232  1  0.38051470  0.02093281  0.04044990  1
  S2-  S233  1  0.36396886  0.00161072  0.55388590  1
  S2-  S234  1  0.38042760  0.27264786  0.05587379  1
  S2-  S235  1  0.35747594  0.24269977  0.53737779  1
  S2-  S236  1  0.37938900  0.52073407  0.04701350  1
  S2-  S237  1  0.35649908  0.49346538  0.53919005  1
  S2-  S238  1  0.38130414  0.77553294  0.04398302  1
  S2-  S239  1  0.36857523  0.75209121  0.53215088  1
  S2-  S240  1  0.63099904  0.02296961  0.03769489  1
  S2-  S241  1  0.61210280  -0.00001278  0.55725804  1
  S2-  S242  1  0.63035646  0.27201744  0.04259746  1
  S2-  S243  1  0.61572847  0.24732695  0.54138027  1
  S2-  S244  1  0.62734314  0.52471081  0.05471506  1
  S2-  S245  1  0.61984199  0.49545937  0.54313733  1
  S2-  S246  1  0.63220074  0.77365625  0.04315089  1
  S2-  S247  1  0.61016171  0.74729591  0.55209258  1
  S2-  S248  1  0.88257994  0.02349675  0.04695383  1
  S2-  S249  1  0.86195264  -0.01053080  0.54546819  1
  S2-  S250  1  0.88147615  0.27337207  0.04211404  1
  S2-  S251  1  0.86664453  0.24639196  0.53761915  1
  S2-  S252  1  0.88148310  0.52271968  0.04598496  1
  S2-  S253  1  0.86531425  0.50004527  0.53873340  1
  S2-  S254  1  0.88193930  0.77106920  0.05296859  1
  S2-  S255  1  0.86148364  0.74937069  0.54347538  1
