# generated using pymatgen
data_La12Ce14Pr13Nd13Sm12(BiS2)64
_symmetry_space_group_name_H-M   'P 1'
_cell_length_a   16.05238820
_cell_length_b   16.04308341
_cell_length_c   27.56320720
_cell_angle_alpha   89.87190503
_cell_angle_beta   89.90627869
_cell_angle_gamma   89.79659202
_symmetry_Int_Tables_number   1
_chemical_formula_structural   La12Ce14Pr13Nd13Sm12(BiS2)64
_chemical_formula_sum   'La12 Ce14 Pr13 Nd13 Sm12 Bi64 S128'
_cell_volume   7098.27543874
_cell_formula_units_Z   1
loop_
 _symmetry_equiv_pos_site_id
 _symmetry_equiv_pos_as_xyz
  1  'x, y, z'
loop_
 _atom_type_symbol
 _atom_type_oxidation_number
  La3+  3.0
  Ce3+  3.0
  Pr3+  3.0
  Nd3+  3.0
  Sm3+  3.0
  Bi2+  2.0
  S2-  -2.0
loop_
 _atom_site_type_symbol
 _atom_site_label
 _atom_site_symmetry_multiplicity
 _atom_site_fract_x
 _atom_site_fract_y
 _atom_site_fract_z
 _atom_site_occupancy
  La3+  La0  1  0.24318204  0.11058146  0.07242572  1
  La3+  La1  1  0.15632129  0.50144889  0.40282726  1
  La3+  La2  1  0.63306951  0.26268991  0.41622807  1
  La3+  La3  1  0.49439185  0.86946425  0.05733636  1
  La3+  La4  1  0.49702134  0.37675250  0.07436048  1
  La3+  La5  1  0.86704344  0.73717342  0.92680495  1
  La3+  La6  1  0.52769768  0.38211197  0.57020911  1
  La3+  La7  1  0.76712988  0.37209011  0.11989200  1
  La3+  La8  1  0.64714113  0.76064669  0.43039921  1
  La3+  La9  1  0.12221226  0.24509827  0.94342789  1
  La3+  La10  1  0.61908573  0.74478861  0.91494441  1
  La3+  La11  1  0.11927997  0.74786390  0.92320249  1
  Ce3+  Ce12  1  0.24559259  0.62837016  0.05082870  1
  Ce3+  Ce13  1  0.27155066  0.12955406  0.55836357  1
  Ce3+  Ce14  1  0.86725157  -0.00028812  0.94446150  1
  Ce3+  Ce15  1  0.27101748  0.88228171  0.56499228  1
  Ce3+  Ce16  1  0.77525328  0.63264605  0.55850453  1
  Ce3+  Ce17  1  0.02437546  0.63207099  0.55438935  1
  Ce3+  Ce18  1  0.15099573  0.01052656  0.43215656  1
  Ce3+  Ce19  1  0.25109286  0.37475078  0.06273780  1
  Ce3+  Ce20  1  0.02323419  0.88436679  0.56434047  1
  Ce3+  Ce21  1  0.00065686  0.38308074  0.06617240  1
  Ce3+  Ce22  1  0.52467125  0.12840967  0.55764096  1
  Ce3+  Ce23  1  0.62156995  0.00108343  0.94627459  1
  Ce3+  Ce24  1  0.74443698  0.86571740  0.05483712  1
  Ce3+  Ce25  1  0.14794845  0.76071944  0.43153877  1
  Pr3+  Pr26  1  0.74369863  0.12503449  0.07128105  1
  Pr3+  Pr27  1  0.52475780  0.87912551  0.56891678  1
  Pr3+  Pr28  1  0.65125028  0.50945682  0.42873222  1
  Pr3+  Pr29  1  0.89959498  0.50906372  0.42867876  1
  Pr3+  Pr30  1  0.27154950  0.63380184  0.55798652  1
  Pr3+  Pr31  1  0.48970584  0.12232753  0.07316597  1
  Pr3+  Pr32  1  0.12406055  0.49770729  0.92884499  1
  Pr3+  Pr33  1  0.37796470  0.00610529  0.92556929  1
  Pr3+  Pr34  1  0.76796974  0.13960170  0.56702870  1
  Pr3+  Pr35  1  0.40140739  0.00605844  0.43443888  1
  Pr3+  Pr36  1  -0.00336455  0.12169574  0.06582190  1
  Pr3+  Pr37  1  0.11875028  -0.00510555  0.92776830  1
  Pr3+  Pr38  1  -0.00660042  0.62442353  0.06050748  1
  Nd3+  Nd39  1  0.02307672  0.13707652  0.56858849  1
  Nd3+  Nd40  1  0.89930806  0.25407549  0.43641293  1
  Nd3+  Nd41  1  0.73678736  0.62316014  0.06465231  1
  Nd3+  Nd42  1  0.27233019  0.38208144  0.56341151  1
  Nd3+  Nd43  1  0.77622486  0.88413562  0.57076486  1
  Nd3+  Nd44  1  0.37082643  0.75817913  0.92112189  1
  Nd3+  Nd45  1  0.86993929  0.25142525  0.94711500  1
  Nd3+  Nd46  1  0.37322841  0.49667487  0.93418940  1
  Nd3+  Nd47  1  0.39330109  0.75718898  0.43266578  1
  Nd3+  Nd48  1  0.65206335  0.00841480  0.43482759  1
  Nd3+  Nd49  1  0.77284335  0.38200172  0.55005741  1
  Nd3+  Nd50  1  0.37453134  0.24690977  0.93949939  1
  Nd3+  Nd51  1  -0.00656211  0.86665421  0.05325869  1
  Sm3+  Sm52  1  0.61511201  0.49766300  0.93391331  1
  Sm3+  Sm53  1  0.02454445  0.38213660  0.55300245  1
  Sm3+  Sm54  1  0.49732480  0.62322253  0.04706172  1
  Sm3+  Sm55  1  0.62060018  0.25267843  0.95279733  1
  Sm3+  Sm56  1  0.90080290  0.76017492  0.43565318  1
  Sm3+  Sm57  1  0.52654532  0.63438200  0.55459073  1
  Sm3+  Sm58  1  0.39640005  0.50608147  0.44706945  1
  Sm3+  Sm59  1  0.89353375  0.01019802  0.44355561  1
  Sm3+  Sm60  1  0.86712897  0.49780420  0.94515898  1
  Sm3+  Sm61  1  0.14708794  0.25291287  0.43709938  1
  Sm3+  Sm62  1  0.39769808  0.26020633  0.45072432  1
  Sm3+  Sm63  1  0.24396062  0.86498425  0.05558610  1
  Bi2+  Bi64  1  0.00317262  0.03966791  0.31187755  1
  Bi2+  Bi65  1  -0.01291745  0.13807853  0.80931428  1
  Bi2+  Bi66  1  0.03240620  0.36737009  0.28592831  1
  Bi2+  Bi67  1  -0.02521354  0.36185883  0.78894917  1
  Bi2+  Bi68  1  -0.01127109  0.64493196  0.28082334  1
  Bi2+  Bi69  1  -0.00556068  0.59790967  0.78476906  1
  Bi2+  Bi70  1  -0.01385136  0.85483161  0.27772612  1
  Bi2+  Bi71  1  0.01269933  0.84562624  0.76650495  1
  Bi2+  Bi72  1  0.19731025  0.06101108  0.27830938  1
  Bi2+  Bi73  1  0.23777898  0.19601197  0.80099856  1
  Bi2+  Bi74  1  0.27602712  0.27708786  0.28609096  1
  Bi2+  Bi75  1  0.26236496  0.40096801  0.83389152  1
  Bi2+  Bi76  1  0.19047856  0.58776682  0.27855756  1
  Bi2+  Bi77  1  0.29028573  0.59493298  0.80990920  1
  Bi2+  Bi78  1  0.18588934  0.87604182  0.23149558  1
  Bi2+  Bi79  1  0.22970151  0.78495674  0.78989838  1
  Bi2+  Bi80  1  0.43592850  0.11948300  0.29928169  1
  Bi2+  Bi81  1  0.47611356  0.13796164  0.74196202  1
  Bi2+  Bi82  1  0.44353414  0.42631136  0.30281125  1
  Bi2+  Bi83  1  0.45216554  0.33872885  0.80994760  1
  Bi2+  Bi84  1  0.51354347  0.63099390  0.28431784  1
  Bi2+  Bi85  1  0.47431573  0.62668579  0.76125988  1
  Bi2+  Bi86  1  0.40187403  0.88162811  0.31719596  1
  Bi2+  Bi87  1  0.50032423  0.88145095  0.79856709  1
  Bi2+  Bi88  1  0.82027556  0.11896744  0.29825797  1
  Bi2+  Bi89  1  0.74728248  0.14745949  0.75479239  1
  Bi2+  Bi90  1  0.76805283  0.37129391  0.31979986  1
  Bi2+  Bi91  1  0.70762570  0.33330152  0.79959224  1
  Bi2+  Bi92  1  0.78976631  0.66505824  0.28211096  1
  Bi2+  Bi93  1  0.77848527  0.69260019  0.79680644  1
  Bi2+  Bi94  1  0.69662404  0.84988115  0.27740676  1
  Bi2+  Bi95  1  0.71231626  0.99235086  0.81335249  1
  Bi2+  Bi96  1  0.02948420  -0.06577626  0.17374904  1
  Bi2+  Bi97  1  0.16604573  -0.00919583  0.71017108  1
  Bi2+  Bi98  1  0.11925907  0.23864235  0.21502675  1
  Bi2+  Bi99  1  0.12494288  0.22686133  0.69305343  1
  Bi2+  Bi100  1  0.19609624  0.42167837  0.21379437  1
  Bi2+  Bi101  1  0.13184679  0.46292500  0.75341730  1
  Bi2+  Bi102  1  0.12273497  0.67025350  0.18336757  1
  Bi2+  Bi103  1  0.11668020  0.72621243  0.70029448  1
  Bi2+  Bi104  1  0.36819008  -0.00896352  0.20382658  1
  Bi2+  Bi105  1  0.34778547  -0.01365315  0.75156175  1
  Bi2+  Bi106  1  0.41088105  0.26009974  0.21055447  1
  Bi2+  Bi107  1  0.37978048  0.30016230  0.70656664  1
  Bi2+  Bi108  1  0.36457623  0.53841283  0.22142661  1
  Bi2+  Bi109  1  0.30953068  0.50091101  0.70923708  1
  Bi2+  Bi110  1  0.33420326  0.72856670  0.26098629  1
  Bi2+  Bi111  1  0.36655594  0.76891985  0.70487064  1
  Bi2+  Bi112  1  0.58102746  0.01055156  0.25063373  1
  Bi2+  Bi113  1  0.55139117  -0.02436165  0.70004776  1
  Bi2+  Bi114  1  0.63650749  0.23456588  0.21920031  1
  Bi2+  Bi115  1  0.61383465  0.28839971  0.70079577  1
  Bi2+  Bi116  1  0.62330066  0.52128513  0.20942942  1
  Bi2+  Bi117  1  0.64670001  0.51631485  0.76720398  1
  Bi2+  Bi118  1  0.57822673  0.75929365  0.20080657  1
  Bi2+  Bi119  1  0.61310624  0.72591986  0.69961980  1
  Bi2+  Bi120  1  0.76127525  -0.01715278  0.19811535  1
  Bi2+  Bi121  1  0.90380891  -0.02179238  0.71241573  1
  Bi2+  Bi122  1  0.92988134  0.09173406  0.20050530  1
  Bi2+  Bi123  1  0.87746703  0.23106232  0.69165759  1
  Bi2+  Bi124  1  0.91641025  0.49302766  0.20434444  1
  Bi2+  Bi125  1  0.83261658  0.46684806  0.74006539  1
  Bi2+  Bi126  1  0.85026465  0.80304238  0.19352894  1
  Bi2+  Bi127  1  0.85927977  0.65208541  0.69472893  1
  S2-  S128  1  0.11065322  0.12432892  0.14315805  1
  S2-  S129  1  0.02945105  0.08714714  0.66569696  1
  S2-  S130  1  -0.06186680  0.34737206  0.15449131  1
  S2-  S131  1  0.00994145  0.30988214  0.64342765  1
  S2-  S132  1  0.03476640  0.52288888  0.14072898  1
  S2-  S133  1  0.01282809  0.61094639  0.65158305  1
  S2-  S134  1  -0.00889727  0.75398766  0.13304954  1
  S2-  S135  1  -0.09457709  0.86937938  0.64161425  1
  S2-  S136  1  0.36183398  0.13689201  0.14758060  1
  S2-  S137  1  0.24870833  0.11543664  0.65434693  1
  S2-  S138  1  0.35678829  0.37567470  0.14158130  1
  S2-  S139  1  0.23042115  0.35533689  0.65865516  1
  S2-  S140  1  0.24911951  0.73164289  0.12872822  1
  S2-  S141  1  0.25643030  0.64668427  0.65775710  1
  S2-  S142  1  0.25117212  0.95498056  0.14046463  1
  S2-  S143  1  0.14763490  0.88017867  0.63997957  1
  S2-  S144  1  0.57623595  0.11568542  0.16610706  1
  S2-  S145  1  0.58100529  0.13289555  0.64857027  1
  S2-  S146  1  0.59603450  0.38241210  0.15982596  1
  S2-  S147  1  0.50791609  0.40830598  0.66829047  1
  S2-  S148  1  0.52509883  0.61947515  0.14434243  1
  S2-  S149  1  0.49002557  0.66027395  0.64943508  1
  S2-  S150  1  0.48264499  0.87549032  0.15749813  1
  S2-  S151  1  0.39168048  0.88483998  0.63866039  1
  S2-  S152  1  0.75960195  0.20707322  0.15995946  1
  S2-  S153  1  0.79698517  0.07333333  0.65942761  1
  S2-  S154  1  0.77334133  0.38693327  0.22866833  1
  S2-  S155  1  0.76081802  0.31759163  0.64147690  1
  S2-  S156  1  0.76362973  0.54527372  0.15371767  1
  S2-  S157  1  0.70622746  0.60841653  0.64747143  1
  S2-  S158  1  0.71786721  0.76222276  0.13235868  1
  S2-  S159  1  0.65227361  0.87233673  0.64400397  1
  S2-  S160  1  0.12212629  0.13482448  0.36190415  1
  S2-  S161  1  0.13418026  0.07190614  0.83537473  1
  S2-  S162  1  0.16010773  0.34655897  0.35399904  1
  S2-  S163  1  0.09101273  0.26986147  0.84510890  1
  S2-  S164  1  0.00567149  0.50441285  0.34547780  1
  S2-  S165  1  0.10887400  0.61723013  0.85269558  1
  S2-  S166  1  0.02074431  0.75750911  0.36174148  1
  S2-  S167  1  0.11485775  0.86883300  0.84968226  1
  S2-  S168  1  0.27851257  -0.01025605  0.35844576  1
  S2-  S169  1  0.34688400  -0.10527694  0.84787119  1
  S2-  S170  1  0.45892581  0.25061165  0.35990414  1
  S2-  S171  1  0.35989754  0.14586442  0.85800604  1
  S2-  S172  1  0.32698852  0.50124261  0.35708215  1
  S2-  S173  1  0.49015217  0.47148187  0.86058010  1
  S2-  S174  1  0.27196562  0.76364753  0.35803952  1
  S2-  S175  1  0.48302625  0.73039192  0.84351012  1
  S2-  S176  1  0.53138536  0.00627374  0.35884133  1
  S2-  S177  1  0.55604318  0.02013173  0.85777138  1
  S2-  S178  1  0.67982866  0.20879328  0.32208831  1
  S2-  S179  1  0.58520849  0.25702907  0.85558887  1
  S2-  S180  1  0.60602520  0.40864634  0.35072648  1
  S2-  S181  1  0.65903242  0.59861350  0.85251669  1
  S2-  S182  1  0.51346699  0.76713212  0.35677546  1
  S2-  S183  1  0.67557271  0.82962888  0.82627481  1
  S2-  S184  1  0.78559570  0.00574145  0.36491079  1
  S2-  S185  1  0.88495965  0.02410696  0.84758368  1
  S2-  S186  1  0.91420188  0.26866051  0.33808523  1
  S2-  S187  1  0.87185638  0.25516178  0.84768415  1
  S2-  S188  1  0.77840709  0.53259392  0.35243530  1
  S2-  S189  1  0.87520309  0.58550891  0.85915628  1
  S2-  S190  1  0.77894373  0.76528213  0.36078471  1
  S2-  S191  1  0.89746619  0.79619585  0.83222888  1
  S2-  S192  1  0.01960383  0.13155302  0.46169857  1
  S2-  S193  1  -0.00613435  0.12297644  0.95830451  1
  S2-  S194  1  0.02562078  0.38125700  0.45208634  1
  S2-  S195  1  -0.00443859  0.37767280  0.95465492  1
  S2-  S196  1  0.02844437  0.62554648  0.45163272  1
  S2-  S197  1  -0.00349006  0.61804479  0.95633855  1
  S2-  S198  1  0.01943932  0.89008714  0.45524939  1
  S2-  S199  1  -0.01181247  0.87176718  0.94984737  1
  S2-  S200  1  0.27789773  0.13701223  0.45393863  1
  S2-  S201  1  0.24395813  0.11947506  0.95923850  1
  S2-  S202  1  0.27204697  0.38175354  0.45936941  1
  S2-  S203  1  0.24836020  0.37194616  0.95720895  1
  S2-  S204  1  0.26734352  0.62601251  0.45377608  1
  S2-  S205  1  0.25174543  0.62520277  0.94683008  1
  S2-  S206  1  0.27137450  0.88224148  0.46171569  1
  S2-  S207  1  0.24656340  0.87541666  0.95253528  1
  S2-  S208  1  0.52471321  0.13531139  0.45625354  1
  S2-  S209  1  0.49915683  0.12744086  0.96530716  1
  S2-  S210  1  0.51900658  0.38605681  0.46241817  1
  S2-  S211  1  0.49432876  0.37045789  0.96510671  1
  S2-  S212  1  0.52047803  0.62689112  0.45072132  1
  S2-  S213  1  0.49136145  0.62498430  0.94689166  1
  S2-  S214  1  0.52427462  0.88247267  0.46194372  1
  S2-  S215  1  0.49794581  0.87545497  0.94958449  1
  S2-  S216  1  0.76909080  0.14095192  0.45714654  1
  S2-  S217  1  0.74467271  0.12808226  0.96006809  1
  S2-  S218  1  0.77323649  0.37847965  0.44694316  1
  S2-  S219  1  0.74341718  0.37608697  0.94416000  1
  S2-  S220  1  0.77584475  0.63395231  0.45648274  1
  S2-  S221  1  0.74139631  0.61730379  0.95841239  1
  S2-  S222  1  0.77573703  0.88285234  0.46483630  1
  S2-  S223  1  0.74520844  0.87256495  0.94972271  1
  S2-  S224  1  0.11555667  -0.00932826  0.03663923  1
  S2-  S225  1  0.14523950  0.01269570  0.54084148  1
  S2-  S226  1  0.12197491  0.25417969  0.04914760  1
  S2-  S227  1  0.14876944  0.25759380  0.54254676  1
  S2-  S228  1  0.12928426  0.49941511  0.03569250  1
  S2-  S229  1  0.14751567  0.50312906  0.55650411  1
  S2-  S230  1  0.11933769  0.74763028  0.03018373  1
  S2-  S231  1  0.14500746  0.75658718  0.53857204  1
  S2-  S232  1  0.37209417  -0.00593261  0.03858676  1
  S2-  S233  1  0.39844188  0.00940276  0.54258456  1
  S2-  S234  1  0.36709341  0.24630548  0.04295058  1
  S2-  S235  1  0.39869082  0.25635314  0.55513797  1
  S2-  S236  1  0.37055255  0.50375134  0.04065313  1
  S2-  S237  1  0.39939267  0.50855193  0.55167403  1
  S2-  S238  1  0.37317838  0.74767214  0.03087372  1
  S2-  S239  1  0.39936075  0.75285334  0.53899809  1
  S2-  S240  1  0.62238758  -0.00310821  0.05297079  1
  S2-  S241  1  0.65110179  0.00838338  0.54264560  1
  S2-  S242  1  0.61935583  0.24775031  0.05472600  1
  S2-  S243  1  0.64501630  0.25910566  0.53929385  1
  S2-  S244  1  0.61726538  0.49915083  0.04011375  1
  S2-  S245  1  0.64812174  0.50737934  0.53993043  1
  S2-  S246  1  0.61660896  0.74680128  0.02923688  1
  S2-  S247  1  0.64890781  0.75334185  0.54011504  1
  S2-  S248  1  0.86873576  -0.00394062  0.05157854  1
  S2-  S249  1  0.89747007  0.01469660  0.54582015  1
  S2-  S250  1  0.87172254  0.25012536  0.05078533  1
  S2-  S251  1  0.89854192  0.25796980  0.54117568  1
  S2-  S252  1  0.86633442  0.49524708  0.04724688  1
  S2-  S253  1  0.89888922  0.50358977  0.54258476  1
  S2-  S254  1  0.86533702  0.74352464  0.03477784  1
  S2-  S255  1  0.89957901  0.75434370  0.54113149  1
