# generated using pymatgen
data_La12Ce14Pr13Nd13Sm12(BiS2)64
_symmetry_space_group_name_H-M   'P 1'
_cell_length_a   16.09789757
_cell_length_b   16.09827404
_cell_length_c   27.35796652
_cell_angle_alpha   89.83926168
_cell_angle_beta   89.89933241
_cell_angle_gamma   89.99630977
_symmetry_Int_Tables_number   1
_chemical_formula_structural   La12Ce14Pr13Nd13Sm12(BiS2)64
_chemical_formula_sum   'La12 Ce14 Pr13 Nd13 Sm12 Bi64 S128'
_cell_volume   7089.73348157
_cell_formula_units_Z   1
loop_
 _symmetry_equiv_pos_site_id
 _symmetry_equiv_pos_as_xyz
  1  'x, y, z'
loop_
 _atom_type_symbol
 _atom_type_oxidation_number
  La3+  3.0
  Ce3+  3.0
  Pr3+  3.0
  Nd3+  3.0
  Sm3+  3.0
  Bi2+  2.0
  S2-  -2.0
loop_
 _atom_site_type_symbol
 _atom_site_label
 _atom_site_symmetry_multiplicity
 _atom_site_fract_x
 _atom_site_fract_y
 _atom_site_fract_z
 _atom_site_occupancy
  La3+  La0  1  0.37267470  0.25116894  0.38221691  1
  La3+  La1  1  0.77311391  0.86171523  0.06028033  1
  La3+  La2  1  0.28645561  0.12232416  0.08314580  1
  La3+  La3  1  0.86165557  0.75528008  0.38469179  1
  La3+  La4  1  0.49473325  0.61641085  0.61308593  1
  La3+  La5  1  0.02503813  0.86435073  0.08214276  1
  La3+  La6  1  0.90451228  0.24362175  0.93562397  1
  La3+  La7  1  0.52732465  0.61935529  0.09429548  1
  La3+  La8  1  0.11670199  0.25848142  0.42544391  1
  La3+  La9  1  0.90880400  0.75153063  0.92220996  1
  La3+  La10  1  0.27243441  0.61705832  0.06530379  1
  La3+  La11  1  0.48895447  0.13300903  0.56838351  1
  Ce3+  Ce12  1  0.11844903  0.00812296  0.43948705  1
  Ce3+  Ce13  1  0.90532079  -0.01023833  0.94531779  1
  Ce3+  Ce14  1  0.74309989  0.38111992  0.56099202  1
  Ce3+  Ce15  1  0.86429031  0.51192274  0.44055988  1
  Ce3+  Ce16  1  0.02569438  0.11702490  0.06034261  1
  Ce3+  Ce17  1  -0.01118363  0.63466628  0.56180888  1
  Ce3+  Ce18  1  0.86880951  0.25708217  0.43107859  1
  Ce3+  Ce19  1  0.52632098  0.86329513  0.05563656  1
  Ce3+  Ce20  1  0.61601837  0.25851357  0.43970582  1
  Ce3+  Ce21  1  0.49217241  0.38500410  0.55521323  1
  Ce3+  Ce22  1  -0.00923965  0.13392213  0.55701130  1
  Ce3+  Ce23  1  0.90795207  0.49661476  0.93524857  1
  Ce3+  Ce24  1  0.53549885  0.11805963  0.06884288  1
  Ce3+  Ce25  1  0.40489597  0.24658017  0.94021543  1
  Pr3+  Pr26  1  0.52760003  0.37334724  0.06787899  1
  Pr3+  Pr27  1  0.74859058  0.63232631  0.57064191  1
  Pr3+  Pr28  1  0.24528881  0.63362516  0.56174083  1
  Pr3+  Pr29  1  0.40132002  -0.00409846  0.94293064  1
  Pr3+  Pr30  1  0.15412815  0.74597012  0.93753812  1
  Pr3+  Pr31  1  0.11240575  0.75702576  0.43306251  1
  Pr3+  Pr32  1  0.65652479  0.74988832  0.91178983  1
  Pr3+  Pr33  1  0.61765524  0.00591980  0.44802699  1
  Pr3+  Pr34  1  0.64987203  0.24052031  0.93645242  1
  Pr3+  Pr35  1  0.61808285  0.51032887  0.44161336  1
  Pr3+  Pr36  1  0.11658640  0.51054854  0.44161105  1
  Pr3+  Pr37  1  0.65814884  0.48815156  0.91832234  1
  Pr3+  Pr38  1  0.77303395  0.37204136  0.06113779  1
  Nd3+  Nd39  1  0.40529798  0.74052623  0.93947388  1
  Nd3+  Nd40  1  0.86645388  0.00225307  0.43895437  1
  Nd3+  Nd41  1  0.15320449  0.49239576  0.93179707  1
  Nd3+  Nd42  1  0.27087375  0.37172397  0.06694619  1
  Nd3+  Nd43  1  0.74604557  0.88033001  0.56823177  1
  Nd3+  Nd44  1  0.02532868  0.61996979  0.06541523  1
  Nd3+  Nd45  1  0.36958945  0.00951396  0.44458130  1
  Nd3+  Nd46  1  0.77160677  0.61866274  0.04936407  1
  Nd3+  Nd47  1  0.37104875  0.75280810  0.43285892  1
  Nd3+  Nd48  1  0.24527414  0.38342054  0.55294290  1
  Nd3+  Nd49  1  0.02281982  0.36844048  0.06446001  1
  Nd3+  Nd50  1  0.40032175  0.48805001  0.93498067  1
  Nd3+  Nd51  1  0.36968146  0.50732886  0.43057102  1
  Sm3+  Sm52  1  0.74291846  0.13266927  0.55524831  1
  Sm3+  Sm53  1  0.27407366  0.86720789  0.06511332  1
  Sm3+  Sm54  1  0.65055622  -0.00707146  0.93650146  1
  Sm3+  Sm55  1  0.15613263  0.24156061  0.94867685  1
  Sm3+  Sm56  1  0.49163889  0.87287513  0.56348673  1
  Sm3+  Sm57  1  0.24053439  0.13482277  0.55693067  1
  Sm3+  Sm58  1  -0.00625196  0.88297068  0.55838240  1
  Sm3+  Sm59  1  0.24170509  0.88062019  0.54892489  1
  Sm3+  Sm60  1  0.77483980  0.11629874  0.05437690  1
  Sm3+  Sm61  1  0.15568789  -0.00591988  0.95241912  1
  Sm3+  Sm62  1  0.62131065  0.75507803  0.44997171  1
  Sm3+  Sm63  1  -0.00667489  0.37888322  0.55153267  1
  Bi2+  Bi64  1  -0.05014878  0.12487154  0.28400053  1
  Bi2+  Bi65  1  0.09888406  0.10245092  0.78516173  1
  Bi2+  Bi66  1  -0.05765763  0.37898425  0.28309960  1
  Bi2+  Bi67  1  0.06660456  0.38620933  0.78251235  1
  Bi2+  Bi68  1  0.04870733  0.61256205  0.30306965  1
  Bi2+  Bi69  1  -0.02499545  0.63653560  0.73807105  1
  Bi2+  Bi70  1  0.01104682  0.93515956  0.29204407  1
  Bi2+  Bi71  1  0.01628929  0.84060668  0.78355109  1
  Bi2+  Bi72  1  0.24486981  0.11862335  0.28072566  1
  Bi2+  Bi73  1  0.33364433  0.11080903  0.81352942  1
  Bi2+  Bi74  1  0.24499712  0.39685924  0.28249381  1
  Bi2+  Bi75  1  0.25933360  0.31342423  0.80439687  1
  Bi2+  Bi76  1  0.23259990  0.66467397  0.28829794  1
  Bi2+  Bi77  1  0.16530178  0.60725706  0.81095142  1
  Bi2+  Bi78  1  0.25423870  0.86024610  0.29177111  1
  Bi2+  Bi79  1  0.24652795  0.87400560  0.80725732  1
  Bi2+  Bi80  1  0.51389840  0.09643680  0.29737861  1
  Bi2+  Bi81  1  0.52610331  0.12778466  0.84582541  1
  Bi2+  Bi82  1  0.59057086  0.39341725  0.29050369  1
  Bi2+  Bi83  1  0.52244758  0.30024789  0.79105447  1
  Bi2+  Bi84  1  0.47529089  0.65031468  0.28227578  1
  Bi2+  Bi85  1  0.45761884  0.60842254  0.81531002  1
  Bi2+  Bi86  1  0.44617799  0.83993380  0.31824789  1
  Bi2+  Bi87  1  0.47187464  0.90589016  0.72130035  1
  Bi2+  Bi88  1  0.76592994  0.16053785  0.29985482  1
  Bi2+  Bi89  1  0.71491604  0.09712209  0.81005997  1
  Bi2+  Bi90  1  0.76484453  0.35105150  0.33009605  1
  Bi2+  Bi91  1  0.78798830  0.35183729  0.78975129  1
  Bi2+  Bi92  1  0.72548771  0.62382608  0.29496600  1
  Bi2+  Bi93  1  0.74592492  0.60765837  0.78705693  1
  Bi2+  Bi94  1  0.71982092  0.89429015  0.29048504  1
  Bi2+  Bi95  1  0.77787707  0.89123158  0.79286593  1
  Bi2+  Bi96  1  0.10029521  0.00689825  0.19743888  1
  Bi2+  Bi97  1  0.10023522  -0.04801180  0.70334210  1
  Bi2+  Bi98  1  0.05048060  0.26409957  0.21259683  1
  Bi2+  Bi99  1  0.15774473  0.23886660  0.70884112  1
  Bi2+  Bi100  1  0.09914923  0.49356981  0.21087318  1
  Bi2+  Bi101  1  0.13929867  0.51999581  0.70783173  1
  Bi2+  Bi102  1  0.10383560  0.73779528  0.20657017  1
  Bi2+  Bi103  1  0.11626616  0.74964835  0.68451036  1
  Bi2+  Bi104  1  0.38911929  -0.04616484  0.22395038  1
  Bi2+  Bi105  1  0.30309886  -0.00072136  0.71398000  1
  Bi2+  Bi106  1  0.46767963  0.28511919  0.19936488  1
  Bi2+  Bi107  1  0.37813137  0.23224811  0.72417151  1
  Bi2+  Bi108  1  0.37336149  0.48891900  0.21396999  1
  Bi2+  Bi109  1  0.33702854  0.48050361  0.70716755  1
  Bi2+  Bi110  1  0.35092031  0.76468190  0.20427688  1
  Bi2+  Bi111  1  0.27873325  0.71829559  0.74331442  1
  Bi2+  Bi112  1  0.56087469  0.03704103  0.19685297  1
  Bi2+  Bi113  1  0.58129712  0.05941855  0.72849872  1
  Bi2+  Bi114  1  0.67013512  0.23867636  0.21434228  1
  Bi2+  Bi115  1  0.67859793  0.23440762  0.70457671  1
  Bi2+  Bi116  1  0.71210549  0.48540554  0.21046665  1
  Bi2+  Bi117  1  0.60940922  0.48432052  0.71592271  1
  Bi2+  Bi118  1  0.57847795  0.79350343  0.23541505  1
  Bi2+  Bi119  1  0.61305423  0.75222317  0.72288591  1
  Bi2+  Bi120  1  0.82008182  0.01060643  0.20447590  1
  Bi2+  Bi121  1  0.90289766  0.09628780  0.77848630  1
  Bi2+  Bi122  1  0.87049595  0.32555662  0.17882151  1
  Bi2+  Bi123  1  0.91203074  0.22781273  0.69422387  1
  Bi2+  Bi124  1  0.90366012  0.51563593  0.19322719  1
  Bi2+  Bi125  1  0.90078013  0.45510839  0.72607381  1
  Bi2+  Bi126  1  0.80773818  0.72603280  0.18286293  1
  Bi2+  Bi127  1  0.86233517  0.78713312  0.69406701  1
  S2-  S128  1  -0.00365727  0.13149239  0.15568829  1
  S2-  S129  1  0.04215274  0.14907972  0.64954014  1
  S2-  S130  1  0.12974769  0.37138079  0.14218239  1
  S2-  S131  1  -0.02867064  0.36987241  0.64895785  1
  S2-  S132  1  -0.02627889  0.72310907  0.14495036  1
  S2-  S133  1  -0.11311766  0.63256296  0.64231012  1
  S2-  S134  1  -0.05555567  0.92318675  0.17332934  1
  S2-  S135  1  -0.04977456  0.91336575  0.65285605  1
  S2-  S136  1  0.21742795  0.11851536  0.17788326  1
  S2-  S137  1  0.27403980  0.14175648  0.65359770  1
  S2-  S138  1  0.32805570  0.34424753  0.16152711  1
  S2-  S139  1  0.23404274  0.39259393  0.65345491  1
  S2-  S140  1  0.14947289  0.61107553  0.14238423  1
  S2-  S141  1  0.32611710  0.62351664  0.65008463  1
  S2-  S142  1  0.17220139  0.86427474  0.14734060  1
  S2-  S143  1  0.23435544  0.87289656  0.64645979  1
  S2-  S144  1  0.43486867  0.13224334  0.14776105  1
  S2-  S145  1  0.51711983  0.18537225  0.66270320  1
  S2-  S146  1  0.50177199  0.47465220  0.15503247  1
  S2-  S147  1  0.48317658  0.44137366  0.64827118  1
  S2-  S148  1  0.37065959  0.62464951  0.15010394  1
  S2-  S149  1  0.49186866  0.60798774  0.72204844  1
  S2-  S150  1  0.52988024  0.78150569  0.14132604  1
  S2-  S151  1  0.48530664  0.78883118  0.64877832  1
  S2-  S152  1  0.69486456  0.10800093  0.14111424  1
  S2-  S153  1  0.77956277  0.13000799  0.65068195  1
  S2-  S154  1  0.66365121  0.35630172  0.14061086  1
  S2-  S155  1  0.72010159  0.38511278  0.65818223  1
  S2-  S156  1  0.69070106  0.61698125  0.14145534  1
  S2-  S157  1  0.65982541  0.62002103  0.65931088  1
  S2-  S158  1  0.73720431  0.87889175  0.15934463  1
  S2-  S159  1  0.71906495  0.86555591  0.66778780  1
  S2-  S160  1  0.12157093  0.03124450  0.34160714  1
  S2-  S161  1  0.14212385  -0.02192870  0.85501410  1
  S2-  S162  1  0.20878348  0.25307929  0.33881798  1
  S2-  S163  1  0.12459389  0.24392930  0.85178352  1
  S2-  S164  1  0.12121242  0.47198422  0.34338303  1
  S2-  S165  1  0.02666569  0.48268716  0.85960367  1
  S2-  S166  1  0.02637020  0.77349930  0.34584675  1
  S2-  S167  1  0.05073046  0.73375928  0.85528446  1
  S2-  S168  1  0.36474087  0.07501868  0.35314255  1
  S2-  S169  1  0.38863092  -0.04515752  0.84493501  1
  S2-  S170  1  0.38080402  0.22206852  0.27140729  1
  S2-  S171  1  0.41153224  0.35503502  0.86168554  1
  S2-  S172  1  0.36989797  0.41499316  0.34266050  1
  S2-  S173  1  0.27483066  0.51528794  0.85832055  1
  S2-  S174  1  0.35776272  0.63383627  0.35733020  1
  S2-  S175  1  0.34619071  0.73666375  0.84486480  1
  S2-  S176  1  0.62411235  0.00012799  0.34710041  1
  S2-  S177  1  0.65222779  -0.09335251  0.85093311  1
  S2-  S178  1  0.54465730  0.24749479  0.35102914  1
  S2-  S179  1  0.65715310  0.33683058  0.85350154  1
  S2-  S180  1  0.58595481  0.54076057  0.34253809  1
  S2-  S181  1  0.60059666  0.52051351  0.81913260  1
  S2-  S182  1  0.68680193  0.75912153  0.35784987  1
  S2-  S183  1  0.57018720  0.72655484  0.81906652  1
  S2-  S184  1  0.86033383  -0.07395296  0.34963890  1
  S2-  S185  1  0.91337463  -0.08741382  0.85844792  1
  S2-  S186  1  0.98268442  0.24775936  0.35441773  1
  S2-  S187  1  0.89235263  0.24601325  0.83533423  1
  S2-  S188  1  0.85964446  0.58460338  0.35126075  1
  S2-  S189  1  0.80564008  0.49783958  0.85290970  1
  S2-  S190  1  0.83890573  0.75261434  0.27445678  1
  S2-  S191  1  0.79251774  0.73384580  0.84147118  1
  S2-  S192  1  -0.00894879  0.12754890  0.45265190  1
  S2-  S193  1  0.03006667  0.11662329  0.95352932  1
  S2-  S194  1  -0.01095256  0.38655371  0.44866507  1
  S2-  S195  1  0.03021669  0.36198419  0.95956696  1
  S2-  S196  1  -0.01068015  0.63503657  0.45507428  1
  S2-  S197  1  0.02992115  0.62021516  0.95889882  1
  S2-  S198  1  -0.00641803  0.88457979  0.45449243  1
  S2-  S199  1  0.03305231  0.87328256  0.96520657  1
  S2-  S200  1  0.24424732  0.13315018  0.45356711  1
  S2-  S201  1  0.27871007  0.11967248  0.96225858  1
  S2-  S202  1  0.24262943  0.38416728  0.44900371  1
  S2-  S203  1  0.27390385  0.36474863  0.95999460  1
  S2-  S204  1  0.23899771  0.63527732  0.45519533  1
  S2-  S205  1  0.27713577  0.62219626  0.95843659  1
  S2-  S206  1  0.24435934  0.88133213  0.44410742  1
  S2-  S207  1  0.27811929  0.86906901  0.96051704  1
  S2-  S208  1  0.49274498  0.13150997  0.45999255  1
  S2-  S209  1  0.52734819  0.11647882  0.96273506  1
  S2-  S210  1  0.49333002  0.38237651  0.45092053  1
  S2-  S211  1  0.53092545  0.36860743  0.95941993  1
  S2-  S212  1  0.49639196  0.63614470  0.45162812  1
  S2-  S213  1  0.52681098  0.61443891  0.93485644  1
  S2-  S214  1  0.49350447  0.87951838  0.45821705  1
  S2-  S215  1  0.52563419  0.86839097  0.94991303  1
  S2-  S216  1  0.74341061  0.13168296  0.45022093  1
  S2-  S217  1  0.77743910  0.11429885  0.94978464  1
  S2-  S218  1  0.74251739  0.38247707  0.45473361  1
  S2-  S219  1  0.78210830  0.36732115  0.95554189  1
  S2-  S220  1  0.74359235  0.63478366  0.46127166  1
  S2-  S221  1  0.77849615  0.62210786  0.94699629  1
  S2-  S222  1  0.74275300  0.88154087  0.46080203  1
  S2-  S223  1  0.77559567  0.87141555  0.95366068  1
  S2-  S224  1  0.15629971  -0.00158916  0.05502567  1
  S2-  S225  1  0.11940844  0.00725717  0.54659599  1
  S2-  S226  1  0.15282539  0.23821029  0.05167369  1
  S2-  S227  1  0.11900012  0.25824978  0.53934986  1
  S2-  S228  1  0.14718743  0.49067685  0.03849559  1
  S2-  S229  1  0.11504666  0.50751757  0.54888187  1
  S2-  S230  1  0.15050350  0.74814474  0.04355388  1
  S2-  S231  1  0.11662611  0.75814738  0.54172769  1
  S2-  S232  1  0.40092130  -0.01155539  0.05190482  1
  S2-  S233  1  0.36646725  0.00255533  0.55143290  1
  S2-  S234  1  0.40319650  0.24810790  0.04622108  1
  S2-  S235  1  0.36566613  0.25850871  0.55447978  1
  S2-  S236  1  0.40001992  0.49455735  0.04209690  1
  S2-  S237  1  0.36852764  0.50933506  0.54022126  1
  S2-  S238  1  0.39805505  0.74516319  0.04435394  1
  S2-  S239  1  0.36473371  0.76067735  0.53956368  1
  S2-  S240  1  0.65123210  -0.01012353  0.04088721  1
  S2-  S241  1  0.61689624  0.00483768  0.55641747  1
  S2-  S242  1  0.65372535  0.24115342  0.04121811  1
  S2-  S243  1  0.61910048  0.25611829  0.54717883  1
  S2-  S244  1  0.64867510  0.49693600  0.03751318  1
  S2-  S245  1  0.61823058  0.50886474  0.54853767  1
  S2-  S246  1  0.64627820  0.73968844  0.03375388  1
  S2-  S247  1  0.62005266  0.75688749  0.55215694  1
  S2-  S248  1  0.89801575  -0.00678267  0.05050160  1
  S2-  S249  1  0.86687633  0.00760062  0.54549771  1
  S2-  S250  1  0.89787234  0.24100645  0.04508158  1
  S2-  S251  1  0.86642063  0.25677805  0.54014692  1
  S2-  S252  1  0.90150921  0.49457185  0.04479245  1
  S2-  S253  1  0.87001713  0.50176438  0.54604873  1
  S2-  S254  1  0.89907987  0.74342345  0.03600212  1
  S2-  S255  1  0.87067589  0.76379964  0.55045288  1
