# generated using pymatgen
data_La12Ce14Pr13Nd13Sm12(BiS2)64
_symmetry_space_group_name_H-M   'P 1'
_cell_length_a   16.05960942
_cell_length_b   16.17405847
_cell_length_c   27.26164869
_cell_angle_alpha   90.35259083
_cell_angle_beta   90.02257283
_cell_angle_gamma   90.09029423
_symmetry_Int_Tables_number   1
_chemical_formula_structural   La12Ce14Pr13Nd13Sm12(BiS2)64
_chemical_formula_sum   'La12 Ce14 Pr13 Nd13 Sm12 Bi64 S128'
_cell_volume   7081.04421875
_cell_formula_units_Z   1
loop_
 _symmetry_equiv_pos_site_id
 _symmetry_equiv_pos_as_xyz
  1  'x, y, z'
loop_
 _atom_type_symbol
 _atom_type_oxidation_number
  La3+  3.0
  Ce3+  3.0
  Pr3+  3.0
  Nd3+  3.0
  Sm3+  3.0
  Bi2+  2.0
  S2-  -2.0
loop_
 _atom_site_type_symbol
 _atom_site_label
 _atom_site_symmetry_multiplicity
 _atom_site_fract_x
 _atom_site_fract_y
 _atom_site_fract_z
 _atom_site_occupancy
  La3+  La0  1  0.90465606  0.49935227  0.43493750  1
  La3+  La1  1  0.73499386  0.37220813  0.06518373  1
  La3+  La2  1  0.39947472  0.00900156  0.42136143  1
  La3+  La3  1  0.85764159  0.73640609  0.93899564  1
  La3+  La4  1  0.47821122  0.61202083  0.07023197  1
  La3+  La5  1  0.23112991  0.36599970  0.06458433  1
  La3+  La6  1  0.60266877  0.48897802  0.92689235  1
  La3+  La7  1  0.65442216  0.00433770  0.41547442  1
  La3+  La8  1  0.65656205  0.73983493  0.39943063  1
  La3+  La9  1  0.60503212  -0.01301309  0.93704947  1
  La3+  La10  1  0.73560382  0.11383910  0.09707038  1
  La3+  La11  1  0.27831736  0.38285016  0.58155866  1
  Ce3+  Ce12  1  0.02250775  0.12627272  0.56950627  1
  Ce3+  Ce13  1  0.23372187  0.11686522  0.06575792  1
  Ce3+  Ce14  1  0.10936516  0.24033858  0.93890527  1
  Ce3+  Ce15  1  0.72515863  0.86511237  0.06782361  1
  Ce3+  Ce16  1  0.11229174  -0.00984398  0.94481855  1
  Ce3+  Ce17  1  0.53292351  0.12427520  0.55811750  1
  Ce3+  Ce18  1  0.35641994  0.23726702  0.93674858  1
  Ce3+  Ce19  1  0.90210226  0.24907448  0.44667278  1
  Ce3+  Ce20  1  0.72480033  0.61375017  0.06518669  1
  Ce3+  Ce21  1  0.40338629  0.75064540  0.43440985  1
  Ce3+  Ce22  1  0.02765594  0.87599047  0.56362426  1
  Ce3+  Ce23  1  0.35707511  0.74363063  0.94995772  1
  Ce3+  Ce24  1  0.29078297  0.12241717  0.57190481  1
  Ce3+  Ce25  1  0.02405198  0.38037054  0.57415615  1
  Pr3+  Pr26  1  0.66084207  0.25121151  0.43155537  1
  Pr3+  Pr27  1  0.90300162  0.00020634  0.43294317  1
  Pr3+  Pr28  1  0.23219269  0.86992077  0.07707645  1
  Pr3+  Pr29  1  0.48104572  0.87352685  0.07748245  1
  Pr3+  Pr30  1  0.15050648  0.75256977  0.43353857  1
  Pr3+  Pr31  1  0.27841032  0.62720139  0.55443181  1
  Pr3+  Pr32  1  0.47656875  0.11534252  0.06939880  1
  Pr3+  Pr33  1  0.35175181  -0.01740584  0.92712341  1
  Pr3+  Pr34  1  0.15438093  0.25052795  0.45343792  1
  Pr3+  Pr35  1  0.85708682  0.23849853  0.93605436  1
  Pr3+  Pr36  1  0.77728356  0.62546457  0.55969665  1
  Pr3+  Pr37  1  -0.02423764  0.86740921  0.06153599  1
  Pr3+  Pr38  1  0.85486912  -0.01576557  0.93331811  1
  Nd3+  Nd39  1  0.23022953  0.61460739  0.07322671  1
  Nd3+  Nd40  1  -0.02060744  0.11754536  0.05928167  1
  Nd3+  Nd41  1  0.15168182  0.49431683  0.43399229  1
  Nd3+  Nd42  1  0.53411793  0.87713843  0.54318179  1
  Nd3+  Nd43  1  0.66021269  0.49662073  0.42966383  1
  Nd3+  Nd44  1  0.28286556  0.87699633  0.55626705  1
  Nd3+  Nd45  1  0.77337752  0.11996726  0.56834707  1
  Nd3+  Nd46  1  0.90576913  0.75154271  0.43354242  1
  Nd3+  Nd47  1  0.40732365  0.50225424  0.44200102  1
  Nd3+  Nd48  1  0.40437406  0.25422646  0.44370366  1
  Nd3+  Nd49  1  0.11217842  0.73874390  0.94915661  1
  Nd3+  Nd50  1  0.35793655  0.49071278  0.93384981  1
  Nd3+  Nd51  1  0.60961996  0.23312866  0.94249760  1
  Sm3+  Sm52  1  0.48518399  0.36302031  0.05293181  1
  Sm3+  Sm53  1  0.02844165  0.62760208  0.55741282  1
  Sm3+  Sm54  1  0.85613943  0.49464429  0.93112778  1
  Sm3+  Sm55  1  0.77877085  0.87640675  0.55193388  1
  Sm3+  Sm56  1  0.77718401  0.37640727  0.56882854  1
  Sm3+  Sm57  1  0.11422686  0.49111040  0.93468832  1
  Sm3+  Sm58  1  0.60418369  0.74342181  0.94021920  1
  Sm3+  Sm59  1  -0.01573250  0.61290092  0.06531872  1
  Sm3+  Sm60  1  0.15324193  0.00289321  0.45268314  1
  Sm3+  Sm61  1  0.53063816  0.37781234  0.56768373  1
  Sm3+  Sm62  1  0.53261392  0.62780791  0.55430778  1
  Sm3+  Sm63  1  -0.01958694  0.36861666  0.04864206  1
  Bi2+  Bi64  1  -0.02591900  0.11289779  0.30183061  1
  Bi2+  Bi65  1  0.02979523  0.15095720  0.71399114  1
  Bi2+  Bi66  1  0.04203603  0.36286719  0.29523905  1
  Bi2+  Bi67  1  0.02424904  0.48749995  0.80442828  1
  Bi2+  Bi68  1  0.01628195  0.63056926  0.28534090  1
  Bi2+  Bi69  1  -0.03814332  0.67562853  0.78824383  1
  Bi2+  Bi70  1  0.01322587  0.91953120  0.31853793  1
  Bi2+  Bi71  1  -0.00729016  0.88039908  0.75713703  1
  Bi2+  Bi72  1  0.17059832  0.12523065  0.28043462  1
  Bi2+  Bi73  1  0.15961298  0.13135703  0.80060114  1
  Bi2+  Bi74  1  0.23924587  0.39244828  0.30503645  1
  Bi2+  Bi75  1  0.27133709  0.38342757  0.79912340  1
  Bi2+  Bi76  1  0.20944344  0.58315108  0.28564576  1
  Bi2+  Bi77  1  0.23674427  0.65449469  0.79491608  1
  Bi2+  Bi78  1  0.18976851  0.85573927  0.28284172  1
  Bi2+  Bi79  1  0.22783742  0.85049073  0.79908169  1
  Bi2+  Bi80  1  0.48805384  0.08510925  0.29506309  1
  Bi2+  Bi81  1  0.51532313  0.15770986  0.79641816  1
  Bi2+  Bi82  1  0.58303165  0.35805966  0.30404463  1
  Bi2+  Bi83  1  0.56042596  0.41479175  0.78762689  1
  Bi2+  Bi84  1  0.47893827  0.57348914  0.28726497  1
  Bi2+  Bi85  1  0.44562651  0.66382842  0.77715413  1
  Bi2+  Bi86  1  0.46980171  0.83373286  0.28118638  1
  Bi2+  Bi87  1  0.47343734  0.88720306  0.79286568  1
  Bi2+  Bi88  1  0.75755539  0.13547672  0.29172875  1
  Bi2+  Bi89  1  0.76063419  0.17757627  0.80408877  1
  Bi2+  Bi90  1  0.77237064  0.35320571  0.28112983  1
  Bi2+  Bi91  1  0.83659752  0.41572832  0.80149379  1
  Bi2+  Bi92  1  0.76442686  0.59250772  0.28771243  1
  Bi2+  Bi93  1  0.64488834  0.66177141  0.80211793  1
  Bi2+  Bi94  1  0.83541735  0.86126069  0.28255980  1
  Bi2+  Bi95  1  0.73546881  0.93322896  0.80787923  1
  Bi2+  Bi96  1  0.16396207  -0.01517950  0.19101561  1
  Bi2+  Bi97  1  0.14159083  -0.01235479  0.71522338  1
  Bi2+  Bi98  1  0.12312071  0.17470566  0.17642517  1
  Bi2+  Bi99  1  0.06962465  0.33574607  0.73589086  1
  Bi2+  Bi100  1  0.12124880  0.46302069  0.20190504  1
  Bi2+  Bi101  1  0.15733249  0.52576440  0.71538230  1
  Bi2+  Bi102  1  0.07792363  0.75883482  0.19936064  1
  Bi2+  Bi103  1  0.07561099  0.73083113  0.69827501  1
  Bi2+  Bi104  1  0.35864414  0.00837427  0.20155846  1
  Bi2+  Bi105  1  0.33356741  0.03728835  0.71017549  1
  Bi2+  Bi106  1  0.41305285  0.26863059  0.27947589  1
  Bi2+  Bi107  1  0.31508892  0.22627914  0.74380024  1
  Bi2+  Bi108  1  0.37765769  0.47860582  0.21103962  1
  Bi2+  Bi109  1  0.42174652  0.50376819  0.70898179  1
  Bi2+  Bi110  1  0.27383943  0.72589591  0.21263344  1
  Bi2+  Bi111  1  0.30706674  0.73931845  0.69977508  1
  Bi2+  Bi112  1  0.63400237  -0.04157171  0.21190784  1
  Bi2+  Bi113  1  0.58934657  0.00352113  0.68704853  1
  Bi2+  Bi114  1  0.56832299  0.25303274  0.20364999  1
  Bi2+  Bi115  1  0.59761023  0.27593136  0.70905523  1
  Bi2+  Bi116  1  0.64467821  0.45884813  0.19545388  1
  Bi2+  Bi117  1  0.67658712  0.54479264  0.69819961  1
  Bi2+  Bi118  1  0.67678215  0.71064747  0.20985543  1
  Bi2+  Bi119  1  0.58131413  0.78420248  0.71648793  1
  Bi2+  Bi120  1  0.89853881  0.00577468  0.21402193  1
  Bi2+  Bi121  1  0.85672457  -0.00765756  0.70550010  1
  Bi2+  Bi122  1  0.95432910  0.25286378  0.21548367  1
  Bi2+  Bi123  1  0.79112058  0.29819945  0.71420914  1
  Bi2+  Bi124  1  0.90532999  0.52153107  0.20907259  1
  Bi2+  Bi125  1  0.87205160  0.52652897  0.70711604  1
  Bi2+  Bi126  1  0.87823047  0.71951642  0.20077558  1
  Bi2+  Bi127  1  0.77472960  0.77118807  0.74379657  1
  S2-  S128  1  -0.10861252  0.13620175  0.14542861  1
  S2-  S129  1  -0.10016627  0.11799014  0.64245172  1
  S2-  S130  1  -0.02058785  0.39137868  0.14661328  1
  S2-  S131  1  -0.10547002  0.38148313  0.64520183  1
  S2-  S132  1  0.09867699  0.60557418  0.14135023  1
  S2-  S133  1  0.02424544  0.58562288  0.65259183  1
  S2-  S134  1  0.00873898  0.90899532  0.15773015  1
  S2-  S135  1  -0.04126464  0.87038576  0.65306001  1
  S2-  S136  1  0.34161939  0.14170012  0.14197255  1
  S2-  S137  1  0.23138880  0.16028073  0.66261452  1
  S2-  S138  1  0.25542108  0.38165113  0.16418883  1
  S2-  S139  1  0.14420837  0.38656063  0.64960219  1
  S2-  S140  1  0.35287143  0.60661042  0.14709554  1
  S2-  S141  1  0.28856922  0.57369030  0.64964829  1
  S2-  S142  1  0.35262617  0.85550642  0.15320551  1
  S2-  S143  1  0.27022061  0.88952307  0.65601732  1
  S2-  S144  1  0.50453750  0.00995417  0.15225015  1
  S2-  S145  1  0.42792169  0.09605254  0.63649413  1
  S2-  S146  1  0.49270166  0.39456117  0.15029873  1
  S2-  S147  1  0.41452128  0.37762264  0.64708969  1
  S2-  S148  1  0.59922046  0.60639006  0.14490315  1
  S2-  S149  1  0.53720884  0.60204661  0.65215412  1
  S2-  S150  1  0.60930813  0.83103015  0.14614185  1
  S2-  S151  1  0.50618711  0.88442190  0.64309722  1
  S2-  S152  1  0.67439371  0.12235365  0.19801845  1
  S2-  S153  1  0.64419444  0.13698859  0.63948195  1
  S2-  S154  1  0.71522315  0.30832373  0.15914786  1
  S2-  S155  1  0.65215381  0.39708400  0.63960448  1
  S2-  S156  1  0.77653771  0.50526133  0.13791559  1
  S2-  S157  1  0.79458762  0.66525203  0.65881074  1
  S2-  S158  1  0.76820799  0.95761085  0.14913514  1
  S2-  S159  1  0.73895970  0.94497304  0.64119466  1
  S2-  S160  1  0.16501419  -0.00243973  0.35502730  1
  S2-  S161  1  0.20141206  -0.01261681  0.86032642  1
  S2-  S162  1  0.15453387  0.26027604  0.35224913  1
  S2-  S163  1  0.14282131  0.28719631  0.84663461  1
  S2-  S164  1  0.03046758  0.49557296  0.35940057  1
  S2-  S165  1  0.23431161  0.50990871  0.86144778  1
  S2-  S166  1  0.03115671  0.75122336  0.35902427  1
  S2-  S167  1  0.11003351  0.74631629  0.84923413  1
  S2-  S168  1  0.37726961  -0.04380527  0.32337469  1
  S2-  S169  1  0.42295514  0.03319098  0.83436032  1
  S2-  S170  1  0.37500990  0.16304358  0.36021391  1
  S2-  S171  1  0.38869008  0.26612824  0.84094988  1
  S2-  S172  1  0.38910597  0.46842887  0.34521126  1
  S2-  S173  1  0.46954384  0.49788231  0.85438181  1
  S2-  S174  1  0.40369676  0.71192447  0.33846395  1
  S2-  S175  1  0.36297778  0.83128618  0.86516286  1
  S2-  S176  1  0.58566585  -0.04324955  0.31642850  1
  S2-  S177  1  0.62950514  0.07504540  0.84526216  1
  S2-  S178  1  0.62774060  0.14733099  0.34999446  1
  S2-  S179  1  0.62497960  0.28433938  0.84709781  1
  S2-  S180  1  0.61599402  0.58438054  0.34610043  1
  S2-  S181  1  0.69494451  0.50127113  0.83973265  1
  S2-  S182  1  0.61450665  0.76953801  0.29859123  1
  S2-  S183  1  0.59865984  0.85570236  0.86254289  1
  S2-  S184  1  0.79626452  -0.00378590  0.35070556  1
  S2-  S185  1  0.85425118  0.05307840  0.83663436  1
  S2-  S186  1  0.81465376  0.25398782  0.36136518  1
  S2-  S187  1  0.89552451  0.26093568  0.83787684  1
  S2-  S188  1  0.79375292  0.47500571  0.35586498  1
  S2-  S189  1  0.87313510  0.61833666  0.86256785  1
  S2-  S190  1  0.81109710  0.73336858  0.34831682  1
  S2-  S191  1  0.84539538  0.85028976  0.86064068  1
  S2-  S192  1  0.02811472  0.12380064  0.45896918  1
  S2-  S193  1  -0.01452440  0.11391850  0.95019937  1
  S2-  S194  1  0.02792268  0.37230496  0.46306471  1
  S2-  S195  1  -0.01478584  0.37145240  0.94437712  1
  S2-  S196  1  0.03156859  0.62562333  0.45615297  1
  S2-  S197  1  -0.00779456  0.61235745  0.96027548  1
  S2-  S198  1  0.03029828  0.87939553  0.45875134  1
  S2-  S199  1  -0.01151051  0.86384242  0.95538267  1
  S2-  S200  1  0.27584709  0.12531524  0.46422711  1
  S2-  S201  1  0.23301263  0.11767543  0.95774741  1
  S2-  S202  1  0.27955081  0.37870341  0.46121693  1
  S2-  S203  1  0.23319595  0.36474331  0.95621415  1
  S2-  S204  1  0.27457709  0.62353644  0.44663764  1
  S2-  S205  1  0.23455600  0.61662379  0.96549591  1
  S2-  S206  1  0.27614112  0.87568371  0.44884453  1
  S2-  S207  1  0.23075081  0.86475489  0.96780150  1
  S2-  S208  1  0.52780510  0.12866311  0.45310502  1
  S2-  S209  1  0.47887979  0.11392509  0.95608437  1
  S2-  S210  1  0.53026490  0.37697661  0.45252143  1
  S2-  S211  1  0.48237376  0.35936978  0.95091708  1
  S2-  S212  1  0.52989625  0.62942270  0.45092800  1
  S2-  S213  1  0.48092142  0.62079977  0.95661559  1
  S2-  S214  1  0.53136352  0.87049176  0.43621458  1
  S2-  S215  1  0.47994333  0.86646518  0.96777533  1
  S2-  S216  1  0.78076611  0.12401740  0.45979125  1
  S2-  S217  1  0.73543321  0.11436147  0.95284976  1
  S2-  S218  1  0.78043913  0.37505768  0.46417543  1
  S2-  S219  1  0.73675077  0.36740526  0.95268602  1
  S2-  S220  1  0.77728647  0.62774678  0.45323381  1
  S2-  S221  1  0.72592132  0.61733728  0.95632378  1
  S2-  S222  1  0.77512000  0.86921985  0.44884058  1
  S2-  S223  1  0.72980478  0.86091188  0.96380121  1
  S2-  S224  1  0.10542918  -0.00710404  0.04943900  1
  S2-  S225  1  0.15361728  0.00192030  0.55720824  1
  S2-  S226  1  0.10325020  0.24304809  0.04497523  1
  S2-  S227  1  0.15122489  0.24881039  0.55715911  1
  S2-  S228  1  0.10673499  0.48864048  0.03962449  1
  S2-  S229  1  0.15133256  0.50437900  0.54159748  1
  S2-  S230  1  0.10608755  0.74540807  0.05361375  1
  S2-  S231  1  0.15345776  0.75242607  0.54473683  1
  S2-  S232  1  0.35172141  -0.00804579  0.04446882  1
  S2-  S233  1  0.40510643  -0.00532655  0.53104044  1
  S2-  S234  1  0.35828334  0.24539170  0.04236410  1
  S2-  S235  1  0.40551459  0.25468540  0.54755284  1
  S2-  S236  1  0.35849357  0.48477796  0.04216268  1
  S2-  S237  1  0.40838955  0.50469996  0.54568355  1
  S2-  S238  1  0.35324655  0.74194112  0.05213736  1
  S2-  S239  1  0.40553775  0.75061321  0.54268156  1
  S2-  S240  1  0.61208936  -0.00124543  0.04758756  1
  S2-  S241  1  0.65566678  -0.00168480  0.52983803  1
  S2-  S242  1  0.60849930  0.23626270  0.05053382  1
  S2-  S243  1  0.65363806  0.25652531  0.54006668  1
  S2-  S244  1  0.60425600  0.48640777  0.03784147  1
  S2-  S245  1  0.65140511  0.50405009  0.53758222  1
  S2-  S246  1  0.60107701  0.73787937  0.04185892  1
  S2-  S247  1  0.65525435  0.75278035  0.55147084  1
  S2-  S248  1  0.85646012  -0.00636743  0.04168528  1
  S2-  S249  1  0.90319531  -0.00284413  0.54045888  1
  S2-  S250  1  0.85759864  0.24477632  0.04341684  1
  S2-  S251  1  0.89928603  0.25089050  0.54919235  1
  S2-  S252  1  0.86466635  0.49542668  0.03407700  1
  S2-  S253  1  0.90362878  0.50515825  0.54433745  1
  S2-  S254  1  0.85763480  0.73516045  0.05161899  1
  S2-  S255  1  0.90426443  0.75110088  0.54331225  1
