# generated using pymatgen
data_La12Ce14Pr13Nd13Sm12(BiS2)64
_symmetry_space_group_name_H-M   'P 1'
_cell_length_a   16.15229335
_cell_length_b   16.09825813
_cell_length_c   27.36107613
_cell_angle_alpha   89.88036237
_cell_angle_beta   89.88880024
_cell_angle_gamma   90.06142591
_symmetry_Int_Tables_number   1
_chemical_formula_structural   La12Ce14Pr13Nd13Sm12(BiS2)64
_chemical_formula_sum   'La12 Ce14 Pr13 Nd13 Sm12 Bi64 S128'
_cell_volume   7114.49762249
_cell_formula_units_Z   1
loop_
 _symmetry_equiv_pos_site_id
 _symmetry_equiv_pos_as_xyz
  1  'x, y, z'
loop_
 _atom_type_symbol
 _atom_type_oxidation_number
  La3+  3.0
  Ce3+  3.0
  Pr3+  3.0
  Nd3+  3.0
  Sm3+  3.0
  Bi2+  2.0
  S2-  -2.0
loop_
 _atom_site_type_symbol
 _atom_site_label
 _atom_site_symmetry_multiplicity
 _atom_site_fract_x
 _atom_site_fract_y
 _atom_site_fract_z
 _atom_site_occupancy
  La3+  La0  1  0.00648034  0.37209381  0.06499161  1
  La3+  La1  1  0.87168010  -0.00538153  0.39164534  1
  La3+  La2  1  0.87772067  0.23715041  0.93233801  1
  La3+  La3  1  0.38215990  0.74311033  0.41647292  1
  La3+  La4  1  0.24809719  0.61704340  0.57980524  1
  La3+  La5  1  0.01257162  0.12822485  0.09937075  1
  La3+  La6  1  0.38773299  0.00792587  0.91696505  1
  La3+  La7  1  0.01315256  0.86110933  0.08174297  1
  La3+  La8  1  0.75495367  0.86594572  0.06628768  1
  La3+  La9  1  0.63703156  0.49972746  0.92337821  1
  La3+  La10  1  0.74320188  0.11739481  0.08831027  1
  La3+  La11  1  0.74815213  0.62891740  0.58628282  1
  Ce3+  Ce12  1  0.63209627  0.49482661  0.44472507  1
  Ce3+  Ce13  1  0.87978348  0.74614331  0.43320968  1
  Ce3+  Ce14  1  0.63520732  0.74680313  0.93309368  1
  Ce3+  Ce15  1  0.63837058  0.00319978  0.94164012  1
  Ce3+  Ce16  1  0.88725434  0.49510908  0.91336890  1
  Ce3+  Ce17  1  0.25745725  0.62519006  0.05459124  1
  Ce3+  Ce18  1  0.25015903  0.37398005  0.55519737  1
  Ce3+  Ce19  1  0.50930544  0.37428819  0.05960127  1
  Ce3+  Ce20  1  0.50578062  0.87006864  0.04674952  1
  Ce3+  Ce21  1  0.25194337  0.87064660  0.54781103  1
  Ce3+  Ce22  1  0.50184158  0.37544414  0.55618223  1
  Ce3+  Ce23  1  0.49980877  0.62440466  0.55272531  1
  Ce3+  Ce24  1  0.88420453  0.00342430  0.96091449  1
  Ce3+  Ce25  1  0.13029262  -0.00038730  0.95388782  1
  Pr3+  Pr26  1  0.00028608  0.86998575  0.55448524  1
  Pr3+  Pr27  1  0.25848139  0.37335339  0.06920230  1
  Pr3+  Pr28  1  0.38043668  0.24705597  0.94558621  1
  Pr3+  Pr29  1  0.00794085  0.62428487  0.05237579  1
  Pr3+  Pr30  1  0.25162285  0.11836808  0.56492793  1
  Pr3+  Pr31  1  0.75927255  0.37104538  0.05978774  1
  Pr3+  Pr32  1  0.63001886  0.74781439  0.42888448  1
  Pr3+  Pr33  1  0.37742310  0.00746478  0.42903745  1
  Pr3+  Pr34  1  0.12638364  0.49505122  0.43175869  1
  Pr3+  Pr35  1  0.51003294  0.61470309  0.06636106  1
  Pr3+  Pr36  1  0.88329439  0.75199269  0.92787041  1
  Pr3+  Pr37  1  0.13547788  0.75369379  0.93017678  1
  Pr3+  Pr38  1  0.63169914  0.24322375  0.44330338  1
  Nd3+  Nd39  1  0.75276643  0.12447752  0.56628822  1
  Nd3+  Nd40  1  -0.00290966  0.62218982  0.55602329  1
  Nd3+  Nd41  1  0.50032143  0.11949860  0.56478926  1
  Nd3+  Nd42  1  0.13027059  0.24543504  0.94738031  1
  Nd3+  Nd43  1  0.12316613  -0.00023147  0.43189345  1
  Nd3+  Nd44  1  0.37528575  0.49562760  0.43322003  1
  Nd3+  Nd45  1  0.75799480  0.37218448  0.57930497  1
  Nd3+  Nd46  1  0.26374457  0.87328798  0.05664315  1
  Nd3+  Nd47  1  0.13165399  0.74812170  0.42957327  1
  Nd3+  Nd48  1  0.38503176  0.74676123  0.93446510  1
  Nd3+  Nd49  1  0.38040202  0.49813666  0.93847376  1
  Nd3+  Nd50  1  0.26045497  0.11898928  0.06872183  1
  Nd3+  Nd51  1  -0.00151503  0.37283192  0.56293088  1
  Sm3+  Sm52  1  0.62944249  -0.00113885  0.44932110  1
  Sm3+  Sm53  1  0.49820786  0.86853358  0.55329140  1
  Sm3+  Sm54  1  0.75845558  0.62427097  0.05465304  1
  Sm3+  Sm55  1  -0.00231841  0.11992704  0.55515320  1
  Sm3+  Sm56  1  0.87482512  0.25019429  0.43309787  1
  Sm3+  Sm57  1  0.13193877  0.49636023  0.94129921  1
  Sm3+  Sm58  1  0.87385358  0.49440205  0.43882558  1
  Sm3+  Sm59  1  0.75212450  0.86998895  0.55294811  1
  Sm3+  Sm60  1  0.12245669  0.24561283  0.44768043  1
  Sm3+  Sm61  1  0.63314072  0.25560156  0.93945268  1
  Sm3+  Sm62  1  0.50462112  0.11924597  0.06056727  1
  Sm3+  Sm63  1  0.37643817  0.24547599  0.44580140  1
  Bi2+  Bi64  1  0.07947259  0.13176768  0.29070724  1
  Bi2+  Bi65  1  0.01075195  0.15675840  0.80325790  1
  Bi2+  Bi66  1  -0.00103319  0.37847688  0.29359343  1
  Bi2+  Bi67  1  0.01333290  0.41783809  0.78796962  1
  Bi2+  Bi68  1  -0.10952662  0.58656202  0.30347672  1
  Bi2+  Bi69  1  -0.00093637  0.61151602  0.76586052  1
  Bi2+  Bi70  1  -0.01030109  0.84185907  0.27681420  1
  Bi2+  Bi71  1  -0.06966333  0.87785090  0.79729651  1
  Bi2+  Bi72  1  0.25921314  0.06605512  0.31211081  1
  Bi2+  Bi73  1  0.22493244  0.12338718  0.79936581  1
  Bi2+  Bi74  1  0.27296427  0.34854125  0.29504774  1
  Bi2+  Bi75  1  0.24005871  0.36570411  0.73620013  1
  Bi2+  Bi76  1  0.28652266  0.60929151  0.27441676  1
  Bi2+  Bi77  1  0.24961884  0.60406315  0.80315453  1
  Bi2+  Bi78  1  0.17620263  0.88131281  0.30675683  1
  Bi2+  Bi79  1  0.22928135  0.85762473  0.79541224  1
  Bi2+  Bi80  1  0.49471935  0.22465851  0.28878246  1
  Bi2+  Bi81  1  0.46522524  0.07933414  0.78472411  1
  Bi2+  Bi82  1  0.45559137  0.41807442  0.30401293  1
  Bi2+  Bi83  1  0.48945031  0.29795755  0.78686064  1
  Bi2+  Bi84  1  0.54935814  0.62566158  0.28676641  1
  Bi2+  Bi85  1  0.50085914  0.70487331  0.79048946  1
  Bi2+  Bi86  1  0.42059165  0.83220429  0.27403487  1
  Bi2+  Bi87  1  0.59776991  0.86839404  0.75769130  1
  Bi2+  Bi88  1  0.73399786  0.14650973  0.29714699  1
  Bi2+  Bi89  1  0.74563812  0.05495359  0.82021683  1
  Bi2+  Bi90  1  0.73953800  0.41603844  0.29322771  1
  Bi2+  Bi91  1  0.74912509  0.34518045  0.80280134  1
  Bi2+  Bi92  1  0.72874387  0.72090324  0.29668875  1
  Bi2+  Bi93  1  0.75935066  0.64991805  0.79918534  1
  Bi2+  Bi94  1  0.65304343  0.90994996  0.28721315  1
  Bi2+  Bi95  1  0.74585931  0.84076268  0.83240120  1
  Bi2+  Bi96  1  0.22559277  -0.01586680  0.21029350  1
  Bi2+  Bi97  1  0.08464286  -0.01076922  0.76080545  1
  Bi2+  Bi98  1  0.15332370  0.27415026  0.21016390  1
  Bi2+  Bi99  1  0.06946264  0.26642843  0.70909216  1
  Bi2+  Bi100  1  0.07572947  0.54279969  0.26137888  1
  Bi2+  Bi101  1  0.10168564  0.48907910  0.69396497  1
  Bi2+  Bi102  1  0.14305224  0.69676038  0.20378147  1
  Bi2+  Bi103  1  0.14373721  0.75894418  0.69583681  1
  Bi2+  Bi104  1  0.39269657  0.05828298  0.17201070  1
  Bi2+  Bi105  1  0.34272237  -0.01198560  0.68832343  1
  Bi2+  Bi106  1  0.35496706  0.24690925  0.20233742  1
  Bi2+  Bi107  1  0.35851480  0.22987150  0.70175420  1
  Bi2+  Bi108  1  0.32828436  0.44912134  0.20214770  1
  Bi2+  Bi109  1  0.41587443  0.46689599  0.73981812  1
  Bi2+  Bi110  1  0.37361982  0.76385114  0.17595401  1
  Bi2+  Bi111  1  0.40829750  0.75839425  0.69658430  1
  Bi2+  Bi112  1  0.55389770  0.06110130  0.23204544  1
  Bi2+  Bi113  1  0.65089885  0.04592086  0.71498865  1
  Bi2+  Bi114  1  0.58848317  0.36360682  0.22246273  1
  Bi2+  Bi115  1  0.63613969  0.24507398  0.71893500  1
  Bi2+  Bi116  1  0.64879254  0.54670872  0.20016115  1
  Bi2+  Bi117  1  0.60226783  0.45271113  0.72288509  1
  Bi2+  Bi118  1  0.62655311  0.81403433  0.19037990  1
  Bi2+  Bi119  1  0.64566183  0.69453341  0.70816838  1
  Bi2+  Bi120  1  0.86085870  -0.00507291  0.19867438  1
  Bi2+  Bi121  1  0.83800398  0.00009815  0.72045419  1
  Bi2+  Bi122  1  0.88989216  0.26225901  0.21957719  1
  Bi2+  Bi123  1  0.88190315  0.19257985  0.71700181  1
  Bi2+  Bi124  1  0.84189572  0.51399015  0.19841447  1
  Bi2+  Bi125  1  0.86280691  0.49818600  0.71013017  1
  Bi2+  Bi126  1  0.86607686  0.71470443  0.21355099  1
  Bi2+  Bi127  1  0.89192169  0.76856189  0.70313629  1
  S2-  S128  1  -0.02227977  0.11116236  0.20544710  1
  S2-  S129  1  0.00228750  0.13300747  0.65328203  1
  S2-  S130  1  0.00672427  0.28725366  0.15203599  1
  S2-  S131  1  -0.09546115  0.38370272  0.64540934  1
  S2-  S132  1  0.01423105  0.70617753  0.14083592  1
  S2-  S133  1  0.10154006  0.63775827  0.63667639  1
  S2-  S134  1  -0.00172537  0.91264914  0.17770846  1
  S2-  S135  1  0.01106098  0.85051789  0.65478088  1
  S2-  S136  1  0.16805405  0.12189705  0.15359883  1
  S2-  S137  1  0.24071406  0.11035579  0.66564117  1
  S2-  S138  1  0.17602302  0.41257961  0.15509604  1
  S2-  S139  1  0.24804349  0.45704373  0.63952127  1
  S2-  S140  1  0.27924146  0.61672427  0.15136061  1
  S2-  S141  1  0.28527316  0.65963393  0.68066421  1
  S2-  S142  1  0.21481113  0.83656765  0.15001539  1
  S2-  S143  1  0.24060975  0.88196440  0.64588603  1
  S2-  S144  1  0.58600818  0.13660364  0.14569692  1
  S2-  S145  1  0.46197877  0.11502416  0.66132014  1
  S2-  S146  1  0.52395305  0.46502978  0.14110641  1
  S2-  S147  1  0.48682075  0.38580950  0.65256734  1
  S2-  S148  1  0.51729133  0.67979380  0.16064013  1
  S2-  S149  1  0.51477093  0.64294574  0.64921254  1
  S2-  S150  1  0.48046096  0.89027370  0.14326315  1
  S2-  S151  1  0.48045889  0.89376733  0.64988526  1
  S2-  S152  1  0.77981272  0.15301347  0.18822151  1
  S2-  S153  1  0.75155170  0.23359830  0.64502407  1
  S2-  S154  1  0.78738887  0.36632137  0.15988587  1
  S2-  S155  1  0.71869625  0.49049794  0.65285517  1
  S2-  S156  1  0.75722870  0.72893922  0.13569283  1
  S2-  S157  1  0.89521849  0.62527834  0.64196191  1
  S2-  S158  1  0.71286376  0.94861249  0.15185038  1
  S2-  S159  1  0.74537706  0.78774505  0.63921894  1
  S2-  S160  1  0.03166736  -0.00292729  0.34578601  1
  S2-  S161  1  0.15272047  -0.01173291  0.85653869  1
  S2-  S162  1  0.09842309  0.26485193  0.35107344  1
  S2-  S163  1  0.14766257  0.24184712  0.84744398  1
  S2-  S164  1  0.19117599  0.49995827  0.33798003  1
  S2-  S165  1  0.15615253  0.49289522  0.84429968  1
  S2-  S166  1  0.07096980  0.74298338  0.33597844  1
  S2-  S167  1  0.13067276  0.73471870  0.82927082  1
  S2-  S168  1  0.39648041  -0.04741764  0.33302788  1
  S2-  S169  1  0.37555402  -0.04699485  0.81916198  1
  S2-  S170  1  0.38723333  0.15934907  0.36272506  1
  S2-  S171  1  0.36365958  0.15945011  0.85881366  1
  S2-  S172  1  0.40226402  0.57920312  0.34701832  1
  S2-  S173  1  0.37886550  0.52132190  0.83956222  1
  S2-  S174  1  0.28048958  0.75110839  0.33352969  1
  S2-  S175  1  0.34138430  0.74413651  0.83799962  1
  S2-  S176  1  0.62711991  0.03946926  0.35461487  1
  S2-  S177  1  0.57066810  0.03685277  0.85391756  1
  S2-  S178  1  0.67612180  0.27753731  0.34860028  1
  S2-  S179  1  0.73503326  0.21210846  0.86395822  1
  S2-  S180  1  0.64292157  0.51816055  0.34782387  1
  S2-  S181  1  0.59842048  0.36591612  0.85607414  1
  S2-  S182  1  0.51906900  0.76106147  0.35058976  1
  S2-  S183  1  0.60861918  0.63758389  0.85672114  1
  S2-  S184  1  0.80721092  -0.01270209  0.29292886  1
  S2-  S185  1  0.89646750  0.08074278  0.87255152  1
  S2-  S186  1  0.87005231  0.15721868  0.34962893  1
  S2-  S187  1  0.90423058  0.34965082  0.85309791  1
  S2-  S188  1  0.87691194  0.38167498  0.36301840  1
  S2-  S189  1  0.76089746  0.49490179  0.84511680  1
  S2-  S190  1  0.87026278  0.82631239  0.34895404  1
  S2-  S191  1  0.90933716  0.63813576  0.84985544  1
  S2-  S192  1  -0.00075920  0.12295692  0.45228542  1
  S2-  S193  1  0.01116398  0.12469204  0.97131007  1
  S2-  S194  1  0.00266179  0.37126773  0.45805956  1
  S2-  S195  1  0.00990251  0.37371418  0.95749297  1
  S2-  S196  1  0.00143884  0.61810532  0.44668237  1
  S2-  S197  1  0.01423568  0.62274594  0.94836481  1
  S2-  S198  1  0.00217484  0.87363238  0.44891721  1
  S2-  S199  1  0.00703315  0.87416125  0.95525671  1
  S2-  S200  1  0.24634838  0.12553191  0.45797281  1
  S2-  S201  1  0.25526654  0.12209547  0.96239811  1
  S2-  S202  1  0.25155701  0.36719445  0.44952539  1
  S2-  S203  1  0.25578823  0.37285381  0.95689715  1
  S2-  S204  1  0.25133214  0.62088308  0.44846729  1
  S2-  S205  1  0.25577365  0.62311645  0.94854997  1
  S2-  S206  1  0.25321471  0.87669656  0.44302052  1
  S2-  S207  1  0.26295680  0.87581659  0.94963986  1
  S2-  S208  1  0.50508285  0.12286280  0.46043874  1
  S2-  S209  1  0.51131363  0.13078570  0.95739045  1
  S2-  S210  1  0.50087003  0.36879051  0.44887375  1
  S2-  S211  1  0.50235085  0.37390139  0.95653493  1
  S2-  S212  1  0.50590826  0.61939688  0.45015758  1
  S2-  S213  1  0.50257439  0.61997836  0.95711406  1
  S2-  S214  1  0.50349775  0.87826516  0.45025043  1
  S2-  S215  1  0.50899369  0.87203245  0.94015998  1
  S2-  S216  1  0.75558564  0.11823123  0.46041353  1
  S2-  S217  1  0.75412375  0.12131680  0.97407512  1
  S2-  S218  1  0.75251459  0.37079980  0.46520773  1
  S2-  S219  1  0.76251642  0.37418470  0.95518128  1
  S2-  S220  1  0.75469934  0.62198165  0.44543463  1
  S2-  S221  1  0.76456179  0.62533135  0.95241460  1
  S2-  S222  1  0.75196113  0.87740622  0.44865565  1
  S2-  S223  1  0.75990309  0.87636455  0.95772179  1
  S2-  S224  1  0.13269728  -0.00692147  0.05761127  1
  S2-  S225  1  0.12350977  -0.00108448  0.54169858  1
  S2-  S226  1  0.13775742  0.24738783  0.05176719  1
  S2-  S227  1  0.12385032  0.24590297  0.55231625  1
  S2-  S228  1  0.13296475  0.49938786  0.04549803  1
  S2-  S229  1  0.12362131  0.49494886  0.53829200  1
  S2-  S230  1  0.13730806  0.74995214  0.03723169  1
  S2-  S231  1  0.12783614  0.74724460  0.53603043  1
  S2-  S232  1  0.38358419  -0.00113738  0.03500292  1
  S2-  S233  1  0.37745884  -0.00300978  0.54009299  1
  S2-  S234  1  0.38352183  0.24786338  0.05276241  1
  S2-  S235  1  0.37579129  0.24673644  0.54990697  1
  S2-  S236  1  0.38002307  0.49621407  0.04476907  1
  S2-  S237  1  0.37542267  0.49893314  0.53974296  1
  S2-  S238  1  0.38394904  0.74414316  0.04119950  1
  S2-  S239  1  0.37386305  0.74558518  0.54083458  1
  S2-  S240  1  0.62551883  -0.00464202  0.04459150  1
  S2-  S241  1  0.62701910  -0.00565548  0.55432684  1
  S2-  S242  1  0.62977215  0.25119601  0.04564587  1
  S2-  S243  1  0.62192990  0.24682256  0.55011511  1
  S2-  S244  1  0.63897652  0.49957844  0.03836808  1
  S2-  S245  1  0.62590893  0.50046713  0.54786091  1
  S2-  S246  1  0.62819661  0.74234575  0.03796900  1
  S2-  S247  1  0.62526415  0.74937474  0.53653829  1
  S2-  S248  1  0.88704779  -0.00317009  0.06580280  1
  S2-  S249  1  0.87348790  -0.00394733  0.55869090  1
  S2-  S250  1  0.88028948  0.24175769  0.05398290  1
  S2-  S251  1  0.87985462  0.24447236  0.54163057  1
  S2-  S252  1  0.88224489  0.50162134  0.05014286  1
  S2-  S253  1  0.87182119  0.49926476  0.54104034  1
  S2-  S254  1  0.88516340  0.74823287  0.03625734  1
  S2-  S255  1  0.87337809  0.74734366  0.53764972  1
