# generated using pymatgen
data_La12Ce14Pr13Nd13Sm12(BiS2)64
_symmetry_space_group_name_H-M   'P 1'
_cell_length_a   16.09018583
_cell_length_b   16.07749010
_cell_length_c   27.42997106
_cell_angle_alpha   90.02760300
_cell_angle_beta   89.82232652
_cell_angle_gamma   89.91346990
_symmetry_Int_Tables_number   1
_chemical_formula_structural   La12Ce14Pr13Nd13Sm12(BiS2)64
_chemical_formula_sum   'La12 Ce14 Pr13 Nd13 Sm12 Bi64 S128'
_cell_volume   7095.81077389
_cell_formula_units_Z   1
loop_
 _symmetry_equiv_pos_site_id
 _symmetry_equiv_pos_as_xyz
  1  'x, y, z'
loop_
 _atom_type_symbol
 _atom_type_oxidation_number
  La3+  3.0
  Ce3+  3.0
  Pr3+  3.0
  Nd3+  3.0
  Sm3+  3.0
  Bi2+  2.0
  S2-  -2.0
loop_
 _atom_site_type_symbol
 _atom_site_label
 _atom_site_symmetry_multiplicity
 _atom_site_fract_x
 _atom_site_fract_y
 _atom_site_fract_z
 _atom_site_occupancy
  La3+  La0  1  -0.01058337  0.61761977  0.09836982  1
  La3+  La1  1  0.10645328  -0.00100050  0.90969334  1
  La3+  La2  1  0.12092027  0.49111117  0.39733251  1
  La3+  La3  1  0.86199392  0.75099630  0.93651529  1
  La3+  La4  1  0.01264414  0.12223721  0.60974378  1
  La3+  La5  1  0.37558845  0.48457440  0.41770724  1
  La3+  La6  1  -0.01731076  0.87492298  0.07547113  1
  La3+  La7  1  -0.00904575  0.12683380  0.07701035  1
  La3+  La8  1  0.48640721  0.12923575  0.07722220  1
  La3+  La9  1  0.12193658  0.23396981  0.42961822  1
  La3+  La10  1  0.73652145  0.37844728  0.06374307  1
  La3+  La11  1  0.24279605  0.38372618  0.09680597  1
  Ce3+  Ce12  1  0.86495661  0.24779755  0.94625816  1
  Ce3+  Ce13  1  0.24671450  0.61199095  0.54847269  1
  Ce3+  Ce14  1  0.11487638  0.24836612  0.95353750  1
  Ce3+  Ce15  1  0.24684631  0.62798314  0.06937563  1
  Ce3+  Ce16  1  0.49761800  0.11824549  0.57656836  1
  Ce3+  Ce17  1  0.73763547  0.12673396  0.07311089  1
  Ce3+  Ce18  1  0.61262210  0.74998021  0.94334808  1
  Ce3+  Ce19  1  0.12068959  0.74294897  0.42704868  1
  Ce3+  Ce20  1  -0.01693424  0.37878009  0.06782610  1
  Ce3+  Ce21  1  0.73948161  0.62733423  0.06466686  1
  Ce3+  Ce22  1  0.23793156  0.12826447  0.07361257  1
  Ce3+  Ce23  1  0.49842851  0.85974348  0.56366824  1
  Ce3+  Ce24  1  0.87727776  0.73797825  0.43916932  1
  Ce3+  Ce25  1  0.74029450  0.87476597  0.06051249  1
  Pr3+  Pr26  1  0.23305633  0.87601397  0.06193945  1
  Pr3+  Pr27  1  0.36143915  0.75263771  0.93770387  1
  Pr3+  Pr28  1  0.00046781  0.61430810  0.55900254  1
  Pr3+  Pr29  1  0.11418131  0.50008756  0.94110733  1
  Pr3+  Pr30  1  0.61403865  0.24989377  0.93354540  1
  Pr3+  Pr31  1  0.62190462  0.23594448  0.44346630  1
  Pr3+  Pr32  1  0.24807987  0.36132360  0.55164777  1
  Pr3+  Pr33  1  0.36221778  0.24583117  0.93900553  1
  Pr3+  Pr34  1  0.75303371  0.11039903  0.56646949  1
  Pr3+  Pr35  1  0.74645423  0.36499672  0.55479513  1
  Pr3+  Pr36  1  0.12119333  -0.01034371  0.43736612  1
  Pr3+  Pr37  1  0.62255905  0.48694008  0.42638221  1
  Pr3+  Pr38  1  0.49059261  0.36918493  0.56903787  1
  Nd3+  Nd39  1  0.48856756  0.87568112  0.05902597  1
  Nd3+  Nd40  1  0.87573966  -0.01359993  0.44524535  1
  Nd3+  Nd41  1  0.24327250  0.86631864  0.55626267  1
  Nd3+  Nd42  1  0.37681096  -0.00609444  0.43761721  1
  Nd3+  Nd43  1  0.37259041  0.73809897  0.43772590  1
  Nd3+  Nd44  1  0.62321699  -0.01248510  0.44594556  1
  Nd3+  Nd45  1  0.49487400  0.61357910  0.56209200  1
  Nd3+  Nd46  1  -0.00718666  0.85667563  0.57305385  1
  Nd3+  Nd47  1  -0.00008937  0.36178125  0.55590454  1
  Nd3+  Nd48  1  0.25233746  0.11158019  0.56644612  1
  Nd3+  Nd49  1  0.62252222  0.73859424  0.43631157  1
  Nd3+  Nd50  1  0.62525397  0.49779291  0.90825779  1
  Nd3+  Nd51  1  0.37552636  0.23615207  0.43476014  1
  Sm3+  Sm52  1  0.36002596  0.00319144  0.95156609  1
  Sm3+  Sm53  1  0.74970818  0.86010158  0.56186010  1
  Sm3+  Sm54  1  0.87707462  0.48719895  0.43588411  1
  Sm3+  Sm55  1  0.10960249  0.75147007  0.95224877  1
  Sm3+  Sm56  1  0.86616823  0.00419830  0.94569233  1
  Sm3+  Sm57  1  0.87459837  0.23591691  0.44397491  1
  Sm3+  Sm58  1  0.36365696  0.49958287  0.93934305  1
  Sm3+  Sm59  1  0.48534417  0.37735385  0.05486942  1
  Sm3+  Sm60  1  0.61321731  0.00694640  0.94303035  1
  Sm3+  Sm61  1  0.86450474  0.49860376  0.94090637  1
  Sm3+  Sm62  1  0.48731489  0.62521285  0.05475650  1
  Sm3+  Sm63  1  0.74597680  0.60986749  0.54884327  1
  Bi2+  Bi64  1  -0.01422271  0.10107028  0.28976894  1
  Bi2+  Bi65  1  -0.04109871  0.15192001  0.81835493  1
  Bi2+  Bi66  1  -0.01119356  0.35562027  0.28718834  1
  Bi2+  Bi67  1  -0.00436498  0.35112265  0.74275623  1
  Bi2+  Bi68  1  -0.00896161  0.63006161  0.28449895  1
  Bi2+  Bi69  1  -0.00351315  0.58528247  0.78757242  1
  Bi2+  Bi70  1  -0.00736480  0.88284122  0.29688778  1
  Bi2+  Bi71  1  -0.02035547  0.85153373  0.79398944  1
  Bi2+  Bi72  1  0.24901175  0.08659308  0.28834917  1
  Bi2+  Bi73  1  0.25812269  0.13810315  0.80755570  1
  Bi2+  Bi74  1  0.27310165  0.34675683  0.28531522  1
  Bi2+  Bi75  1  0.20903675  0.44949701  0.76978335  1
  Bi2+  Bi76  1  0.29857357  0.62236136  0.26902111  1
  Bi2+  Bi77  1  0.28513485  0.62878654  0.79602137  1
  Bi2+  Bi78  1  0.32453030  0.89261218  0.30177428  1
  Bi2+  Bi79  1  0.34531191  0.90809764  0.78550133  1
  Bi2+  Bi80  1  0.50623930  0.15585057  0.29724099  1
  Bi2+  Bi81  1  0.47976554  0.14760179  0.79361748  1
  Bi2+  Bi82  1  0.55596411  0.39158892  0.28642938  1
  Bi2+  Bi83  1  0.49869144  0.42377557  0.78949103  1
  Bi2+  Bi84  1  0.55031720  0.65745740  0.28765846  1
  Bi2+  Bi85  1  0.51635403  0.71674961  0.73341895  1
  Bi2+  Bi86  1  0.51798283  0.90827954  0.29507408  1
  Bi2+  Bi87  1  0.54732913  0.88571712  0.79304305  1
  Bi2+  Bi88  1  0.69822872  0.07257422  0.23324527  1
  Bi2+  Bi89  1  0.75448296  0.17213394  0.81234385  1
  Bi2+  Bi90  1  0.74858839  0.42213861  0.31746271  1
  Bi2+  Bi91  1  0.83763537  0.46628449  0.76328850  1
  Bi2+  Bi92  1  0.74070665  0.60961780  0.29265812  1
  Bi2+  Bi93  1  0.70259618  0.64747643  0.79407343  1
  Bi2+  Bi94  1  0.74596865  0.90072185  0.29035779  1
  Bi2+  Bi95  1  0.72525185  0.97868466  0.77803600  1
  Bi2+  Bi96  1  0.17283883  -0.02698158  0.20609872  1
  Bi2+  Bi97  1  0.14641746  -0.00858745  0.71392088  1
  Bi2+  Bi98  1  0.05057531  0.23022598  0.21272190  1
  Bi2+  Bi99  1  0.17203555  0.28330154  0.71273754  1
  Bi2+  Bi100  1  0.12173908  0.49089701  0.21926131  1
  Bi2+  Bi101  1  0.10488203  0.57516824  0.68723168  1
  Bi2+  Bi102  1  0.17918400  0.75865406  0.23596595  1
  Bi2+  Bi103  1  0.12714130  0.73276224  0.76278033  1
  Bi2+  Bi104  1  0.40018454  0.02767917  0.22291152  1
  Bi2+  Bi105  1  0.46361174  -0.00843131  0.70137728  1
  Bi2+  Bi106  1  0.47892653  0.25332308  0.19980117  1
  Bi2+  Bi107  1  0.37183481  0.25759907  0.70143904  1
  Bi2+  Bi108  1  0.42147116  0.51409369  0.21046654  1
  Bi2+  Bi109  1  0.38336720  0.50838198  0.70362722  1
  Bi2+  Bi110  1  0.43987224  0.76330488  0.20832645  1
  Bi2+  Bi111  1  0.32309295  0.75957355  0.70479674  1
  Bi2+  Bi112  1  0.65174716  -0.10262543  0.18685830  1
  Bi2+  Bi113  1  0.64474388  0.06304458  0.68137983  1
  Bi2+  Bi114  1  0.66678164  0.31172005  0.18487910  1
  Bi2+  Bi115  1  0.61803145  0.24187041  0.73168424  1
  Bi2+  Bi116  1  0.61839916  0.50513974  0.19376598  1
  Bi2+  Bi117  1  0.65533721  0.51242197  0.70087272  1
  Bi2+  Bi118  1  0.61978007  0.70165669  0.17421125  1
  Bi2+  Bi119  1  0.62504693  0.85897277  0.67904747  1
  Bi2+  Bi120  1  0.90037005  0.00005316  0.20599633  1
  Bi2+  Bi121  1  0.88214905  -0.00677376  0.70938050  1
  Bi2+  Bi122  1  0.78591940  0.24078821  0.26582790  1
  Bi2+  Bi123  1  0.81324843  0.26811788  0.71635290  1
  Bi2+  Bi124  1  0.83163312  0.48325847  0.21489705  1
  Bi2+  Bi125  1  0.90889417  0.59574749  0.68305294  1
  Bi2+  Bi126  1  0.80362763  0.75178913  0.22012833  1
  Bi2+  Bi127  1  0.79568955  0.79049672  0.73579485  1
  S2-  S128  1  0.12229652  0.11527297  0.14985902  1
  S2-  S129  1  0.01112114  0.10089869  0.73449388  1
  S2-  S130  1  0.01484421  0.46599954  0.15050997  1
  S2-  S131  1  0.01662104  0.29850239  0.64823000  1
  S2-  S132  1  0.05324286  0.67418543  0.19173776  1
  S2-  S133  1  0.01986076  0.71778659  0.64021293  1
  S2-  S134  1  0.03898983  0.90024615  0.17271334  1
  S2-  S135  1  0.02783093  0.95688871  0.65265847  1
  S2-  S136  1  0.35879466  0.14794407  0.14858097  1
  S2-  S137  1  0.16937978  0.12818594  0.65571669  1
  S2-  S138  1  0.19136549  0.32524775  0.19096124  1
  S2-  S139  1  0.33432482  0.37986810  0.63936934  1
  S2-  S140  1  0.22405321  0.53525864  0.15066960  1
  S2-  S141  1  0.27989032  0.61532803  0.64533930  1
  S2-  S142  1  0.25260321  0.83327283  0.15979551  1
  S2-  S143  1  0.25297020  0.88780043  0.65548189  1
  S2-  S144  1  0.61775838  0.12151768  0.14704091  1
  S2-  S145  1  0.37220208  0.10959890  0.64486199  1
  S2-  S146  1  0.40737733  0.38599498  0.14488244  1
  S2-  S147  1  0.51681418  0.25724214  0.64733756  1
  S2-  S148  1  0.39876722  0.64373442  0.13916552  1
  S2-  S149  1  0.51346436  0.50077485  0.63950495  1
  S2-  S150  1  0.48143656  0.91629294  0.15517418  1
  S2-  S151  1  0.50026450  0.73836297  0.63661575  1
  S2-  S152  1  0.85992016  0.12585341  0.14779957  1
  S2-  S153  1  0.84820071  0.12864515  0.65081121  1
  S2-  S154  1  0.83706907  0.36728151  0.14665236  1
  S2-  S155  1  0.73690830  0.38435688  0.65375221  1
  S2-  S156  1  0.83379232  0.62348321  0.14890527  1
  S2-  S157  1  0.73626531  0.62302080  0.64676979  1
  S2-  S158  1  0.83620481  0.86738699  0.14297241  1
  S2-  S159  1  0.84118749  0.85321859  0.64550233  1
  S2-  S160  1  0.11355247  -0.12642386  0.35732206  1
  S2-  S161  1  0.18815321  -0.01026768  0.81779130  1
  S2-  S162  1  0.11913739  0.10381100  0.35564425  1
  S2-  S163  1  0.11963160  0.17736648  0.86310311  1
  S2-  S164  1  0.12835025  0.33200611  0.34224923  1
  S2-  S165  1  0.08545384  0.46878669  0.84164226  1
  S2-  S166  1  0.11719117  0.64828901  0.34320326  1
  S2-  S167  1  0.10212059  0.80767588  0.86034219  1
  S2-  S168  1  0.37433005  0.11010995  0.36229695  1
  S2-  S169  1  0.38155979  0.04260508  0.85691328  1
  S2-  S170  1  0.38273517  0.33601210  0.35102331  1
  S2-  S171  1  0.37796445  0.26042351  0.83781571  1
  S2-  S172  1  0.26478341  0.49685716  0.33419904  1
  S2-  S173  1  0.35603881  0.48543839  0.84154059  1
  S2-  S174  1  0.36518415  0.73346149  0.33873023  1
  S2-  S175  1  0.37409514  0.76709089  0.83895143  1
  S2-  S176  1  0.58805321  0.03052702  0.35261925  1
  S2-  S177  1  0.60820064  0.11549540  0.86592384  1
  S2-  S178  1  0.61882839  0.25246258  0.34376690  1
  S2-  S179  1  0.60875289  0.35671246  0.84899523  1
  S2-  S180  1  0.51180053  0.52094198  0.34965405  1
  S2-  S181  1  0.55652097  0.57175426  0.82545574  1
  S2-  S182  1  0.62751844  0.79284649  0.34209434  1
  S2-  S183  1  0.64630003  0.77641872  0.85017974  1
  S2-  S184  1  0.86910758  -0.01042486  0.34443267  1
  S2-  S185  1  0.95174780  -0.00697925  0.85903920  1
  S2-  S186  1  0.89453505  0.23364600  0.34545973  1
  S2-  S187  1  0.86537850  0.29388851  0.85276467  1
  S2-  S188  1  0.96070837  0.49274649  0.34876281  1
  S2-  S189  1  0.77844117  0.52091201  0.85655137  1
  S2-  S190  1  0.91516862  0.75221908  0.34375031  1
  S2-  S191  1  0.86800115  0.75289249  0.83531364  1
  S2-  S192  1  -0.00796921  0.11371254  0.45311442  1
  S2-  S193  1  -0.00963389  0.12364928  0.96500476  1
  S2-  S194  1  -0.00421467  0.36282380  0.45137029  1
  S2-  S195  1  -0.01257751  0.37611848  0.95920814  1
  S2-  S196  1  -0.00063947  0.61003072  0.45288024  1
  S2-  S197  1  -0.01202822  0.62614693  0.94292003  1
  S2-  S198  1  -0.00447843  0.86178033  0.46209060  1
  S2-  S199  1  -0.01307018  0.87654984  0.96369619  1
  S2-  S200  1  0.25018009  0.11316796  0.45981328  1
  S2-  S201  1  0.23665530  0.12158144  0.96423586  1
  S2-  S202  1  0.24335139  0.36509101  0.44828832  1
  S2-  S203  1  0.23989201  0.37537119  0.94394525  1
  S2-  S204  1  0.24725224  0.61336669  0.44440759  1
  S2-  S205  1  0.23784102  0.62833708  0.95405705  1
  S2-  S206  1  0.25370662  0.86763850  0.45074712  1
  S2-  S207  1  0.23502283  0.87927572  0.95412366  1
  S2-  S208  1  0.50123270  0.11294541  0.46567511  1
  S2-  S209  1  0.48575384  0.12363980  0.96661000  1
  S2-  S210  1  0.50212041  0.36323506  0.45611009  1
  S2-  S211  1  0.48730530  0.37899767  0.95174186  1
  S2-  S212  1  0.49949758  0.61781017  0.45424055  1
  S2-  S213  1  0.48841825  0.62348289  0.95015556  1
  S2-  S214  1  0.49812682  0.86327147  0.45361713  1
  S2-  S215  1  0.48887493  0.88125720  0.95175562  1
  S2-  S216  1  0.74986951  0.11218320  0.45502672  1
  S2-  S217  1  0.74066781  0.12474470  0.96379317  1
  S2-  S218  1  0.75150652  0.36286053  0.44919569  1
  S2-  S219  1  0.73909051  0.37738127  0.95643575  1
  S2-  S220  1  0.75018723  0.61190881  0.44379002  1
  S2-  S221  1  0.73382594  0.62430105  0.95753698  1
  S2-  S222  1  0.74850586  0.86176497  0.45493624  1
  S2-  S223  1  0.73858743  0.88279309  0.95263745  1
  S2-  S224  1  0.11067354  -0.00296444  0.05261169  1
  S2-  S225  1  0.12207220  -0.00750031  0.54563890  1
  S2-  S226  1  0.11727102  0.26269633  0.05737476  1
  S2-  S227  1  0.12228817  0.23564524  0.54259099  1
  S2-  S228  1  0.11589559  0.50402362  0.04600614  1
  S2-  S229  1  0.12280008  0.48591595  0.55242755  1
  S2-  S230  1  0.10888009  0.74368700  0.05685940  1
  S2-  S231  1  0.12594902  0.73959998  0.53592116  1
  S2-  S232  1  0.36087362  -0.00188583  0.05397373  1
  S2-  S233  1  0.37656407  -0.01624168  0.54378444  1
  S2-  S234  1  0.35737470  0.25965282  0.04491535  1
  S2-  S235  1  0.37486673  0.23842869  0.54030999  1
  S2-  S236  1  0.36235147  0.50143894  0.04170674  1
  S2-  S237  1  0.37219127  0.49180337  0.53188086  1
  S2-  S238  1  0.36465749  0.75488554  0.04207041  1
  S2-  S239  1  0.36894845  0.74082845  0.54186830  1
  S2-  S240  1  0.61466837  -0.00189016  0.04562030  1
  S2-  S241  1  0.62443876  -0.01476372  0.55094549  1
  S2-  S242  1  0.60982308  0.25478775  0.04381699  1
  S2-  S243  1  0.62833307  0.23686280  0.54831696  1
  S2-  S244  1  0.60870362  0.50297733  0.05361619  1
  S2-  S245  1  0.62364881  0.48990381  0.53425326  1
  S2-  S246  1  0.61197398  0.75101114  0.04764430  1
  S2-  S247  1  0.62766942  0.73661209  0.54067079  1
  S2-  S248  1  0.86163635  0.00147355  0.04697767  1
  S2-  S249  1  0.87260188  -0.01565942  0.54858487  1
  S2-  S250  1  0.86355671  0.25005863  0.04781059  1
  S2-  S251  1  0.87357455  0.23998337  0.54644649  1
  S2-  S252  1  0.86649666  0.50694931  0.04366358  1
  S2-  S253  1  0.87375160  0.48846758  0.54174930  1
  S2-  S254  1  0.86699134  0.74423017  0.04399685  1
  S2-  S255  1  0.86741538  0.73293178  0.54230209  1
