# generated using pymatgen
data_La12Ce14Pr13Nd13Sm12(BiS2)64
_symmetry_space_group_name_H-M   'P 1'
_cell_length_a   16.16532654
_cell_length_b   16.12350573
_cell_length_c   27.32270506
_cell_angle_alpha   89.93944891
_cell_angle_beta   89.99883833
_cell_angle_gamma   90.10393312
_symmetry_Int_Tables_number   1
_chemical_formula_structural   La12Ce14Pr13Nd13Sm12(BiS2)64
_chemical_formula_sum   'La12 Ce14 Pr13 Nd13 Sm12 Bi64 S128'
_cell_volume   7121.42155989
_cell_formula_units_Z   1
loop_
 _symmetry_equiv_pos_site_id
 _symmetry_equiv_pos_as_xyz
  1  'x, y, z'
loop_
 _atom_type_symbol
 _atom_type_oxidation_number
  La3+  3.0
  Ce3+  3.0
  Pr3+  3.0
  Nd3+  3.0
  Sm3+  3.0
  Bi2+  2.0
  S2-  -2.0
loop_
 _atom_site_type_symbol
 _atom_site_label
 _atom_site_symmetry_multiplicity
 _atom_site_fract_x
 _atom_site_fract_y
 _atom_site_fract_z
 _atom_site_occupancy
  La3+  La0  1  0.38267764  0.01296620  0.93063215  1
  La3+  La1  1  0.87274806  0.01848848  0.91120291  1
  La3+  La2  1  0.76341811  0.38260100  0.08053706  1
  La3+  La3  1  0.38128876  0.75032661  0.91602026  1
  La3+  La4  1  0.87416277  0.01087722  0.43294166  1
  La3+  La5  1  0.25707690  0.87911460  0.05967535  1
  La3+  La6  1  0.23266115  0.61888778  0.60746308  1
  La3+  La7  1  0.50407762  0.88134297  0.05508254  1
  La3+  La8  1  0.61948469  0.24779119  0.39145437  1
  La3+  La9  1  -0.01324096  0.88130712  0.57209431  1
  La3+  La10  1  0.60264856  0.50290992  0.42768260  1
  La3+  La11  1  0.00609340  0.63770796  0.06602455  1
  Ce3+  Ce12  1  -0.00556573  0.13769891  0.56934299  1
  Ce3+  Ce13  1  0.48984563  0.62060028  0.57675019  1
  Ce3+  Ce14  1  0.11795983  0.75347334  0.44895371  1
  Ce3+  Ce15  1  0.88149114  0.26210052  0.93794141  1
  Ce3+  Ce16  1  -0.01088976  0.62574536  0.55447243  1
  Ce3+  Ce17  1  0.12172806  0.24937353  0.43743816  1
  Ce3+  Ce18  1  0.24156822  0.37643620  0.56563850  1
  Ce3+  Ce19  1  0.23376812  0.87686205  0.58167079  1
  Ce3+  Ce20  1  0.36294947  0.75264847  0.45584035  1
  Ce3+  Ce21  1  0.38618743  0.25765972  0.93677979  1
  Ce3+  Ce22  1  0.61674146  0.00270936  0.43886764  1
  Ce3+  Ce23  1  0.74063020  0.62503620  0.55153019  1
  Ce3+  Ce24  1  0.61578282  0.75482216  0.45453495  1
  Ce3+  Ce25  1  0.86451401  0.49930302  0.43411247  1
  Pr3+  Pr26  1  0.00506652  0.88624653  0.05769181  1
  Pr3+  Pr27  1  0.25316865  0.12714569  0.06664903  1
  Pr3+  Pr28  1  0.74276799  0.88783196  0.57434715  1
  Pr3+  Pr29  1  0.13021683  0.25601907  0.93422207  1
  Pr3+  Pr30  1  0.88363744  0.50524028  0.93622538  1
  Pr3+  Pr31  1  0.88430855  0.76104960  0.93665940  1
  Pr3+  Pr32  1  0.13814997  0.00996535  0.91791453  1
  Pr3+  Pr33  1  0.50029796  0.13788907  0.07788144  1
  Pr3+  Pr34  1  0.86400694  0.75673647  0.43690284  1
  Pr3+  Pr35  1  0.75804596  0.88470209  0.05760577  1
  Pr3+  Pr36  1  0.63490837  0.75862472  0.93219756  1
  Pr3+  Pr37  1  0.75751561  0.13194723  0.06446522  1
  Pr3+  Pr38  1  0.73680432  0.37719084  0.55448288  1
  Nd3+  Nd39  1  -0.00642284  0.37784411  0.55714720  1
  Nd3+  Nd40  1  0.00711832  0.12869887  0.05689806  1
  Nd3+  Nd41  1  0.13163112  0.51022976  0.92979752  1
  Nd3+  Nd42  1  0.36356612  -0.00940471  0.44236443  1
  Nd3+  Nd43  1  0.01191875  0.38910030  0.06978465  1
  Nd3+  Nd44  1  0.24112449  0.12395062  0.56183385  1
  Nd3+  Nd45  1  0.75638998  0.63161646  0.05623254  1
  Nd3+  Nd46  1  0.26037061  0.63508016  0.05839158  1
  Nd3+  Nd47  1  0.49451413  0.38762344  0.07055611  1
  Nd3+  Nd48  1  0.63032167  0.01277963  0.94218042  1
  Nd3+  Nd49  1  0.48990805  0.37510974  0.55933077  1
  Nd3+  Nd50  1  0.63483089  0.50227736  0.94554221  1
  Nd3+  Nd51  1  0.36269971  0.24505978  0.43077692  1
  Sm3+  Sm52  1  0.48894757  0.12566818  0.55807016  1
  Sm3+  Sm53  1  0.73845819  0.12912889  0.55423579  1
  Sm3+  Sm54  1  0.25460625  0.38321328  0.04642826  1
  Sm3+  Sm55  1  0.38409228  0.50561518  0.93355771  1
  Sm3+  Sm56  1  0.50658525  0.63178893  0.04770355  1
  Sm3+  Sm57  1  0.48871914  0.87630144  0.56576446  1
  Sm3+  Sm58  1  0.86775519  0.25218432  0.44374621  1
  Sm3+  Sm59  1  0.63101543  0.26102311  0.95611421  1
  Sm3+  Sm60  1  0.36527682  0.50213806  0.44871940  1
  Sm3+  Sm61  1  0.11586629  -0.00745588  0.44088034  1
  Sm3+  Sm62  1  0.13088937  0.76209514  0.93471379  1
  Sm3+  Sm63  1  0.11901610  0.50201455  0.44397327  1
  Bi2+  Bi64  1  0.03735975  0.15899627  0.29861065  1
  Bi2+  Bi65  1  0.02554180  0.18767894  0.78354802  1
  Bi2+  Bi66  1  0.03302678  0.39208251  0.28206517  1
  Bi2+  Bi67  1  0.02770185  0.37281537  0.82773587  1
  Bi2+  Bi68  1  0.05884268  0.60644641  0.27483156  1
  Bi2+  Bi69  1  -0.05317697  0.54057611  0.79750512  1
  Bi2+  Bi70  1  -0.01483342  0.88366941  0.30627027  1
  Bi2+  Bi71  1  -0.00609577  0.81631892  0.79999398  1
  Bi2+  Bi72  1  0.21622156  0.05952352  0.29942452  1
  Bi2+  Bi73  1  0.28514990  0.12590690  0.79065664  1
  Bi2+  Bi74  1  0.24849719  0.38045724  0.29239494  1
  Bi2+  Bi75  1  0.27179764  0.32194878  0.79528551  1
  Bi2+  Bi76  1  0.24869632  0.65613867  0.28923021  1
  Bi2+  Bi77  1  0.23706333  0.62079407  0.78869155  1
  Bi2+  Bi78  1  0.23977429  0.85703681  0.28930058  1
  Bi2+  Bi79  1  0.23929664  0.87268265  0.77591647  1
  Bi2+  Bi80  1  0.44688621  0.13035712  0.27646019  1
  Bi2+  Bi81  1  0.54125471  0.16155607  0.79364647  1
  Bi2+  Bi82  1  0.48067609  0.39613175  0.28860246  1
  Bi2+  Bi83  1  0.45691380  0.35718561  0.82060824  1
  Bi2+  Bi84  1  0.44922099  0.63038247  0.28556509  1
  Bi2+  Bi85  1  0.49127520  0.53966892  0.78578452  1
  Bi2+  Bi86  1  0.48331628  0.84722466  0.29821704  1
  Bi2+  Bi87  1  0.55301150  0.95295344  0.81235977  1
  Bi2+  Bi88  1  0.79169643  0.11296422  0.28659987  1
  Bi2+  Bi89  1  0.69844818  0.13941820  0.72665778  1
  Bi2+  Bi90  1  0.74911226  0.40433251  0.27472822  1
  Bi2+  Bi91  1  0.71313355  0.38201737  0.80025572  1
  Bi2+  Bi92  1  0.78663466  0.61819724  0.26715167  1
  Bi2+  Bi93  1  0.76345527  0.60868188  0.78854091  1
  Bi2+  Bi94  1  0.73307779  0.85514467  0.28827936  1
  Bi2+  Bi95  1  0.73712266  0.87339028  0.80866173  1
  Bi2+  Bi96  1  0.10798289  0.00633064  0.21097047  1
  Bi2+  Bi97  1  0.13342617  0.01139968  0.70129168  1
  Bi2+  Bi98  1  0.10795107  0.19739239  0.17348882  1
  Bi2+  Bi99  1  0.14615965  0.27691824  0.70529864  1
  Bi2+  Bi100  1  0.15208299  0.39612046  0.18514900  1
  Bi2+  Bi101  1  0.03445879  0.43899559  0.70522312  1
  Bi2+  Bi102  1  0.12938901  0.75440425  0.21328166  1
  Bi2+  Bi103  1  0.04687743  0.72840011  0.70719742  1
  Bi2+  Bi104  1  0.37072688  0.00439150  0.19492443  1
  Bi2+  Bi105  1  0.43484695  -0.01219518  0.71953985  1
  Bi2+  Bi106  1  0.28183012  0.21756892  0.23136443  1
  Bi2+  Bi107  1  0.42586764  0.25206582  0.70681630  1
  Bi2+  Bi108  1  0.31160695  0.51852221  0.21205009  1
  Bi2+  Bi109  1  0.36299489  0.44030222  0.71800083  1
  Bi2+  Bi110  1  0.39548814  0.75171661  0.19421720  1
  Bi2+  Bi111  1  0.44066547  0.72700535  0.73218695  1
  Bi2+  Bi112  1  0.59007933  -0.00194739  0.26061342  1
  Bi2+  Bi113  1  0.64456206  -0.06029404  0.70674842  1
  Bi2+  Bi114  1  0.63289079  0.23557531  0.19508442  1
  Bi2+  Bi115  1  0.60892895  0.31795097  0.70328851  1
  Bi2+  Bi116  1  0.54031889  0.47794018  0.19729643  1
  Bi2+  Bi117  1  0.62829919  0.54185280  0.69968282  1
  Bi2+  Bi118  1  0.61805344  0.71388873  0.25018902  1
  Bi2+  Bi119  1  0.63779499  0.73962666  0.72025090  1
  Bi2+  Bi120  1  0.86617687  0.01751455  0.20254950  1
  Bi2+  Bi121  1  0.87203173  -0.00051949  0.71578054  1
  Bi2+  Bi122  1  0.93623356  0.25685328  0.21918880  1
  Bi2+  Bi123  1  0.84998073  0.24440158  0.76121207  1
  Bi2+  Bi124  1  0.92261654  0.52226665  0.20339506  1
  Bi2+  Bi125  1  0.84280432  0.45075907  0.70890721  1
  Bi2+  Bi126  1  0.87041690  0.76437040  0.20147318  1
  Bi2+  Bi127  1  0.82992324  0.72707120  0.70245928  1
  S2-  S128  1  -0.00925665  0.00885728  0.13323890  1
  S2-  S129  1  -0.01832000  0.06385778  0.65791537  1
  S2-  S130  1  -0.10122575  0.37380934  0.14722829  1
  S2-  S131  1  0.00308086  0.29193490  0.64303425  1
  S2-  S132  1  0.04729859  0.52411782  0.13881386  1
  S2-  S133  1  0.03825161  0.59570567  0.64672044  1
  S2-  S134  1  0.00031398  0.77098300  0.13960156  1
  S2-  S135  1  0.09546385  0.87435503  0.65124214  1
  S2-  S136  1  0.36508971  0.14859051  0.14505460  1
  S2-  S137  1  0.22222556  0.14385281  0.66104972  1
  S2-  S138  1  0.31124780  0.40717455  0.13744681  1
  S2-  S139  1  0.23628338  0.45833009  0.65302809  1
  S2-  S140  1  0.25591475  0.74962644  0.13492277  1
  S2-  S141  1  0.20870784  0.70364361  0.69738148  1
  S2-  S142  1  0.23784502  0.98700630  0.14004517  1
  S2-  S143  1  0.28112045  0.93092201  0.67566492  1
  S2-  S144  1  0.57860679  0.09103196  0.16688992  1
  S2-  S145  1  0.48363318  0.10570973  0.65705757  1
  S2-  S146  1  0.50212726  0.31402296  0.16127824  1
  S2-  S147  1  0.51822784  0.47656219  0.63868804  1
  S2-  S148  1  0.48304543  0.62107563  0.14397339  1
  S2-  S149  1  0.39156212  0.63826512  0.65870524  1
  S2-  S150  1  0.47693127  0.87718173  0.15399820  1
  S2-  S151  1  0.48602365  0.85228408  0.66320380  1
  S2-  S152  1  0.78711514  0.15881548  0.16299739  1
  S2-  S153  1  0.74143903  0.04373024  0.63998598  1
  S2-  S154  1  0.69291633  0.40552169  0.17510504  1
  S2-  S155  1  0.75432843  0.33629603  0.65234119  1
  S2-  S156  1  0.79559516  0.62712325  0.15265138  1
  S2-  S157  1  0.78008249  0.58751629  0.64376004  1
  S2-  S158  1  0.77228244  0.89086952  0.15819827  1
  S2-  S159  1  0.86580003  0.86775934  0.64820928  1
  S2-  S160  1  0.01198878  0.02011916  0.36147533  1
  S2-  S161  1  0.09908350  -0.06890725  0.82435017  1
  S2-  S162  1  0.23009823  0.25591182  0.36201706  1
  S2-  S163  1  0.14469112  0.15156789  0.85281797  1
  S2-  S164  1  0.13066588  0.49045274  0.34609860  1
  S2-  S165  1  0.16904923  0.49334754  0.83187658  1
  S2-  S166  1  0.12179839  0.84904688  0.36682329  1
  S2-  S167  1  0.13330431  0.71303548  0.83960213  1
  S2-  S168  1  0.36275956  0.05810881  0.35009467  1
  S2-  S169  1  0.28203069  -0.00995001  0.84635800  1
  S2-  S170  1  0.46161442  0.26393437  0.34741752  1
  S2-  S171  1  0.40907785  0.14754728  0.86151866  1
  S2-  S172  1  0.45106892  0.51712368  0.36354816  1
  S2-  S173  1  0.37041615  0.60160894  0.85273814  1
  S2-  S174  1  0.35903592  0.83658263  0.36909802  1
  S2-  S175  1  0.36313831  0.80301240  0.81826383  1
  S2-  S176  1  0.60678493  0.07734544  0.35115058  1
  S2-  S177  1  0.70806687  0.02216653  0.85413741  1
  S2-  S178  1  0.69443550  0.24428291  0.29517635  1
  S2-  S179  1  0.63235420  0.26834289  0.85734844  1
  S2-  S180  1  0.63214404  0.41200253  0.34343158  1
  S2-  S181  1  0.64183543  0.52466986  0.84736291  1
  S2-  S182  1  0.61769528  0.77629311  0.35732478  1
  S2-  S183  1  0.58902560  0.78198326  0.83669970  1
  S2-  S184  1  0.80510496  -0.03686432  0.34408079  1
  S2-  S185  1  0.89380171  -0.04527553  0.81441026  1
  S2-  S186  1  0.88693320  0.19680236  0.35160343  1
  S2-  S187  1  0.88532839  0.16718832  0.85329964  1
  S2-  S188  1  0.85229894  0.49719363  0.33665263  1
  S2-  S189  1  0.85802277  0.38546923  0.86477715  1
  S2-  S190  1  0.90127347  0.75838085  0.33785855  1
  S2-  S191  1  0.84730264  0.74174889  0.84002414  1
  S2-  S192  1  -0.00309888  0.13443508  0.46220822  1
  S2-  S193  1  0.00620128  0.13117773  0.95208966  1
  S2-  S194  1  -0.00614294  0.37635705  0.44913763  1
  S2-  S195  1  0.01173379  0.38547344  0.96126483  1
  S2-  S196  1  -0.00786045  0.62539170  0.44667947  1
  S2-  S197  1  0.00761643  0.63341117  0.94986682  1
  S2-  S198  1  -0.01087522  0.87491110  0.46349499  1
  S2-  S199  1  0.00703100  0.88638320  0.94488253  1
  S2-  S200  1  0.23898226  0.11770700  0.45705211  1
  S2-  S201  1  0.25875189  0.13747776  0.95832089  1
  S2-  S202  1  0.24354696  0.38074811  0.45887851  1
  S2-  S203  1  0.25823289  0.38420017  0.94269207  1
  S2-  S204  1  0.24228511  0.62516969  0.44570586  1
  S2-  S205  1  0.25364424  0.63241807  0.95204211  1
  S2-  S206  1  0.23820124  0.87606560  0.47241178  1
  S2-  S207  1  0.25874401  0.87612091  0.94823781  1
  S2-  S208  1  0.48721888  0.12357070  0.45543238  1
  S2-  S209  1  0.51195954  0.13659907  0.96635119  1
  S2-  S210  1  0.48562229  0.37187438  0.45623574  1
  S2-  S211  1  0.50598666  0.38561110  0.96081880  1
  S2-  S212  1  0.48840876  0.63232372  0.46660496  1
  S2-  S213  1  0.51170822  0.62913681  0.94461287  1
  S2-  S214  1  0.49354551  0.87706291  0.46219489  1
  S2-  S215  1  0.50664052  0.88234157  0.94710408  1
  S2-  S216  1  0.73809112  0.13411509  0.45079342  1
  S2-  S217  1  0.75226173  0.13924026  0.95810525  1
  S2-  S218  1  0.74008307  0.37098574  0.44729035  1
  S2-  S219  1  0.75492905  0.38266061  0.96956353  1
  S2-  S220  1  0.73919689  0.62619969  0.44391384  1
  S2-  S221  1  0.75788651  0.63103581  0.94993333  1
  S2-  S222  1  0.74135641  0.88010681  0.46231047  1
  S2-  S223  1  0.75643653  0.88468122  0.95046232  1
  S2-  S224  1  0.13150453  0.00520088  0.03136045  1
  S2-  S225  1  0.11440260  0.00562883  0.54709763  1
  S2-  S226  1  0.13189890  0.26031350  0.04292218  1
  S2-  S227  1  0.12231263  0.25386611  0.54343037  1
  S2-  S228  1  0.13897115  0.51154409  0.03635963  1
  S2-  S229  1  0.11816517  0.50179421  0.54646839  1
  S2-  S230  1  0.12968833  0.75742051  0.03686167  1
  S2-  S231  1  0.11937037  0.74247845  0.55302758  1
  S2-  S232  1  0.38285487  0.00772133  0.04001044  1
  S2-  S233  1  0.36648786  -0.00075045  0.55188869  1
  S2-  S234  1  0.37887650  0.26282210  0.04174428  1
  S2-  S235  1  0.36569523  0.24997667  0.54814698  1
  S2-  S236  1  0.38040313  0.51165755  0.03674388  1
  S2-  S237  1  0.36166187  0.50347550  0.55037505  1
  S2-  S238  1  0.38572234  0.75266424  0.03090111  1
  S2-  S239  1  0.36158884  0.75434549  0.55948838  1
  S2-  S240  1  0.63083214  0.00777379  0.04933082  1
  S2-  S241  1  0.61060990  0.00257881  0.54645799  1
  S2-  S242  1  0.63061851  0.26127341  0.05942181  1
  S2-  S243  1  0.61249154  0.24838891  0.55449839  1
  S2-  S244  1  0.62974704  0.50727124  0.05219321  1
  S2-  S245  1  0.61721525  0.50185999  0.53583439  1
  S2-  S246  1  0.63222998  0.75548403  0.04305654  1
  S2-  S247  1  0.61748497  0.75393457  0.56091269  1
  S2-  S248  1  0.87708865  0.00931452  0.03371964  1
  S2-  S249  1  0.86660953  0.01090079  0.54153008  1
  S2-  S250  1  0.88644598  0.25473095  0.04610740  1
  S2-  S251  1  0.86261991  0.25167056  0.54634829  1
  S2-  S252  1  0.88299817  0.51093737  0.04308667  1
  S2-  S253  1  0.86708738  0.49774830  0.54041342  1
  S2-  S254  1  0.87719368  0.75865415  0.04119184  1
  S2-  S255  1  0.86334355  0.74913355  0.54413603  1
