# generated using pymatgen
data_La12Ce14Pr13Nd13Sm12(BiS2)64
_symmetry_space_group_name_H-M   'P 1'
_cell_length_a   16.11884902
_cell_length_b   16.05118136
_cell_length_c   27.21383452
_cell_angle_alpha   89.91814701
_cell_angle_beta   89.84597321
_cell_angle_gamma   90.00109468
_symmetry_Int_Tables_number   1
_chemical_formula_structural   La12Ce14Pr13Nd13Sm12(BiS2)64
_chemical_formula_sum   'La12 Ce14 Pr13 Nd13 Sm12 Bi64 S128'
_cell_volume   7040.90940538
_cell_formula_units_Z   1
loop_
 _symmetry_equiv_pos_site_id
 _symmetry_equiv_pos_as_xyz
  1  'x, y, z'
loop_
 _atom_type_symbol
 _atom_type_oxidation_number
  La3+  3.0
  Ce3+  3.0
  Pr3+  3.0
  Nd3+  3.0
  Sm3+  3.0
  Bi2+  2.0
  S2-  -2.0
loop_
 _atom_site_type_symbol
 _atom_site_label
 _atom_site_symmetry_multiplicity
 _atom_site_fract_x
 _atom_site_fract_y
 _atom_site_fract_z
 _atom_site_occupancy
  La3+  La0  1  0.62356875  0.27137037  0.91770358  1
  La3+  La1  1  0.13699738  0.49151363  0.40734674  1
  La3+  La2  1  0.25777582  0.39391153  0.07775025  1
  La3+  La3  1  -0.00671985  0.13362557  0.60733453  1
  La3+  La4  1  0.25742055  0.12567548  0.58529083  1
  La3+  La5  1  0.49791530  0.89747296  0.06898033  1
  La3+  La6  1  0.38531121  0.50776846  0.43453594  1
  La3+  La7  1  0.53579669  0.36822463  0.61130293  1
  La3+  La8  1  0.87569433  0.00689463  0.91566895  1
  La3+  La9  1  -0.01093028  0.63014918  0.09240244  1
  La3+  La10  1  0.24620194  0.88935767  0.06886445  1
  La3+  La11  1  0.75109610  0.88705272  0.06823916  1
  Ce3+  Ce12  1  0.61916774  0.51885566  0.93015146  1
  Ce3+  Ce13  1  0.63562403  0.00367632  0.44501368  1
  Ce3+  Ce14  1  0.37023076  0.76291522  0.93778589  1
  Ce3+  Ce15  1  0.63351267  0.75534775  0.44075046  1
  Ce3+  Ce16  1  0.63458675  0.25698872  0.43589685  1
  Ce3+  Ce17  1  -0.00787608  0.89419270  0.06524577  1
  Ce3+  Ce18  1  0.25081287  0.64278931  0.07101937  1
  Ce3+  Ce19  1  -0.00259327  0.38803031  0.05748629  1
  Ce3+  Ce20  1  0.89004410  0.25754180  0.43724611  1
  Ce3+  Ce21  1  0.38734529  0.25839576  0.45653384  1
  Ce3+  Ce22  1  0.74283204  0.64438505  0.06812971  1
  Ce3+  Ce23  1  0.01682872  0.62632576  0.55664052  1
  Ce3+  Ce24  1  0.88693638  0.00672041  0.44213837  1
  Ce3+  Ce25  1  -0.00425136  0.13466615  0.06118468  1
  Pr3+  Pr26  1  0.88945539  0.75560900  0.43527624  1
  Pr3+  Pr27  1  0.51025616  0.12801924  0.56787632  1
  Pr3+  Pr28  1  0.13884200  0.25456677  0.45097880  1
  Pr3+  Pr29  1  0.35845378  0.51801628  0.91727007  1
  Pr3+  Pr30  1  0.87039312  0.51781613  0.93697355  1
  Pr3+  Pr31  1  0.87310700  0.25749438  0.93219026  1
  Pr3+  Pr32  1  0.26318724  0.38271979  0.57228053  1
  Pr3+  Pr33  1  0.75875344  0.13280171  0.55709009  1
  Pr3+  Pr34  1  0.76211523  0.87871582  0.56127693  1
  Pr3+  Pr35  1  0.38746317  0.01139700  0.43966911  1
  Pr3+  Pr36  1  0.75805355  0.62788970  0.55933367  1
  Pr3+  Pr37  1  0.24759534  0.13734434  0.06525264  1
  Pr3+  Pr38  1  0.13399721  0.76679676  0.42729343  1
  Nd3+  Nd39  1  0.38287950  0.75892149  0.44140687  1
  Nd3+  Nd40  1  0.50057569  0.62915117  0.57055451  1
  Nd3+  Nd41  1  0.37106454  0.01212309  0.92825096  1
  Nd3+  Nd42  1  0.62007921  0.76356442  0.93256342  1
  Nd3+  Nd43  1  0.49878199  0.13991085  0.04855876  1
  Nd3+  Nd44  1  0.00532274  0.87859523  0.57224051  1
  Nd3+  Nd45  1  0.11930348  0.76338589  0.95196220  1
  Nd3+  Nd46  1  0.12189249  0.51556709  0.94774637  1
  Nd3+  Nd47  1  0.49583811  0.63774413  0.05280586  1
  Nd3+  Nd48  1  0.74677795  0.38806985  0.05899567  1
  Nd3+  Nd49  1  0.76174686  0.37977897  0.55163477  1
  Nd3+  Nd50  1  0.13584666  0.00825014  0.45077336  1
  Nd3+  Nd51  1  0.12598476  0.26412164  0.94121476  1
  Sm3+  Sm52  1  0.62430668  0.01282653  0.93297060  1
  Sm3+  Sm53  1  0.74838205  0.13539580  0.05809775  1
  Sm3+  Sm54  1  0.25417296  0.88158413  0.56540029  1
  Sm3+  Sm55  1  0.88749694  0.50743908  0.44034627  1
  Sm3+  Sm56  1  0.50559513  0.38983486  0.05863482  1
  Sm3+  Sm57  1  0.12839356  0.01538252  0.93260156  1
  Sm3+  Sm58  1  0.25664971  0.63083921  0.55118561  1
  Sm3+  Sm59  1  0.37251660  0.26724571  0.93904425  1
  Sm3+  Sm60  1  0.50689827  0.87632893  0.56608552  1
  Sm3+  Sm61  1  0.63304714  0.50657950  0.44250195  1
  Sm3+  Sm62  1  0.87222782  0.76108943  0.94004196  1
  Sm3+  Sm63  1  0.01428075  0.38612697  0.56486323  1
  Bi2+  Bi64  1  -0.02811266  0.11244020  0.28719170  1
  Bi2+  Bi65  1  0.02774114  0.12265801  0.78888669  1
  Bi2+  Bi66  1  -0.00919518  0.35855170  0.29524959  1
  Bi2+  Bi67  1  -0.05490811  0.40053882  0.78830934  1
  Bi2+  Bi68  1  -0.03069638  0.60888230  0.27512967  1
  Bi2+  Bi69  1  -0.00208296  0.58891962  0.79580041  1
  Bi2+  Bi70  1  0.00026857  0.84536082  0.30215410  1
  Bi2+  Bi71  1  0.00550605  0.85440706  0.78854019  1
  Bi2+  Bi72  1  0.25227728  0.12443447  0.29400846  1
  Bi2+  Bi73  1  0.27784809  0.12834262  0.77552091  1
  Bi2+  Bi74  1  0.26915162  0.32252482  0.29785047  1
  Bi2+  Bi75  1  0.23660580  0.37112848  0.81017772  1
  Bi2+  Bi76  1  0.32247750  0.60680888  0.28415747  1
  Bi2+  Bi77  1  0.22095017  0.69471710  0.78690712  1
  Bi2+  Bi78  1  0.24649244  0.85298153  0.30384886  1
  Bi2+  Bi79  1  0.29452422  0.88768216  0.79051284  1
  Bi2+  Bi80  1  0.47384205  0.11375500  0.23604015  1
  Bi2+  Bi81  1  0.51101370  0.04466196  0.78816912  1
  Bi2+  Bi82  1  0.52700072  0.36875315  0.27516016  1
  Bi2+  Bi83  1  0.48478052  0.32723471  0.79288501  1
  Bi2+  Bi84  1  0.50499777  0.55219356  0.31803034  1
  Bi2+  Bi85  1  0.49337743  0.69715088  0.79197564  1
  Bi2+  Bi86  1  0.49648547  0.88310338  0.31499026  1
  Bi2+  Bi87  1  0.48522750  0.87536883  0.84383988  1
  Bi2+  Bi88  1  0.72274692  0.13631454  0.24842786  1
  Bi2+  Bi89  1  0.75485233  0.14986606  0.79316615  1
  Bi2+  Bi90  1  0.72889003  0.32628547  0.28876935  1
  Bi2+  Bi91  1  0.75312028  0.44124039  0.80054877  1
  Bi2+  Bi92  1  0.77540914  0.52256249  0.26552685  1
  Bi2+  Bi93  1  0.75815633  0.65709106  0.78784015  1
  Bi2+  Bi94  1  0.73367715  0.96089929  0.30164964  1
  Bi2+  Bi95  1  0.73525509  0.87327017  0.79169362  1
  Bi2+  Bi96  1  0.12196208  0.03160028  0.22565613  1
  Bi2+  Bi97  1  0.14537395  -0.08928706  0.71193449  1
  Bi2+  Bi98  1  0.06145584  0.22121706  0.20813899  1
  Bi2+  Bi99  1  0.13273987  0.29430169  0.70628075  1
  Bi2+  Bi100  1  0.13367347  0.48080159  0.20532156  1
  Bi2+  Bi101  1  0.12548365  0.56015345  0.71044392  1
  Bi2+  Bi102  1  0.13295343  0.79765176  0.21892654  1
  Bi2+  Bi103  1  0.10184286  0.73953648  0.66118007  1
  Bi2+  Bi104  1  0.37239828  -0.03425316  0.19899471  1
  Bi2+  Bi105  1  0.43509425  -0.06021539  0.68884940  1
  Bi2+  Bi106  1  0.32022673  0.22433926  0.20152981  1
  Bi2+  Bi107  1  0.41937447  0.13209058  0.69682382  1
  Bi2+  Bi108  1  0.39671674  0.47681876  0.20893864  1
  Bi2+  Bi109  1  0.36884376  0.50660166  0.71370112  1
  Bi2+  Bi110  1  0.39460889  0.73171091  0.21089468  1
  Bi2+  Bi111  1  0.35696925  0.75539843  0.70902331  1
  Bi2+  Bi112  1  0.63405828  -0.04491642  0.20805412  1
  Bi2+  Bi113  1  0.63612024  -0.02889446  0.70413475  1
  Bi2+  Bi114  1  0.59447827  0.24660399  0.18944424  1
  Bi2+  Bi115  1  0.67013176  0.28630451  0.72333569  1
  Bi2+  Bi116  1  0.61600174  0.53004072  0.19949790  1
  Bi2+  Bi117  1  0.62363632  0.54935082  0.72850781  1
  Bi2+  Bi118  1  0.61046479  0.69198237  0.26060332  1
  Bi2+  Bi119  1  0.62857348  0.77114541  0.71443943  1
  Bi2+  Bi120  1  0.88400164  -0.00742186  0.20251382  1
  Bi2+  Bi121  1  0.84567733  -0.02242135  0.70720871  1
  Bi2+  Bi122  1  0.87154363  0.19188705  0.17026407  1
  Bi2+  Bi123  1  0.86583088  0.26021050  0.71839530  1
  Bi2+  Bi124  1  0.85976693  0.37807266  0.19999940  1
  Bi2+  Bi125  1  0.87139048  0.52775721  0.70473168  1
  Bi2+  Bi126  1  0.80084430  0.75233430  0.21078055  1
  Bi2+  Bi127  1  0.92307255  0.72925070  0.71118149  1
  S2-  S128  1  0.01588223  0.01967202  0.13684702  1
  S2-  S129  1  0.10027718  0.13876069  0.69079006  1
  S2-  S130  1  -0.00602316  0.46101572  0.14722549  1
  S2-  S131  1  -0.01313492  0.30123436  0.65021404  1
  S2-  S132  1  0.06050199  0.65607536  0.18785797  1
  S2-  S133  1  0.00921929  0.51855372  0.63665018  1
  S2-  S134  1  -0.10726404  0.85551108  0.14740040  1
  S2-  S135  1  -0.00485167  0.97155206  0.65787797  1
  S2-  S136  1  0.24723785  0.01709854  0.14248436  1
  S2-  S137  1  0.27537984  0.22629616  0.66790389  1
  S2-  S138  1  0.18477791  0.32524509  0.16548311  1
  S2-  S139  1  0.22681566  0.43654072  0.66781730  1
  S2-  S140  1  0.25370994  0.53392441  0.14872859  1
  S2-  S141  1  0.31903869  0.63047786  0.64432459  1
  S2-  S142  1  0.26048405  0.76799277  0.14753916  1
  S2-  S143  1  0.25999897  0.97754567  0.64818936  1
  S2-  S144  1  0.48366966  0.05094538  0.13482200  1
  S2-  S145  1  0.56999627  0.19965408  0.65354232  1
  S2-  S146  1  0.40732604  0.36216443  0.14033829  1
  S2-  S147  1  0.43614274  0.36125539  0.69959437  1
  S2-  S148  1  0.47955658  0.61190943  0.15230481  1
  S2-  S149  1  0.51207822  0.53105307  0.65523316  1
  S2-  S150  1  0.49116675  0.84282130  0.16788214  1
  S2-  S151  1  0.51435817  0.75955711  0.64023191  1
  S2-  S152  1  0.72678302  0.02025409  0.13792475  1
  S2-  S153  1  0.82685403  0.12860007  0.65030075  1
  S2-  S154  1  0.63083846  0.38796406  0.13547514  1
  S2-  S155  1  0.70609824  0.38108226  0.64607164  1
  S2-  S156  1  0.84054924  0.62539914  0.15148717  1
  S2-  S157  1  0.73556270  0.60987656  0.65881061  1
  S2-  S158  1  0.69487195  0.76788620  0.14096900  1
  S2-  S159  1  0.82925490  0.83722576  0.65146980  1
  S2-  S160  1  0.12585448  -0.07864535  0.36374363  1
  S2-  S161  1  0.03604090  -0.00376966  0.84879856  1
  S2-  S162  1  0.12242821  0.32378897  0.35751843  1
  S2-  S163  1  0.11944723  0.24491014  0.84025093  1
  S2-  S164  1  0.09137808  0.51869734  0.30593995  1
  S2-  S165  1  0.19407587  0.50261730  0.85711896  1
  S2-  S166  1  0.13622527  0.72584783  0.32743975  1
  S2-  S167  1  0.10764209  0.75505071  0.85053384  1
  S2-  S168  1  0.35654371  -0.02428518  0.34206924  1
  S2-  S169  1  0.25135472  0.02958623  0.85268447  1
  S2-  S170  1  0.34802720  0.21712835  0.36351684  1
  S2-  S171  1  0.34875105  0.23819684  0.84024844  1
  S2-  S172  1  0.28824007  0.47867209  0.35120881  1
  S2-  S173  1  0.38628991  0.45677668  0.81902748  1
  S2-  S174  1  0.38443939  0.75219757  0.34121347  1
  S2-  S175  1  0.35384207  0.66685022  0.85519595  1
  S2-  S176  1  0.57752499  0.00986601  0.35255165  1
  S2-  S177  1  0.72607810  0.01242102  0.85261321  1
  S2-  S178  1  0.60189734  0.24902670  0.33990808  1
  S2-  S179  1  0.58105524  0.18526335  0.82843813  1
  S2-  S180  1  0.66950394  0.53853985  0.34767669  1
  S2-  S181  1  0.59663567  0.41857146  0.85007401  1
  S2-  S182  1  0.63514841  0.78494388  0.34361473  1
  S2-  S183  1  0.62511511  0.64468457  0.85627510  1
  S2-  S184  1  0.89498039  -0.02801084  0.34511101  1
  S2-  S185  1  0.90152514  0.14663163  0.84890877  1
  S2-  S186  1  0.88243095  0.24136679  0.33890790  1
  S2-  S187  1  0.76493895  0.28921625  0.85357889  1
  S2-  S188  1  0.90074776  0.49220366  0.34276380  1
  S2-  S189  1  0.87540674  0.63972541  0.86236133  1
  S2-  S190  1  0.88745338  0.73659906  0.33350238  1
  S2-  S191  1  0.87656066  0.85705934  0.85418460  1
  S2-  S192  1  0.01261020  0.13070034  0.44358145  1
  S2-  S193  1  0.00475337  0.13775734  0.95576083  1
  S2-  S194  1  0.00978597  0.38430938  0.45766300  1
  S2-  S195  1  -0.00321167  0.38873227  0.94836479  1
  S2-  S196  1  0.01546692  0.62720011  0.44533577  1
  S2-  S197  1  -0.00101545  0.63722215  0.96165510  1
  S2-  S198  1  0.00727915  0.88217014  0.46298517  1
  S2-  S199  1  -0.00106721  0.88923866  0.95831009  1
  S2-  S200  1  0.26117917  0.12899943  0.47086093  1
  S2-  S201  1  0.24999101  0.14225777  0.95684607  1
  S2-  S202  1  0.26106867  0.37959773  0.46301878  1
  S2-  S203  1  0.24998880  0.38708046  0.95950878  1
  S2-  S204  1  0.25477580  0.63470929  0.44559685  1
  S2-  S205  1  0.24468955  0.64015177  0.96325105  1
  S2-  S206  1  0.26286724  0.88518025  0.46061238  1
  S2-  S207  1  0.24669235  0.88689108  0.95446349  1
  S2-  S208  1  0.51278027  0.13163365  0.46006444  1
  S2-  S209  1  0.49515919  0.13717290  0.94366170  1
  S2-  S210  1  0.51135144  0.38248624  0.44176494  1
  S2-  S211  1  0.49055555  0.39021836  0.95275178  1
  S2-  S212  1  0.50995397  0.63367532  0.45727522  1
  S2-  S213  1  0.49013959  0.63625899  0.94902772  1
  S2-  S214  1  0.50854113  0.88059962  0.46043656  1
  S2-  S215  1  0.49694485  0.89219831  0.95624158  1
  S2-  S216  1  0.76029457  0.13128215  0.44849464  1
  S2-  S217  1  0.74402997  0.13797685  0.95373077  1
  S2-  S218  1  0.76087883  0.38421594  0.44530702  1
  S2-  S219  1  0.74709025  0.39418849  0.95522540  1
  S2-  S220  1  0.76211085  0.63038348  0.45177025  1
  S2-  S221  1  0.74484160  0.64162670  0.96010236  1
  S2-  S222  1  0.76166111  0.87870353  0.45352679  1
  S2-  S223  1  0.74303643  0.88391521  0.95525091  1
  S2-  S224  1  0.12545757  0.01430212  0.03675581  1
  S2-  S225  1  0.12582409  0.00727125  0.55441700  1
  S2-  S226  1  0.12232242  0.26250691  0.04847885  1
  S2-  S227  1  0.13318326  0.25490254  0.55748003  1
  S2-  S228  1  0.12122553  0.51495555  0.05140462  1
  S2-  S229  1  0.13992767  0.50523851  0.54038191  1
  S2-  S230  1  0.11286546  0.76276926  0.05744887  1
  S2-  S231  1  0.13570720  0.75943584  0.53799899  1
  S2-  S232  1  0.37021426  0.01490562  0.03405753  1
  S2-  S233  1  0.38681351  0.00221940  0.54832908  1
  S2-  S234  1  0.37336147  0.25971246  0.04198391  1
  S2-  S235  1  0.39459189  0.26266093  0.56136713  1
  S2-  S236  1  0.37731634  0.51238967  0.04022002  1
  S2-  S237  1  0.38077222  0.50876139  0.54255266  1
  S2-  S238  1  0.37669715  0.76757140  0.04453888  1
  S2-  S239  1  0.37709111  0.76068554  0.54595116  1
  S2-  S240  1  0.62320340  0.01567249  0.03553698  1
  S2-  S241  1  0.63427668  0.00134047  0.55329413  1
  S2-  S242  1  0.62411930  0.25973930  0.03493248  1
  S2-  S243  1  0.63445561  0.25827634  0.54167289  1
  S2-  S244  1  0.62297660  0.51674465  0.03935088  1
  S2-  S245  1  0.63052630  0.50207846  0.54602540  1
  S2-  S246  1  0.61376844  0.76658246  0.03719532  1
  S2-  S247  1  0.63643121  0.75489392  0.54593488  1
  S2-  S248  1  0.87093919  0.01740727  0.03770012  1
  S2-  S249  1  0.88546192  0.00721512  0.54728027  1
  S2-  S250  1  0.86981920  0.26335241  0.04076858  1
  S2-  S251  1  0.88742009  0.25529589  0.54335140  1
  S2-  S252  1  0.86945148  0.51090900  0.04370087  1
  S2-  S253  1  0.88319272  0.50481064  0.54338910  1
  S2-  S254  1  0.87440755  0.75790852  0.04359030  1
  S2-  S255  1  0.88816274  0.74910475  0.54311751  1
