# generated using pymatgen
data_La12Ce14Pr13Nd13Sm12(BiS2)64
_symmetry_space_group_name_H-M   'P 1'
_cell_length_a   16.14566571
_cell_length_b   16.11628349
_cell_length_c   27.21891746
_cell_angle_alpha   90.36898404
_cell_angle_beta   90.05951404
_cell_angle_gamma   90.06756618
_symmetry_Int_Tables_number   1
_chemical_formula_structural   La12Ce14Pr13Nd13Sm12(BiS2)64
_chemical_formula_sum   'La12 Ce14 Pr13 Nd13 Sm12 Bi64 S128'
_cell_volume   7082.42782431
_cell_formula_units_Z   1
loop_
 _symmetry_equiv_pos_site_id
 _symmetry_equiv_pos_as_xyz
  1  'x, y, z'
loop_
 _atom_type_symbol
 _atom_type_oxidation_number
  La3+  3.0
  Ce3+  3.0
  Pr3+  3.0
  Nd3+  3.0
  Sm3+  3.0
  Bi2+  2.0
  S2-  -2.0
loop_
 _atom_site_type_symbol
 _atom_site_label
 _atom_site_symmetry_multiplicity
 _atom_site_fract_x
 _atom_site_fract_y
 _atom_site_fract_z
 _atom_site_occupancy
  La3+  La0  1  0.12533546  0.26050807  0.92910878  1
  La3+  La1  1  0.25274427  0.61218844  0.58604715  1
  La3+  La2  1  0.12900467  0.01164975  0.92798770  1
  La3+  La3  1  0.61432246  0.22941885  0.39912968  1
  La3+  La4  1  0.86843168  0.73407002  0.44567789  1
  La3+  La5  1  0.49858760  0.39802950  0.07884749  1
  La3+  La6  1  0.38302997  0.50071209  0.92091116  1
  La3+  La7  1  0.61662842  0.49772376  0.40575036  1
  La3+  La8  1  0.63515760  0.50915841  0.92346734  1
  La3+  La9  1  0.75862840  0.39787259  0.08282995  1
  La3+  La10  1  0.26075019  0.85199605  0.11934638  1
  La3+  La11  1  0.74567494  0.13074080  0.08592720  1
  Ce3+  Ce12  1  0.37889446  0.76463690  0.93592487  1
  Ce3+  Ce13  1  0.87977624  0.76170966  0.94613101  1
  Ce3+  Ce14  1  0.63153549  0.76170174  0.94211465  1
  Ce3+  Ce15  1  0.75225614  0.88976594  0.05507461  1
  Ce3+  Ce16  1  0.24862338  0.36627570  0.56019282  1
  Ce3+  Ce17  1  0.11971659  0.23967274  0.44179939  1
  Ce3+  Ce18  1  0.87436094  0.26356559  0.95481535  1
  Ce3+  Ce19  1  0.73974937  0.86615188  0.55405618  1
  Ce3+  Ce20  1  0.88496551  0.50863381  0.93930740  1
  Ce3+  Ce21  1  0.24953479  0.38848363  0.05805751  1
  Ce3+  Ce22  1  -0.00545237  0.86493701  0.56147802  1
  Ce3+  Ce23  1  0.49230344  0.61291551  0.55941262  1
  Ce3+  Ce24  1  0.73816282  0.61354101  0.56169305  1
  Ce3+  Ce25  1  -0.00573750  0.11506032  0.55268071  1
  Pr3+  Pr26  1  -0.00880097  0.36427494  0.56165599  1
  Pr3+  Pr27  1  0.36611933  0.23996565  0.42597463  1
  Pr3+  Pr28  1  0.13028270  0.51767325  0.92238926  1
  Pr3+  Pr29  1  0.62943290  0.01624456  0.93093091  1
  Pr3+  Pr30  1  0.73813825  0.36510414  0.54651849  1
  Pr3+  Pr31  1  0.25178202  0.13074527  0.06594354  1
  Pr3+  Pr32  1  0.01152891  0.64382113  0.06118915  1
  Pr3+  Pr33  1  0.61422999  -0.01226142  0.42960480  1
  Pr3+  Pr34  1  0.36732390  0.49311277  0.42986711  1
  Pr3+  Pr35  1  0.01124342  0.89490961  0.06626062  1
  Pr3+  Pr36  1  0.86606700  -0.00969479  0.43707760  1
  Pr3+  Pr37  1  0.00784587  0.38803565  0.06851768  1
  Pr3+  Pr38  1  0.36288560  0.74011210  0.45069046  1
  Nd3+  Nd39  1  0.61405752  0.73981553  0.43978507  1
  Nd3+  Nd40  1  0.86906445  0.24121424  0.43318988  1
  Nd3+  Nd41  1  0.50158992  0.89002220  0.05783227  1
  Nd3+  Nd42  1  0.11828181  -0.01863777  0.43033553  1
  Nd3+  Nd43  1  0.23115018  0.87965282  0.58799868  1
  Nd3+  Nd44  1  0.00608603  0.13651105  0.06666383  1
  Nd3+  Nd45  1  0.12018591  0.73284748  0.44731429  1
  Nd3+  Nd46  1  0.75677863  0.63773947  0.06476230  1
  Nd3+  Nd47  1  0.37839095  0.01369262  0.94246048  1
  Nd3+  Nd48  1  -0.00788267  0.60797829  0.57682943  1
  Nd3+  Nd49  1  0.12951777  0.76641771  0.93017383  1
  Nd3+  Nd50  1  0.25560382  0.63497474  0.04962179  1
  Nd3+  Nd51  1  0.50292899  0.63617103  0.05455817  1
  Sm3+  Sm52  1  0.11875475  0.49269370  0.44403489  1
  Sm3+  Sm53  1  0.24490970  0.11938051  0.55756269  1
  Sm3+  Sm54  1  0.50449473  0.14056546  0.06020853  1
  Sm3+  Sm55  1  0.63116320  0.26292632  0.94590967  1
  Sm3+  Sm56  1  0.49599408  0.36415590  0.54467194  1
  Sm3+  Sm57  1  0.49411689  0.11695767  0.55294672  1
  Sm3+  Sm58  1  0.36487379  -0.01206043  0.44907763  1
  Sm3+  Sm59  1  0.86674783  0.48798343  0.44027369  1
  Sm3+  Sm60  1  0.87906086  0.01525842  0.94385397  1
  Sm3+  Sm61  1  0.74091806  0.11559670  0.55285153  1
  Sm3+  Sm62  1  0.38085688  0.26664579  0.95116959  1
  Sm3+  Sm63  1  0.49161452  0.86761500  0.56104380  1
  Bi2+  Bi64  1  0.05826744  0.13570642  0.27106090  1
  Bi2+  Bi65  1  0.00199173  0.14777698  0.79198802  1
  Bi2+  Bi66  1  0.09439118  0.38803316  0.27461748  1
  Bi2+  Bi67  1  -0.01846327  0.34454434  0.77768504  1
  Bi2+  Bi68  1  0.03084155  0.66612285  0.28976671  1
  Bi2+  Bi69  1  -0.04414182  0.60601033  0.80677151  1
  Bi2+  Bi70  1  -0.04278898  0.84966470  0.28240314  1
  Bi2+  Bi71  1  0.00597904  0.88468297  0.78996891  1
  Bi2+  Bi72  1  0.24979686  0.16464537  0.30435586  1
  Bi2+  Bi73  1  0.26238247  0.16080317  0.77829047  1
  Bi2+  Bi74  1  0.27943542  0.41474888  0.31320663  1
  Bi2+  Bi75  1  0.24520772  0.35544405  0.79175807  1
  Bi2+  Bi76  1  0.23767437  0.60163460  0.29129689  1
  Bi2+  Bi77  1  0.25299868  0.64869322  0.79582964  1
  Bi2+  Bi78  1  0.25830372  0.85485304  0.32375096  1
  Bi2+  Bi79  1  0.27546580  0.89749808  0.78903451  1
  Bi2+  Bi80  1  0.50651585  0.04829808  0.29015144  1
  Bi2+  Bi81  1  0.47975149  0.13300692  0.80232113  1
  Bi2+  Bi82  1  0.45083565  0.35001431  0.27616043  1
  Bi2+  Bi83  1  0.51436290  0.38231838  0.79616411  1
  Bi2+  Bi84  1  0.51164468  0.63897282  0.29065192  1
  Bi2+  Bi85  1  0.52928996  0.62264596  0.72575628  1
  Bi2+  Bi86  1  0.52700025  0.85775721  0.33257553  1
  Bi2+  Bi87  1  0.53094102  0.94777688  0.78049351  1
  Bi2+  Bi88  1  0.80233407  0.09143297  0.28488714  1
  Bi2+  Bi89  1  0.73454177  0.13812005  0.78403793  1
  Bi2+  Bi90  1  0.80297834  0.35376507  0.28083790  1
  Bi2+  Bi91  1  0.76530528  0.33334513  0.79002251  1
  Bi2+  Bi92  1  0.78640287  0.59480698  0.30101887  1
  Bi2+  Bi93  1  0.69320779  0.58303968  0.78645966  1
  Bi2+  Bi94  1  0.70127897  0.85184043  0.28160758  1
  Bi2+  Bi95  1  0.69474361  0.86725346  0.81185994  1
  Bi2+  Bi96  1  0.11784832  -0.02804723  0.21281522  1
  Bi2+  Bi97  1  0.11110774  0.04233998  0.70730429  1
  Bi2+  Bi98  1  0.13409995  0.25714154  0.15362332  1
  Bi2+  Bi99  1  0.12682385  0.26905230  0.71011362  1
  Bi2+  Bi100  1  0.14363866  0.45970281  0.17022849  1
  Bi2+  Bi101  1  0.11102938  0.52719708  0.70312801  1
  Bi2+  Bi102  1  0.11409682  0.66880437  0.18684995  1
  Bi2+  Bi103  1  0.11461584  0.77522698  0.71519567  1
  Bi2+  Bi104  1  0.35458977  0.07585040  0.22039592  1
  Bi2+  Bi105  1  0.38807879  0.06612956  0.70566665  1
  Bi2+  Bi106  1  0.30828480  0.26206278  0.21235149  1
  Bi2+  Bi107  1  0.30803963  0.23654821  0.66750831  1
  Bi2+  Bi108  1  0.36291114  0.55589229  0.20525990  1
  Bi2+  Bi109  1  0.37426223  0.40522333  0.70930038  1
  Bi2+  Bi110  1  0.44073540  0.79221806  0.23577345  1
  Bi2+  Bi111  1  0.43058707  0.78440602  0.71232819  1
  Bi2+  Bi112  1  0.59623906  -0.04662200  0.20348333  1
  Bi2+  Bi113  1  0.64196719  0.01025805  0.68954915  1
  Bi2+  Bi114  1  0.63491893  0.21684614  0.21056872  1
  Bi2+  Bi115  1  0.58597736  0.23691699  0.72967586  1
  Bi2+  Bi116  1  0.61977278  0.47855415  0.20413521  1
  Bi2+  Bi117  1  0.64438726  0.47324145  0.68468450  1
  Bi2+  Bi118  1  0.62086519  0.72974852  0.20143283  1
  Bi2+  Bi119  1  0.68272704  0.74027163  0.69703930  1
  Bi2+  Bi120  1  0.87437639  -0.07558000  0.19349883  1
  Bi2+  Bi121  1  0.83682234  -0.02753772  0.75820550  1
  Bi2+  Bi122  1  0.95728224  0.25050586  0.20041360  1
  Bi2+  Bi123  1  0.87045930  0.21683695  0.70531999  1
  Bi2+  Bi124  1  0.97013561  0.51117049  0.22040386  1
  Bi2+  Bi125  1  0.85064508  0.47055423  0.71018373  1
  Bi2+  Bi126  1  0.81532907  0.74031807  0.20523187  1
  Bi2+  Bi127  1  0.85370830  0.77127644  0.74971908  1
  S2-  S128  1  -0.00004993  0.02240249  0.14365881  1
  S2-  S129  1  -0.00918020  0.12860953  0.65054682  1
  S2-  S130  1  -0.09115256  0.39716768  0.15229313  1
  S2-  S131  1  -0.01431324  0.46521539  0.64435723  1
  S2-  S132  1  -0.05952553  0.64669495  0.15440965  1
  S2-  S133  1  0.01478996  0.66745322  0.67302534  1
  S2-  S134  1  0.08850371  0.83009269  0.15140968  1
  S2-  S135  1  0.07006622  0.89606794  0.64766040  1
  S2-  S136  1  0.24145950  0.02456052  0.14793628  1
  S2-  S137  1  0.23452951  0.03463689  0.64336922  1
  S2-  S138  1  0.32133171  0.43433523  0.14295476  1
  S2-  S139  1  0.24043594  0.46107282  0.64312734  1
  S2-  S140  1  0.27576893  0.67994749  0.14739364  1
  S2-  S141  1  0.22081007  0.64514458  0.68999285  1
  S2-  S142  1  0.24324376  0.86105898  0.22940107  1
  S2-  S143  1  0.28461407  0.84405492  0.68500543  1
  S2-  S144  1  0.54533648  0.09843564  0.15187128  1
  S2-  S145  1  0.51969104  0.13216631  0.65099984  1
  S2-  S146  1  0.51931686  0.33416685  0.17600671  1
  S2-  S147  1  0.50857482  0.39405908  0.64299765  1
  S2-  S148  1  0.49755464  0.55095678  0.14252345  1
  S2-  S149  1  0.41591219  0.62555066  0.64582319  1
  S2-  S150  1  0.43213037  0.87335018  0.14884533  1
  S2-  S151  1  0.51285450  0.89230252  0.65711061  1
  S2-  S152  1  0.79889369  0.15818459  0.18481890  1
  S2-  S153  1  0.75235273  0.12055064  0.65068836  1
  S2-  S154  1  0.71953677  0.34711460  0.18133145  1
  S2-  S155  1  0.76492450  0.36402972  0.64718968  1
  S2-  S156  1  0.72988820  0.54400522  0.14761963  1
  S2-  S157  1  0.78309421  0.60845180  0.65605662  1
  S2-  S158  1  0.73112616  0.97078386  0.14050646  1
  S2-  S159  1  0.74616045  0.88592531  0.65083367  1
  S2-  S160  1  0.14897509  0.03463234  0.33415108  1
  S2-  S161  1  0.13752060  -0.11372417  0.85127504  1
  S2-  S162  1  0.08966192  0.26293825  0.34652807  1
  S2-  S163  1  0.13312699  0.13913061  0.85476546  1
  S2-  S164  1  0.11349018  0.60694581  0.37102808  1
  S2-  S165  1  0.00475504  0.47501323  0.85423845  1
  S2-  S166  1  0.11514114  0.83785350  0.36585952  1
  S2-  S167  1  0.11406370  0.66068167  0.84569257  1
  S2-  S168  1  0.37983940  -0.02419772  0.35121036  1
  S2-  S169  1  0.33868949  0.01098699  0.84355725  1
  S2-  S170  1  0.46445949  0.22908247  0.34177179  1
  S2-  S171  1  0.38395948  0.32465783  0.85823513  1
  S2-  S172  1  0.47165432  0.49697088  0.34574704  1
  S2-  S173  1  0.25736351  0.50914388  0.84557535  1
  S2-  S174  1  0.32933882  0.70181550  0.35360647  1
  S2-  S175  1  0.36209753  0.76335327  0.83591089  1
  S2-  S176  1  0.65340008  0.07507206  0.34463598  1
  S2-  S177  1  0.62635717  0.14563064  0.86335000  1
  S2-  S178  1  0.66881305  0.27397852  0.30467724  1
  S2-  S179  1  0.64832990  0.36059344  0.86263510  1
  S2-  S180  1  0.68284995  0.47050445  0.30782209  1
  S2-  S181  1  0.50744733  0.51995766  0.84916438  1
  S2-  S182  1  0.64674492  0.65647008  0.35425581  1
  S2-  S183  1  0.63889628  0.71579527  0.84814274  1
  S2-  S184  1  0.89475295  -0.01065440  0.33745776  1
  S2-  S185  1  0.92764108  0.01515423  0.84882058  1
  S2-  S186  1  0.86495188  0.21908483  0.33391883  1
  S2-  S187  1  0.88819299  0.26159825  0.85599348  1
  S2-  S188  1  0.88770577  0.47429595  0.34269570  1
  S2-  S189  1  0.80496565  0.53841654  0.85144362  1
  S2-  S190  1  0.88614333  0.72518799  0.34616222  1
  S2-  S191  1  0.90934928  0.75879481  0.84937762  1
  S2-  S192  1  -0.00612234  0.11410905  0.44540743  1
  S2-  S193  1  -0.00051249  0.13873221  0.95880537  1
  S2-  S194  1  -0.00592524  0.36784562  0.45379134  1
  S2-  S195  1  0.00535981  0.38258441  0.96116358  1
  S2-  S196  1  -0.01037293  0.60867503  0.46696444  1
  S2-  S197  1  0.00485290  0.64009994  0.95484756  1
  S2-  S198  1  -0.01106048  0.86367125  0.45756016  1
  S2-  S199  1  0.00012375  0.88917712  0.95705609  1
  S2-  S200  1  0.24402738  0.11321687  0.45233549  1
  S2-  S201  1  0.25953908  0.14206997  0.95633346  1
  S2-  S202  1  0.24235108  0.36681378  0.45152151  1
  S2-  S203  1  0.24809979  0.38401877  0.95261537  1
  S2-  S204  1  0.24505634  0.61046694  0.46989793  1
  S2-  S205  1  0.25729006  0.64030738  0.94573244  1
  S2-  S206  1  0.24269400  0.86721793  0.46710723  1
  S2-  S207  1  0.25912361  0.88850940  0.94871379  1
  S2-  S208  1  0.49026448  0.11206391  0.44841804  1
  S2-  S209  1  0.50102166  0.14177618  0.95692735  1
  S2-  S210  1  0.49718853  0.36238978  0.44148752  1
  S2-  S211  1  0.50776758  0.38245939  0.96427927  1
  S2-  S212  1  0.49112193  0.61718687  0.45346881  1
  S2-  S213  1  0.50451934  0.64052177  0.95037629  1
  S2-  S214  1  0.49003724  0.86526101  0.45765816  1
  S2-  S215  1  0.50641043  0.88964444  0.94816922  1
  S2-  S216  1  0.74299226  0.11868045  0.44864169  1
  S2-  S217  1  0.75476574  0.13557906  0.96342982  1
  S2-  S218  1  0.73933785  0.36355244  0.43847124  1
  S2-  S219  1  0.75740290  0.38887397  0.96680593  1
  S2-  S220  1  0.74219325  0.60908280  0.45549088  1
  S2-  S221  1  0.75578770  0.63891142  0.95865235  1
  S2-  S222  1  0.74109596  0.86311288  0.44582861  1
  S2-  S223  1  0.75537275  0.89103820  0.94908519  1
  S2-  S224  1  0.12600718  0.01922006  0.03602500  1
  S2-  S225  1  0.11809765  -0.00472772  0.53867615  1
  S2-  S226  1  0.12909567  0.25995815  0.03910100  1
  S2-  S227  1  0.12031889  0.24163277  0.54923206  1
  S2-  S228  1  0.12844550  0.51456044  0.03817275  1
  S2-  S229  1  0.11813498  0.48883933  0.54606628  1
  S2-  S230  1  0.13806321  0.76649554  0.04038114  1
  S2-  S231  1  0.11984113  0.73856630  0.55626662  1
  S2-  S232  1  0.38460105  0.01674776  0.04727526  1
  S2-  S233  1  0.37057256  -0.00699597  0.55246823  1
  S2-  S234  1  0.37776107  0.26104495  0.05594457  1
  S2-  S235  1  0.37168406  0.23942865  0.53490029  1
  S2-  S236  1  0.37808454  0.51330737  0.03269499  1
  S2-  S237  1  0.37352717  0.48592721  0.53880462  1
  S2-  S238  1  0.37897643  0.76263765  0.04277851  1
  S2-  S239  1  0.36413459  0.75159444  0.55624513  1
  S2-  S240  1  0.62377060  0.01379883  0.03757787  1
  S2-  S241  1  0.61585895  -0.00779996  0.53956421  1
  S2-  S242  1  0.62955603  0.26308847  0.05553513  1
  S2-  S243  1  0.61703266  0.23745193  0.54223007  1
  S2-  S244  1  0.62896347  0.51606357  0.04005442  1
  S2-  S245  1  0.61558182  0.49101986  0.53718126  1
  S2-  S246  1  0.62787117  0.76295219  0.05050843  1
  S2-  S247  1  0.61407219  0.74196159  0.54770000  1
  S2-  S248  1  0.87424928  0.01591883  0.04646429  1
  S2-  S249  1  0.86666622  -0.00880331  0.54523185  1
  S2-  S250  1  0.87559127  0.25742064  0.05922912  1
  S2-  S251  1  0.86602689  0.23925774  0.54053968  1
  S2-  S252  1  0.88567693  0.51892444  0.04660844  1
  S2-  S253  1  0.86396666  0.48962003  0.54437798  1
  S2-  S254  1  0.87968220  0.76882551  0.05183351  1
  S2-  S255  1  0.86776490  0.73965414  0.55411889  1
