# generated using pymatgen
data_La12Ce14Pr13Nd13Sm12(BiS2)64
_symmetry_space_group_name_H-M   'P 1'
_cell_length_a   16.16756861
_cell_length_b   16.20599386
_cell_length_c   27.23607445
_cell_angle_alpha   89.85964763
_cell_angle_beta   89.72201273
_cell_angle_gamma   89.88392046
_symmetry_Int_Tables_number   1
_chemical_formula_structural   La12Ce14Pr13Nd13Sm12(BiS2)64
_chemical_formula_sum   'La12 Ce14 Pr13 Nd13 Sm12 Bi64 S128'
_cell_volume   7136.04532732
_cell_formula_units_Z   1
loop_
 _symmetry_equiv_pos_site_id
 _symmetry_equiv_pos_as_xyz
  1  'x, y, z'
loop_
 _atom_type_symbol
 _atom_type_oxidation_number
  La3+  3.0
  Ce3+  3.0
  Pr3+  3.0
  Nd3+  3.0
  Sm3+  3.0
  Bi2+  2.0
  S2-  -2.0
loop_
 _atom_site_type_symbol
 _atom_site_label
 _atom_site_symmetry_multiplicity
 _atom_site_fract_x
 _atom_site_fract_y
 _atom_site_fract_z
 _atom_site_occupancy
  La3+  La0  1  0.37639807  -0.02283664  0.43085816  1
  La3+  La1  1  0.50110950  0.12553314  0.08163249  1
  La3+  La2  1  0.87784793  0.23580290  0.43484170  1
  La3+  La3  1  0.12512159  0.48599235  0.43866871  1
  La3+  La4  1  -0.00229340  0.36102024  0.59846056  1
  La3+  La5  1  0.49540760  0.60443058  0.57811587  1
  La3+  La6  1  0.50756579  0.38321159  0.11588660  1
  La3+  La7  1  0.88283012  0.75149188  0.92423514  1
  La3+  La8  1  0.36661091  0.22884586  0.41696968  1
  La3+  La9  1  0.49521054  0.87925039  0.07180186  1
  La3+  La10  1  0.88058966  0.73280940  0.40491972  1
  La3+  La11  1  0.38955304  0.00931900  0.92180333  1
  Ce3+  Ce12  1  0.12933386  0.25078385  0.94715349  1
  Ce3+  Ce13  1  0.38471652  0.24843417  0.94678751  1
  Ce3+  Ce14  1  0.13570234  0.74978326  0.93721972  1
  Ce3+  Ce15  1  0.25738419  0.62261966  0.04970764  1
  Ce3+  Ce16  1  0.75106240  0.11285341  0.55519162  1
  Ce3+  Ce17  1  0.63200212  0.73509243  0.43790884  1
  Ce3+  Ce18  1  0.75546248  0.87352433  0.05554421  1
  Ce3+  Ce19  1  0.62860836  0.75054164  0.95138830  1
  Ce3+  Ce20  1  0.62566846  -0.01674444  0.44500979  1
  Ce3+  Ce21  1  0.75377762  0.62255514  0.05672235  1
  Ce3+  Ce22  1  0.00287391  0.37731936  0.06737275  1
  Ce3+  Ce23  1  0.25425527  0.86021472  0.56161329  1
  Ce3+  Ce24  1  0.25710977  0.11309568  0.56721633  1
  Ce3+  Ce25  1  0.00251096  0.11412762  0.56824028  1
  Pr3+  Pr26  1  0.50151410  0.85421382  0.57089698  1
  Pr3+  Pr27  1  0.12424643  0.23318715  0.44008749  1
  Pr3+  Pr28  1  0.62525823  0.49033885  0.43769472  1
  Pr3+  Pr29  1  0.75464200  0.61009010  0.55860496  1
  Pr3+  Pr30  1  0.63175423  0.00566919  0.94188828  1
  Pr3+  Pr31  1  0.12399515  0.73511691  0.43836151  1
  Pr3+  Pr32  1  0.88442658  0.24949185  0.93525436  1
  Pr3+  Pr33  1  0.38511030  0.49778133  0.94003428  1
  Pr3+  Pr34  1  -0.00056279  0.61283225  0.56158655  1
  Pr3+  Pr35  1  0.87768861  0.49191392  0.92819219  1
  Pr3+  Pr36  1  0.49351195  0.62509934  0.06933473  1
  Pr3+  Pr37  1  0.38904683  0.73271778  0.43321671  1
  Pr3+  Pr38  1  0.12923198  0.49549793  0.93150562  1
  Nd3+  Nd39  1  0.62503509  0.23653891  0.43506295  1
  Nd3+  Nd40  1  0.76260999  0.12392414  0.07304970  1
  Nd3+  Nd41  1  0.75873217  0.37608158  0.07120476  1
  Nd3+  Nd42  1  0.00538766  0.62353104  0.04837351  1
  Nd3+  Nd43  1  0.88194452  0.00183918  0.94263899  1
  Nd3+  Nd44  1  0.25508922  0.12265151  0.06246836  1
  Nd3+  Nd45  1  0.12469001  -0.01611715  0.45026736  1
  Nd3+  Nd46  1  0.87682500  -0.01441050  0.44485678  1
  Nd3+  Nd47  1  0.62983393  0.49885978  0.94556765  1
  Nd3+  Nd48  1  0.75042711  0.35826525  0.55998395  1
  Nd3+  Nd49  1  0.63224941  0.24995951  0.95439288  1
  Nd3+  Nd50  1  0.13348758  -0.00103371  0.93805406  1
  Nd3+  Nd51  1  0.39260708  0.75246790  0.92716664  1
  Sm3+  Sm52  1  0.24825278  0.60937860  0.55286383  1
  Sm3+  Sm53  1  0.00575791  0.12303379  0.06076433  1
  Sm3+  Sm54  1  0.25660118  0.87564673  0.04867621  1
  Sm3+  Sm55  1  0.00573599  0.87097389  0.05293849  1
  Sm3+  Sm56  1  0.49823901  0.36114208  0.55541740  1
  Sm3+  Sm57  1  0.87567663  0.48575566  0.44150841  1
  Sm3+  Sm58  1  0.24788374  0.35864858  0.55549270  1
  Sm3+  Sm59  1  0.25644945  0.37402705  0.05761073  1
  Sm3+  Sm60  1  0.37858751  0.48617662  0.44245980  1
  Sm3+  Sm61  1  -0.00033163  0.85957546  0.56098673  1
  Sm3+  Sm62  1  0.75160082  0.86077545  0.55794673  1
  Sm3+  Sm63  1  0.49693235  0.11005323  0.55594538  1
  Bi2+  Bi64  1  0.00691557  0.17770052  0.32764920  1
  Bi2+  Bi65  1  -0.06246364  0.12871221  0.80566110  1
  Bi2+  Bi66  1  0.00601500  0.36916736  0.28945041  1
  Bi2+  Bi67  1  0.00679863  0.39421247  0.80534794  1
  Bi2+  Bi68  1  -0.04010811  0.65906688  0.27622332  1
  Bi2+  Bi69  1  0.01602135  0.63717944  0.79205431  1
  Bi2+  Bi70  1  0.04083324  0.90558462  0.29866638  1
  Bi2+  Bi71  1  -0.04021748  0.85491356  0.78578377  1
  Bi2+  Bi72  1  0.18469209  0.13072503  0.28895652  1
  Bi2+  Bi73  1  0.28022259  0.18333373  0.78302156  1
  Bi2+  Bi74  1  0.20002500  0.39978611  0.28921697  1
  Bi2+  Bi75  1  0.27235255  0.37476042  0.75747314  1
  Bi2+  Bi76  1  0.20131039  0.59727929  0.25543008  1
  Bi2+  Bi77  1  0.26408054  0.65889532  0.75451928  1
  Bi2+  Bi78  1  0.21279420  0.89217985  0.23844250  1
  Bi2+  Bi79  1  0.20009245  0.89022602  0.78968719  1
  Bi2+  Bi80  1  0.50140192  0.11939986  0.30494440  1
  Bi2+  Bi81  1  0.51966993  0.12553778  0.79409136  1
  Bi2+  Bi82  1  0.51779129  0.39165080  0.31813156  1
  Bi2+  Bi83  1  0.46829150  0.38470536  0.79219924  1
  Bi2+  Bi84  1  0.45032391  0.63341051  0.28847454  1
  Bi2+  Bi85  1  0.51266657  0.61308373  0.81037919  1
  Bi2+  Bi86  1  0.48992468  0.87315975  0.29749793  1
  Bi2+  Bi87  1  0.46270012  0.86505394  0.80095016  1
  Bi2+  Bi88  1  0.84438392  0.09576760  0.29925180  1
  Bi2+  Bi89  1  0.74754531  0.09148550  0.81179855  1
  Bi2+  Bi90  1  0.81449157  0.41964707  0.30298419  1
  Bi2+  Bi91  1  0.73181138  0.30836742  0.78578841  1
  Bi2+  Bi92  1  0.73399250  0.67219292  0.25388857  1
  Bi2+  Bi93  1  0.71828566  0.59806146  0.76988149  1
  Bi2+  Bi94  1  0.75183799  0.87469024  0.28840947  1
  Bi2+  Bi95  1  0.71773402  0.91563206  0.75603816  1
  Bi2+  Bi96  1  0.13767490  0.05740597  0.18475444  1
  Bi2+  Bi97  1  0.08047135  0.02053838  0.73468469  1
  Bi2+  Bi98  1  0.12746203  0.25669395  0.19798450  1
  Bi2+  Bi99  1  0.12094042  0.21098984  0.72600981  1
  Bi2+  Bi100  1  0.11709594  0.45417056  0.18377752  1
  Bi2+  Bi101  1  0.16329703  0.50763707  0.69800334  1
  Bi2+  Bi102  1  0.10837744  0.74036883  0.20178179  1
  Bi2+  Bi103  1  0.10582119  0.74341080  0.71068337  1
  Bi2+  Bi104  1  0.38025814  -0.01191693  0.21021618  1
  Bi2+  Bi105  1  0.34372905  0.00982725  0.69824577  1
  Bi2+  Bi106  1  0.37140771  0.25030451  0.21589292  1
  Bi2+  Bi107  1  0.41566663  0.25735228  0.70855806  1
  Bi2+  Bi108  1  0.36329945  0.51255178  0.20783456  1
  Bi2+  Bi109  1  0.41275830  0.53621496  0.71518002  1
  Bi2+  Bi110  1  0.38394601  0.75591786  0.20747939  1
  Bi2+  Bi111  1  0.39508738  0.78865138  0.69988246  1
  Bi2+  Bi112  1  0.65297022  -0.01701246  0.21519971  1
  Bi2+  Bi113  1  0.63342653  0.07273007  0.70755680  1
  Bi2+  Bi114  1  0.65097450  0.24566532  0.22798443  1
  Bi2+  Bi115  1  0.61409348  0.26613413  0.69410723  1
  Bi2+  Bi116  1  0.65320984  0.51302534  0.21665127  1
  Bi2+  Bi117  1  0.61221070  0.45551565  0.71981814  1
  Bi2+  Bi118  1  0.57832968  0.77558138  0.21365556  1
  Bi2+  Bi119  1  0.60403097  0.75231733  0.74474013  1
  Bi2+  Bi120  1  0.95379869  0.00815848  0.21480624  1
  Bi2+  Bi121  1  0.87944150  0.01939080  0.71447880  1
  Bi2+  Bi122  1  0.93249537  0.24093769  0.20988545  1
  Bi2+  Bi123  1  0.86595407  0.23814358  0.71656701  1
  Bi2+  Bi124  1  0.92858551  0.50378031  0.20707157  1
  Bi2+  Bi125  1  0.86616427  0.50237304  0.70681520  1
  Bi2+  Bi126  1  0.87160578  0.79305040  0.20802493  1
  Bi2+  Bi127  1  0.85479847  0.74218209  0.68957824  1
  S2-  S128  1  -0.09605205  0.12007349  0.14023878  1
  S2-  S129  1  0.00074109  0.21112518  0.65000276  1
  S2-  S130  1  -0.11117432  0.37173742  0.14169153  1
  S2-  S131  1  0.02122943  0.42341173  0.69726466  1
  S2-  S132  1  0.02734731  0.61235036  0.14691820  1
  S2-  S133  1  -0.03370912  0.61452954  0.66108716  1
  S2-  S134  1  0.00532244  0.85718245  0.15054450  1
  S2-  S135  1  -0.00603277  0.83899042  0.65941583  1
  S2-  S136  1  0.34282904  0.11969107  0.14892896  1
  S2-  S137  1  0.18664819  0.09970396  0.65921238  1
  S2-  S138  1  0.32870647  0.37535883  0.14746189  1
  S2-  S139  1  0.22108616  0.36734029  0.65292139  1
  S2-  S140  1  0.33314520  0.63562898  0.13586236  1
  S2-  S141  1  0.29095114  0.60692534  0.64743136  1
  S2-  S142  1  0.34360151  0.87342878  0.13331388  1
  S2-  S143  1  0.25562845  0.87555047  0.65982056  1
  S2-  S144  1  0.51355009  0.22750725  0.16558054  1
  S2-  S145  1  0.39271604  0.13010345  0.63376291  1
  S2-  S146  1  0.47676269  0.38782125  0.22576762  1
  S2-  S147  1  0.49679399  0.45923316  0.63850718  1
  S2-  S148  1  0.52699552  0.54749040  0.15784372  1
  S2-  S149  1  0.52382888  0.72648137  0.64755435  1
  S2-  S150  1  0.52151697  0.99100763  0.15087008  1
  S2-  S151  1  0.47310061  0.93426227  0.66379497  1
  S2-  S152  1  0.69991459  0.12930208  0.16994528  1
  S2-  S153  1  0.78014474  0.12364175  0.65125196  1
  S2-  S154  1  0.67235064  0.37414793  0.16141149  1
  S2-  S155  1  0.83462636  0.37088070  0.64706797  1
  S2-  S156  1  0.76356303  0.59972830  0.15339731  1
  S2-  S157  1  0.74876307  0.61200174  0.65977597  1
  S2-  S158  1  0.75991209  0.89296082  0.15232832  1
  S2-  S159  1  0.74940825  0.85142238  0.65639259  1
  S2-  S160  1  0.15255990  -0.01498503  0.35186171  1
  S2-  S161  1  0.12817488  0.01744720  0.83907516  1
  S2-  S162  1  0.21562847  0.25551107  0.35461143  1
  S2-  S163  1  0.08845747  0.28511278  0.85454058  1
  S2-  S164  1  0.13523206  0.53194714  0.34159009  1
  S2-  S165  1  0.12292180  0.51805808  0.83118882  1
  S2-  S166  1  0.03292456  0.74905878  0.35241174  1
  S2-  S167  1  0.09468529  0.77367016  0.84425779  1
  S2-  S168  1  0.36805924  0.08380336  0.35151340  1
  S2-  S169  1  0.33202224  -0.03721245  0.82483198  1
  S2-  S170  1  0.41171044  0.26880113  0.31813271  1
  S2-  S171  1  0.39132158  0.16552285  0.86126426  1
  S2-  S172  1  0.38887702  0.49864064  0.34437564  1
  S2-  S173  1  0.38285574  0.51127722  0.84023835  1
  S2-  S174  1  0.36635503  0.85062739  0.35779583  1
  S2-  S175  1  0.34152251  0.74518159  0.83134850  1
  S2-  S176  1  0.59873229  -0.00898806  0.34773634  1
  S2-  S177  1  0.53583974  -0.00510712  0.85781868  1
  S2-  S178  1  0.61210830  0.24248005  0.33444467  1
  S2-  S179  1  0.63617861  0.21739242  0.85425150  1
  S2-  S180  1  0.66951566  0.48307411  0.33841964  1
  S2-  S181  1  0.64598074  0.51218968  0.84578451  1
  S2-  S182  1  0.52367069  0.68730755  0.36842152  1
  S2-  S183  1  0.56998147  0.75887243  0.86096500  1
  S2-  S184  1  0.88124657  -0.06723459  0.34995188  1
  S2-  S185  1  0.89472900  -0.03777153  0.84668937  1
  S2-  S186  1  0.81481499  0.25071371  0.34075272  1
  S2-  S187  1  0.86148621  0.35274488  0.85575958  1
  S2-  S188  1  0.88448357  0.55616754  0.35173238  1
  S2-  S189  1  0.90628309  0.53866920  0.82903264  1
  S2-  S190  1  0.73310575  0.74141797  0.35263007  1
  S2-  S191  1  0.85272987  0.74868257  0.82461092  1
  S2-  S192  1  0.00068819  0.10772604  0.46031287  1
  S2-  S193  1  0.00805540  0.12258589  0.95532112  1
  S2-  S194  1  -0.00004135  0.36314446  0.44331685  1
  S2-  S195  1  0.00526175  0.37620960  0.95997038  1
  S2-  S196  1  -0.00176759  0.61168517  0.45532576  1
  S2-  S197  1  0.00620193  0.62384839  0.94329127  1
  S2-  S198  1  -0.00137936  0.85953934  0.45760380  1
  S2-  S199  1  0.00763763  0.87528663  0.94930802  1
  S2-  S200  1  0.24714507  0.10788114  0.45989507  1
  S2-  S201  1  0.25172957  0.12600284  0.95514767  1
  S2-  S202  1  0.25357774  0.36606114  0.45158602  1
  S2-  S203  1  0.25703486  0.37378943  0.95045779  1
  S2-  S204  1  0.25536977  0.61289924  0.44808438  1
  S2-  S205  1  0.25788664  0.62329419  0.94330538  1
  S2-  S206  1  0.24626729  0.85601561  0.45669258  1
  S2-  S207  1  0.26019764  0.87533144  0.94473793  1
  S2-  S208  1  0.50262608  0.11313444  0.45295761  1
  S2-  S209  1  0.50969724  0.12792882  0.96730975  1
  S2-  S210  1  0.50017278  0.36106376  0.45064371  1
  S2-  S211  1  0.50890041  0.37271557  0.94492157  1
  S2-  S212  1  0.49941580  0.60174905  0.47054056  1
  S2-  S213  1  0.50563288  0.62380230  0.95963264  1
  S2-  S214  1  0.50803392  0.85810814  0.46124007  1
  S2-  S215  1  0.50720268  0.87706194  0.96216765  1
  S2-  S216  1  0.74918646  0.11013821  0.44888248  1
  S2-  S217  1  0.76050962  0.12622870  0.96053284  1
  S2-  S218  1  0.74939544  0.36289858  0.45363995  1
  S2-  S219  1  0.75393928  0.37467507  0.96165525  1
  S2-  S220  1  0.75554484  0.60973417  0.45300647  1
  S2-  S221  1  0.75652478  0.62547254  0.94839834  1
  S2-  S222  1  0.75504836  0.86252548  0.45439295  1
  S2-  S223  1  0.75527923  0.87606772  0.94756065  1
  S2-  S224  1  0.12875215  -0.00362100  0.04542650  1
  S2-  S225  1  0.12337135  -0.01722090  0.55610650  1
  S2-  S226  1  0.12935496  0.24974973  0.05365054  1
  S2-  S227  1  0.12317408  0.24089238  0.54713334  1
  S2-  S228  1  0.13277883  0.49832827  0.04030721  1
  S2-  S229  1  0.12309921  0.48415982  0.54843558  1
  S2-  S230  1  0.13324656  0.75001926  0.04414036  1
  S2-  S231  1  0.12576609  0.73571261  0.54780402  1
  S2-  S232  1  0.37509212  0.00224651  0.03628169  1
  S2-  S233  1  0.37951590  -0.01796932  0.54124947  1
  S2-  S234  1  0.37747622  0.25080067  0.04891028  1
  S2-  S235  1  0.37654708  0.24367053  0.53562991  1
  S2-  S236  1  0.38089200  0.49344850  0.04513133  1
  S2-  S237  1  0.36729761  0.48141294  0.54577719  1
  S2-  S238  1  0.37700595  0.75033128  0.03400330  1
  S2-  S239  1  0.37234967  0.73229873  0.54455558  1
  S2-  S240  1  0.63657529  0.00124368  0.04828553  1
  S2-  S241  1  0.62479854  -0.01284060  0.55296812  1
  S2-  S242  1  0.63623860  0.24923763  0.05787674  1
  S2-  S243  1  0.62142893  0.23664949  0.54469146  1
  S2-  S244  1  0.62799663  0.49868215  0.05045301  1
  S2-  S245  1  0.62978381  0.48272156  0.54597407  1
  S2-  S246  1  0.62581647  0.74907755  0.05740399  1
  S2-  S247  1  0.63246949  0.73563503  0.54535204  1
  S2-  S248  1  0.88473031  -0.00550486  0.04649446  1
  S2-  S249  1  0.87689017  -0.01498917  0.55223280  1
  S2-  S250  1  0.88457975  0.24772363  0.04173751  1
  S2-  S251  1  0.87719177  0.23784247  0.54347605  1
  S2-  S252  1  0.88040782  0.50280667  0.03911132  1
  S2-  S253  1  0.88063026  0.48207570  0.54612208  1
  S2-  S254  1  0.88178340  0.74866077  0.03894671  1
  S2-  S255  1  0.87538674  0.73959276  0.54925536  1
