# generated using pymatgen
data_La12Ce14Pr13Nd13Sm12(BiS2)64
_symmetry_space_group_name_H-M   'P 1'
_cell_length_a   16.16483311
_cell_length_b   16.06958772
_cell_length_c   27.13863808
_cell_angle_alpha   90.09097705
_cell_angle_beta   89.71601915
_cell_angle_gamma   89.97694739
_symmetry_Int_Tables_number   1
_chemical_formula_structural   La12Ce14Pr13Nd13Sm12(BiS2)64
_chemical_formula_sum   'La12 Ce14 Pr13 Nd13 Sm12 Bi64 S128'
_cell_volume   7049.49636010
_cell_formula_units_Z   1
loop_
 _symmetry_equiv_pos_site_id
 _symmetry_equiv_pos_as_xyz
  1  'x, y, z'
loop_
 _atom_type_symbol
 _atom_type_oxidation_number
  La3+  3.0
  Ce3+  3.0
  Pr3+  3.0
  Nd3+  3.0
  Sm3+  3.0
  Bi2+  2.0
  S2-  -2.0
loop_
 _atom_site_type_symbol
 _atom_site_label
 _atom_site_symmetry_multiplicity
 _atom_site_fract_x
 _atom_site_fract_y
 _atom_site_fract_z
 _atom_site_occupancy
  La3+  La0  1  0.11841108  0.23196319  0.92726072  1
  La3+  La1  1  -0.01814738  0.86105065  0.08036782  1
  La3+  La2  1  0.75196611  0.37219185  0.57495284  1
  La3+  La3  1  0.38431202  0.01097701  0.41139297  1
  La3+  La4  1  0.35896790  0.48607003  0.91039292  1
  La3+  La5  1  0.36313960  -0.00094272  0.95284032  1
  La3+  La6  1  0.50301866  0.38174523  0.59710810  1
  La3+  La7  1  0.24797746  0.37273989  0.58294729  1
  La3+  La8  1  0.74754983  0.12112408  0.57379680  1
  La3+  La9  1  0.74186875  0.12484059  0.07246413  1
  La3+  La10  1  0.23393364  0.12879408  0.08682224  1
  La3+  La11  1  0.62745980  0.49160864  0.42478610  1
  Ce3+  Ce12  1  0.11606931  -0.01034190  0.94977826  1
  Ce3+  Ce13  1  0.38165769  0.49468635  0.43932810  1
  Ce3+  Ce14  1  0.48939649  0.13042343  0.07554245  1
  Ce3+  Ce15  1  0.86816808  -0.00896572  0.93898179  1
  Ce3+  Ce16  1  0.73916725  0.86595667  0.06128909  1
  Ce3+  Ce17  1  0.12575645  0.49018214  0.43734560  1
  Ce3+  Ce18  1  0.61837872  -0.00315595  0.95160627  1
  Ce3+  Ce19  1  0.37632494  0.74898818  0.43516183  1
  Ce3+  Ce20  1  0.87794680  0.74986054  0.44664415  1
  Ce3+  Ce21  1  0.86753899  0.49459319  0.93516786  1
  Ce3+  Ce22  1  0.87413856  0.49561186  0.43791509  1
  Ce3+  Ce23  1  0.25302305  0.87991795  0.54925388  1
  Ce3+  Ce24  1  0.49758840  0.11822990  0.56296425  1
  Ce3+  Ce25  1  0.12691247  0.75200609  0.43862751  1
  Pr3+  Pr26  1  0.61515626  0.49354720  0.92172992  1
  Pr3+  Pr27  1  0.11461602  0.49477532  0.92818413  1
  Pr3+  Pr28  1  0.61165626  0.74598638  0.93631579  1
  Pr3+  Pr29  1  0.74749734  0.87537960  0.57271386  1
  Pr3+  Pr30  1  0.36431167  0.74737280  0.93842920  1
  Pr3+  Pr31  1  0.63191238  -0.00019111  0.43298453  1
  Pr3+  Pr32  1  0.37153656  0.23512214  0.93211874  1
  Pr3+  Pr33  1  0.00100189  0.62478170  0.55798516  1
  Pr3+  Pr34  1  0.25277180  0.12000762  0.55875052  1
  Pr3+  Pr35  1  0.00519644  0.87616087  0.56688877  1
  Pr3+  Pr36  1  0.37479431  0.25799723  0.44229576  1
  Pr3+  Pr37  1  0.00581609  0.12146291  0.56748897  1
  Pr3+  Pr38  1  0.62703238  0.24851495  0.44874540  1
  Nd3+  Nd39  1  -0.00891072  0.36965337  0.04577032  1
  Nd3+  Nd40  1  0.12568544  0.25320867  0.44015677  1
  Nd3+  Nd41  1  0.62880218  0.74953581  0.43974270  1
  Nd3+  Nd42  1  0.23950625  0.36928715  0.05320954  1
  Nd3+  Nd43  1  -0.01317060  0.11959435  0.07031817  1
  Nd3+  Nd44  1  0.62149521  0.23998092  0.93256553  1
  Nd3+  Nd45  1  0.23905240  0.85898361  0.07909804  1
  Nd3+  Nd46  1  -0.01005871  0.62071346  0.05203146  1
  Nd3+  Nd47  1  0.86526975  0.74900447  0.92885010  1
  Nd3+  Nd48  1  0.48981381  0.37354408  0.05799409  1
  Nd3+  Nd49  1  0.49987239  0.62230511  0.56070745  1
  Nd3+  Nd50  1  0.00129950  0.37561980  0.57721953  1
  Nd3+  Nd51  1  0.48947588  0.87078987  0.06696468  1
  Sm3+  Sm52  1  0.48970683  0.61272166  0.04967850  1
  Sm3+  Sm53  1  0.87753984  0.24831126  0.45128960  1
  Sm3+  Sm54  1  0.73957332  0.37307644  0.04939195  1
  Sm3+  Sm55  1  0.11492667  0.75284517  0.93733305  1
  Sm3+  Sm56  1  0.86468641  0.23359016  0.93134507  1
  Sm3+  Sm57  1  0.74735187  0.62324833  0.55714542  1
  Sm3+  Sm58  1  0.87716559  -0.00194225  0.44251071  1
  Sm3+  Sm59  1  0.24153115  0.61981498  0.05218680  1
  Sm3+  Sm60  1  0.25162169  0.62047445  0.55047655  1
  Sm3+  Sm61  1  0.49736898  0.87406883  0.54963666  1
  Sm3+  Sm62  1  0.11913454  0.00895605  0.42013167  1
  Sm3+  Sm63  1  0.73779505  0.61879539  0.04757974  1
  Bi2+  Bi64  1  -0.03419625  0.14155282  0.29880861  1
  Bi2+  Bi65  1  -0.06007375  0.07325643  0.75965464  1
  Bi2+  Bi66  1  -0.02310200  0.45249042  0.32168116  1
  Bi2+  Bi67  1  -0.00993623  0.46427180  0.79534093  1
  Bi2+  Bi68  1  0.05259460  0.62305858  0.28626267  1
  Bi2+  Bi69  1  0.00879357  0.68784583  0.79862587  1
  Bi2+  Bi70  1  -0.04272193  0.85806993  0.30000705  1
  Bi2+  Bi71  1  0.01345829  0.88752312  0.79062826  1
  Bi2+  Bi72  1  0.25490712  0.11923753  0.30171790  1
  Bi2+  Bi73  1  0.24049761  0.14598291  0.80595371  1
  Bi2+  Bi74  1  0.22097875  0.37800989  0.27696914  1
  Bi2+  Bi75  1  0.25070526  0.39775391  0.77988252  1
  Bi2+  Bi76  1  0.24763281  0.57528832  0.27669612  1
  Bi2+  Bi77  1  0.20149421  0.66716611  0.78325733  1
  Bi2+  Bi78  1  0.26064184  0.82916910  0.30129345  1
  Bi2+  Bi79  1  0.26870584  0.87042298  0.79651432  1
  Bi2+  Bi80  1  0.59170627  0.09519190  0.26107589  1
  Bi2+  Bi81  1  0.50780812  0.08455017  0.79625866  1
  Bi2+  Bi82  1  0.46254692  0.34796033  0.31227559  1
  Bi2+  Bi83  1  0.49789332  0.38276280  0.80250413  1
  Bi2+  Bi84  1  0.52058481  0.58759398  0.26493262  1
  Bi2+  Bi85  1  0.53782367  0.70961123  0.76616430  1
  Bi2+  Bi86  1  0.58227661  0.84802668  0.29917398  1
  Bi2+  Bi87  1  0.47367217  0.88710850  0.80075439  1
  Bi2+  Bi88  1  0.75166246  0.10139453  0.32942802  1
  Bi2+  Bi89  1  0.76143420  0.10759323  0.79828351  1
  Bi2+  Bi90  1  0.70563984  0.35768162  0.27385103  1
  Bi2+  Bi91  1  0.77120106  0.39069274  0.79445204  1
  Bi2+  Bi92  1  0.76685391  0.61713301  0.29413668  1
  Bi2+  Bi93  1  0.83586103  0.68507732  0.73948690  1
  Bi2+  Bi94  1  0.76539015  0.90461004  0.31996147  1
  Bi2+  Bi95  1  0.75374683  0.85240383  0.78662814  1
  Bi2+  Bi96  1  0.12747609  0.00954673  0.22195957  1
  Bi2+  Bi97  1  0.15461535  -0.02569089  0.71481941  1
  Bi2+  Bi98  1  0.10041127  0.27495524  0.20926818  1
  Bi2+  Bi99  1  0.11199642  0.25259237  0.71533558  1
  Bi2+  Bi100  1  0.10836628  0.48533864  0.19993336  1
  Bi2+  Bi101  1  0.10758244  0.52640230  0.71143739  1
  Bi2+  Bi102  1  0.10712455  0.76424110  0.19934469  1
  Bi2+  Bi103  1  0.19619521  0.78450511  0.68691689  1
  Bi2+  Bi104  1  0.39441233  -0.03851287  0.20860545  1
  Bi2+  Bi105  1  0.36093828  -0.01225541  0.71409198  1
  Bi2+  Bi106  1  0.37974259  0.24467110  0.20365079  1
  Bi2+  Bi107  1  0.37191125  0.22292813  0.69843739  1
  Bi2+  Bi108  1  0.37918601  0.48655057  0.20536560  1
  Bi2+  Bi109  1  0.35686796  0.60411858  0.71488047  1
  Bi2+  Bi110  1  0.37385547  0.68409271  0.20867454  1
  Bi2+  Bi111  1  0.40390261  0.78812284  0.68542039  1
  Bi2+  Bi112  1  0.67931448  -0.07332370  0.20655529  1
  Bi2+  Bi113  1  0.62474210  -0.05034097  0.71581732  1
  Bi2+  Bi114  1  0.71620781  0.20611213  0.19961424  1
  Bi2+  Bi115  1  0.63614044  0.24618463  0.70965325  1
  Bi2+  Bi116  1  0.63998259  0.48275216  0.19654405  1
  Bi2+  Bi117  1  0.61876762  0.53026297  0.71387754  1
  Bi2+  Bi118  1  0.63547673  0.72987220  0.20856702  1
  Bi2+  Bi119  1  0.67836453  0.76748665  0.68552187  1
  Bi2+  Bi120  1  0.84133622  0.04455276  0.22945300  1
  Bi2+  Bi121  1  0.89008350  -0.08160688  0.69115665  1
  Bi2+  Bi122  1  0.89708182  0.31553745  0.25211836  1
  Bi2+  Bi123  1  0.88894313  0.26206575  0.73411354  1
  Bi2+  Bi124  1  0.90822261  0.52998800  0.22264789  1
  Bi2+  Bi125  1  0.87071162  0.45159668  0.70269741  1
  Bi2+  Bi126  1  0.84120287  0.72585872  0.20557421  1
  Bi2+  Bi127  1  0.99656660  0.75191621  0.68092383  1
  S2-  S128  1  0.08962092  0.13471712  0.15178559  1
  S2-  S129  1  -0.00721856  0.23130591  0.64991607  1
  S2-  S130  1  0.00422047  0.37103194  0.14532802  1
  S2-  S131  1  0.11766067  0.38561660  0.65310249  1
  S2-  S132  1  -0.00961936  0.70454014  0.14058722  1
  S2-  S133  1  -0.01912735  0.53070436  0.64258680  1
  S2-  S134  1  0.02128247  0.91264605  0.18072104  1
  S2-  S135  1  0.02820207  0.99694311  0.64148072  1
  S2-  S136  1  0.29389701  0.10277855  0.18874739  1
  S2-  S137  1  0.22339563  0.19056887  0.65269117  1
  S2-  S138  1  0.25380570  0.29261240  0.14309342  1
  S2-  S139  1  0.31512454  0.37211404  0.68024126  1
  S2-  S140  1  0.23787914  0.69954032  0.14018070  1
  S2-  S141  1  0.24177298  0.57836442  0.64677909  1
  S2-  S142  1  0.23432969  0.90101671  0.17890585  1
  S2-  S143  1  0.26247432  0.98400771  0.62922019  1
  S2-  S144  1  0.50631069  0.05562666  0.16751483  1
  S2-  S145  1  0.52591221  0.14727214  0.65951744  1
  S2-  S146  1  0.49714720  0.26882123  0.14095631  1
  S2-  S147  1  0.49369092  0.33765288  0.70271077  1
  S2-  S148  1  0.49979515  0.50649802  0.12788187  1
  S2-  S149  1  0.49162657  0.54397892  0.65171117  1
  S2-  S150  1  0.45462413  0.82340524  0.16078178  1
  S2-  S151  1  0.49198391  0.92786820  0.64345757  1
  S2-  S152  1  0.86339146  0.13949394  0.14491253  1
  S2-  S153  1  0.76586827  0.23241388  0.65361314  1
  S2-  S154  1  0.73372815  0.36617350  0.14787360  1
  S2-  S155  1  0.65383470  0.40104898  0.65771944  1
  S2-  S156  1  0.73127712  0.61894990  0.14659242  1
  S2-  S157  1  0.74612171  0.60329371  0.65598091  1
  S2-  S158  1  0.82674593  0.86084068  0.14456911  1
  S2-  S159  1  0.74430458  0.99839289  0.64831788  1
  S2-  S160  1  0.16765426  -0.02860951  0.32402363  1
  S2-  S161  1  0.13451522  0.08718278  0.86597064  1
  S2-  S162  1  0.11925576  0.15729638  0.35402782  1
  S2-  S163  1  0.13313391  0.28492455  0.82441811  1
  S2-  S164  1  0.11447958  0.37414953  0.36269919  1
  S2-  S165  1  0.21510587  0.51605767  0.84618171  1
  S2-  S166  1  0.10163838  0.77012180  0.34154850  1
  S2-  S167  1  0.13604686  0.87441206  0.86798886  1
  S2-  S168  1  0.35757499  -0.04021829  0.31248213  1
  S2-  S169  1  0.36091161  0.09001290  0.86425971  1
  S2-  S170  1  0.38621182  0.18420197  0.34680496  1
  S2-  S171  1  0.34871768  0.33336900  0.84675195  1
  S2-  S172  1  0.33052979  0.38733671  0.36562373  1
  S2-  S173  1  0.42760073  0.52354504  0.81678498  1
  S2-  S174  1  0.38097279  0.74016057  0.33733073  1
  S2-  S175  1  0.39581176  0.74859290  0.83926726  1
  S2-  S176  1  0.54228861  0.01049606  0.34648480  1
  S2-  S177  1  0.63830518  0.01766315  0.85463511  1
  S2-  S178  1  0.61218688  0.30994303  0.35339665  1
  S2-  S179  1  0.53332970  0.22080677  0.84561493  1
  S2-  S180  1  0.49747797  0.49987675  0.35461509  1
  S2-  S181  1  0.63593881  0.48862191  0.82007323  1
  S2-  S182  1  0.63120028  0.69613899  0.34499932  1
  S2-  S183  1  0.65779458  0.73531683  0.83898665  1
  S2-  S184  1  0.97151309  -0.01167113  0.35853640  1
  S2-  S185  1  0.89528100  0.10553489  0.86182773  1
  S2-  S186  1  0.86964552  0.25253387  0.35240018  1
  S2-  S187  1  0.74638789  0.24630277  0.85548846  1
  S2-  S188  1  0.76639607  0.48722142  0.35833475  1
  S2-  S189  1  0.85253723  0.53020965  0.84007515  1
  S2-  S190  1  0.87147982  0.73223573  0.34845078  1
  S2-  S191  1  0.87710812  0.87562733  0.86003000  1
  S2-  S192  1  -0.00306744  0.12450970  0.45901209  1
  S2-  S193  1  -0.00864576  0.11674549  0.96541107  1
  S2-  S194  1  -0.00425617  0.37362741  0.46600160  1
  S2-  S195  1  -0.01056478  0.36442748  0.93883124  1
  S2-  S196  1  0.00258417  0.62232466  0.44998810  1
  S2-  S197  1  -0.00728324  0.62490190  0.94542399  1
  S2-  S198  1  0.00122547  0.87256081  0.45894565  1
  S2-  S199  1  -0.01073862  0.86496329  0.96615522  1
  S2-  S200  1  0.25249002  0.12491850  0.45037616  1
  S2-  S201  1  0.23952510  0.11900106  0.97250447  1
  S2-  S202  1  0.24763769  0.37511164  0.47103679  1
  S2-  S203  1  0.23464757  0.36607488  0.94898155  1
  S2-  S204  1  0.25064120  0.62101866  0.44475668  1
  S2-  S205  1  0.23709352  0.62660545  0.94813801  1
  S2-  S206  1  0.25283313  0.87800030  0.44206409  1
  S2-  S207  1  0.24477257  0.86744866  0.96975605  1
  S2-  S208  1  0.50370215  0.12611239  0.45508560  1
  S2-  S209  1  0.49682100  0.11928123  0.96644460  1
  S2-  S210  1  0.50358645  0.37410605  0.46380008  1
  S2-  S211  1  0.49406876  0.36927727  0.94728565  1
  S2-  S212  1  0.50309587  0.62746127  0.45509948  1
  S2-  S213  1  0.48757918  0.61666665  0.94429302  1
  S2-  S214  1  0.50217811  0.87254456  0.44487503  1
  S2-  S215  1  0.49052845  0.87200156  0.95779898  1
  S2-  S216  1  0.75465517  0.12254957  0.46303779  1
  S2-  S217  1  0.74322387  0.11739298  0.96294541  1
  S2-  S218  1  0.75340993  0.37008687  0.46397435  1
  S2-  S219  1  0.74326266  0.37312076  0.94627177  1
  S2-  S220  1  0.75156534  0.62519636  0.45448443  1
  S2-  S221  1  0.74049502  0.62123839  0.94321151  1
  S2-  S222  1  0.75308154  0.87378898  0.45975998  1
  S2-  S223  1  0.73712940  0.86678221  0.95560327  1
  S2-  S224  1  0.11526442  -0.01329820  0.05827664  1
  S2-  S225  1  0.12741358  -0.00170244  0.52967389  1
  S2-  S226  1  0.11201123  0.24793552  0.04074460  1
  S2-  S227  1  0.12528321  0.24795857  0.54559017  1
  S2-  S228  1  0.11626785  0.49786073  0.03803368  1
  S2-  S229  1  0.12527690  0.50182121  0.54260285  1
  S2-  S230  1  0.11635068  0.74239135  0.04078546  1
  S2-  S231  1  0.13036929  0.74828834  0.54553486  1
  S2-  S232  1  0.36298116  -0.00662626  0.06179203  1
  S2-  S233  1  0.38077808  -0.00265600  0.52826068  1
  S2-  S234  1  0.36605565  0.24779517  0.04003477  1
  S2-  S235  1  0.38080579  0.25081794  0.55535055  1
  S2-  S236  1  0.36012457  0.49600972  0.03257870  1
  S2-  S237  1  0.37609659  0.49824949  0.54844125  1
  S2-  S238  1  0.37079376  0.73888330  0.04500827  1
  S2-  S239  1  0.37381661  0.74799790  0.54359626  1
  S2-  S240  1  0.61583603  -0.00530569  0.05818743  1
  S2-  S241  1  0.62227097  -0.00520490  0.54125920  1
  S2-  S242  1  0.62020945  0.24987416  0.04136802  1
  S2-  S243  1  0.61944746  0.24932455  0.55469478  1
  S2-  S244  1  0.61914940  0.49571826  0.02967485  1
  S2-  S245  1  0.62607001  0.50155218  0.54423717  1
  S2-  S246  1  0.61067854  0.74014574  0.04554641  1
  S2-  S247  1  0.62306235  0.74972023  0.54740773  1
  S2-  S248  1  0.86208154  -0.00752495  0.04754416  1
  S2-  S249  1  0.87606185  -0.00409937  0.54613366  1
  S2-  S250  1  0.86398077  0.25202364  0.03807433  1
  S2-  S251  1  0.87770422  0.24762667  0.55212126  1
  S2-  S252  1  0.86463510  0.49710610  0.04359193  1
  S2-  S253  1  0.87041133  0.50113450  0.54407231  1
  S2-  S254  1  0.85972105  0.73872017  0.03625758  1
  S2-  S255  1  0.87204983  0.74971563  0.55423850  1
