# generated using pymatgen
data_La12Ce14Pr13Nd13Sm12(BiS2)64
_symmetry_space_group_name_H-M   'P 1'
_cell_length_a   16.20288236
_cell_length_b   16.19368813
_cell_length_c   27.22815040
_cell_angle_alpha   90.14595076
_cell_angle_beta   90.00632574
_cell_angle_gamma   90.00718203
_symmetry_Int_Tables_number   1
_chemical_formula_structural   La12Ce14Pr13Nd13Sm12(BiS2)64
_chemical_formula_sum   'La12 Ce14 Pr13 Nd13 Sm12 Bi64 S128'
_cell_volume   7144.21927325
_cell_formula_units_Z   1
loop_
 _symmetry_equiv_pos_site_id
 _symmetry_equiv_pos_as_xyz
  1  'x, y, z'
loop_
 _atom_type_symbol
 _atom_type_oxidation_number
  La3+  3.0
  Ce3+  3.0
  Pr3+  3.0
  Nd3+  3.0
  Sm3+  3.0
  Bi2+  2.0
  S2-  -2.0
loop_
 _atom_site_type_symbol
 _atom_site_label
 _atom_site_symmetry_multiplicity
 _atom_site_fract_x
 _atom_site_fract_y
 _atom_site_fract_z
 _atom_site_occupancy
  La3+  La0  1  0.75293561  0.11225529  0.06133975  1
  La3+  La1  1  0.87346658  0.25056893  0.44059080  1
  La3+  La2  1  0.50374188  0.10654193  0.06794583  1
  La3+  La3  1  0.86491393  0.75496223  0.42333233  1
  La3+  La4  1  0.13091634  0.25153516  0.43456000  1
  La3+  La5  1  0.61804801  0.48856372  0.42547455  1
  La3+  La6  1  0.13013819  0.48481245  0.92719257  1
  La3+  La7  1  0.62494163  0.26364647  0.88621064  1
  La3+  La8  1  0.50230072  0.38039004  0.58081561  1
  La3+  La9  1  0.25009235  0.87306710  0.07494716  1
  La3+  La10  1  0.76457834  0.11805424  0.59607415  1
  La3+  La11  1  -0.01534349  0.86787320  0.10884093  1
  Ce3+  Ce12  1  0.00490022  0.36760035  0.05792733  1
  Ce3+  Ce13  1  0.87438853  0.24006086  0.93744588  1
  Ce3+  Ce14  1  0.37933469  0.49959270  0.44497825  1
  Ce3+  Ce15  1  0.00446368  0.12750399  0.55858357  1
  Ce3+  Ce16  1  0.00442820  0.11683204  0.05950705  1
  Ce3+  Ce17  1  0.37652196  0.75053045  0.44047389  1
  Ce3+  Ce18  1  0.37881448  0.00359965  0.43948123  1
  Ce3+  Ce19  1  0.50418114  0.86706762  0.04897759  1
  Ce3+  Ce20  1  0.87807144  0.49131791  0.94006769  1
  Ce3+  Ce21  1  0.87714479  0.00035124  0.44221431  1
  Ce3+  Ce22  1  0.25047725  0.37643802  0.56145577  1
  Ce3+  Ce23  1  0.50127495  0.61545177  0.05699950  1
  Ce3+  Ce24  1  0.75951469  0.87527924  0.56818104  1
  Ce3+  Ce25  1  0.50548373  0.62588311  0.56286521  1
  Pr3+  Pr26  1  0.75287770  0.37906281  0.56503344  1
  Pr3+  Pr27  1  0.63540078  -0.00250894  0.92487929  1
  Pr3+  Pr28  1  0.25140243  0.62767357  0.56182962  1
  Pr3+  Pr29  1  0.63132842  0.50166902  0.93361482  1
  Pr3+  Pr30  1  0.38212356  0.22785741  0.93146864  1
  Pr3+  Pr31  1  0.87438746  0.50249401  0.43447798  1
  Pr3+  Pr32  1  0.62799997  0.00314506  0.44322219  1
  Pr3+  Pr33  1  0.37387851  0.74309537  0.94495240  1
  Pr3+  Pr34  1  0.49147821  0.10952781  0.59397040  1
  Pr3+  Pr35  1  0.00797397  0.61037309  0.06844026  1
  Pr3+  Pr36  1  0.74965038  0.36481894  0.05756931  1
  Pr3+  Pr37  1  0.25521518  0.87734670  0.56388399  1
  Pr3+  Pr38  1  0.12671686  0.23635797  0.92811995  1
  Nd3+  Nd39  1  0.75060186  0.61655507  0.06303163  1
  Nd3+  Nd40  1  0.00216758  0.63053093  0.55200809  1
  Nd3+  Nd41  1  0.13559271  0.75446870  0.42640874  1
  Nd3+  Nd42  1  0.25209140  0.61343822  0.05990689  1
  Nd3+  Nd43  1  0.12928780  0.00098579  0.44126314  1
  Nd3+  Nd44  1  0.25300215  0.36054422  0.06074489  1
  Nd3+  Nd45  1  0.00106688  0.37771734  0.55624422  1
  Nd3+  Nd46  1  0.25003575  0.12102528  0.06519754  1
  Nd3+  Nd47  1  0.38103694  0.48722333  0.93876360  1
  Nd3+  Nd48  1  0.00540607  0.87416902  0.55609387  1
  Nd3+  Nd49  1  0.62855784  0.74307215  0.93550745  1
  Nd3+  Nd50  1  0.62542885  0.24745341  0.45509907  1
  Nd3+  Nd51  1  0.12796934  0.50342138  0.43978624  1
  Sm3+  Sm52  1  0.37820023  0.25008420  0.45233835  1
  Sm3+  Sm53  1  0.62566128  0.75017192  0.44639415  1
  Sm3+  Sm54  1  0.75451026  0.86316167  0.05585580  1
  Sm3+  Sm55  1  0.87885940  -0.01087827  0.94001679  1
  Sm3+  Sm56  1  0.24989570  0.12773198  0.56355775  1
  Sm3+  Sm57  1  0.50560723  0.36192843  0.05265858  1
  Sm3+  Sm58  1  0.88220459  0.74037839  0.94644364  1
  Sm3+  Sm59  1  0.37618348  -0.00863583  0.93803872  1
  Sm3+  Sm60  1  0.75292564  0.62583191  0.55194565  1
  Sm3+  Sm61  1  0.12537198  0.74107959  0.94777778  1
  Sm3+  Sm62  1  0.12584689  -0.01230885  0.94733431  1
  Sm3+  Sm63  1  0.50504805  0.87782304  0.55350645  1
  Bi2+  Bi64  1  -0.00605599  0.11084991  0.24150921  1
  Bi2+  Bi65  1  -0.00546653  0.18220515  0.82182260  1
  Bi2+  Bi66  1  0.08257815  0.34680131  0.27968366  1
  Bi2+  Bi67  1  0.04358955  0.35212448  0.77407713  1
  Bi2+  Bi68  1  -0.00284275  0.60150022  0.29208943  1
  Bi2+  Bi69  1  -0.02954562  0.60792230  0.79178596  1
  Bi2+  Bi70  1  -0.02022659  0.87399690  0.31061361  1
  Bi2+  Bi71  1  0.05442258  0.87746430  0.79374324  1
  Bi2+  Bi72  1  0.26492370  0.15565790  0.29472049  1
  Bi2+  Bi73  1  0.18420324  0.13574678  0.79633149  1
  Bi2+  Bi74  1  0.26916324  0.44171675  0.31123370  1
  Bi2+  Bi75  1  0.24010910  0.40229105  0.76812865  1
  Bi2+  Bi76  1  0.29373394  0.63218591  0.29019869  1
  Bi2+  Bi77  1  0.22207125  0.66393824  0.78853838  1
  Bi2+  Bi78  1  0.23771627  0.90416461  0.29772239  1
  Bi2+  Bi79  1  0.31786307  0.84529018  0.78996475  1
  Bi2+  Bi80  1  0.51423306  0.08733637  0.25955637  1
  Bi2+  Bi81  1  0.46402880  0.12626576  0.78533990  1
  Bi2+  Bi82  1  0.47600397  0.45530680  0.25839028  1
  Bi2+  Bi83  1  0.48349331  0.39163948  0.77864378  1
  Bi2+  Bi84  1  0.49139775  0.63658371  0.30531377  1
  Bi2+  Bi85  1  0.51294288  0.65235156  0.79048819  1
  Bi2+  Bi86  1  0.48388302  0.83521991  0.29842758  1
  Bi2+  Bi87  1  0.50774015  0.88311370  0.79286290  1
  Bi2+  Bi88  1  0.70778046  0.17645968  0.31249472  1
  Bi2+  Bi89  1  0.75269684  0.11035223  0.78763288  1
  Bi2+  Bi90  1  0.76303055  0.37085186  0.30613725  1
  Bi2+  Bi91  1  0.75758595  0.38928880  0.78899931  1
  Bi2+  Bi92  1  0.73590817  0.65186369  0.28616233  1
  Bi2+  Bi93  1  0.77548122  0.66753556  0.78571106  1
  Bi2+  Bi94  1  0.67340722  0.87956405  0.27516910  1
  Bi2+  Bi95  1  0.69828614  0.85263730  0.80772365  1
  Bi2+  Bi96  1  0.14222593  -0.00134297  0.20819222  1
  Bi2+  Bi97  1  0.11798200  0.00732963  0.71367435  1
  Bi2+  Bi98  1  0.09376060  0.24772653  0.16778179  1
  Bi2+  Bi99  1  0.11773088  0.19328741  0.68227491  1
  Bi2+  Bi100  1  0.15840991  0.43293221  0.18688338  1
  Bi2+  Bi101  1  0.10830436  0.51379114  0.68766367  1
  Bi2+  Bi102  1  0.11433566  0.72693637  0.22161344  1
  Bi2+  Bi103  1  0.06707527  0.76109985  0.68839420  1
  Bi2+  Bi104  1  0.39767199  -0.04969121  0.21569937  1
  Bi2+  Bi105  1  0.33864790  -0.04014314  0.70136431  1
  Bi2+  Bi106  1  0.35211354  0.30359242  0.25071580  1
  Bi2+  Bi107  1  0.29723055  0.23365347  0.71993937  1
  Bi2+  Bi108  1  0.34551124  0.54981274  0.18795059  1
  Bi2+  Bi109  1  0.36262615  0.55259496  0.73894537  1
  Bi2+  Bi110  1  0.37455188  0.74921523  0.20570915  1
  Bi2+  Bi111  1  0.40675828  0.73642154  0.70073387  1
  Bi2+  Bi112  1  0.64603225  0.00615204  0.18917721  1
  Bi2+  Bi113  1  0.61661854  -0.03434978  0.71076987  1
  Bi2+  Bi114  1  0.61883050  0.25645129  0.18778722  1
  Bi2+  Bi115  1  0.61939370  0.28183344  0.68249646  1
  Bi2+  Bi116  1  0.65631038  0.49015733  0.19629678  1
  Bi2+  Bi117  1  0.63632409  0.55422021  0.70665828  1
  Bi2+  Bi118  1  0.58134825  0.74226951  0.21050247  1
  Bi2+  Bi119  1  0.60006322  0.75749077  0.70404023  1
  Bi2+  Bi120  1  0.80999384  0.04158214  0.25391556  1
  Bi2+  Bi121  1  0.92666852  0.01756357  0.77148796  1
  Bi2+  Bi122  1  0.91761181  0.28225936  0.21083683  1
  Bi2+  Bi123  1  0.92061581  0.24687310  0.70893300  1
  Bi2+  Bi124  1  0.92104916  0.47180381  0.22735167  1
  Bi2+  Bi125  1  0.86327271  0.51918715  0.69567512  1
  Bi2+  Bi126  1  0.84526588  0.74047614  0.20668467  1
  Bi2+  Bi127  1  0.86350360  0.83168662  0.74466867  1
  S2-  S128  1  -0.00730908  0.03697224  0.14648078  1
  S2-  S129  1  -0.06574795  0.11381643  0.64623837  1
  S2-  S130  1  0.00369953  0.47412096  0.13734243  1
  S2-  S131  1  -0.02522384  0.40111930  0.65388158  1
  S2-  S132  1  -0.01226658  0.70445563  0.15281723  1
  S2-  S133  1  -0.01796290  0.62547776  0.65185570  1
  S2-  S134  1  0.01780034  0.86995301  0.21626251  1
  S2-  S135  1  -0.06013054  0.84294097  0.64632533  1
  S2-  S136  1  0.26541569  0.01623725  0.14670303  1
  S2-  S137  1  0.33534913  0.10770102  0.64855309  1
  S2-  S138  1  0.25750391  0.24784466  0.13753911  1
  S2-  S139  1  0.22797669  0.41835851  0.65581686  1
  S2-  S140  1  0.18583244  0.59265819  0.15128338  1
  S2-  S141  1  0.19220656  0.64491194  0.65634990  1
  S2-  S142  1  0.21753545  0.80903032  0.16814773  1
  S2-  S143  1  0.19053749  0.87528034  0.65739235  1
  S2-  S144  1  0.49086013  0.16854769  0.16433251  1
  S2-  S145  1  0.54868308  0.12981333  0.68949822  1
  S2-  S146  1  0.52871172  0.37964248  0.15138634  1
  S2-  S147  1  0.45900764  0.33082532  0.67764001  1
  S2-  S148  1  0.55583930  0.60864458  0.14889494  1
  S2-  S149  1  0.51841630  0.52853009  0.64322314  1
  S2-  S150  1  0.50417150  0.95013506  0.13444122  1
  S2-  S151  1  0.47911398  0.94182846  0.64300189  1
  S2-  S152  1  0.74907486  0.13559091  0.16179824  1
  S2-  S153  1  0.76420999  0.18574060  0.69139340  1
  S2-  S154  1  0.74930834  0.37080040  0.15940229  1
  S2-  S155  1  0.73637112  0.41295770  0.66409177  1
  S2-  S156  1  0.77439386  0.60205433  0.16151194  1
  S2-  S157  1  0.76741206  0.63388024  0.64991182  1
  S2-  S158  1  0.81776306  0.86799853  0.14828458  1
  S2-  S159  1  0.74606361  0.96874955  0.65001392  1
  S2-  S160  1  0.10816535  -0.02334805  0.34299582  1
  S2-  S161  1  0.14479969  -0.00476379  0.84933351  1
  S2-  S162  1  0.12007454  0.20790716  0.33757868  1
  S2-  S163  1  0.15038010  0.35528550  0.85459035  1
  S2-  S164  1  0.11243798  0.49870667  0.34107729  1
  S2-  S165  1  0.10900305  0.56724925  0.83684098  1
  S2-  S166  1  0.08450604  0.73765063  0.32990501  1
  S2-  S167  1  0.14804720  0.77108214  0.85137071  1
  S2-  S168  1  0.33485212  0.01596643  0.34514514  1
  S2-  S169  1  0.36849340  0.08582782  0.85563882  1
  S2-  S170  1  0.36688258  0.24995605  0.35352306  1
  S2-  S171  1  0.45752995  0.27000546  0.84199054  1
  S2-  S172  1  0.47446818  0.48401687  0.36397842  1
  S2-  S173  1  0.37091850  0.47255861  0.83896968  1
  S2-  S174  1  0.27870473  0.76673466  0.36011767  1
  S2-  S175  1  0.36861515  0.70581554  0.84737997  1
  S2-  S176  1  0.60052842  0.05482515  0.34644004  1
  S2-  S177  1  0.60655785  0.09999453  0.84273485  1
  S2-  S178  1  0.62791186  0.31119233  0.36233262  1
  S2-  S179  1  0.63432335  0.27848180  0.77769679  1
  S2-  S180  1  0.68909603  0.52014520  0.33309552  1
  S2-  S181  1  0.62647109  0.43102391  0.84161657  1
  S2-  S182  1  0.69985071  0.77133915  0.35960933  1
  S2-  S183  1  0.64481104  0.63909926  0.85709071  1
  S2-  S184  1  0.85030924  -0.02787791  0.34720393  1
  S2-  S185  1  0.78487612  -0.01255491  0.85639878  1
  S2-  S186  1  0.86570270  0.24191572  0.34034699  1
  S2-  S187  1  0.79574013  0.24725458  0.84806368  1
  S2-  S188  1  0.89108608  0.47549710  0.33543841  1
  S2-  S189  1  0.88251447  0.48048235  0.84147526  1
  S2-  S190  1  0.88755512  0.72433837  0.32332907  1
  S2-  S191  1  0.89927973  0.74030479  0.84779264  1
  S2-  S192  1  0.00340929  0.12514400  0.45055809  1
  S2-  S193  1  0.00136493  0.11167750  0.95242468  1
  S2-  S194  1  0.00279175  0.37738710  0.44874013  1
  S2-  S195  1  -0.00063984  0.36326226  0.94976935  1
  S2-  S196  1  0.00195306  0.62903661  0.44507801  1
  S2-  S197  1  0.00424140  0.61656072  0.95666946  1
  S2-  S198  1  0.00325501  0.87328262  0.44848379  1
  S2-  S199  1  0.00254454  0.86577914  0.94759659  1
  S2-  S200  1  0.25294107  0.12635955  0.45817630  1
  S2-  S201  1  0.24768417  0.11309642  0.95745938  1
  S2-  S202  1  0.25370853  0.37683896  0.45437995  1
  S2-  S203  1  0.26269940  0.35925723  0.95438762  1
  S2-  S204  1  0.25346780  0.62398072  0.45375575  1
  S2-  S205  1  0.25259556  0.61462601  0.95231925  1
  S2-  S206  1  0.25384757  0.88061327  0.45782219  1
  S2-  S207  1  0.25039762  0.86772577  0.95916431  1
  S2-  S208  1  0.49941030  0.12817115  0.45868070  1
  S2-  S209  1  0.50283213  0.10659711  0.95730452  1
  S2-  S210  1  0.49897358  0.36917348  0.47067994  1
  S2-  S211  1  0.50731059  0.36660431  0.94946260  1
  S2-  S212  1  0.50246761  0.62933771  0.45690478  1
  S2-  S213  1  0.49939190  0.61878248  0.95152784  1
  S2-  S214  1  0.50384964  0.87508096  0.44875044  1
  S2-  S215  1  0.50261253  0.86848071  0.94272937  1
  S2-  S216  1  0.75208056  0.12496686  0.45676675  1
  S2-  S217  1  0.75773033  0.11542364  0.95459748  1
  S2-  S218  1  0.75242524  0.37685802  0.45816371  1
  S2-  S219  1  0.74995630  0.36756531  0.95085198  1
  S2-  S220  1  0.74658683  0.62322214  0.44834106  1
  S2-  S221  1  0.75899150  0.62061747  0.95645715  1
  S2-  S222  1  0.74907917  0.87903414  0.46119836  1
  S2-  S223  1  0.75654073  0.86097533  0.95257883  1
  S2-  S224  1  0.12177717  -0.01129008  0.05030816  1
  S2-  S225  1  0.12838539  0.00214085  0.54885612  1
  S2-  S226  1  0.12519206  0.24192177  0.03482921  1
  S2-  S227  1  0.12769643  0.25309308  0.54443015  1
  S2-  S228  1  0.13396202  0.48574117  0.03613646  1
  S2-  S229  1  0.12519031  0.50280205  0.54519101  1
  S2-  S230  1  0.12859898  0.74127243  0.05041441  1
  S2-  S231  1  0.12953352  0.75259618  0.53802173  1
  S2-  S232  1  0.37428310  -0.00910906  0.04005514  1
  S2-  S233  1  0.37573537  0.00095714  0.54313829  1
  S2-  S234  1  0.38414800  0.23972633  0.04075642  1
  S2-  S235  1  0.37502909  0.24964951  0.55704963  1
  S2-  S236  1  0.37862850  0.48612640  0.04603253  1
  S2-  S237  1  0.37379631  0.50256977  0.55157741  1
  S2-  S238  1  0.37622664  0.74261984  0.05229605  1
  S2-  S239  1  0.38033456  0.75330245  0.54900803  1
  S2-  S240  1  0.63435028  -0.01517046  0.03624620  1
  S2-  S241  1  0.62529803  0.00398546  0.55009342  1
  S2-  S242  1  0.62576535  0.23880652  0.05200607  1
  S2-  S243  1  0.63011624  0.24456557  0.56296146  1
  S2-  S244  1  0.62687668  0.49167320  0.04165296  1
  S2-  S245  1  0.63102723  0.50328601  0.54017406  1
  S2-  S246  1  0.62882330  0.74258729  0.04334464  1
  S2-  S247  1  0.62900643  0.75329806  0.55138318  1
  S2-  S248  1  0.87879606  -0.01499028  0.04345575  1
  S2-  S249  1  0.88148411  -0.00104925  0.54597985  1
  S2-  S250  1  0.87826920  0.24164425  0.04800192  1
  S2-  S251  1  0.87636501  0.25207226  0.54989278  1
  S2-  S252  1  0.87320900  0.49238845  0.04539757  1
  S2-  S253  1  0.87759608  0.50417290  0.54253265  1
  S2-  S254  1  0.87857719  0.74067552  0.04905220  1
  S2-  S255  1  0.87561450  0.74892085  0.53512522  1
