# generated using pymatgen
data_La12Ce14Pr13Nd13Sm12(BiS2)64
_symmetry_space_group_name_H-M   'P 1'
_cell_length_a   16.12610413
_cell_length_b   16.14629652
_cell_length_c   27.42802577
_cell_angle_alpha   89.90773887
_cell_angle_beta   90.33231820
_cell_angle_gamma   90.02390741
_symmetry_Int_Tables_number   1
_chemical_formula_structural   La12Ce14Pr13Nd13Sm12(BiS2)64
_chemical_formula_sum   'La12 Ce14 Pr13 Nd13 Sm12 Bi64 S128'
_cell_volume   7141.49321993
_cell_formula_units_Z   1
loop_
 _symmetry_equiv_pos_site_id
 _symmetry_equiv_pos_as_xyz
  1  'x, y, z'
loop_
 _atom_type_symbol
 _atom_type_oxidation_number
  La3+  3.0
  Ce3+  3.0
  Pr3+  3.0
  Nd3+  3.0
  Sm3+  3.0
  Bi2+  2.0
  S2-  -2.0
loop_
 _atom_site_type_symbol
 _atom_site_label
 _atom_site_symmetry_multiplicity
 _atom_site_fract_x
 _atom_site_fract_y
 _atom_site_fract_z
 _atom_site_occupancy
  La3+  La0  1  0.38529183  0.75205481  0.39482298  1
  La3+  La1  1  0.26099854  0.64018710  0.56467355  1
  La3+  La2  1  0.50671436  0.61162960  0.09081928  1
  La3+  La3  1  0.02125431  0.10604687  0.10575171  1
  La3+  La4  1  0.51547359  0.88582262  0.57323203  1
  La3+  La5  1  0.51121818  0.36051703  0.07686048  1
  La3+  La6  1  0.51321136  0.38701277  0.57572723  1
  La3+  La7  1  0.88235391  0.24175064  0.94152232  1
  La3+  La8  1  0.62186158  0.74739868  0.88225920  1
  La3+  La9  1  0.38123422  0.24339487  0.92824896  1
  La3+  La10  1  0.62498188  0.49508725  0.93183243  1
  La3+  La11  1  0.75516935  0.86762996  0.06611487  1
  Ce3+  Ce12  1  0.00531699  0.85786738  0.06126968  1
  Ce3+  Ce13  1  0.75864928  0.11939027  0.06093470  1
  Ce3+  Ce14  1  0.38600138  0.74130904  0.94460356  1
  Ce3+  Ce15  1  0.87396077  0.74350575  0.93637968  1
  Ce3+  Ce16  1  0.38362616  0.25964483  0.44826817  1
  Ce3+  Ce17  1  0.75997673  0.63344799  0.55834202  1
  Ce3+  Ce18  1  0.00417573  0.88065370  0.56177854  1
  Ce3+  Ce19  1  0.88227920  0.01120188  0.43414011  1
  Ce3+  Ce20  1  0.12911396  0.74164133  0.94553013  1
  Ce3+  Ce21  1  0.87966293  0.76382581  0.42725865  1
  Ce3+  Ce22  1  0.63219559  0.00433189  0.44120682  1
  Ce3+  Ce23  1  0.01065692  0.13358341  0.56101086  1
  Ce3+  Ce24  1  0.38413614  -0.00131158  0.43907102  1
  Ce3+  Ce25  1  0.75798192  0.38111748  0.56833215  1
  Pr3+  Pr26  1  0.13416721  0.26538166  0.43485719  1
  Pr3+  Pr27  1  0.26090652  0.12883334  0.55765576  1
  Pr3+  Pr28  1  0.12823011  -0.01082660  0.93394410  1
  Pr3+  Pr29  1  0.13025695  0.75459062  0.43431256  1
  Pr3+  Pr30  1  0.25589615  0.86931175  0.05919403  1
  Pr3+  Pr31  1  0.01487646  0.37387240  0.57326099  1
  Pr3+  Pr32  1  0.63227443  0.25872650  0.44437531  1
  Pr3+  Pr33  1  0.63083372  0.50705372  0.43921462  1
  Pr3+  Pr34  1  0.00786526  0.36553268  0.06914629  1
  Pr3+  Pr35  1  0.63113244  0.24520237  0.93185671  1
  Pr3+  Pr36  1  0.74985307  0.61761545  0.05689501  1
  Pr3+  Pr37  1  0.12761840  0.24375183  0.93903844  1
  Pr3+  Pr38  1  0.88718744  0.25905566  0.42442086  1
  Nd3+  Nd39  1  0.76585230  0.88175138  0.56407588  1
  Nd3+  Nd40  1  0.00838648  0.62795269  0.56226593  1
  Nd3+  Nd41  1  0.38481551  0.49543380  0.94301266  1
  Nd3+  Nd42  1  0.63248815  -0.00920517  0.94167957  1
  Nd3+  Nd43  1  0.50485701  0.86897731  0.06120463  1
  Nd3+  Nd44  1  0.88044165  0.49559162  0.94849286  1
  Nd3+  Nd45  1  0.00691354  0.61737563  0.06711513  1
  Nd3+  Nd46  1  0.13482558  0.50566165  0.44822195  1
  Nd3+  Nd47  1  0.38236450  0.50265389  0.44076328  1
  Nd3+  Nd48  1  0.13269051  0.00699586  0.44022008  1
  Nd3+  Nd49  1  0.25614930  0.36584728  0.05373567  1
  Nd3+  Nd50  1  0.12766925  0.49583281  0.93985294  1
  Nd3+  Nd51  1  0.38321952  -0.00831547  0.94094636  1
  Sm3+  Sm52  1  0.63711710  0.75936806  0.43682589  1
  Sm3+  Sm53  1  0.88278251  0.50310921  0.44678290  1
  Sm3+  Sm54  1  0.88124742  -0.00766416  0.94807413  1
  Sm3+  Sm55  1  0.75348842  0.36812254  0.05637100  1
  Sm3+  Sm56  1  0.25122779  0.11766136  0.05094635  1
  Sm3+  Sm57  1  0.25982647  0.61484636  0.05735161  1
  Sm3+  Sm58  1  0.25960425  0.87960162  0.55704975  1
  Sm3+  Sm59  1  0.76275025  0.13410341  0.55840899  1
  Sm3+  Sm60  1  0.51236206  0.12999295  0.55687835  1
  Sm3+  Sm61  1  0.50763320  0.63652513  0.55565349  1
  Sm3+  Sm62  1  0.50548677  0.12172669  0.05470508  1
  Sm3+  Sm63  1  0.26814025  0.38087964  0.57888133  1
  Bi2+  Bi64  1  -0.00109070  0.10567762  0.30334394  1
  Bi2+  Bi65  1  -0.08049101  0.13152696  0.79006952  1
  Bi2+  Bi66  1  0.01265135  0.38943045  0.29573645  1
  Bi2+  Bi67  1  0.00994212  0.39202487  0.80971555  1
  Bi2+  Bi68  1  0.00341612  0.66116714  0.33232135  1
  Bi2+  Bi69  1  0.04917881  0.64210773  0.81973048  1
  Bi2+  Bi70  1  0.02044314  0.83881412  0.28318603  1
  Bi2+  Bi71  1  0.01795730  0.91016085  0.77976300  1
  Bi2+  Bi72  1  0.30467183  0.13533859  0.27208452  1
  Bi2+  Bi73  1  0.25076887  0.06779511  0.78153982  1
  Bi2+  Bi74  1  0.24407830  0.32366203  0.29497868  1
  Bi2+  Bi75  1  0.21949440  0.30451033  0.76116459  1
  Bi2+  Bi76  1  0.17184192  0.58804331  0.29742219  1
  Bi2+  Bi77  1  0.22821670  0.68455941  0.77898926  1
  Bi2+  Bi78  1  0.20979673  0.88687587  0.30230112  1
  Bi2+  Bi79  1  0.28228817  0.87484538  0.76334568  1
  Bi2+  Bi80  1  0.49967141  0.14195433  0.29210737  1
  Bi2+  Bi81  1  0.50995333  0.14726463  0.79561815  1
  Bi2+  Bi82  1  0.50743633  0.41133121  0.31951836  1
  Bi2+  Bi83  1  0.47856748  0.36904430  0.79348506  1
  Bi2+  Bi84  1  0.51595437  0.63012219  0.28733154  1
  Bi2+  Bi85  1  0.49965315  0.61582574  0.78982924  1
  Bi2+  Bi86  1  0.51064821  0.88884708  0.29084457  1
  Bi2+  Bi87  1  0.46921111  0.89287880  0.79529581  1
  Bi2+  Bi88  1  0.77031099  0.15641935  0.26311569  1
  Bi2+  Bi89  1  0.70139304  0.15252998  0.81877673  1
  Bi2+  Bi90  1  0.75526882  0.39926936  0.29592483  1
  Bi2+  Bi91  1  0.73925943  0.34375673  0.79080722  1
  Bi2+  Bi92  1  0.82571314  0.62277345  0.29432161  1
  Bi2+  Bi93  1  0.86205096  0.56258997  0.75684079  1
  Bi2+  Bi94  1  0.76559098  0.88758588  0.29899324  1
  Bi2+  Bi95  1  0.73356273  0.97050365  0.78026466  1
  Bi2+  Bi96  1  0.15113381  -0.02236017  0.21248621  1
  Bi2+  Bi97  1  0.06876651  0.00034704  0.66984082  1
  Bi2+  Bi98  1  0.15245341  0.23976394  0.20883895  1
  Bi2+  Bi99  1  0.08021126  0.17131585  0.72951134  1
  Bi2+  Bi100  1  0.07664142  0.50004067  0.19033603  1
  Bi2+  Bi101  1  0.10737499  0.54006184  0.70499156  1
  Bi2+  Bi102  1  0.10239001  0.69613763  0.21290804  1
  Bi2+  Bi103  1  0.10629561  0.80406632  0.69706185  1
  Bi2+  Bi104  1  0.42816707  0.01620279  0.21153859  1
  Bi2+  Bi105  1  0.26637986  0.00309309  0.67487823  1
  Bi2+  Bi106  1  0.40283607  0.28093910  0.21510308  1
  Bi2+  Bi107  1  0.41626930  0.20141412  0.69883258  1
  Bi2+  Bi108  1  0.26822235  0.48316211  0.21785980  1
  Bi2+  Bi109  1  0.32320784  0.45201550  0.72249389  1
  Bi2+  Bi110  1  0.35709667  0.76246865  0.19438963  1
  Bi2+  Bi111  1  0.37117480  0.70507802  0.69455714  1
  Bi2+  Bi112  1  0.63017645  0.04666007  0.21317369  1
  Bi2+  Bi113  1  0.57018865  -0.01718116  0.71567117  1
  Bi2+  Bi114  1  0.60505250  0.25094847  0.21699213  1
  Bi2+  Bi115  1  0.62773676  0.23400745  0.71606037  1
  Bi2+  Bi116  1  0.63123780  0.47646348  0.20511936  1
  Bi2+  Bi117  1  0.68843874  0.50491140  0.71711826  1
  Bi2+  Bi118  1  0.65481796  0.75463498  0.20133750  1
  Bi2+  Bi119  1  0.61087521  0.73563463  0.67964781  1
  Bi2+  Bi120  1  0.87992964  -0.05228656  0.20356480  1
  Bi2+  Bi121  1  0.87475157  -0.01319696  0.70115569  1
  Bi2+  Bi122  1  0.87861140  0.30713460  0.22296812  1
  Bi2+  Bi123  1  0.85822172  0.18558972  0.68344332  1
  Bi2+  Bi124  1  0.88539878  0.50082669  0.21066602  1
  Bi2+  Bi125  1  0.84283540  0.38462186  0.69585444  1
  Bi2+  Bi126  1  0.85148170  0.75493513  0.21148761  1
  Bi2+  Bi127  1  0.90280534  0.75114236  0.77637662  1
  S2-  S128  1  -0.04045954  0.08976582  0.20593628  1
  S2-  S129  1  0.01834948  0.23355924  0.64113320  1
  S2-  S130  1  0.01709227  0.26714308  0.15172993  1
  S2-  S131  1  -0.01090315  0.46421397  0.65915104  1
  S2-  S132  1  -0.01336973  0.72958405  0.14143013  1
  S2-  S133  1  0.02840148  0.66676139  0.65859682  1
  S2-  S134  1  0.02626071  0.93785459  0.14570381  1
  S2-  S135  1  -0.10835515  0.86116305  0.63517582  1
  S2-  S136  1  0.19019307  0.10831163  0.14281644  1
  S2-  S137  1  0.27227004  0.17758477  0.65451228  1
  S2-  S138  1  0.26712977  0.34101400  0.15154084  1
  S2-  S139  1  0.18768616  0.38488911  0.66735322  1
  S2-  S140  1  0.30543043  0.61243657  0.15184394  1
  S2-  S141  1  0.26705626  0.56996814  0.65843290  1
  S2-  S142  1  0.23325953  0.86777924  0.15860281  1
  S2-  S143  1  0.24282606  0.77802262  0.63652893  1
  S2-  S144  1  0.49094551  0.21414011  0.13650780  1
  S2-  S145  1  0.48468100  0.06320990  0.64594502  1
  S2-  S146  1  0.49435380  0.47193188  0.15458133  1
  S2-  S147  1  0.40180527  0.36807966  0.65249921  1
  S2-  S148  1  0.51043921  0.67891324  0.18580921  1
  S2-  S149  1  0.50188229  0.60676331  0.65395909  1
  S2-  S150  1  0.47258353  0.87910742  0.15847116  1
  S2-  S151  1  0.46252311  0.83004297  0.66701046  1
  S2-  S152  1  0.74865423  0.13508014  0.15701469  1
  S2-  S153  1  0.70372387  0.13045726  0.65181042  1
  S2-  S154  1  0.67441019  0.35819473  0.14291399  1
  S2-  S155  1  0.64573626  0.39018431  0.64600051  1
  S2-  S156  1  0.69571969  0.61043251  0.15229923  1
  S2-  S157  1  0.75431433  0.63629964  0.65635070  1
  S2-  S158  1  0.71436886  0.90822405  0.16121204  1
  S2-  S159  1  0.65791749  0.88793019  0.64297717  1
  S2-  S160  1  0.13852133  0.03655551  0.34227622  1
  S2-  S161  1  0.11733049  0.01662692  0.83450984  1
  S2-  S162  1  0.02273491  0.24454314  0.35387821  1
  S2-  S163  1  0.12361288  0.27244952  0.84016342  1
  S2-  S164  1  0.14654449  0.40774155  0.36605261  1
  S2-  S165  1  0.13937817  0.49687475  0.84053822  1
  S2-  S166  1  0.22332638  0.73825213  0.35021338  1
  S2-  S167  1  0.15272363  0.77686421  0.85189169  1
  S2-  S168  1  0.37789313  -0.07942745  0.35224939  1
  S2-  S169  1  0.39438781  0.03587222  0.84543230  1
  S2-  S170  1  0.38215125  0.34270183  0.36363408  1
  S2-  S171  1  0.35532590  0.28213290  0.83109145  1
  S2-  S172  1  0.40605518  0.55056871  0.34590740  1
  S2-  S173  1  0.40337567  0.49893329  0.84299055  1
  S2-  S174  1  0.38938234  0.73495195  0.28622470  1
  S2-  S175  1  0.44251210  0.74690415  0.85214941  1
  S2-  S176  1  0.63267168  -0.02513114  0.34439589  1
  S2-  S177  1  0.61502990  -0.08052436  0.85181785  1
  S2-  S178  1  0.63538027  0.30282810  0.34798836  1
  S2-  S179  1  0.61332320  0.36656710  0.85802772  1
  S2-  S180  1  0.63755002  0.52627825  0.33871261  1
  S2-  S181  1  0.62685883  0.58463593  0.84382408  1
  S2-  S182  1  0.54635462  0.75892025  0.35184628  1
  S2-  S183  1  0.60599307  0.74794907  0.77339059  1
  S2-  S184  1  0.89884836  -0.10066182  0.35741845  1
  S2-  S185  1  0.86699422  -0.00262514  0.85001410  1
  S2-  S186  1  0.85296359  0.12540461  0.35495569  1
  S2-  S187  1  0.90176685  0.28319042  0.84417465  1
  S2-  S188  1  0.88143345  0.40629295  0.36438418  1
  S2-  S189  1  0.89619495  0.50301341  0.84956554  1
  S2-  S190  1  0.75175187  0.75005991  0.35729597  1
  S2-  S191  1  0.79410900  0.75416213  0.85075607  1
  S2-  S192  1  0.01150223  0.13364469  0.45695750  1
  S2-  S193  1  0.00516067  0.11557145  0.94472363  1
  S2-  S194  1  0.00864391  0.38350992  0.46569908  1
  S2-  S195  1  0.00660269  0.37136061  0.96113903  1
  S2-  S196  1  0.00592982  0.62627628  0.45508347  1
  S2-  S197  1  0.00413332  0.61968461  0.96061577  1
  S2-  S198  1  0.01118262  0.88365340  0.45557968  1
  S2-  S199  1  0.00215701  0.86632680  0.95199589  1
  S2-  S200  1  0.25977387  0.13254401  0.44869399  1
  S2-  S201  1  0.25447548  0.11683286  0.94626197  1
  S2-  S202  1  0.26226777  0.38269326  0.47061240  1
  S2-  S203  1  0.25399873  0.37160929  0.94805468  1
  S2-  S204  1  0.26054814  0.62960802  0.45514823  1
  S2-  S205  1  0.25617345  0.61778598  0.95153067  1
  S2-  S206  1  0.25557862  0.87986131  0.45424794  1
  S2-  S207  1  0.25907286  0.86840444  0.95253483  1
  S2-  S208  1  0.50638720  0.13096833  0.45181994  1
  S2-  S209  1  0.50778491  0.11816116  0.95079907  1
  S2-  S210  1  0.50944573  0.38318607  0.46518215  1
  S2-  S211  1  0.50058951  0.36452816  0.95993843  1
  S2-  S212  1  0.50673544  0.63444594  0.45204567  1
  S2-  S213  1  0.50562967  0.62117971  0.95532207  1
  S2-  S214  1  0.51152135  0.88084500  0.45772304  1
  S2-  S215  1  0.50649973  0.86879663  0.95677704  1
  S2-  S216  1  0.75396016  0.13399845  0.45587562  1
  S2-  S217  1  0.75632358  0.11602498  0.95448393  1
  S2-  S218  1  0.75574236  0.38289877  0.46149340  1
  S2-  S219  1  0.75802117  0.36959386  0.95353006  1
  S2-  S220  1  0.76059967  0.62663412  0.45322837  1
  S2-  S221  1  0.75507101  0.61717632  0.95230138  1
  S2-  S222  1  0.75770863  0.88597772  0.45841656  1
  S2-  S223  1  0.75583625  0.87140427  0.95898086  1
  S2-  S224  1  0.12956059  -0.00775654  0.04024381  1
  S2-  S225  1  0.13443775  0.00440821  0.54487886  1
  S2-  S226  1  0.12969607  0.24034080  0.04392632  1
  S2-  S227  1  0.14399664  0.25845991  0.54355443  1
  S2-  S228  1  0.13239316  0.49395188  0.04789354  1
  S2-  S229  1  0.13644232  0.50572207  0.55221615  1
  S2-  S230  1  0.13650898  0.73763219  0.05050821  1
  S2-  S231  1  0.12635786  0.75764833  0.53970042  1
  S2-  S232  1  0.38032666  -0.00083882  0.04767261  1
  S2-  S233  1  0.38404039  0.00295770  0.54315051  1
  S2-  S234  1  0.37473326  0.23871547  0.03686121  1
  S2-  S235  1  0.38917688  0.25263587  0.55030244  1
  S2-  S236  1  0.38043840  0.49058403  0.04744685  1
  S2-  S237  1  0.38574119  0.50932250  0.54843037  1
  S2-  S238  1  0.38219298  0.74075908  0.05076916  1
  S2-  S239  1  0.38896624  0.76154523  0.54765314  1
  S2-  S240  1  0.62728022  -0.00247974  0.04882356  1
  S2-  S241  1  0.63843921  0.01175065  0.54429112  1
  S2-  S242  1  0.63443971  0.23991554  0.03818706  1
  S2-  S243  1  0.63276541  0.25303903  0.54942437  1
  S2-  S244  1  0.62885124  0.49107935  0.04255670  1
  S2-  S245  1  0.63405574  0.51353709  0.54538993  1
  S2-  S246  1  0.62556741  0.74489982  0.05980050  1
  S2-  S247  1  0.63570937  0.75550422  0.54219517  1
  S2-  S248  1  0.88553982  -0.00367690  0.05280923  1
  S2-  S249  1  0.88486974  0.01308873  0.54294540  1
  S2-  S250  1  0.87959077  0.24549919  0.04962146  1
  S2-  S251  1  0.88111425  0.25798575  0.54253589  1
  S2-  S252  1  0.88015572  0.49185748  0.05502100  1
  S2-  S253  1  0.88228338  0.50479384  0.55013420  1
  S2-  S254  1  0.87540933  0.73979977  0.04272558  1
  S2-  S255  1  0.88493091  0.75068614  0.53520261  1
