# generated using pymatgen
data_La12Ce14Pr13Nd13Sm12(BiS2)64
_symmetry_space_group_name_H-M   'P 1'
_cell_length_a   16.16663910
_cell_length_b   16.20135235
_cell_length_c   27.21852233
_cell_angle_alpha   89.98621524
_cell_angle_beta   89.91866975
_cell_angle_gamma   90.00896780
_symmetry_Int_Tables_number   1
_chemical_formula_structural   La12Ce14Pr13Nd13Sm12(BiS2)64
_chemical_formula_sum   'La12 Ce14 Pr13 Nd13 Sm12 Bi64 S128'
_cell_volume   7129.10644410
_cell_formula_units_Z   1
loop_
 _symmetry_equiv_pos_site_id
 _symmetry_equiv_pos_as_xyz
  1  'x, y, z'
loop_
 _atom_type_symbol
 _atom_type_oxidation_number
  La3+  3.0
  Ce3+  3.0
  Pr3+  3.0
  Nd3+  3.0
  Sm3+  3.0
  Bi2+  2.0
  S2-  -2.0
loop_
 _atom_site_type_symbol
 _atom_site_label
 _atom_site_symmetry_multiplicity
 _atom_site_fract_x
 _atom_site_fract_y
 _atom_site_fract_z
 _atom_site_occupancy
  La3+  La0  1  0.25923961  0.37343701  0.61518812  1
  La3+  La1  1  0.88188884  0.75030939  0.88570816  1
  La3+  La2  1  0.62563686  0.75399904  0.41582644  1
  La3+  La3  1  0.62526749  0.50097781  0.94114892  1
  La3+  La4  1  0.61605964  0.25949156  0.43819127  1
  La3+  La5  1  -0.01154965  0.89123908  0.58502638  1
  La3+  La6  1  0.23993724  0.63094542  0.08640669  1
  La3+  La7  1  0.35864824  0.76465993  0.42027068  1
  La3+  La8  1  0.25605621  0.36661013  0.10208616  1
  La3+  La9  1  0.74912464  0.61933144  0.07584154  1
  La3+  La10  1  0.24348551  0.63413019  0.56581889  1
  La3+  La11  1  0.62565378  -0.00380131  0.93473240  1
  Ce3+  Ce12  1  0.87601621  0.50619508  0.94264960  1
  Ce3+  Ce13  1  0.37014295  0.50096795  0.95031690  1
  Ce3+  Ce14  1  0.74873170  0.37552102  0.06117525  1
  Ce3+  Ce15  1  0.62552346  0.25113598  0.94588496  1
  Ce3+  Ce16  1  0.49528740  0.37397581  0.05998774  1
  Ce3+  Ce17  1  0.24819336  0.87430078  0.06181734  1
  Ce3+  Ce18  1  0.12294630  -0.00471622  0.93861532  1
  Ce3+  Ce19  1  0.36960493  0.74496639  0.94197579  1
  Ce3+  Ce20  1  0.11823598  0.26205800  0.43929154  1
  Ce3+  Ce21  1  0.63223780  0.74666997  0.94521025  1
  Ce3+  Ce22  1  -0.00038096  0.38367475  0.56330218  1
  Ce3+  Ce23  1  0.11506571  0.00967001  0.44555234  1
  Ce3+  Ce24  1  0.86543511  0.76585937  0.44436649  1
  Ce3+  Ce25  1  0.24573128  0.13673998  0.55407659  1
  Pr3+  Pr26  1  0.49877357  0.38817402  0.56609327  1
  Pr3+  Pr27  1  0.36392397  0.51614769  0.43243064  1
  Pr3+  Pr28  1  -0.00653622  0.63764544  0.55820740  1
  Pr3+  Pr29  1  0.11274912  0.77095621  0.43753469  1
  Pr3+  Pr30  1  0.12505854  0.25167310  0.94217240  1
  Pr3+  Pr31  1  0.12972809  0.74774626  0.92937944  1
  Pr3+  Pr32  1  -0.00064448  0.12436172  0.05622368  1
  Pr3+  Pr33  1  0.86822230  0.51068148  0.44820339  1
  Pr3+  Pr34  1  0.87190715  -0.00314940  0.93389292  1
  Pr3+  Pr35  1  -0.00282193  0.87147686  0.05598778  1
  Pr3+  Pr36  1  0.73421879  0.89183583  0.57645587  1
  Pr3+  Pr37  1  0.61808688  0.50915634  0.43673213  1
  Pr3+  Pr38  1  0.37307817  -0.00279074  0.93858822  1
  Nd3+  Nd39  1  0.00210488  0.37512641  0.06202193  1
  Nd3+  Nd40  1  0.87513705  0.25151195  0.94626185  1
  Nd3+  Nd41  1  0.36527313  0.26563268  0.43544762  1
  Nd3+  Nd42  1  0.24967811  0.12259677  0.06188113  1
  Nd3+  Nd43  1  0.86611894  0.00886686  0.44358852  1
  Nd3+  Nd44  1  0.74072640  0.63932082  0.56249662  1
  Nd3+  Nd45  1  0.36672481  0.00726361  0.43551974  1
  Nd3+  Nd46  1  0.49098774  0.63669924  0.54966975  1
  Nd3+  Nd47  1  0.61976063  0.00759204  0.43594092  1
  Nd3+  Nd48  1  0.86833211  0.26132200  0.44820007  1
  Nd3+  Nd49  1  0.49374141  0.88265500  0.55511887  1
  Nd3+  Nd50  1  0.37339038  0.25125486  0.93833594  1
  Nd3+  Nd51  1  0.49774055  0.12402606  0.05319417  1
  Sm3+  Sm52  1  -0.00738560  0.13427071  0.55794482  1
  Sm3+  Sm53  1  0.75079951  0.88104651  0.06489204  1
  Sm3+  Sm54  1  0.11835954  0.51183671  0.43880144  1
  Sm3+  Sm55  1  0.24345599  0.88166046  0.56484156  1
  Sm3+  Sm56  1  0.49611182  0.62495609  0.06421689  1
  Sm3+  Sm57  1  0.49919343  0.87190936  0.05338378  1
  Sm3+  Sm58  1  0.48855175  0.13676701  0.54963718  1
  Sm3+  Sm59  1  0.73933994  0.13421516  0.56192435  1
  Sm3+  Sm60  1  0.74830972  0.12413460  0.05925922  1
  Sm3+  Sm61  1  0.12767018  0.50083093  0.94895658  1
  Sm3+  Sm62  1  0.74123514  0.38409596  0.56449073  1
  Sm3+  Sm63  1  0.00163817  0.62604272  0.05647829  1
  Bi2+  Bi64  1  0.04433890  0.04898102  0.29601079  1
  Bi2+  Bi65  1  -0.00564887  0.11553992  0.77380651  1
  Bi2+  Bi66  1  -0.01911094  0.32451666  0.27422711  1
  Bi2+  Bi67  1  -0.00410263  0.34560371  0.79815099  1
  Bi2+  Bi68  1  -0.02163227  0.65767354  0.26566394  1
  Bi2+  Bi69  1  -0.00296536  0.54039188  0.79015468  1
  Bi2+  Bi70  1  -0.02483947  0.84774578  0.30176477  1
  Bi2+  Bi71  1  0.01540745  0.86983538  0.78435714  1
  Bi2+  Bi72  1  0.24328670  0.07190544  0.29355252  1
  Bi2+  Bi73  1  0.31149507  0.08838625  0.77542873  1
  Bi2+  Bi74  1  0.23609053  0.37680592  0.30766038  1
  Bi2+  Bi75  1  0.25144307  0.38615950  0.82505637  1
  Bi2+  Bi76  1  0.25194685  0.62799571  0.29011121  1
  Bi2+  Bi77  1  0.28642980  0.62238567  0.79589190  1
  Bi2+  Bi78  1  0.24173392  0.87269430  0.28757090  1
  Bi2+  Bi79  1  0.27271077  0.89521193  0.79230504  1
  Bi2+  Bi80  1  0.52431736  0.15708493  0.28794686  1
  Bi2+  Bi81  1  0.58338774  0.15802319  0.77546906  1
  Bi2+  Bi82  1  0.49396172  0.35974500  0.29593474  1
  Bi2+  Bi83  1  0.49082220  0.33021708  0.78618037  1
  Bi2+  Bi84  1  0.52245674  0.62872151  0.28079404  1
  Bi2+  Bi85  1  0.47334838  0.68553341  0.78803596  1
  Bi2+  Bi86  1  0.49500707  0.91234557  0.28029192  1
  Bi2+  Bi87  1  0.50918504  0.87872651  0.78303756  1
  Bi2+  Bi88  1  0.79113043  0.13115163  0.29405927  1
  Bi2+  Bi89  1  0.78121719  0.13448827  0.78645337  1
  Bi2+  Bi90  1  0.78821138  0.39867242  0.29351598  1
  Bi2+  Bi91  1  0.76909790  0.36863450  0.78818596  1
  Bi2+  Bi92  1  0.78917536  0.61168237  0.29421346  1
  Bi2+  Bi93  1  0.72301265  0.61337243  0.79021601  1
  Bi2+  Bi94  1  0.78510722  0.86690316  0.27841432  1
  Bi2+  Bi95  1  0.74590472  0.87878571  0.78673736  1
  Bi2+  Bi96  1  0.18249569  -0.00105653  0.18388183  1
  Bi2+  Bi97  1  0.13304864  0.03049568  0.70709052  1
  Bi2+  Bi98  1  0.12543761  0.17894076  0.22470563  1
  Bi2+  Bi99  1  0.11538323  0.22753643  0.70913012  1
  Bi2+  Bi100  1  0.09957212  0.50809867  0.20946271  1
  Bi2+  Bi101  1  0.13527684  0.50027071  0.71464548  1
  Bi2+  Bi102  1  0.10050456  0.82283812  0.21003794  1
  Bi2+  Bi103  1  0.14708267  0.73025712  0.71798666  1
  Bi2+  Bi104  1  0.37421115  0.01796087  0.20495045  1
  Bi2+  Bi105  1  0.31542144  -0.02898780  0.68061177  1
  Bi2+  Bi106  1  0.38648367  0.21972182  0.21234695  1
  Bi2+  Bi107  1  0.40700238  0.21621375  0.70507706  1
  Bi2+  Bi108  1  0.39453197  0.48797048  0.21088042  1
  Bi2+  Bi109  1  0.41075069  0.53174213  0.70809747  1
  Bi2+  Bi110  1  0.37195225  0.80329108  0.21242180  1
  Bi2+  Bi111  1  0.38917627  0.79225397  0.70143002  1
  Bi2+  Bi112  1  0.66399848  0.03168443  0.22697269  1
  Bi2+  Bi113  1  0.58866245  0.00254742  0.70449766  1
  Bi2+  Bi114  1  0.65717009  0.22198468  0.20090622  1
  Bi2+  Bi115  1  0.71406839  0.25180245  0.69478624  1
  Bi2+  Bi116  1  0.63487080  0.41087484  0.22062250  1
  Bi2+  Bi117  1  0.61800818  0.45916411  0.73968605  1
  Bi2+  Bi118  1  0.60503704  0.74285779  0.19676814  1
  Bi2+  Bi119  1  0.62116739  0.74968521  0.71654049  1
  Bi2+  Bi120  1  0.90241009  0.03222921  0.20969956  1
  Bi2+  Bi121  1  0.85966714  0.01222943  0.70887138  1
  Bi2+  Bi122  1  0.85281594  0.23746429  0.20410435  1
  Bi2+  Bi123  1  0.91545346  0.24855415  0.69470077  1
  Bi2+  Bi124  1  0.89355915  0.49573378  0.21182711  1
  Bi2+  Bi125  1  0.89100700  0.44576262  0.71041178  1
  Bi2+  Bi126  1  0.86267302  0.76076445  0.19155206  1
  Bi2+  Bi127  1  0.88628770  0.70573465  0.68702839  1
  S2-  S128  1  -0.00824888  0.14741743  0.15546473  1
  S2-  S129  1  -0.00772880  0.04638101  0.64251191  1
  S2-  S130  1  0.03162358  0.38143467  0.16016184  1
  S2-  S131  1  0.08813588  0.38074280  0.64686501  1
  S2-  S132  1  0.08132696  0.62633876  0.14296795  1
  S2-  S133  1  0.04142616  0.63204823  0.65615911  1
  S2-  S134  1  -0.02964599  0.89508202  0.15532080  1
  S2-  S135  1  0.06541027  0.85205007  0.68054248  1
  S2-  S136  1  0.24811233  0.20957159  0.14864544  1
  S2-  S137  1  0.25366335  0.20201002  0.64523207  1
  S2-  S138  1  0.24011158  0.40662799  0.20376767  1
  S2-  S139  1  0.24280238  0.37251304  0.72980265  1
  S2-  S140  1  0.29219074  0.60005781  0.18527289  1
  S2-  S141  1  0.26286889  0.53992222  0.65186174  1
  S2-  S142  1  0.24161776  0.78691644  0.14513880  1
  S2-  S143  1  0.25241508  0.76173457  0.63998734  1
  S2-  S144  1  0.48670967  0.11749822  0.15182840  1
  S2-  S145  1  0.50684940  0.12992717  0.64730433  1
  S2-  S146  1  0.42467296  0.35502991  0.14836038  1
  S2-  S147  1  0.42071291  0.37580969  0.65588503  1
  S2-  S148  1  0.51168936  0.60603065  0.16276976  1
  S2-  S149  1  0.48046053  0.63788167  0.65049414  1
  S2-  S150  1  0.49640003  0.86090647  0.15156951  1
  S2-  S151  1  0.59211263  0.86963089  0.63902159  1
  S2-  S152  1  0.76023497  0.03524934  0.14215215  1
  S2-  S153  1  0.72918169  0.03965332  0.64402345  1
  S2-  S154  1  0.75857732  0.45168984  0.14804818  1
  S2-  S155  1  0.63693986  0.38790065  0.64181186  1
  S2-  S156  1  0.73457689  0.64914616  0.17645090  1
  S2-  S157  1  0.73109905  0.64528959  0.66270443  1
  S2-  S158  1  0.72215720  0.84245443  0.15958770  1
  S2-  S159  1  0.85171140  0.86070476  0.65172524  1
  S2-  S160  1  0.08954515  -0.08702257  0.36648856  1
  S2-  S161  1  0.13464343  -0.04351326  0.84324132  1
  S2-  S162  1  0.09912268  0.28847138  0.34250139  1
  S2-  S163  1  0.12614561  0.26567754  0.84206175  1
  S2-  S164  1  0.14846421  0.51673886  0.34019959  1
  S2-  S165  1  0.14357147  0.51951010  0.85044771  1
  S2-  S166  1  0.20913711  0.73943490  0.35412928  1
  S2-  S167  1  0.04218198  0.74321640  0.84115920  1
  S2-  S168  1  0.37214978  -0.09415316  0.35506907  1
  S2-  S169  1  0.40852581  -0.00175174  0.83985745  1
  S2-  S170  1  0.34409728  0.25498570  0.33639965  1
  S2-  S171  1  0.35901730  0.24996729  0.83928758  1
  S2-  S172  1  0.37551030  0.46575856  0.33451544  1
  S2-  S173  1  0.37634470  0.50004377  0.85165534  1
  S2-  S174  1  0.39268375  0.66334176  0.33768408  1
  S2-  S175  1  0.27054560  0.74841823  0.86045342  1
  S2-  S176  1  0.59271994  0.02513323  0.33769628  1
  S2-  S177  1  0.68775701  0.00852113  0.84146814  1
  S2-  S178  1  0.62288554  0.27728044  0.33970932  1
  S2-  S179  1  0.61837300  0.27966325  0.85058508  1
  S2-  S180  1  0.63361111  0.58148723  0.34596829  1
  S2-  S181  1  0.61765272  0.52885262  0.84125055  1
  S2-  S182  1  0.57338359  0.78519314  0.31721662  1
  S2-  S183  1  0.70589291  0.75249073  0.85627048  1
  S2-  S184  1  0.82859097  -0.01220385  0.34688131  1
  S2-  S185  1  0.88343091  -0.08316354  0.84544988  1
  S2-  S186  1  0.86783692  0.26332441  0.34964657  1
  S2-  S187  1  0.86312104  0.25578369  0.84780611  1
  S2-  S188  1  0.88885009  0.50993985  0.34867859  1
  S2-  S189  1  0.86034090  0.58075153  0.85451909  1
  S2-  S190  1  0.77947245  0.75709332  0.35867760  1
  S2-  S191  1  0.87564615  0.76088231  0.77477234  1
  S2-  S192  1  -0.00950497  0.13468053  0.45245214  1
  S2-  S193  1  -0.00171554  0.12416206  0.94807005  1
  S2-  S194  1  -0.00651498  0.38583587  0.45582248  1
  S2-  S195  1  0.00018070  0.37749384  0.95469614  1
  S2-  S196  1  -0.00712862  0.63821843  0.44979079  1
  S2-  S197  1  0.00409405  0.62423809  0.95339141  1
  S2-  S198  1  -0.01423943  0.88892990  0.46885486  1
  S2-  S199  1  -0.00283667  0.87065272  0.94995204  1
  S2-  S200  1  0.24374481  0.13432462  0.44677713  1
  S2-  S201  1  0.24858893  0.12288173  0.95207274  1
  S2-  S202  1  0.23948074  0.38748315  0.44499062  1
  S2-  S203  1  0.24928632  0.37510301  0.95416825  1
  S2-  S204  1  0.23712002  0.63461391  0.45651454  1
  S2-  S205  1  0.24795855  0.62285315  0.96556326  1
  S2-  S206  1  0.24112235  0.88960244  0.46060049  1
  S2-  S207  1  0.24994843  0.87625861  0.95661903  1
  S2-  S208  1  0.48879259  0.13387849  0.44461578  1
  S2-  S209  1  0.49981469  0.12517670  0.94636414  1
  S2-  S210  1  0.49162037  0.38708594  0.45167742  1
  S2-  S211  1  0.49731509  0.37471454  0.95388719  1
  S2-  S212  1  0.49460265  0.63683743  0.44518582  1
  S2-  S213  1  0.49857304  0.62597820  0.95670296  1
  S2-  S214  1  0.49918020  0.88294439  0.44960085  1
  S2-  S215  1  0.49933702  0.86970467  0.94774999  1
  S2-  S216  1  0.74295187  0.13558314  0.45453366  1
  S2-  S217  1  0.75081517  0.12607057  0.95393965  1
  S2-  S218  1  0.74296069  0.38467669  0.45781705  1
  S2-  S219  1  0.75238314  0.37647800  0.95451341  1
  S2-  S220  1  0.74461431  0.63249973  0.45709807  1
  S2-  S221  1  0.74910728  0.62175552  0.96501987  1
  S2-  S222  1  0.73989639  0.88756715  0.45908179  1
  S2-  S223  1  0.75067624  0.87472347  0.95851968  1
  S2-  S224  1  0.12310700  -0.00066415  0.04592081  1
  S2-  S225  1  0.12359973  0.01042886  0.55000100  1
  S2-  S226  1  0.12599318  0.25056475  0.04942250  1
  S2-  S227  1  0.11617281  0.25421970  0.54492621  1
  S2-  S228  1  0.13118596  0.49200643  0.05282649  1
  S2-  S229  1  0.11493430  0.51182396  0.54342366  1
  S2-  S230  1  0.12210640  0.75144481  0.03998732  1
  S2-  S231  1  0.11402865  0.76681031  0.54585290  1
  S2-  S232  1  0.37556453  -0.00252235  0.04623336  1
  S2-  S233  1  0.36950272  0.00845937  0.54190795  1
  S2-  S234  1  0.37173471  0.24727878  0.04422816  1
  S2-  S235  1  0.36935213  0.26380576  0.54254180  1
  S2-  S236  1  0.37054760  0.50141492  0.05745003  1
  S2-  S237  1  0.37170795  0.50775183  0.54138643  1
  S2-  S238  1  0.37654343  0.74840500  0.04836503  1
  S2-  S239  1  0.37015863  0.76305091  0.53616279  1
  S2-  S240  1  0.62199006  -0.00195605  0.04382822  1
  S2-  S241  1  0.61234044  0.01622968  0.54031130  1
  S2-  S242  1  0.62407719  0.24821074  0.05263590  1
  S2-  S243  1  0.61709873  0.25562837  0.54475886  1
  S2-  S244  1  0.61839897  0.49902167  0.05069373  1
  S2-  S245  1  0.62070586  0.51367549  0.54321544  1
  S2-  S246  1  0.62330807  0.74854549  0.05092788  1
  S2-  S247  1  0.61861322  0.75730450  0.53702169  1
  S2-  S248  1  0.87421847  0.00102676  0.04086504  1
  S2-  S249  1  0.86335031  0.01479251  0.54723748  1
  S2-  S250  1  0.87239970  0.24944596  0.05227353  1
  S2-  S251  1  0.86553410  0.25782613  0.55417661  1
  S2-  S252  1  0.88096209  0.50082864  0.04902095  1
  S2-  S253  1  0.86586507  0.50865236  0.55607550  1
  S2-  S254  1  0.87371513  0.74661544  0.05816538  1
  S2-  S255  1  0.86546552  0.76062313  0.54852094  1
