# generated using pymatgen
data_La12Ce14Pr13Nd13Sm12(BiS2)64
_symmetry_space_group_name_H-M   'P 1'
_cell_length_a   16.18791574
_cell_length_b   16.17944376
_cell_length_c   27.20824206
_cell_angle_alpha   90.14301801
_cell_angle_beta   90.08862791
_cell_angle_gamma   89.95720093
_symmetry_Int_Tables_number   1
_chemical_formula_structural   La12Ce14Pr13Nd13Sm12(BiS2)64
_chemical_formula_sum   'La12 Ce14 Pr13 Nd13 Sm12 Bi64 S128'
_cell_volume   7126.11804243
_cell_formula_units_Z   1
loop_
 _symmetry_equiv_pos_site_id
 _symmetry_equiv_pos_as_xyz
  1  'x, y, z'
loop_
 _atom_type_symbol
 _atom_type_oxidation_number
  La3+  3.0
  Ce3+  3.0
  Pr3+  3.0
  Nd3+  3.0
  Sm3+  3.0
  Bi2+  2.0
  S2-  -2.0
loop_
 _atom_site_type_symbol
 _atom_site_label
 _atom_site_symmetry_multiplicity
 _atom_site_fract_x
 _atom_site_fract_y
 _atom_site_fract_z
 _atom_site_occupancy
  La3+  La0  1  0.50334980  0.14639810  0.08955377  1
  La3+  La1  1  0.76287254  0.11953965  0.58102017  1
  La3+  La2  1  0.01744392  0.63005667  0.56993020  1
  La3+  La3  1  0.23705226  0.13521969  0.08977232  1
  La3+  La4  1  0.61623080  0.24557192  0.91579863  1
  La3+  La5  1  0.87851263  0.52043221  0.89979733  1
  La3+  La6  1  0.75033218  0.13506190  0.06594357  1
  La3+  La7  1  0.13080334  0.01197327  0.93024018  1
  La3+  La8  1  0.39044217  0.00879430  0.41059501  1
  La3+  La9  1  0.50658067  0.63172893  0.07675237  1
  La3+  La10  1  0.52001753  0.64167592  0.57510178  1
  La3+  La11  1  0.64401234  0.74374599  0.41345728  1
  Ce3+  Ce12  1  0.87531389  0.00720022  0.94047237  1
  Ce3+  Ce13  1  0.88933769  0.74885866  0.43627335  1
  Ce3+  Ce14  1  0.87342803  0.25467996  0.93295594  1
  Ce3+  Ce15  1  0.39093711  0.25329652  0.43625366  1
  Ce3+  Ce16  1  0.26359073  0.88197129  0.54625711  1
  Ce3+  Ce17  1  0.76189722  0.37633747  0.57038913  1
  Ce3+  Ce18  1  0.64158364  0.00366840  0.43636714  1
  Ce3+  Ce19  1  0.26450939  0.62638872  0.56807030  1
  Ce3+  Ce20  1  0.51359558  0.87623487  0.54378549  1
  Ce3+  Ce21  1  0.39100176  0.50696062  0.44626996  1
  Ce3+  Ce22  1  0.37279950  0.01193443  0.96017634  1
  Ce3+  Ce23  1  0.50066432  0.88371675  0.06493949  1
  Ce3+  Ce24  1  0.24971196  0.63032775  0.06594126  1
  Ce3+  Ce25  1  0.88757186  0.50198806  0.44871005  1
  Pr3+  Pr26  1  -0.00305341  0.63025132  0.06201002  1
  Pr3+  Pr27  1  0.13619107  0.00734303  0.42105182  1
  Pr3+  Pr28  1  0.61959171  0.75483450  0.93707396  1
  Pr3+  Pr29  1  0.24805308  0.38274441  0.07019212  1
  Pr3+  Pr30  1  0.62158934  0.00823515  0.94467104  1
  Pr3+  Pr31  1  0.50444991  0.38130230  0.05544317  1
  Pr3+  Pr32  1  0.61847110  0.50895729  0.92599721  1
  Pr3+  Pr33  1  0.01688009  0.88047042  0.54827313  1
  Pr3+  Pr34  1  0.01799737  0.37665277  0.56636105  1
  Pr3+  Pr35  1  0.37449126  0.50462410  0.94338154  1
  Pr3+  Pr36  1  0.12864679  0.50636039  0.93663025  1
  Pr3+  Pr37  1  -0.00425208  0.13297818  0.06178448  1
  Pr3+  Pr38  1  0.26446325  0.37731355  0.55447487  1
  Nd3+  Nd39  1  0.64057334  0.50304262  0.44612537  1
  Nd3+  Nd40  1  0.13704777  0.50176187  0.43236644  1
  Nd3+  Nd41  1  0.64054359  0.24994748  0.44222363  1
  Nd3+  Nd42  1  0.88477404  0.25101391  0.45252915  1
  Nd3+  Nd43  1  0.51311985  0.12612910  0.55718756  1
  Nd3+  Nd44  1  0.24749472  0.88319751  0.06823143  1
  Nd3+  Nd45  1  0.37313503  0.75665012  0.94931001  1
  Nd3+  Nd46  1  -0.00118085  0.88218576  0.05758328  1
  Nd3+  Nd47  1  0.88797379  0.00727450  0.43450116  1
  Nd3+  Nd48  1  0.38784018  0.74929316  0.43598309  1
  Nd3+  Nd49  1  0.76688323  0.63153630  0.56897497  1
  Nd3+  Nd50  1  0.13396892  0.25568091  0.43024068  1
  Nd3+  Nd51  1  0.02087191  0.12550957  0.56342161  1
  Sm3+  Sm52  1  0.37220775  0.25292396  0.94705473  1
  Sm3+  Sm53  1  0.51456997  0.37716280  0.55637008  1
  Sm3+  Sm54  1  0.74949454  0.38396110  0.03956086  1
  Sm3+  Sm55  1  0.12513025  0.75638942  0.94836677  1
  Sm3+  Sm56  1  0.76385774  0.87883767  0.55266960  1
  Sm3+  Sm57  1  0.74756384  0.88006011  0.05454040  1
  Sm3+  Sm58  1  0.13968215  0.74708746  0.43415854  1
  Sm3+  Sm59  1  -0.00363827  0.38450039  0.04864887  1
  Sm3+  Sm60  1  0.74768795  0.62854705  0.05541110  1
  Sm3+  Sm61  1  0.87406227  0.75432631  0.94553412  1
  Sm3+  Sm62  1  0.12569676  0.25672620  0.94091115  1
  Sm3+  Sm63  1  0.26522255  0.12584801  0.54912273  1
  Bi2+  Bi64  1  -0.05792522  0.08901555  0.29177664  1
  Bi2+  Bi65  1  0.02112848  0.07731570  0.79920466  1
  Bi2+  Bi66  1  -0.02569232  0.41921603  0.28674406  1
  Bi2+  Bi67  1  0.10195504  0.36173802  0.80496302  1
  Bi2+  Bi68  1  -0.05135615  0.69427531  0.30816529  1
  Bi2+  Bi69  1  0.02305800  0.65935318  0.79365660  1
  Bi2+  Bi70  1  0.00502609  0.87907429  0.28671544  1
  Bi2+  Bi71  1  -0.00383602  0.84551865  0.75573568  1
  Bi2+  Bi72  1  0.23581398  0.10880613  0.29550276  1
  Bi2+  Bi73  1  0.25528636  0.11204268  0.78875440  1
  Bi2+  Bi74  1  0.23142983  0.35086724  0.28962787  1
  Bi2+  Bi75  1  0.28101487  0.38061260  0.84588388  1
  Bi2+  Bi76  1  0.20547383  0.54472366  0.27958337  1
  Bi2+  Bi77  1  0.23490605  0.56693459  0.81226560  1
  Bi2+  Bi78  1  0.17594181  0.78818937  0.30469179  1
  Bi2+  Bi79  1  0.24177375  0.91340303  0.79558596  1
  Bi2+  Bi80  1  0.50226593  0.14220234  0.28758487  1
  Bi2+  Bi81  1  0.47782224  0.10016617  0.80605916  1
  Bi2+  Bi82  1  0.48332966  0.41810715  0.27194761  1
  Bi2+  Bi83  1  0.46582882  0.42170352  0.77532747  1
  Bi2+  Bi84  1  0.48488019  0.62925420  0.30395295  1
  Bi2+  Bi85  1  0.49280547  0.64792146  0.79609707  1
  Bi2+  Bi86  1  0.54188937  0.91192042  0.26827821  1
  Bi2+  Bi87  1  0.52352167  0.91235886  0.78615743  1
  Bi2+  Bi88  1  0.73808884  0.13977731  0.31751120  1
  Bi2+  Bi89  1  0.75966038  0.14401480  0.79448708  1
  Bi2+  Bi90  1  0.75011716  0.38516839  0.29131000  1
  Bi2+  Bi91  1  0.75033094  0.38088508  0.76900308  1
  Bi2+  Bi92  1  0.75393359  0.60988281  0.29245538  1
  Bi2+  Bi93  1  0.75524530  0.62595987  0.78763317  1
  Bi2+  Bi94  1  0.84261106  0.88466081  0.21675206  1
  Bi2+  Bi95  1  0.72612086  0.89830304  0.78179845  1
  Bi2+  Bi96  1  0.10423500  -0.01806417  0.19643147  1
  Bi2+  Bi97  1  0.12864957  0.00187357  0.67621780  1
  Bi2+  Bi98  1  0.05239876  0.26567645  0.23135824  1
  Bi2+  Bi99  1  0.16267101  0.25213159  0.71358896  1
  Bi2+  Bi100  1  0.14680992  0.42604310  0.19076525  1
  Bi2+  Bi101  1  0.12265831  0.49343907  0.70366079  1
  Bi2+  Bi102  1  0.07860230  0.70962171  0.21886132  1
  Bi2+  Bi103  1  0.18693498  0.73512172  0.74805408  1
  Bi2+  Bi104  1  0.36473668  -0.03126808  0.20663341  1
  Bi2+  Bi105  1  0.36848970  -0.03143185  0.71443223  1
  Bi2+  Bi106  1  0.37404910  0.27721827  0.21686279  1
  Bi2+  Bi107  1  0.35675167  0.26531294  0.75714009  1
  Bi2+  Bi108  1  0.33736329  0.48143209  0.20339783  1
  Bi2+  Bi109  1  0.31961206  0.50902373  0.71455609  1
  Bi2+  Bi110  1  0.33319931  0.72897336  0.22747295  1
  Bi2+  Bi111  1  0.37885191  0.77817899  0.74320517  1
  Bi2+  Bi112  1  0.70813929  0.02809031  0.21612712  1
  Bi2+  Bi113  1  0.62812764  0.00357410  0.70251606  1
  Bi2+  Bi114  1  0.64000500  0.29130234  0.20731021  1
  Bi2+  Bi115  1  0.59949869  0.24103868  0.70570624  1
  Bi2+  Bi116  1  0.63998586  0.49077096  0.21527412  1
  Bi2+  Bi117  1  0.56948944  0.51097671  0.69511061  1
  Bi2+  Bi118  1  0.60357803  0.74643061  0.19956284  1
  Bi2+  Bi119  1  0.62850925  0.78032920  0.70340540  1
  Bi2+  Bi120  1  0.87930178  0.08316669  0.17667359  1
  Bi2+  Bi121  1  0.89120439  -0.01415245  0.70685753  1
  Bi2+  Bi122  1  0.85459576  0.26313807  0.22050170  1
  Bi2+  Bi123  1  0.97587289  0.24327428  0.75241706  1
  Bi2+  Bi124  1  0.86501536  0.46682871  0.19438091  1
  Bi2+  Bi125  1  0.88720904  0.51300411  0.69417089  1
  Bi2+  Bi126  1  0.85993632  0.66608366  0.20296855  1
  Bi2+  Bi127  1  0.82548738  0.77181808  0.71435759  1
  S2-  S128  1  0.07776984  0.12950885  0.14950461  1
  S2-  S129  1  -0.01934990  0.10538165  0.65998087  1
  S2-  S130  1  -0.00272013  0.35951952  0.14605553  1
  S2-  S131  1  -0.01153803  0.38942407  0.66519458  1
  S2-  S132  1  0.00628129  0.59610050  0.16003899  1
  S2-  S133  1  -0.10681760  0.64956820  0.64276192  1
  S2-  S134  1  -0.00862635  0.87036526  0.15618946  1
  S2-  S135  1  0.01242437  0.87259113  0.64920493  1
  S2-  S136  1  0.24798565  0.07635930  0.19093123  1
  S2-  S137  1  0.21550002  0.12732548  0.64341202  1
  S2-  S138  1  0.25198432  0.27819801  0.15048896  1
  S2-  S139  1  0.23241341  0.38214218  0.65326202  1
  S2-  S140  1  0.24022880  0.64789575  0.16369387  1
  S2-  S141  1  0.14713976  0.62728092  0.64142209  1
  S2-  S142  1  0.23389342  0.87256983  0.16785179  1
  S2-  S143  1  0.25026086  0.89995570  0.64418130  1
  S2-  S144  1  0.44874802  0.10937785  0.18772149  1
  S2-  S145  1  0.51958804  0.11666002  0.65721355  1
  S2-  S146  1  0.50502074  0.30444893  0.14531254  1
  S2-  S147  1  0.50744350  0.36256092  0.65406640  1
  S2-  S148  1  0.45712105  0.66543975  0.17614082  1
  S2-  S149  1  0.42894725  0.59872916  0.66013306  1
  S2-  S150  1  0.50116699  0.87556630  0.16342171  1
  S2-  S151  1  0.52006651  0.81229514  0.63369970  1
  S2-  S152  1  0.65140253  0.14391590  0.14876760  1
  S2-  S153  1  0.74229528  0.19295566  0.67482712  1
  S2-  S154  1  0.73323146  0.39337272  0.13859974  1
  S2-  S155  1  0.74960801  0.42816092  0.66462067  1
  S2-  S156  1  0.65346528  0.62147504  0.13831857  1
  S2-  S157  1  0.65236708  0.63123297  0.64644341  1
  S2-  S158  1  0.71831326  0.85222659  0.15058588  1
  S2-  S159  1  0.76472527  0.97072380  0.63836889  1
  S2-  S160  1  0.19305843  -0.03723629  0.32676236  1
  S2-  S161  1  0.08322360  -0.06279527  0.84084112  1
  S2-  S162  1  0.11077225  0.14403273  0.35170058  1
  S2-  S163  1  0.13939224  0.15004326  0.86296175  1
  S2-  S164  1  0.10783695  0.38121328  0.35872235  1
  S2-  S165  1  0.03766929  0.52063791  0.85166628  1
  S2-  S166  1  0.14265026  0.62678226  0.36060238  1
  S2-  S167  1  0.15678603  0.71610098  0.85467072  1
  S2-  S168  1  0.39841249  -0.04139999  0.31210656  1
  S2-  S169  1  0.34245032  0.01260628  0.86359803  1
  S2-  S170  1  0.38024352  0.16422086  0.35042065  1
  S2-  S171  1  0.45948095  0.22953361  0.86234391  1
  S2-  S172  1  0.39981462  0.50012541  0.34855358  1
  S2-  S173  1  0.47743985  0.51836471  0.86104139  1
  S2-  S174  1  0.36909419  0.72836065  0.33585111  1
  S2-  S175  1  0.39843656  0.75188812  0.85082082  1
  S2-  S176  1  0.59728353  0.02464662  0.34250341  1
  S2-  S177  1  0.63329957  0.09123099  0.85655733  1
  S2-  S178  1  0.59856398  0.24814393  0.34427844  1
  S2-  S179  1  0.64891820  0.27767218  0.81174765  1
  S2-  S180  1  0.62913437  0.58576059  0.35929783  1
  S2-  S181  1  0.68464809  0.49956640  0.83075513  1
  S2-  S182  1  0.59095401  0.77730198  0.31211978  1
  S2-  S183  1  0.63117736  0.71039077  0.84027869  1
  S2-  S184  1  0.82438410  -0.00176914  0.34193212  1
  S2-  S185  1  0.86620179  0.04154748  0.84454846  1
  S2-  S186  1  0.87601007  0.21641728  0.35432619  1
  S2-  S187  1  0.86609749  0.26346735  0.83351429  1
  S2-  S188  1  0.85879683  0.48489161  0.35190745  1
  S2-  S189  1  0.86722252  0.48597437  0.79693763  1
  S2-  S190  1  0.79464993  0.74634475  0.35441986  1
  S2-  S191  1  0.87921993  0.68343983  0.85653096  1
  S2-  S192  1  0.01048508  0.12888596  0.45638242  1
  S2-  S193  1  -0.00221797  0.13284651  0.95471280  1
  S2-  S194  1  0.00824971  0.37468508  0.46010305  1
  S2-  S195  1  -0.00106494  0.37994766  0.94464957  1
  S2-  S196  1  0.01193091  0.62588071  0.45901374  1
  S2-  S197  1  0.00175622  0.63497072  0.95678775  1
  S2-  S198  1  0.01472713  0.87595756  0.44003857  1
  S2-  S199  1  -0.00172247  0.87679103  0.95162031  1
  S2-  S200  1  0.26322362  0.12886602  0.44726238  1
  S2-  S201  1  0.24952545  0.13610321  0.96889687  1
  S2-  S202  1  0.26619194  0.37747112  0.44809630  1
  S2-  S203  1  0.24900152  0.37837056  0.96317889  1
  S2-  S204  1  0.26475024  0.62650534  0.45929213  1
  S2-  S205  1  0.25068107  0.63138436  0.95991280  1
  S2-  S206  1  0.26335882  0.87609633  0.44009706  1
  S2-  S207  1  0.24769892  0.88010712  0.95994410  1
  S2-  S208  1  0.51397050  0.12795317  0.45171198  1
  S2-  S209  1  0.49814471  0.12945376  0.96992087  1
  S2-  S210  1  0.51618210  0.37765042  0.45091206  1
  S2-  S211  1  0.49899921  0.37661447  0.95104102  1
  S2-  S212  1  0.51389711  0.63112482  0.46061318  1
  S2-  S213  1  0.49722501  0.63413981  0.96453919  1
  S2-  S214  1  0.51230881  0.87577205  0.43779238  1
  S2-  S215  1  0.49724106  0.88259248  0.95624671  1
  S2-  S216  1  0.76246247  0.12598651  0.46321684  1
  S2-  S217  1  0.75194778  0.13113303  0.95680635  1
  S2-  S218  1  0.76098052  0.37601415  0.46049129  1
  S2-  S219  1  0.75039548  0.38265456  0.93584283  1
  S2-  S220  1  0.76589198  0.62572619  0.46152427  1
  S2-  S221  1  0.74860131  0.63109601  0.95177725  1
  S2-  S222  1  0.76527459  0.88024651  0.44979362  1
  S2-  S223  1  0.74924030  0.87914165  0.94795003  1
  S2-  S224  1  0.12287525  0.00469059  0.04520252  1
  S2-  S225  1  0.14040219  0.00600307  0.53141900  1
  S2-  S226  1  0.11856636  0.26091902  0.04451087  1
  S2-  S227  1  0.14067146  0.25075991  0.54117635  1
  S2-  S228  1  0.12304223  0.50591120  0.04613254  1
  S2-  S229  1  0.13966579  0.49971363  0.54053098  1
  S2-  S230  1  0.12360559  0.75652566  0.05357948  1
  S2-  S231  1  0.14151416  0.75496357  0.53829134  1
  S2-  S232  1  0.37208156  0.01052554  0.06572988  1
  S2-  S233  1  0.38905678  0.00416379  0.53621177  1
  S2-  S234  1  0.37354226  0.25699080  0.05015319  1
  S2-  S235  1  0.38937046  0.25109628  0.54538489  1
  S2-  S236  1  0.37690712  0.50637646  0.05309074  1
  S2-  S237  1  0.39131883  0.50098092  0.55065790  1
  S2-  S238  1  0.37382211  0.75792874  0.05641829  1
  S2-  S239  1  0.38300933  0.75372305  0.54296049  1
  S2-  S240  1  0.62583051  0.00425946  0.05146264  1
  S2-  S241  1  0.63571744  0.00110011  0.54248611  1
  S2-  S242  1  0.62977841  0.26002287  0.03619975  1
  S2-  S243  1  0.63774546  0.25137969  0.55011242  1
  S2-  S244  1  0.62615621  0.50551701  0.03520482  1
  S2-  S245  1  0.63702879  0.49973656  0.55002544  1
  S2-  S246  1  0.62513024  0.75871816  0.04333816  1
  S2-  S247  1  0.64621385  0.75799868  0.53570753  1
  S2-  S248  1  0.87146289  0.00222496  0.04668594  1
  S2-  S249  1  0.89241288  0.00431099  0.54179377  1
  S2-  S250  1  0.87394004  0.26081833  0.04224686  1
  S2-  S251  1  0.88985861  0.24929858  0.55912900  1
  S2-  S252  1  0.87197728  0.50781211  0.04364502  1
  S2-  S253  1  0.88889015  0.49896797  0.55269535  1
  S2-  S254  1  0.87010193  0.75568467  0.05055849  1
  S2-  S255  1  0.88918737  0.76012347  0.54196848  1
