# generated using pymatgen
data_La12Ce14Pr13Nd13Sm12(BiS2)64
_symmetry_space_group_name_H-M   'P 1'
_cell_length_a   16.10833250
_cell_length_b   16.09937067
_cell_length_c   27.53812939
_cell_angle_alpha   89.83455910
_cell_angle_beta   89.73819923
_cell_angle_gamma   89.97437611
_symmetry_Int_Tables_number   1
_chemical_formula_structural   La12Ce14Pr13Nd13Sm12(BiS2)64
_chemical_formula_sum   'La12 Ce14 Pr13 Nd13 Sm12 Bi64 S128'
_cell_volume   7141.46868600
_cell_formula_units_Z   1
loop_
 _symmetry_equiv_pos_site_id
 _symmetry_equiv_pos_as_xyz
  1  'x, y, z'
loop_
 _atom_type_symbol
 _atom_type_oxidation_number
  La3+  3.0
  Ce3+  3.0
  Pr3+  3.0
  Nd3+  3.0
  Sm3+  3.0
  Bi2+  2.0
  S2-  -2.0
loop_
 _atom_site_type_symbol
 _atom_site_label
 _atom_site_symmetry_multiplicity
 _atom_site_fract_x
 _atom_site_fract_y
 _atom_site_fract_z
 _atom_site_occupancy
  La3+  La0  1  0.62537845  0.51460070  0.43887359  1
  La3+  La1  1  0.87414718  0.00339071  0.44005528  1
  La3+  La2  1  0.49363937  0.87920257  0.55940121  1
  La3+  La3  1  0.00248898  0.13000122  0.58366613  1
  La3+  La4  1  0.36335052  0.48590656  0.91984341  1
  La3+  La5  1  0.37295017  0.01627263  0.42240380  1
  La3+  La6  1  0.51371970  0.63846639  0.61507401  1
  La3+  La7  1  0.62350287  0.01349049  0.43482265  1
  La3+  La8  1  0.87419699  0.72374872  0.38073243  1
  La3+  La9  1  0.87047279  0.26273612  0.88443957  1
  La3+  La10  1  0.23267480  0.85170385  0.07572697  1
  La3+  La11  1  0.74265180  0.38417800  0.56520439  1
  Ce3+  Ce12  1  0.36504822  0.73399517  0.95189922  1
  Ce3+  Ce13  1  0.11775714  0.75973169  0.43840631  1
  Ce3+  Ce14  1  0.12057222  0.25773993  0.44952590  1
  Ce3+  Ce15  1  0.86637969  0.48796380  0.94222255  1
  Ce3+  Ce16  1  0.49566078  0.13375393  0.56302880  1
  Ce3+  Ce17  1  0.87229467  0.24876851  0.44887556  1
  Ce3+  Ce18  1  0.12091801  0.01281589  0.44264244  1
  Ce3+  Ce19  1  0.49019843  0.86151588  0.07036614  1
  Ce3+  Ce20  1  0.37029167  -0.02182945  0.94200971  1
  Ce3+  Ce21  1  0.23692638  0.60567488  0.06257173  1
  Ce3+  Ce22  1  0.74561169  0.63802235  0.55655078  1
  Ce3+  Ce23  1  0.74107945  0.60858029  0.05753387  1
  Ce3+  Ce24  1  0.85868112  -0.00606264  0.92227128  1
  Ce3+  Ce25  1  0.87447598  0.50688709  0.45068454  1
  Pr3+  Pr26  1  0.62132019  0.48347673  0.93765982  1
  Pr3+  Pr27  1  0.74037480  0.12252351  0.58347602  1
  Pr3+  Pr28  1  0.24899234  0.88255099  0.54876479  1
  Pr3+  Pr29  1  -0.00158888  0.88408006  0.56739686  1
  Pr3+  Pr30  1  0.00042226  0.63411697  0.56975580  1
  Pr3+  Pr31  1  -0.00332648  0.38074710  0.56321277  1
  Pr3+  Pr32  1  0.74521474  0.88094320  0.56116081  1
  Pr3+  Pr33  1  0.86245163  0.74161175  0.92400404  1
  Pr3+  Pr34  1  0.36346265  0.23501571  0.92809530  1
  Pr3+  Pr35  1  0.48872342  0.60152743  0.06058728  1
  Pr3+  Pr36  1  0.74156466  0.86114536  0.05940530  1
  Pr3+  Pr37  1  0.11805600  0.51044720  0.44157194  1
  Pr3+  Pr38  1  0.37285903  0.26370479  0.43762152  1
  Nd3+  Nd39  1  0.24151262  0.36272417  0.06170588  1
  Nd3+  Nd40  1  0.24834349  0.63282930  0.56712232  1
  Nd3+  Nd41  1  0.73986234  0.10741695  0.05577633  1
  Nd3+  Nd42  1  -0.01263048  0.35620520  0.05636116  1
  Nd3+  Nd43  1  0.37021173  0.50863944  0.43570824  1
  Nd3+  Nd44  1  0.11763828  -0.02390322  0.92743223  1
  Nd3+  Nd45  1  0.11723932  0.73408475  0.93474953  1
  Nd3+  Nd46  1  0.62014929  0.23373649  0.93428705  1
  Nd3+  Nd47  1  0.24856771  0.38583903  0.56671595  1
  Nd3+  Nd48  1  0.61164969  -0.01520266  0.93279707  1
  Nd3+  Nd49  1  0.11330584  0.23113056  0.93790244  1
  Nd3+  Nd50  1  0.24000364  0.10665877  0.05275314  1
  Nd3+  Nd51  1  -0.00934972  0.10688380  0.05403244  1
  Sm3+  Sm52  1  0.49020255  0.35767189  0.04811889  1
  Sm3+  Sm53  1  0.61492896  0.73677026  0.94882147  1
  Sm3+  Sm54  1  0.11388262  0.48225075  0.94395140  1
  Sm3+  Sm55  1  0.37244069  0.75643957  0.43934701  1
  Sm3+  Sm56  1  0.48846146  0.10947120  0.05602630  1
  Sm3+  Sm57  1  -0.01308172  0.60898685  0.05061649  1
  Sm3+  Sm58  1  0.49312887  0.39234191  0.55999927  1
  Sm3+  Sm59  1  0.25227666  0.13234782  0.56173191  1
  Sm3+  Sm60  1  0.62581158  0.76882864  0.43122604  1
  Sm3+  Sm61  1  0.74130612  0.35565283  0.05747687  1
  Sm3+  Sm62  1  -0.01368243  0.85908544  0.05130802  1
  Sm3+  Sm63  1  0.62522345  0.25669779  0.44400517  1
  Bi2+  Bi64  1  0.02614571  0.09905699  0.30880294  1
  Bi2+  Bi65  1  0.00647199  0.13981590  0.77770182  1
  Bi2+  Bi66  1  0.01788857  0.33452101  0.29511180  1
  Bi2+  Bi67  1  -0.00283330  0.48796169  0.78762574  1
  Bi2+  Bi68  1  0.03112673  0.53145614  0.28913443  1
  Bi2+  Bi69  1  -0.03261486  0.68308102  0.80823839  1
  Bi2+  Bi70  1  -0.00903813  0.85838733  0.28523305  1
  Bi2+  Bi71  1  0.02187061  0.88985572  0.79279653  1
  Bi2+  Bi72  1  0.23063842  0.15496184  0.25374564  1
  Bi2+  Bi73  1  0.28855537  0.16447258  0.80650615  1
  Bi2+  Bi74  1  0.30804465  0.33486402  0.27421874  1
  Bi2+  Bi75  1  0.18462206  0.33085531  0.80108776  1
  Bi2+  Bi76  1  0.26212560  0.59860822  0.28950560  1
  Bi2+  Bi77  1  0.24942423  0.73962641  0.79589756  1
  Bi2+  Bi78  1  0.19204699  0.89645660  0.25981575  1
  Bi2+  Bi79  1  0.30227543  0.97738973  0.77043910  1
  Bi2+  Bi80  1  0.49333968  0.08479168  0.30326673  1
  Bi2+  Bi81  1  0.48839961  0.17189609  0.81073149  1
  Bi2+  Bi82  1  0.52043201  0.39403948  0.29744751  1
  Bi2+  Bi83  1  0.47161871  0.36574268  0.78641568  1
  Bi2+  Bi84  1  0.45051670  0.60267788  0.32215833  1
  Bi2+  Bi85  1  0.48982128  0.65010380  0.82075456  1
  Bi2+  Bi86  1  0.45413307  0.81731305  0.29019977  1
  Bi2+  Bi87  1  0.47940329  0.88910000  0.78221728  1
  Bi2+  Bi88  1  0.83361866  0.03607612  0.28600619  1
  Bi2+  Bi89  1  0.75849954  0.13850579  0.77392557  1
  Bi2+  Bi90  1  0.82209715  0.30194967  0.32081200  1
  Bi2+  Bi91  1  0.71059284  0.40851867  0.79613777  1
  Bi2+  Bi92  1  0.78286718  0.47844488  0.27725587  1
  Bi2+  Bi93  1  0.77392771  0.67313923  0.79606092  1
  Bi2+  Bi94  1  0.71590657  0.84486071  0.28657807  1
  Bi2+  Bi95  1  0.72646885  0.87501172  0.79764814  1
  Bi2+  Bi96  1  0.11818276  0.03522131  0.19594316  1
  Bi2+  Bi97  1  0.15764665  0.00731905  0.69833311  1
  Bi2+  Bi98  1  0.15335859  0.31710596  0.20601090  1
  Bi2+  Bi99  1  0.12776602  0.31028345  0.69458596  1
  Bi2+  Bi100  1  0.14705771  0.52344450  0.19878091  1
  Bi2+  Bi101  1  0.13489375  0.61213359  0.74482780  1
  Bi2+  Bi102  1  0.13880246  0.71770885  0.22948798  1
  Bi2+  Bi103  1  0.11295961  0.79151581  0.69809239  1
  Bi2+  Bi104  1  0.38592395  0.00857475  0.19360669  1
  Bi2+  Bi105  1  0.38824719  0.05775457  0.67445548  1
  Bi2+  Bi106  1  0.46476038  0.24109423  0.22793215  1
  Bi2+  Bi107  1  0.37761191  0.24306506  0.71059495  1
  Bi2+  Bi108  1  0.41672985  0.48092176  0.19454062  1
  Bi2+  Bi109  1  0.36771435  0.51983451  0.71597054  1
  Bi2+  Bi110  1  0.41339140  0.67565720  0.21186243  1
  Bi2+  Bi111  1  0.37163967  0.78936622  0.70654931  1
  Bi2+  Bi112  1  0.61853919  0.01982092  0.20538104  1
  Bi2+  Bi113  1  0.55704162  0.04202703  0.72951464  1
  Bi2+  Bi114  1  0.64469836  0.23913175  0.27880497  1
  Bi2+  Bi115  1  0.57785670  0.26234162  0.71343260  1
  Bi2+  Bi116  1  0.63866306  0.44741344  0.20006385  1
  Bi2+  Bi117  1  0.62930401  0.50621102  0.71352789  1
  Bi2+  Bi118  1  0.59554231  0.68722863  0.26364056  1
  Bi2+  Bi119  1  0.73132953  0.80539378  0.69184804  1
  Bi2+  Bi120  1  0.86679334  -0.03213551  0.17943347  1
  Bi2+  Bi121  1  0.87839348  -0.06149139  0.71487779  1
  Bi2+  Bi122  1  0.90777147  0.19913356  0.23577427  1
  Bi2+  Bi123  1  0.86947284  0.31752208  0.68802432  1
  Bi2+  Bi124  1  0.88757719  0.46783785  0.18378258  1
  Bi2+  Bi125  1  0.87612555  0.57907571  0.71608639  1
  Bi2+  Bi126  1  0.87731111  0.72533793  0.17744441  1
  Bi2+  Bi127  1  0.92237172  0.75628307  0.67133901  1
  S2-  S128  1  -0.01661701  0.10640095  0.15408578  1
  S2-  S129  1  -0.00168658  0.20370605  0.67735912  1
  S2-  S130  1  0.00050622  0.35826825  0.15434202  1
  S2-  S131  1  0.01334568  0.41740743  0.66053070  1
  S2-  S132  1  -0.00973748  0.60270445  0.14801994  1
  S2-  S133  1  0.12467656  0.63860725  0.64251007  1
  S2-  S134  1  -0.00985582  0.85674778  0.14948113  1
  S2-  S135  1  0.00424436  0.98998817  0.64922003  1
  S2-  S136  1  0.26372281  0.11824294  0.15043182  1
  S2-  S137  1  0.18703798  0.14865597  0.65251319  1
  S2-  S138  1  0.27169060  0.48224559  0.13295502  1
  S2-  S139  1  0.25785440  0.42405856  0.66343879  1
  S2-  S140  1  0.20645583  0.70806846  0.13933870  1
  S2-  S141  1  0.34514077  0.63905657  0.65128691  1
  S2-  S142  1  0.28363726  0.89754225  0.16925677  1
  S2-  S143  1  0.24728691  0.87348316  0.64853130  1
  S2-  S144  1  0.51064723  0.12053472  0.15263373  1
  S2-  S145  1  0.59284057  0.13962841  0.64378187  1
  S2-  S146  1  0.50484197  0.36056985  0.14531717  1
  S2-  S147  1  0.49247330  0.46693864  0.64897991  1
  S2-  S148  1  0.54268530  0.58662342  0.15522680  1
  S2-  S149  1  0.51383193  0.63120842  0.72682226  1
  S2-  S150  1  0.51105986  0.89629161  0.16548669  1
  S2-  S151  1  0.50654365  0.80767867  0.65000661  1
  S2-  S152  1  0.73688397  0.08708887  0.15532486  1
  S2-  S153  1  0.79548825  0.16850767  0.67886121  1
  S2-  S154  1  0.75437129  0.35734930  0.15550146  1
  S2-  S155  1  0.71075317  0.37780766  0.66345607  1
  S2-  S156  1  0.77126592  0.60417427  0.15329624  1
  S2-  S157  1  0.68356081  0.62671267  0.64784775  1
  S2-  S158  1  0.75303247  0.84954233  0.15964772  1
  S2-  S159  1  0.74141820  0.96496129  0.64926956  1
  S2-  S160  1  0.12726919  -0.02225597  0.34691795  1
  S2-  S161  1  0.08740116  0.03648220  0.83267476  1
  S2-  S162  1  0.11680462  0.23073184  0.35404620  1
  S2-  S163  1  0.04423071  0.25845495  0.84860842  1
  S2-  S164  1  0.16375953  0.48971587  0.34577055  1
  S2-  S165  1  0.13815451  0.48111780  0.84820096  1
  S2-  S166  1  0.04657667  0.74429422  0.35067764  1
  S2-  S167  1  0.14586871  0.83942027  0.85725430  1
  S2-  S168  1  0.38613360  -0.04652671  0.32507689  1
  S2-  S169  1  0.47689645  -0.01805145  0.86583417  1
  S2-  S170  1  0.37558689  0.15475269  0.35707041  1
  S2-  S171  1  0.34155626  0.35403725  0.85336887  1
  S2-  S172  1  0.37432013  0.38808134  0.36263155  1
  S2-  S173  1  0.35495486  0.56583210  0.82787647  1
  S2-  S174  1  0.32644666  0.74016150  0.34495116  1
  S2-  S175  1  0.38474842  0.77755405  0.85844236  1
  S2-  S176  1  0.62168674  -0.09707319  0.35330811  1
  S2-  S177  1  0.69696339  0.01542461  0.84586215  1
  S2-  S178  1  0.62769863  0.15043377  0.36493620  1
  S2-  S179  1  0.69904466  0.25740764  0.84588423  1
  S2-  S180  1  0.65241362  0.46907501  0.34375227  1
  S2-  S181  1  0.58606259  0.49767506  0.84035985  1
  S2-  S182  1  0.70199086  0.71035400  0.34794270  1
  S2-  S183  1  0.63407058  0.74610691  0.85199356  1
  S2-  S184  1  0.87313642  -0.09951294  0.35424978  1
  S2-  S185  1  0.88117989  0.10030566  0.84371331  1
  S2-  S186  1  0.87147736  0.14023106  0.37157938  1
  S2-  S187  1  0.87466345  0.26596159  0.77735919  1
  S2-  S188  1  0.89345210  0.55032755  0.35714885  1
  S2-  S189  1  0.85842158  0.43621354  0.85076120  1
  S2-  S190  1  0.87157688  0.73775621  0.27235387  1
  S2-  S191  1  0.87460034  0.87023769  0.85348314  1
  S2-  S192  1  0.00064650  0.13298971  0.46989791  1
  S2-  S193  1  -0.00223305  0.10257101  0.95110731  1
  S2-  S194  1  -0.00512159  0.38050964  0.45589473  1
  S2-  S195  1  -0.01065385  0.35933299  0.95190600  1
  S2-  S196  1  -0.00564365  0.63529029  0.46116045  1
  S2-  S197  1  -0.00861565  0.61130425  0.94609782  1
  S2-  S198  1  0.00458056  0.88674937  0.46125513  1
  S2-  S199  1  -0.00846273  0.85861792  0.95005544  1
  S2-  S200  1  0.24649398  0.13584064  0.45807968  1
  S2-  S201  1  0.24133258  0.10554390  0.94719462  1
  S2-  S202  1  0.24320508  0.38419544  0.46023997  1
  S2-  S203  1  0.23544814  0.35779136  0.95722048  1
  S2-  S204  1  0.24610852  0.63297245  0.45347238  1
  S2-  S205  1  0.23802902  0.60827593  0.95317500  1
  S2-  S206  1  0.24934541  0.88379103  0.44431753  1
  S2-  S207  1  0.24259137  0.85882760  0.96487156  1
  S2-  S208  1  0.49631308  0.13820609  0.46036339  1
  S2-  S209  1  0.48981136  0.11587559  0.95468545  1
  S2-  S210  1  0.50359702  0.38430893  0.45701313  1
  S2-  S211  1  0.49405335  0.35793715  0.94493705  1
  S2-  S212  1  0.49859755  0.63745286  0.44050331  1
  S2-  S213  1  0.49380853  0.60938974  0.95347414  1
  S2-  S214  1  0.49148709  0.88251511  0.45089327  1
  S2-  S215  1  0.49217770  0.85579893  0.96492087  1
  S2-  S216  1  0.74482319  0.13534608  0.47209281  1
  S2-  S217  1  0.73608328  0.11005266  0.95328853  1
  S2-  S218  1  0.74888835  0.38074061  0.45788681  1
  S2-  S219  1  0.74619325  0.35685158  0.95384084  1
  S2-  S220  1  0.75459211  0.63734008  0.45350539  1
  S2-  S221  1  0.74159752  0.61379060  0.95015186  1
  S2-  S222  1  0.74483785  0.88464941  0.45698897  1
  S2-  S223  1  0.73662598  0.86109895  0.95391241  1
  S2-  S224  1  0.11460942  -0.01910587  0.04415092  1
  S2-  S225  1  0.12876108  0.01081338  0.54737827  1
  S2-  S226  1  0.11798231  0.23493189  0.04602843  1
  S2-  S227  1  0.12543982  0.25877840  0.55308466  1
  S2-  S228  1  0.11016588  0.48288871  0.04643448  1
  S2-  S229  1  0.12209627  0.50516618  0.54708250  1
  S2-  S230  1  0.10586627  0.73270192  0.03838749  1
  S2-  S231  1  0.12272123  0.75944625  0.54296651  1
  S2-  S232  1  0.36567839  -0.01593072  0.04835462  1
  S2-  S233  1  0.37164547  0.01001416  0.53782669  1
  S2-  S234  1  0.36500083  0.23549044  0.04123129  1
  S2-  S235  1  0.37308152  0.26188934  0.55107850  1
  S2-  S236  1  0.36936154  0.47968264  0.03052753  1
  S2-  S237  1  0.36920869  0.50805510  0.54025510  1
  S2-  S238  1  0.36893099  0.73178452  0.05671739  1
  S2-  S239  1  0.37097480  0.75378227  0.54192841  1
  S2-  S240  1  0.61208068  -0.01423372  0.04425499  1
  S2-  S241  1  0.61618357  0.00597703  0.54423367  1
  S2-  S242  1  0.61458682  0.23404134  0.04351414  1
  S2-  S243  1  0.61514033  0.26498492  0.54742147  1
  S2-  S244  1  0.61832915  0.47889009  0.04333818  1
  S2-  S245  1  0.61828464  0.51290990  0.54567477  1
  S2-  S246  1  0.61413231  0.73310742  0.05325810  1
  S2-  S247  1  0.61889323  0.75583341  0.53917168  1
  S2-  S248  1  0.86588867  -0.01549064  0.03885374  1
  S2-  S249  1  0.87201804  0.00852025  0.54949950  1
  S2-  S250  1  0.86427809  0.23132277  0.05432130  1
  S2-  S251  1  0.86986605  0.25514093  0.55650382  1
  S2-  S252  1  0.86420969  0.48209774  0.04554530  1
  S2-  S253  1  0.87202711  0.51000687  0.55629690  1
  S2-  S254  1  0.86518277  0.73435362  0.03639531  1
  S2-  S255  1  0.87342011  0.75825604  0.55548407  1
