# generated using pymatgen
data_La12Ce14Pr13Nd13Sm12(BiS2)64
_symmetry_space_group_name_H-M   'P 1'
_cell_length_a   16.15557646
_cell_length_b   16.18783123
_cell_length_c   27.20764025
_cell_angle_alpha   90.14680044
_cell_angle_beta   90.23535463
_cell_angle_gamma   90.06641558
_symmetry_Int_Tables_number   1
_chemical_formula_structural   La12Ce14Pr13Nd13Sm12(BiS2)64
_chemical_formula_sum   'La12 Ce14 Pr13 Nd13 Sm12 Bi64 S128'
_cell_volume   7115.35572032
_cell_formula_units_Z   1
loop_
 _symmetry_equiv_pos_site_id
 _symmetry_equiv_pos_as_xyz
  1  'x, y, z'
loop_
 _atom_type_symbol
 _atom_type_oxidation_number
  La3+  3.0
  Ce3+  3.0
  Pr3+  3.0
  Nd3+  3.0
  Sm3+  3.0
  Bi2+  2.0
  S2-  -2.0
loop_
 _atom_site_type_symbol
 _atom_site_label
 _atom_site_symmetry_multiplicity
 _atom_site_fract_x
 _atom_site_fract_y
 _atom_site_fract_z
 _atom_site_occupancy
  La3+  La0  1  0.50224493  0.88837608  0.07878521  1
  La3+  La1  1  0.00826382  0.36085018  0.60870779  1
  La3+  La2  1  0.49276938  0.88916025  0.59448551  1
  La3+  La3  1  0.11750031  0.50851510  0.41832717  1
  La3+  La4  1  0.62938474  0.74873347  0.40516309  1
  La3+  La5  1  0.25492393  0.12744973  0.56046103  1
  La3+  La6  1  0.38527357  0.00751933  0.41621320  1
  La3+  La7  1  -0.00445991  0.63507701  0.06396406  1
  La3+  La8  1  0.24123078  0.14000091  0.09406193  1
  La3+  La9  1  0.49797565  0.62887448  0.10348684  1
  La3+  La10  1  0.11732367  0.24495649  0.41481331  1
  La3+  La11  1  0.37617684  0.50368860  0.43399846  1
  Ce3+  Ce12  1  0.12085024  0.00641880  0.94064216  1
  Ce3+  Ce13  1  0.74304328  0.13012587  0.05749011  1
  Ce3+  Ce14  1  0.86500335  0.75758127  0.94111666  1
  Ce3+  Ce15  1  0.61542838  0.25338078  0.93828035  1
  Ce3+  Ce16  1  0.24110603  0.37758297  0.54805126  1
  Ce3+  Ce17  1  0.61561271  0.50736670  0.94072704  1
  Ce3+  Ce18  1  0.12743369  0.00297192  0.44327166  1
  Ce3+  Ce19  1  0.49148852  0.38101886  0.05924680  1
  Ce3+  Ce20  1  0.86946654  0.50712384  0.94043598  1
  Ce3+  Ce21  1  0.87059466  0.25520005  0.94520166  1
  Ce3+  Ce22  1  0.62505069  0.00441001  0.43266407  1
  Ce3+  Ce23  1  0.75009356  0.37882271  0.56672801  1
  Ce3+  Ce24  1  0.24849097  0.88255130  0.05804313  1
  Ce3+  Ce25  1  0.00371338  0.87133035  0.56343339  1
  Pr3+  Pr26  1  0.50247964  0.62869768  0.55676409  1
  Pr3+  Pr27  1  -0.00257224  0.38119518  0.05763339  1
  Pr3+  Pr28  1  0.60732653  0.01334460  0.92258642  1
  Pr3+  Pr29  1  0.73887026  0.63064020  0.06158151  1
  Pr3+  Pr30  1  0.75203052  0.12666126  0.55680740  1
  Pr3+  Pr31  1  -0.00319079  0.88347557  0.05411302  1
  Pr3+  Pr32  1  0.11724574  0.24753273  0.92413993  1
  Pr3+  Pr33  1  0.60947160  0.75902336  0.93620996  1
  Pr3+  Pr34  1  0.63126741  0.50069115  0.43111374  1
  Pr3+  Pr35  1  -0.00552177  0.13142229  0.06734010  1
  Pr3+  Pr36  1  0.12042851  0.75897891  0.93760786  1
  Pr3+  Pr37  1  0.25434748  0.62627202  0.55731267  1
  Pr3+  Pr38  1  0.36658498  0.50610513  0.94034462  1
  Nd3+  Nd39  1  0.00277505  0.62682212  0.56508097  1
  Nd3+  Nd40  1  0.74235121  0.38203684  0.05306496  1
  Nd3+  Nd41  1  0.24645428  0.62812234  0.06764101  1
  Nd3+  Nd42  1  0.37557936  0.25148560  0.43583970  1
  Nd3+  Nd43  1  0.74831075  0.63197733  0.55448653  1
  Nd3+  Nd44  1  0.63169322  0.25594422  0.43485648  1
  Nd3+  Nd45  1  0.38009326  0.75617663  0.44006488  1
  Nd3+  Nd46  1  0.36420466  0.25635714  0.94521220  1
  Nd3+  Nd47  1  0.73946250  0.88285836  0.05241998  1
  Nd3+  Nd48  1  0.87557650  0.00127485  0.44498795  1
  Nd3+  Nd49  1  0.74555533  0.87828221  0.55573809  1
  Nd3+  Nd50  1  0.50139602  0.13189519  0.07215145  1
  Nd3+  Nd51  1  0.12502816  0.75442144  0.43829173  1
  Sm3+  Sm52  1  0.11765428  0.51537271  0.93175714  1
  Sm3+  Sm53  1  0.37051536  0.00829447  0.94853872  1
  Sm3+  Sm54  1  0.50181508  0.12747523  0.55423027  1
  Sm3+  Sm55  1  0.00310650  0.12698616  0.56170810  1
  Sm3+  Sm56  1  0.50713700  0.37776414  0.55550737  1
  Sm3+  Sm57  1  0.37284304  0.75534166  0.95405319  1
  Sm3+  Sm58  1  0.87570151  0.75411240  0.43588913  1
  Sm3+  Sm59  1  0.88117914  0.25521668  0.44375348  1
  Sm3+  Sm60  1  0.88094273  0.50068309  0.44339037  1
  Sm3+  Sm61  1  0.86721540  0.00728442  0.93997435  1
  Sm3+  Sm62  1  0.24010499  0.38732577  0.06459086  1
  Sm3+  Sm63  1  0.25835843  0.88040071  0.55349168  1
  Bi2+  Bi64  1  -0.02595443  0.12226320  0.29326008  1
  Bi2+  Bi65  1  -0.02479532  0.11111266  0.79005523  1
  Bi2+  Bi66  1  -0.07721714  0.38627438  0.28734440  1
  Bi2+  Bi67  1  0.00071739  0.36305537  0.81402291  1
  Bi2+  Bi68  1  -0.01345839  0.65613380  0.30072624  1
  Bi2+  Bi69  1  -0.01752893  0.62297608  0.79382901  1
  Bi2+  Bi70  1  -0.01167900  0.85252431  0.30937653  1
  Bi2+  Bi71  1  0.11220231  0.88111397  0.82015486  1
  Bi2+  Bi72  1  0.24115574  0.10401122  0.29307323  1
  Bi2+  Bi73  1  0.23692755  0.02874709  0.79609798  1
  Bi2+  Bi74  1  0.31741827  0.36379326  0.29695527  1
  Bi2+  Bi75  1  0.27461009  0.38716806  0.80944952  1
  Bi2+  Bi76  1  0.25080576  0.61017053  0.29186096  1
  Bi2+  Bi77  1  0.24022337  0.64875770  0.78782585  1
  Bi2+  Bi78  1  0.17214736  0.85850949  0.26686176  1
  Bi2+  Bi79  1  0.29494464  0.83712315  0.78749705  1
  Bi2+  Bi80  1  0.48095970  0.17282765  0.27184999  1
  Bi2+  Bi81  1  0.45686447  0.12854005  0.79131023  1
  Bi2+  Bi82  1  0.54560518  0.35419072  0.29141209  1
  Bi2+  Bi83  1  0.53175927  0.37643286  0.79517969  1
  Bi2+  Bi84  1  0.48848082  0.63566295  0.28879664  1
  Bi2+  Bi85  1  0.49054397  0.63845249  0.80415637  1
  Bi2+  Bi86  1  0.44357110  0.88165852  0.30209290  1
  Bi2+  Bi87  1  0.52484077  0.87469834  0.80220999  1
  Bi2+  Bi88  1  0.76041375  0.20315987  0.29732295  1
  Bi2+  Bi89  1  0.71724724  0.16331029  0.78133786  1
  Bi2+  Bi90  1  0.73919594  0.39522703  0.33421539  1
  Bi2+  Bi91  1  0.72720111  0.35471828  0.77180908  1
  Bi2+  Bi92  1  0.79002897  0.64403848  0.28118302  1
  Bi2+  Bi93  1  0.74777360  0.61706262  0.75816725  1
  Bi2+  Bi94  1  0.80173918  0.91296975  0.28110747  1
  Bi2+  Bi95  1  0.78950740  0.86964786  0.79366288  1
  Bi2+  Bi96  1  0.04669810  -0.00656064  0.21876401  1
  Bi2+  Bi97  1  0.10029093  -0.00777237  0.71129943  1
  Bi2+  Bi98  1  0.13347338  0.25650238  0.21369656  1
  Bi2+  Bi99  1  0.14437056  0.24644419  0.71529657  1
  Bi2+  Bi100  1  0.11095994  0.47678018  0.21468968  1
  Bi2+  Bi101  1  0.14629499  0.50205791  0.70833034  1
  Bi2+  Bi102  1  0.07315193  0.72037217  0.20338076  1
  Bi2+  Bi103  1  0.13466677  0.80089495  0.71307480  1
  Bi2+  Bi104  1  0.37223786  -0.03328415  0.20779923  1
  Bi2+  Bi105  1  0.36476913  0.02115208  0.70545175  1
  Bi2+  Bi106  1  0.47889739  0.28896670  0.18247669  1
  Bi2+  Bi107  1  0.38786734  0.25541579  0.70970044  1
  Bi2+  Bi108  1  0.35346713  0.44333835  0.19914287  1
  Bi2+  Bi109  1  0.40181066  0.44974667  0.71403599  1
  Bi2+  Bi110  1  0.30786257  0.75198627  0.20884959  1
  Bi2+  Bi111  1  0.37892063  0.64425802  0.70688751  1
  Bi2+  Bi112  1  0.69196031  0.02737195  0.21528385  1
  Bi2+  Bi113  1  0.64021465  -0.00077719  0.70193829  1
  Bi2+  Bi114  1  0.68221866  0.27379548  0.19835292  1
  Bi2+  Bi115  1  0.58338814  0.24938134  0.70864692  1
  Bi2+  Bi116  1  0.66764114  0.48899196  0.24117568  1
  Bi2+  Bi117  1  0.61286576  0.49712417  0.71020727  1
  Bi2+  Bi118  1  0.62888607  0.77485741  0.20558710  1
  Bi2+  Bi119  1  0.65700150  0.74539578  0.69480546  1
  Bi2+  Bi120  1  0.87015557  0.05603694  0.17769952  1
  Bi2+  Bi121  1  0.90822161  -0.02952709  0.71993014  1
  Bi2+  Bi122  1  0.88063980  0.24311132  0.20712287  1
  Bi2+  Bi123  1  0.85283312  0.21937044  0.70785186  1
  Bi2+  Bi124  1  0.85706441  0.51108345  0.20822203  1
  Bi2+  Bi125  1  0.87468115  0.50895628  0.70846319  1
  Bi2+  Bi126  1  0.87173333  0.77767901  0.20962876  1
  Bi2+  Bi127  1  0.92983231  0.77350716  0.73016558  1
  S2-  S128  1  0.09286738  0.12751874  0.15136177  1
  S2-  S129  1  0.01325797  0.19516204  0.65235026  1
  S2-  S130  1  0.03784617  0.36582506  0.15708978  1
  S2-  S131  1  0.02992037  0.36859466  0.71920956  1
  S2-  S132  1  0.00230917  0.57694908  0.15803167  1
  S2-  S133  1  0.01091271  0.53097116  0.64835468  1
  S2-  S134  1  -0.00433139  0.85859177  0.15318747  1
  S2-  S135  1  0.00600986  0.75755578  0.63728423  1
  S2-  S136  1  0.29548528  0.10805949  0.19500776  1
  S2-  S137  1  0.26419958  0.15297806  0.66049459  1
  S2-  S138  1  0.24457529  0.29553002  0.14951072  1
  S2-  S139  1  0.18441201  0.37216263  0.64148286  1
  S2-  S140  1  0.21937251  0.51015086  0.14091228  1
  S2-  S141  1  0.22215135  0.61633057  0.65620178  1
  S2-  S142  1  0.23779855  0.88693089  0.15535799  1
  S2-  S143  1  0.33241343  0.89750188  0.64208257  1
  S2-  S144  1  0.48385072  0.01847940  0.14908419  1
  S2-  S145  1  0.50592490  0.04924769  0.64269363  1
  S2-  S146  1  0.50058618  0.45951092  0.14640544  1
  S2-  S147  1  0.61651642  0.37708469  0.63435121  1
  S2-  S148  1  0.38790845  0.61347208  0.18704226  1
  S2-  S149  1  0.53526274  0.63278214  0.65596852  1
  S2-  S150  1  0.48662540  0.78255952  0.16137628  1
  S2-  S151  1  0.53619462  0.85471830  0.69656454  1
  S2-  S152  1  0.64785840  0.13560219  0.13863377  1
  S2-  S153  1  0.74444820  0.11949092  0.65706609  1
  S2-  S154  1  0.74062620  0.42257227  0.15006175  1
  S2-  S155  1  0.84299869  0.37088373  0.65051890  1
  S2-  S156  1  0.65474782  0.64174553  0.15048580  1
  S2-  S157  1  0.78441170  0.63567978  0.65295004  1
  S2-  S158  1  0.66685524  0.89709787  0.14252288  1
  S2-  S159  1  0.73214139  0.88895454  0.65603963  1
  S2-  S160  1  0.10944372  0.08019873  0.35707777  1
  S2-  S161  1  0.09918507  0.09829767  0.86074196  1
  S2-  S162  1  0.18812412  0.26505503  0.31750645  1
  S2-  S163  1  0.15193563  0.27073256  0.81979421  1
  S2-  S164  1  0.18230220  0.46956525  0.31947921  1
  S2-  S165  1  0.13587719  0.45731917  0.83851890  1
  S2-  S166  1  0.14016589  0.66054287  0.35518488  1
  S2-  S167  1  0.11748334  0.65041025  0.85946326  1
  S2-  S168  1  0.28964461  -0.04499864  0.33302483  1
  S2-  S169  1  0.45554706  -0.00404755  0.86212286  1
  S2-  S170  1  0.37504220  0.15568803  0.35133366  1
  S2-  S171  1  0.37242715  0.24986773  0.84510656  1
  S2-  S172  1  0.40289393  0.50612911  0.33362109  1
  S2-  S173  1  0.35066624  0.54046512  0.84142868  1
  S2-  S174  1  0.36778079  0.72561703  0.34060374  1
  S2-  S175  1  0.41656642  0.77096015  0.85912160  1
  S2-  S176  1  0.53316079  -0.00706289  0.34949268  1
  S2-  S177  1  0.66331823  -0.04208126  0.82679877  1
  S2-  S178  1  0.60785869  0.19313683  0.34209439  1
  S2-  S179  1  0.59996000  0.16050812  0.85663154  1
  S2-  S180  1  0.60703706  0.59722411  0.34826102  1
  S2-  S181  1  0.58933595  0.52243445  0.84420689  1
  S2-  S182  1  0.57682710  0.78615450  0.30737092  1
  S2-  S183  1  0.62084441  0.74355642  0.83456515  1
  S2-  S184  1  0.85000834  0.03373790  0.34773431  1
  S2-  S185  1  0.88218275  -0.00687375  0.84216382  1
  S2-  S186  1  0.96781332  0.25549544  0.35596223  1
  S2-  S187  1  0.89815886  0.23672284  0.84978600  1
  S2-  S188  1  0.96717725  0.51007227  0.35607168  1
  S2-  S189  1  0.90059411  0.49961163  0.84388059  1
  S2-  S190  1  0.78366878  0.76556265  0.35164746  1
  S2-  S191  1  0.88650521  0.74419096  0.84496473  1
  S2-  S192  1  -0.00263638  0.12442224  0.45911178  1
  S2-  S193  1  -0.01019422  0.12883925  0.96062829  1
  S2-  S194  1  0.00215383  0.37757917  0.45099716  1
  S2-  S195  1  -0.00219669  0.38181638  0.95023066  1
  S2-  S196  1  -0.00326745  0.63560838  0.45796557  1
  S2-  S197  1  -0.00971687  0.63374438  0.95674177  1
  S2-  S198  1  0.00032071  0.87696320  0.45505260  1
  S2-  S199  1  -0.00883899  0.88223593  0.94863163  1
  S2-  S200  1  0.25027794  0.12833051  0.45276400  1
  S2-  S201  1  0.24638478  0.12964861  0.95120757  1
  S2-  S202  1  0.24835873  0.37490318  0.44187906  1
  S2-  S203  1  0.23816980  0.38188757  0.95398598  1
  S2-  S204  1  0.25567185  0.62928084  0.45161783  1
  S2-  S205  1  0.24640215  0.63413608  0.96038011  1
  S2-  S206  1  0.25161015  0.87710360  0.44946115  1
  S2-  S207  1  0.24991088  0.88091855  0.95094744  1
  S2-  S208  1  0.50633876  0.13407210  0.45244902  1
  S2-  S209  1  0.48816976  0.13551704  0.96374125  1
  S2-  S210  1  0.50302365  0.37669027  0.44934305  1
  S2-  S211  1  0.49184793  0.38006729  0.95075990  1
  S2-  S212  1  0.50257938  0.62942615  0.45091376  1
  S2-  S213  1  0.49138731  0.63008067  0.95432864  1
  S2-  S214  1  0.50771426  0.87097772  0.44307849  1
  S2-  S215  1  0.49069864  0.88266037  0.96647217  1
  S2-  S216  1  0.75385699  0.13010827  0.45088705  1
  S2-  S217  1  0.74608910  0.13052024  0.95024030  1
  S2-  S218  1  0.75698871  0.37690539  0.45913742  1
  S2-  S219  1  0.74316531  0.38054383  0.94582540  1
  S2-  S220  1  0.75543105  0.62683547  0.44854564  1
  S2-  S221  1  0.74126349  0.63199960  0.95154794  1
  S2-  S222  1  0.74774125  0.87881774  0.45049575  1
  S2-  S223  1  0.74087263  0.88400893  0.94679736  1
  S2-  S224  1  0.12294078  0.00713107  0.04798026  1
  S2-  S225  1  0.12824977  -0.00039001  0.55244127  1
  S2-  S226  1  0.12010496  0.25629020  0.04066063  1
  S2-  S227  1  0.12429840  0.24701652  0.54218962  1
  S2-  S228  1  0.11681440  0.50853302  0.03862977  1
  S2-  S229  1  0.12909937  0.50845130  0.53560939  1
  S2-  S230  1  0.12366273  0.75614273  0.04699372  1
  S2-  S231  1  0.13606274  0.75595506  0.54295138  1
  S2-  S232  1  0.36256157  0.01438062  0.05177846  1
  S2-  S233  1  0.38112070  0.00399221  0.53437681  1
  S2-  S234  1  0.36682592  0.25554928  0.05107023  1
  S2-  S235  1  0.38068193  0.25629240  0.54468252  1
  S2-  S236  1  0.36842025  0.50676768  0.04725950  1
  S2-  S237  1  0.37885841  0.49715360  0.54512152  1
  S2-  S238  1  0.37066056  0.75119870  0.05725444  1
  S2-  S239  1  0.38032281  0.75551966  0.54742424  1
  S2-  S240  1  0.62107180  0.01080991  0.03505376  1
  S2-  S241  1  0.62392033  0.00258741  0.54074409  1
  S2-  S242  1  0.61897975  0.26014568  0.04270355  1
  S2-  S243  1  0.62499423  0.24834303  0.54148030  1
  S2-  S244  1  0.61718342  0.50600158  0.04471989  1
  S2-  S245  1  0.62584947  0.50543082  0.53799314  1
  S2-  S246  1  0.61695992  0.75488785  0.04377064  1
  S2-  S247  1  0.62069393  0.75890726  0.55352978  1
  S2-  S248  1  0.86787611  0.00437856  0.04516438  1
  S2-  S249  1  0.87853753  0.00002628  0.55287551  1
  S2-  S250  1  0.86867046  0.25779918  0.05251662  1
  S2-  S251  1  0.87985584  0.25006876  0.54772635  1
  S2-  S252  1  0.86890080  0.50692476  0.04735399  1
  S2-  S253  1  0.87211505  0.50816573  0.54612050  1
  S2-  S254  1  0.86553048  0.75799593  0.04948040  1
  S2-  S255  1  0.87176949  0.75597946  0.54049345  1
