# generated using pymatgen
data_La12Ce14Pr13Nd13Sm12(BiS2)64
_symmetry_space_group_name_H-M   'P 1'
_cell_length_a   16.16927065
_cell_length_b   16.15431072
_cell_length_c   27.26573474
_cell_angle_alpha   89.92465546
_cell_angle_beta   89.82247308
_cell_angle_gamma   89.95439615
_symmetry_Int_Tables_number   1
_chemical_formula_structural   La12Ce14Pr13Nd13Sm12(BiS2)64
_chemical_formula_sum   'La12 Ce14 Pr13 Nd13 Sm12 Bi64 S128'
_cell_volume   7121.86064628
_cell_formula_units_Z   1
loop_
 _symmetry_equiv_pos_site_id
 _symmetry_equiv_pos_as_xyz
  1  'x, y, z'
loop_
 _atom_type_symbol
 _atom_type_oxidation_number
  La3+  3.0
  Ce3+  3.0
  Pr3+  3.0
  Nd3+  3.0
  Sm3+  3.0
  Bi2+  2.0
  S2-  -2.0
loop_
 _atom_site_type_symbol
 _atom_site_label
 _atom_site_symmetry_multiplicity
 _atom_site_fract_x
 _atom_site_fract_y
 _atom_site_fract_z
 _atom_site_occupancy
  La3+  La0  1  0.00788583  0.12705620  0.11031902  1
  La3+  La1  1  0.13676484  0.25416354  0.42802127  1
  La3+  La2  1  0.88298455  0.50230981  0.43272552  1
  La3+  La3  1  0.13471873  -0.00149305  0.94608648  1
  La3+  La4  1  0.13908462  0.49024060  0.90708523  1
  La3+  La5  1  0.76694446  0.63589045  0.61261790  1
  La3+  La6  1  0.51014322  0.12591721  0.55716528  1
  La3+  La7  1  0.86937370  0.49517683  0.89473311  1
  La3+  La8  1  0.64554188  0.23043670  0.41079110  1
  La3+  La9  1  0.13543559  0.75026127  0.43101986  1
  La3+  La10  1  0.88186321  0.75006227  0.41242647  1
  La3+  La11  1  0.13420122  0.74558237  0.92637272  1
  Ce3+  Ce12  1  0.63280110  -0.00585632  0.43914880  1
  Ce3+  Ce13  1  0.14061721  -0.00078319  0.42639665  1
  Ce3+  Ce14  1  0.01060591  0.62458536  0.56357792  1
  Ce3+  Ce15  1  0.88549015  0.24848775  0.94322343  1
  Ce3+  Ce16  1  0.38364755  -0.00062468  0.43549648  1
  Ce3+  Ce17  1  0.89182510  0.25870439  0.42488222  1
  Ce3+  Ce18  1  0.25235210  0.61940442  0.06307114  1
  Ce3+  Ce19  1  0.00693231  0.37722714  0.55728843  1
  Ce3+  Ce20  1  0.25188742  0.36107206  0.06175651  1
  Ce3+  Ce21  1  0.00728390  0.62045640  0.04780671  1
  Ce3+  Ce22  1  0.25757565  0.62347708  0.56757871  1
  Ce3+  Ce23  1  0.37700989  0.74267436  0.93780634  1
  Ce3+  Ce24  1  0.63456005  0.49195796  0.94588781  1
  Ce3+  Ce25  1  0.50501726  0.36484401  0.06349212  1
  Pr3+  Pr26  1  0.50822475  0.86329882  0.05913690  1
  Pr3+  Pr27  1  0.14128077  0.50366484  0.43980798  1
  Pr3+  Pr28  1  0.38415591  0.25010148  0.42524879  1
  Pr3+  Pr29  1  0.38897482  0.49668496  0.44309795  1
  Pr3+  Pr30  1  0.01057808  0.12622865  0.55356834  1
  Pr3+  Pr31  1  0.51619499  0.62469064  0.55512834  1
  Pr3+  Pr32  1  0.00853852  0.87227031  0.55719987  1
  Pr3+  Pr33  1  0.26058901  0.36996485  0.56630464  1
  Pr3+  Pr34  1  0.76130211  0.86629284  0.06043843  1
  Pr3+  Pr35  1  0.63666834  0.74832778  0.42680477  1
  Pr3+  Pr36  1  0.50491635  0.61425539  0.06287752  1
  Pr3+  Pr37  1  0.76156936  0.36561570  0.06887569  1
  Pr3+  Pr38  1  0.26015424  0.87316324  0.55892633  1
  Nd3+  Nd39  1  0.14037249  0.24551704  0.93156824  1
  Nd3+  Nd40  1  0.63141031  -0.00607609  0.94601245  1
  Nd3+  Nd41  1  0.38667470  0.24410833  0.93740224  1
  Nd3+  Nd42  1  0.76052056  0.11563572  0.06375754  1
  Nd3+  Nd43  1  0.88354158  -0.00387520  0.93848353  1
  Nd3+  Nd44  1  0.63341487  0.24481399  0.94783444  1
  Nd3+  Nd45  1  0.76383148  0.61529543  0.06247097  1
  Nd3+  Nd46  1  0.26090763  0.10903438  0.07392168  1
  Nd3+  Nd47  1  0.88246785  0.00523720  0.43370425  1
  Nd3+  Nd48  1  0.63566995  0.73959708  0.94398429  1
  Nd3+  Nd49  1  0.38187724  0.74739111  0.42910250  1
  Nd3+  Nd50  1  0.76054586  0.87751376  0.55759929  1
  Nd3+  Nd51  1  0.25364028  0.86294236  0.06790848  1
  Sm3+  Sm52  1  0.50526846  0.11600056  0.06813034  1
  Sm3+  Sm53  1  0.38460552  -0.00595282  0.94800298  1
  Sm3+  Sm54  1  0.01031344  0.36539285  0.05388268  1
  Sm3+  Sm55  1  0.89005492  0.75140396  0.92352715  1
  Sm3+  Sm56  1  0.38017115  0.49369790  0.94586119  1
  Sm3+  Sm57  1  0.75982330  0.12620235  0.56267314  1
  Sm3+  Sm58  1  0.63835530  0.49739191  0.43233485  1
  Sm3+  Sm59  1  0.51069488  0.87103994  0.55251492  1
  Sm3+  Sm60  1  0.51160194  0.37229122  0.54811734  1
  Sm3+  Sm61  1  0.25692673  0.12323644  0.55380815  1
  Sm3+  Sm62  1  0.00648488  0.86569626  0.06365099  1
  Sm3+  Sm63  1  0.75868031  0.37943531  0.55342105  1
  Bi2+  Bi64  1  -0.03965103  0.10244223  0.31321215  1
  Bi2+  Bi65  1  0.00781392  0.10158128  0.79674934  1
  Bi2+  Bi66  1  -0.01324747  0.37782134  0.28288905  1
  Bi2+  Bi67  1  -0.00878111  0.29220067  0.77995997  1
  Bi2+  Bi68  1  0.02668243  0.62021105  0.29432798  1
  Bi2+  Bi69  1  -0.03170508  0.64885200  0.77870640  1
  Bi2+  Bi70  1  -0.01498523  0.87379847  0.27680843  1
  Bi2+  Bi71  1  -0.00371058  0.90202397  0.79326117  1
  Bi2+  Bi72  1  0.31606212  0.13861493  0.28565615  1
  Bi2+  Bi73  1  0.27604003  0.12321024  0.77282378  1
  Bi2+  Bi74  1  0.23465338  0.40321110  0.29155287  1
  Bi2+  Bi75  1  0.26314647  0.35000946  0.79758858  1
  Bi2+  Bi76  1  0.25830157  0.61870632  0.27138149  1
  Bi2+  Bi77  1  0.26612893  0.61554593  0.78401886  1
  Bi2+  Bi78  1  0.29059859  0.87036204  0.29072936  1
  Bi2+  Bi79  1  0.25020027  0.87870575  0.79369316  1
  Bi2+  Bi80  1  0.49017133  0.21107307  0.30923183  1
  Bi2+  Bi81  1  0.53182779  0.11000103  0.79718968  1
  Bi2+  Bi82  1  0.43054384  0.39734272  0.29900427  1
  Bi2+  Bi83  1  0.47424448  0.39507349  0.79010530  1
  Bi2+  Bi84  1  0.50143678  0.72628340  0.31630056  1
  Bi2+  Bi85  1  0.48545513  0.59516704  0.79391109  1
  Bi2+  Bi86  1  0.47181845  0.92457550  0.31990595  1
  Bi2+  Bi87  1  0.47958564  0.79544484  0.79373837  1
  Bi2+  Bi88  1  0.72760556  0.13277973  0.26925122  1
  Bi2+  Bi89  1  0.81452418  0.16765347  0.81979762  1
  Bi2+  Bi90  1  0.74383321  0.40869734  0.27774391  1
  Bi2+  Bi91  1  0.68277659  0.32133893  0.79233826  1
  Bi2+  Bi92  1  0.76292454  0.65252694  0.28221569  1
  Bi2+  Bi93  1  0.68914575  0.62831316  0.80229461  1
  Bi2+  Bi94  1  0.65746705  0.91190667  0.28882306  1
  Bi2+  Bi95  1  0.73114254  0.89986221  0.78846628  1
  Bi2+  Bi96  1  0.14093522  0.00110474  0.21355594  1
  Bi2+  Bi97  1  0.15338185  0.03486649  0.69799719  1
  Bi2+  Bi98  1  0.13045601  0.26579438  0.21532757  1
  Bi2+  Bi99  1  0.12414571  0.22671375  0.70446198  1
  Bi2+  Bi100  1  0.11725052  0.53074459  0.20305812  1
  Bi2+  Bi101  1  0.13071201  0.49606999  0.70973859  1
  Bi2+  Bi102  1  0.11658441  0.73048658  0.20877298  1
  Bi2+  Bi103  1  0.12997498  0.78097814  0.69932039  1
  Bi2+  Bi104  1  0.42126354  0.01279417  0.21776198  1
  Bi2+  Bi105  1  0.40830992  -0.02997930  0.75290921  1
  Bi2+  Bi106  1  0.38884952  0.27628054  0.20370826  1
  Bi2+  Bi107  1  0.42020886  0.23657322  0.73185143  1
  Bi2+  Bi108  1  0.38520881  0.56602303  0.18717000  1
  Bi2+  Bi109  1  0.38761184  0.50250510  0.70045977  1
  Bi2+  Bi110  1  0.37464890  0.75656596  0.21101940  1
  Bi2+  Bi111  1  0.38253805  0.69929307  0.70442666  1
  Bi2+  Bi112  1  0.60826006  0.05418319  0.19005249  1
  Bi2+  Bi113  1  0.63888613  0.02185232  0.71223974  1
  Bi2+  Bi114  1  0.60185462  0.24361513  0.20544241  1
  Bi2+  Bi115  1  0.63164618  0.21669659  0.69735928  1
  Bi2+  Bi116  1  0.53376269  0.55282464  0.26137944  1
  Bi2+  Bi117  1  0.60276564  0.47480685  0.70203583  1
  Bi2+  Bi118  1  0.59298001  0.77169441  0.21801825  1
  Bi2+  Bi119  1  0.58313076  0.77754435  0.69647083  1
  Bi2+  Bi120  1  0.86134533  -0.02939562  0.20907026  1
  Bi2+  Bi121  1  0.85396641  0.05135643  0.72901191  1
  Bi2+  Bi122  1  0.86557827  0.26402432  0.21063842  1
  Bi2+  Bi123  1  0.82142050  0.25679997  0.71193101  1
  Bi2+  Bi124  1  0.91997656  0.52478899  0.20853273  1
  Bi2+  Bi125  1  0.88680814  0.46798960  0.69948194  1
  Bi2+  Bi126  1  0.87278599  0.72601612  0.19993974  1
  Bi2+  Bi127  1  0.85444106  0.80324691  0.71832088  1
  S2-  S128  1  0.01909369  0.13160531  0.22563299  1
  S2-  S129  1  0.02195181  0.10883483  0.65353651  1
  S2-  S130  1  0.00363406  0.30144429  0.14717667  1
  S2-  S131  1  0.02681105  0.39216248  0.65544302  1
  S2-  S132  1  0.00229088  0.72792393  0.12860998  1
  S2-  S133  1  -0.07021246  0.60828540  0.65042951  1
  S2-  S134  1  0.00568587  0.95687641  0.15124965  1
  S2-  S135  1  0.00106702  0.85590675  0.65987679  1
  S2-  S136  1  0.16805856  0.14347611  0.15532367  1
  S2-  S137  1  0.25424925  0.17244785  0.64734040  1
  S2-  S138  1  0.24969667  0.35371611  0.16042936  1
  S2-  S139  1  0.24895950  0.41661648  0.66484073  1
  S2-  S140  1  0.24321403  0.73295468  0.13845834  1
  S2-  S141  1  0.14579757  0.63092630  0.64441925  1
  S2-  S142  1  0.25184785  0.95834313  0.15319496  1
  S2-  S143  1  0.23765931  0.88837407  0.65920774  1
  S2-  S144  1  0.39507511  0.12867485  0.14359428  1
  S2-  S145  1  0.49224891  0.13840191  0.65709693  1
  S2-  S146  1  0.51637551  0.37355761  0.16089943  1
  S2-  S147  1  0.50316355  0.38624581  0.64631545  1
  S2-  S148  1  0.54622829  0.62150861  0.16098094  1
  S2-  S149  1  0.59422942  0.62378750  0.64469239  1
  S2-  S150  1  0.48606605  0.86349101  0.15879063  1
  S2-  S151  1  0.50230459  0.89313276  0.64941703  1
  S2-  S152  1  0.84184263  0.11796148  0.15122488  1
  S2-  S153  1  0.76288719  0.02148054  0.64189347  1
  S2-  S154  1  0.75205822  0.36060243  0.17111324  1
  S2-  S155  1  0.74394482  0.46159178  0.64092820  1
  S2-  S156  1  0.77802369  0.59971107  0.16287769  1
  S2-  S157  1  0.77394887  0.64934631  0.72301028  1
  S2-  S158  1  0.77297320  0.86198261  0.16113218  1
  S2-  S159  1  0.74074862  0.80444487  0.64693884  1
  S2-  S160  1  0.08560530  -0.01054685  0.33051129  1
  S2-  S161  1  0.13321481  -0.04334380  0.84689413  1
  S2-  S162  1  0.02192681  0.25111205  0.35061685  1
  S2-  S163  1  0.11897622  0.34789235  0.84616123  1
  S2-  S164  1  0.10118539  0.47088984  0.34374405  1
  S2-  S165  1  0.11681997  0.57154463  0.81262033  1
  S2-  S166  1  0.02655231  0.76246011  0.35053602  1
  S2-  S167  1  0.02202083  0.75965287  0.84940392  1
  S2-  S168  1  0.28101224  0.01081422  0.35655031  1
  S2-  S169  1  0.35664209  -0.01486775  0.85097031  1
  S2-  S170  1  0.25705871  0.25958586  0.35204295  1
  S2-  S171  1  0.27486400  0.21882712  0.86188859  1
  S2-  S172  1  0.32736807  0.51649461  0.35056660  1
  S2-  S173  1  0.30208278  0.48732902  0.85707275  1
  S2-  S174  1  0.25996507  0.74435628  0.35488866  1
  S2-  S175  1  0.27025706  0.74799886  0.85816559  1
  S2-  S176  1  0.64067876  0.06107888  0.34932755  1
  S2-  S177  1  0.63851325  0.00758878  0.84757200  1
  S2-  S178  1  0.64090893  0.32248472  0.32578649  1
  S2-  S179  1  0.55830869  0.25183058  0.85814966  1
  S2-  S180  1  0.66177766  0.53244558  0.33495481  1
  S2-  S181  1  0.70217938  0.47553262  0.85544820  1
  S2-  S182  1  0.74057612  0.77610438  0.34384059  1
  S2-  S183  1  0.63781731  0.77784163  0.84650316  1
  S2-  S184  1  0.87526248  -0.04856417  0.33697507  1
  S2-  S185  1  0.86474201  -0.10599463  0.85775718  1
  S2-  S186  1  0.81197094  0.17267560  0.35470601  1
  S2-  S187  1  0.87540998  0.32633313  0.85698858  1
  S2-  S188  1  0.86254771  0.39103947  0.35012229  1
  S2-  S189  1  0.92788887  0.49254024  0.79244597  1
  S2-  S190  1  0.88297941  0.60782962  0.34727789  1
  S2-  S191  1  0.84481554  0.65395005  0.84687507  1
  S2-  S192  1  0.01244297  0.12216722  0.44807194  1
  S2-  S193  1  0.00767408  0.12288330  0.93929513  1
  S2-  S194  1  0.01440867  0.38005096  0.45411253  1
  S2-  S195  1  0.01137515  0.37305583  0.95180425  1
  S2-  S196  1  0.01227290  0.62551580  0.45451147  1
  S2-  S197  1  0.00585439  0.60768642  0.94242256  1
  S2-  S198  1  0.00761508  0.87981707  0.45101827  1
  S2-  S199  1  0.00757563  0.87401461  0.95770130  1
  S2-  S200  1  0.26109880  0.12745961  0.45302702  1
  S2-  S201  1  0.26472994  0.11582756  0.96503292  1
  S2-  S202  1  0.26337421  0.37596579  0.45788913  1
  S2-  S203  1  0.25948597  0.36937533  0.95763530  1
  S2-  S204  1  0.26592496  0.62421612  0.46084145  1
  S2-  S205  1  0.25446640  0.61298476  0.95702408  1
  S2-  S206  1  0.26333099  0.87465404  0.45375557  1
  S2-  S207  1  0.26150704  0.87243561  0.96081950  1
  S2-  S208  1  0.50824516  0.12450243  0.44873643  1
  S2-  S209  1  0.50706238  0.11806114  0.96176825  1
  S2-  S210  1  0.51529997  0.36818110  0.44296426  1
  S2-  S211  1  0.50523233  0.37197549  0.95692210  1
  S2-  S212  1  0.51125421  0.62362679  0.44711744  1
  S2-  S213  1  0.50532319  0.61716754  0.95324522  1
  S2-  S214  1  0.50662093  0.87079705  0.44787755  1
  S2-  S215  1  0.50738057  0.86679697  0.95166246  1
  S2-  S216  1  0.75533258  0.11873915  0.46186209  1
  S2-  S217  1  0.75626066  0.11889395  0.95680901  1
  S2-  S218  1  0.75183304  0.36768045  0.45032667  1
  S2-  S219  1  0.75627325  0.36774671  0.96222706  1
  S2-  S220  1  0.75466455  0.62364927  0.44505433  1
  S2-  S221  1  0.75832076  0.61479754  0.95634123  1
  S2-  S222  1  0.76140844  0.87635388  0.45074781  1
  S2-  S223  1  0.75333490  0.86884300  0.95536282  1
  S2-  S224  1  0.12821014  -0.00763518  0.05067946  1
  S2-  S225  1  0.13610128  -0.00027057  0.54068586  1
  S2-  S226  1  0.12979960  0.23866998  0.04157977  1
  S2-  S227  1  0.13518786  0.25049898  0.54190622  1
  S2-  S228  1  0.13005855  0.49216952  0.05547712  1
  S2-  S229  1  0.13785791  0.49617801  0.54598749  1
  S2-  S230  1  0.13061056  0.74384090  0.03374963  1
  S2-  S231  1  0.13617299  0.75119495  0.54122032  1
  S2-  S232  1  0.38716749  -0.01235781  0.05014188  1
  S2-  S233  1  0.38351677  0.00014123  0.54526763  1
  S2-  S234  1  0.38332830  0.24364543  0.04393314  1
  S2-  S235  1  0.38435109  0.24972035  0.54004616  1
  S2-  S236  1  0.37795032  0.49021274  0.05024625  1
  S2-  S237  1  0.38684390  0.49831294  0.54955189  1
  S2-  S238  1  0.38374318  0.73955402  0.04415870  1
  S2-  S239  1  0.38614366  0.74800875  0.54388105  1
  S2-  S240  1  0.63200755  -0.00698225  0.05197647  1
  S2-  S241  1  0.63143202  -0.00192345  0.54455484  1
  S2-  S242  1  0.63161346  0.23883434  0.05502401  1
  S2-  S243  1  0.63795206  0.25079212  0.54744888  1
  S2-  S244  1  0.63472058  0.49136609  0.05384739  1
  S2-  S245  1  0.62972637  0.49343212  0.53541420  1
  S2-  S246  1  0.63521882  0.73862029  0.05121677  1
  S2-  S247  1  0.63354005  0.75378586  0.53583312  1
  S2-  S248  1  0.88298201  -0.00795532  0.04375690  1
  S2-  S249  1  0.88643249  0.00181431  0.54210098  1
  S2-  S250  1  0.88478397  0.24048878  0.04773564  1
  S2-  S251  1  0.88130598  0.25035698  0.54616926  1
  S2-  S252  1  0.88688854  0.48956627  0.05686196  1
  S2-  S253  1  0.88371802  0.49876432  0.54146094  1
  S2-  S254  1  0.87954934  0.74282205  0.03317782  1
  S2-  S255  1  0.88296009  0.74872312  0.54847298  1
