# generated using pymatgen
data_La12Ce14Pr13Nd13Sm12(BiS2)64
_symmetry_space_group_name_H-M   'P 1'
_cell_length_a   16.21145604
_cell_length_b   16.17733519
_cell_length_c   27.17486197
_cell_angle_alpha   89.89332885
_cell_angle_beta   90.03647539
_cell_angle_gamma   90.00091063
_symmetry_Int_Tables_number   1
_chemical_formula_structural   La12Ce14Pr13Nd13Sm12(BiS2)64
_chemical_formula_sum   'La12 Ce14 Pr13 Nd13 Sm12 Bi64 S128'
_cell_volume   7126.81545647
_cell_formula_units_Z   1
loop_
 _symmetry_equiv_pos_site_id
 _symmetry_equiv_pos_as_xyz
  1  'x, y, z'
loop_
 _atom_type_symbol
 _atom_type_oxidation_number
  La3+  3.0
  Ce3+  3.0
  Pr3+  3.0
  Nd3+  3.0
  Sm3+  3.0
  Bi2+  2.0
  S2-  -2.0
loop_
 _atom_site_type_symbol
 _atom_site_label
 _atom_site_symmetry_multiplicity
 _atom_site_fract_x
 _atom_site_fract_y
 _atom_site_fract_z
 _atom_site_occupancy
  La3+  La0  1  0.01375746  0.35914120  0.07451404  1
  La3+  La1  1  0.10756174  0.75567028  0.44080109  1
  La3+  La2  1  0.25246996  0.84646843  0.06890241  1
  La3+  La3  1  0.60440751  0.26226511  0.41520912  1
  La3+  La4  1  0.88563753  0.72707191  0.91506929  1
  La3+  La5  1  0.85616187  0.24163747  0.41306213  1
  La3+  La6  1  0.75782129  0.84973339  0.06894132  1
  La3+  La7  1  -0.01809022  0.87282774  0.58275206  1
  La3+  La8  1  0.62833572  0.49232521  0.89303297  1
  La3+  La9  1  0.10644302  0.49984897  0.43487378  1
  La3+  La10  1  0.10807458  0.25013065  0.43431680  1
  La3+  La11  1  -0.00018529  0.10286207  0.10290595  1
  Ce3+  Ce12  1  0.10922400  0.00079301  0.44946932  1
  Ce3+  Ce13  1  0.23634303  0.12673555  0.55669016  1
  Ce3+  Ce14  1  0.75798978  0.35641785  0.05532346  1
  Ce3+  Ce15  1  0.36276527  0.00054177  0.44420022  1
  Ce3+  Ce16  1  0.74050701  0.87572694  0.56192945  1
  Ce3+  Ce17  1  0.49058097  0.37442322  0.56623637  1
  Ce3+  Ce18  1  0.74955061  0.10691229  0.06905999  1
  Ce3+  Ce19  1  0.75575280  0.60698753  0.04923636  1
  Ce3+  Ce20  1  0.48893683  0.62456165  0.56415581  1
  Ce3+  Ce21  1  0.25806186  0.35696260  0.06224111  1
  Ce3+  Ce22  1  -0.01347001  0.37396606  0.55740748  1
  Ce3+  Ce23  1  0.50476531  0.85330120  0.05562696  1
  Ce3+  Ce24  1  0.13069026  0.48278566  0.94177982  1
  Ce3+  Ce25  1  0.50910144  0.10588002  0.06664021  1
  Pr3+  Pr26  1  0.25474745  0.10452678  0.06905533  1
  Pr3+  Pr27  1  0.87947955  -0.01755323  0.94083709  1
  Pr3+  Pr28  1  0.36508397  0.75076099  0.43799693  1
  Pr3+  Pr29  1  0.36259082  0.50163313  0.44625527  1
  Pr3+  Pr30  1  0.13560936  0.74380635  0.92118474  1
  Pr3+  Pr31  1  0.85901053  0.75120258  0.43759339  1
  Pr3+  Pr32  1  0.88105830  0.23602902  0.93896940  1
  Pr3+  Pr33  1  0.00305918  0.85355594  0.06333405  1
  Pr3+  Pr34  1  0.12870524  0.23094809  0.94320315  1
  Pr3+  Pr35  1  0.63147763  0.23267438  0.93359005  1
  Pr3+  Pr36  1  0.61223523  -0.00039559  0.43871236  1
  Pr3+  Pr37  1  0.88211226  0.47935357  0.93232845  1
  Pr3+  Pr38  1  0.23961772  0.87435299  0.56233602  1
  Nd3+  Nd39  1  0.36379529  0.25217628  0.44019163  1
  Nd3+  Nd40  1  0.38175164  0.73269383  0.92867910  1
  Nd3+  Nd41  1  0.38043916  -0.01672045  0.94761640  1
  Nd3+  Nd42  1  0.38228643  0.47372554  0.92488455  1
  Nd3+  Nd43  1  0.61419828  0.50477423  0.44241515  1
  Nd3+  Nd44  1  0.74039163  0.61538414  0.57598217  1
  Nd3+  Nd45  1  0.49020622  0.87696893  0.56275494  1
  Nd3+  Nd46  1  -0.01486870  0.12976146  0.56363422  1
  Nd3+  Nd47  1  0.50469839  0.60382969  0.05249829  1
  Nd3+  Nd48  1  0.63080070  0.73554074  0.93470412  1
  Nd3+  Nd49  1  -0.01142692  0.61849960  0.56213835  1
  Nd3+  Nd50  1  0.50730605  0.35796248  0.05816945  1
  Nd3+  Nd51  1  0.38042615  0.23187737  0.94347160  1
  Sm3+  Sm52  1  0.73847254  0.37054986  0.55378998  1
  Sm3+  Sm53  1  0.23825147  0.62669766  0.55514416  1
  Sm3+  Sm54  1  0.73760768  0.12764932  0.55251464  1
  Sm3+  Sm55  1  0.86330573  -0.00563559  0.43725780  1
  Sm3+  Sm56  1  0.85916812  0.50144694  0.44076445  1
  Sm3+  Sm57  1  0.00531641  0.61575390  0.05178983  1
  Sm3+  Sm58  1  0.63214793  -0.01531338  0.94517218  1
  Sm3+  Sm59  1  0.49009645  0.12805314  0.55342089  1
  Sm3+  Sm60  1  0.12824148  -0.01625262  0.94742861  1
  Sm3+  Sm61  1  0.23717627  0.37488275  0.55635657  1
  Sm3+  Sm62  1  0.61499267  0.74878703  0.45571937  1
  Sm3+  Sm63  1  0.25886585  0.60815898  0.04761876  1
  Bi2+  Bi64  1  0.02463833  0.13570449  0.31464659  1
  Bi2+  Bi65  1  -0.09897426  0.15146873  0.78532562  1
  Bi2+  Bi66  1  0.02347810  0.40558145  0.29508932  1
  Bi2+  Bi67  1  0.01104432  0.33534052  0.78656006  1
  Bi2+  Bi68  1  -0.01145552  0.66653926  0.29531236  1
  Bi2+  Bi69  1  0.01109831  0.59571371  0.78499721  1
  Bi2+  Bi70  1  0.02189938  0.87246575  0.30001865  1
  Bi2+  Bi71  1  -0.00972319  0.88189501  0.79493417  1
  Bi2+  Bi72  1  0.28983186  0.11058873  0.27416908  1
  Bi2+  Bi73  1  0.25549089  0.14493935  0.80507928  1
  Bi2+  Bi74  1  0.28062377  0.39576848  0.28894771  1
  Bi2+  Bi75  1  0.26340056  0.33534505  0.77764972  1
  Bi2+  Bi76  1  0.30964634  0.62834021  0.27127702  1
  Bi2+  Bi77  1  0.23725272  0.59366293  0.78508357  1
  Bi2+  Bi78  1  0.31987625  0.91474244  0.27664710  1
  Bi2+  Bi79  1  0.25488414  0.87771298  0.79646310  1
  Bi2+  Bi80  1  0.49047260  0.15925833  0.27167814  1
  Bi2+  Bi81  1  0.53120994  0.14132671  0.79308658  1
  Bi2+  Bi82  1  0.47389427  0.39904634  0.29254272  1
  Bi2+  Bi83  1  0.48978229  0.35346782  0.78957849  1
  Bi2+  Bi84  1  0.56830675  0.63133046  0.29133225  1
  Bi2+  Bi85  1  0.47744557  0.73899226  0.80385177  1
  Bi2+  Bi86  1  0.49037967  0.82646688  0.28917636  1
  Bi2+  Bi87  1  0.48429702  0.93394909  0.80701012  1
  Bi2+  Bi88  1  0.74146302  0.09898404  0.28347011  1
  Bi2+  Bi89  1  0.71612736  0.11263625  0.82864146  1
  Bi2+  Bi90  1  0.70445524  0.37807774  0.27516891  1
  Bi2+  Bi91  1  0.76455925  0.29140554  0.78585392  1
  Bi2+  Bi92  1  0.74907320  0.64435347  0.34007825  1
  Bi2+  Bi93  1  0.76181679  0.64277433  0.78151710  1
  Bi2+  Bi94  1  0.77489923  0.81702607  0.28317139  1
  Bi2+  Bi95  1  0.73092617  0.88180302  0.76416790  1
  Bi2+  Bi96  1  0.12098735  -0.00567785  0.21754976  1
  Bi2+  Bi97  1  0.19595100  0.01459138  0.72589767  1
  Bi2+  Bi98  1  0.11862871  0.27117977  0.20568767  1
  Bi2+  Bi99  1  0.12983889  0.24458678  0.69051923  1
  Bi2+  Bi100  1  0.13009689  0.56744873  0.23808215  1
  Bi2+  Bi101  1  0.14403498  0.46146843  0.71772835  1
  Bi2+  Bi102  1  0.14564851  0.75288476  0.20350382  1
  Bi2+  Bi103  1  0.13078240  0.75499016  0.70168414  1
  Bi2+  Bi104  1  0.40787291  0.05104966  0.18651621  1
  Bi2+  Bi105  1  0.40320619  0.00493666  0.70870731  1
  Bi2+  Bi106  1  0.34476023  0.26613705  0.20632840  1
  Bi2+  Bi107  1  0.38327310  0.20629379  0.72165791  1
  Bi2+  Bi108  1  0.36459926  0.48068830  0.19753235  1
  Bi2+  Bi109  1  0.41381516  0.54822925  0.74630259  1
  Bi2+  Bi110  1  0.39619513  0.73752925  0.18990209  1
  Bi2+  Bi111  1  0.35357648  0.72236274  0.71144105  1
  Bi2+  Bi112  1  0.57344881  -0.01182180  0.24245069  1
  Bi2+  Bi113  1  0.60425637  -0.00130793  0.69875790  1
  Bi2+  Bi114  1  0.61195450  0.25751537  0.19947774  1
  Bi2+  Bi115  1  0.62991501  0.23788318  0.70691013  1
  Bi2+  Bi116  1  0.65802155  0.53288920  0.20958608  1
  Bi2+  Bi117  1  0.62836365  0.48714454  0.70058218  1
  Bi2+  Bi118  1  0.65146496  0.73518224  0.20354380  1
  Bi2+  Bi119  1  0.57761733  0.80294422  0.71063633  1
  Bi2+  Bi120  1  0.85839291  -0.01216425  0.21663195  1
  Bi2+  Bi121  1  0.79617764  0.04562961  0.71226594  1
  Bi2+  Bi122  1  0.86484719  0.25890772  0.21522472  1
  Bi2+  Bi123  1  0.94021215  0.26887210  0.67364577  1
  Bi2+  Bi124  1  0.83943772  0.54980046  0.25086960  1
  Bi2+  Bi125  1  0.88106779  0.43369085  0.72022652  1
  Bi2+  Bi126  1  0.89204931  0.74305355  0.20463258  1
  Bi2+  Bi127  1  0.88571513  0.75230662  0.69938938  1
  S2-  S128  1  -0.00325133  0.14854272  0.21629870  1
  S2-  S129  1  0.01743445  0.11631297  0.66209733  1
  S2-  S130  1  -0.02768554  0.35823370  0.17513112  1
  S2-  S131  1  -0.00364365  0.45252053  0.64470496  1
  S2-  S132  1  0.01404271  0.71823998  0.13216445  1
  S2-  S133  1  0.00273245  0.66196572  0.65831305  1
  S2-  S134  1  -0.00393324  0.94806000  0.15279364  1
  S2-  S135  1  0.01766457  0.87292503  0.68682358  1
  S2-  S136  1  0.16011884  0.12241778  0.15312649  1
  S2-  S137  1  0.25033332  0.13565228  0.65329023  1
  S2-  S138  1  0.16588550  0.37920716  0.14259377  1
  S2-  S139  1  0.24452617  0.37555763  0.65484303  1
  S2-  S140  1  0.24999351  0.69671510  0.13208233  1
  S2-  S141  1  0.23999495  0.63919718  0.65307183  1
  S2-  S142  1  0.21628224  0.89845428  0.16619366  1
  S2-  S143  1  0.21813326  0.88302997  0.66183418  1
  S2-  S144  1  0.62024722  0.12057979  0.14046386  1
  S2-  S145  1  0.50383424  0.12853213  0.65115587  1
  S2-  S146  1  0.47811756  0.35479266  0.15770076  1
  S2-  S147  1  0.52278621  0.36469267  0.66298233  1
  S2-  S148  1  0.46639681  0.60026135  0.15079174  1
  S2-  S149  1  0.51289955  0.59970206  0.66031336  1
  S2-  S150  1  0.52197623  0.83011773  0.15202435  1
  S2-  S151  1  0.43467199  0.85516747  0.65571586  1
  S2-  S152  1  0.84161232  0.12344852  0.15097362  1
  S2-  S153  1  0.75053068  0.17442658  0.64830628  1
  S2-  S154  1  0.74772494  0.33871024  0.15371117  1
  S2-  S155  1  0.75136531  0.43975006  0.64485534  1
  S2-  S156  1  0.77090014  0.70108028  0.13210926  1
  S2-  S157  1  0.75760743  0.65606083  0.67298133  1
  S2-  S158  1  0.74828044  0.92263640  0.16225615  1
  S2-  S159  1  0.83165273  0.88600928  0.64277093  1
  S2-  S160  1  0.11174335  -0.00825410  0.35067833  1
  S2-  S161  1  0.12825518  -0.08543784  0.85596659  1
  S2-  S162  1  0.14420262  0.25039391  0.33528935  1
  S2-  S163  1  0.11527017  0.22438062  0.84193628  1
  S2-  S164  1  0.14913417  0.49998403  0.33811704  1
  S2-  S165  1  0.12424386  0.50141247  0.84445756  1
  S2-  S166  1  0.11860346  0.75360125  0.34009329  1
  S2-  S167  1  0.02860936  0.72821011  0.84039741  1
  S2-  S168  1  0.38150730  0.01708341  0.34818041  1
  S2-  S169  1  0.34294656  0.00618055  0.85136908  1
  S2-  S170  1  0.45680519  0.26287060  0.35600489  1
  S2-  S171  1  0.36464426  0.33287615  0.86105725  1
  S2-  S172  1  0.37670515  0.51649935  0.34663584  1
  S2-  S173  1  0.47775051  0.50508277  0.83993592  1
  S2-  S174  1  0.34217468  0.76483432  0.33855046  1
  S2-  S175  1  0.26838169  0.73730857  0.85175864  1
  S2-  S176  1  0.63576637  0.00486199  0.33794859  1
  S2-  S177  1  0.64848399  -0.05220322  0.84945886  1
  S2-  S178  1  0.72087903  0.24072594  0.34152676  1
  S2-  S179  1  0.62151068  0.33005451  0.84875190  1
  S2-  S180  1  0.60653552  0.42185119  0.35496290  1
  S2-  S181  1  0.69416998  0.50025921  0.79414888  1
  S2-  S182  1  0.60398266  0.76502546  0.35878726  1
  S2-  S183  1  0.63415430  0.67418117  0.84205255  1
  S2-  S184  1  0.87047582  0.08655276  0.35286369  1
  S2-  S185  1  0.92456944  0.00393388  0.84197589  1
  S2-  S186  1  0.93186816  0.28171747  0.32210749  1
  S2-  S187  1  0.88803965  0.34918763  0.85908411  1
  S2-  S188  1  0.90582957  0.48887684  0.34561614  1
  S2-  S189  1  0.87981816  0.58152115  0.84733685  1
  S2-  S190  1  0.87835750  0.87027122  0.36289351  1
  S2-  S191  1  0.84064746  0.80594910  0.82535591  1
  S2-  S192  1  -0.01396323  0.12426637  0.45552822  1
  S2-  S193  1  0.00570511  0.10725891  0.94889221  1
  S2-  S194  1  -0.01896271  0.37445791  0.44997283  1
  S2-  S195  1  0.00923844  0.35924016  0.96179708  1
  S2-  S196  1  -0.01708105  0.62599165  0.45286752  1
  S2-  S197  1  0.00918478  0.60584970  0.94943765  1
  S2-  S198  1  -0.01375882  0.87651689  0.46839156  1
  S2-  S199  1  0.00491620  0.86010491  0.95456441  1
  S2-  S200  1  0.23910815  0.12678182  0.44943121  1
  S2-  S201  1  0.25536139  0.10721276  0.96039910  1
  S2-  S202  1  0.23822241  0.37500605  0.45029253  1
  S2-  S203  1  0.25218865  0.35605449  0.95805190  1
  S2-  S204  1  0.23605148  0.62765165  0.44944390  1
  S2-  S205  1  0.26203749  0.60174274  0.94517026  1
  S2-  S206  1  0.23863301  0.87629363  0.45420874  1
  S2-  S207  1  0.25847783  0.86202908  0.95892548  1
  S2-  S208  1  0.48916295  0.12608726  0.45024534  1
  S2-  S209  1  0.50579280  0.10726817  0.95448098  1
  S2-  S210  1  0.48640312  0.38013210  0.46053000  1
  S2-  S211  1  0.50761790  0.35870414  0.95388636  1
  S2-  S212  1  0.48995094  0.62693349  0.45577583  1
  S2-  S213  1  0.50442592  0.60612758  0.94680598  1
  S2-  S214  1  0.48966710  0.87371083  0.45588238  1
  S2-  S215  1  0.50557327  0.85948375  0.94879348  1
  S2-  S216  1  0.73381089  0.12361177  0.45048786  1
  S2-  S217  1  0.75537713  0.10914598  0.95899240  1
  S2-  S218  1  0.73988019  0.37752461  0.45013944  1
  S2-  S219  1  0.75091842  0.36269061  0.95135911  1
  S2-  S220  1  0.73711661  0.62478041  0.46621558  1
  S2-  S221  1  0.74894756  0.60202040  0.94554094  1
  S2-  S222  1  0.73434116  0.87430475  0.45687537  1
  S2-  S223  1  0.75279982  0.85770613  0.95418839  1
  S2-  S224  1  0.12880521  -0.01870550  0.05015225  1
  S2-  S225  1  0.11012628  -0.00013263  0.55589842  1
  S2-  S226  1  0.12986978  0.22948780  0.04928904  1
  S2-  S227  1  0.11356635  0.25272497  0.54374323  1
  S2-  S228  1  0.13104707  0.49405411  0.04694114  1
  S2-  S229  1  0.11838272  0.50081029  0.54310305  1
  S2-  S230  1  0.13276579  0.72922156  0.02929000  1
  S2-  S231  1  0.11253780  0.74915537  0.54951965  1
  S2-  S232  1  0.37981831  -0.02101665  0.05354021  1
  S2-  S233  1  0.36618781  0.00256003  0.55112722  1
  S2-  S234  1  0.38228804  0.22996733  0.04975643  1
  S2-  S235  1  0.36402328  0.25147539  0.54739406  1
  S2-  S236  1  0.37877557  0.48085755  0.03917608  1
  S2-  S237  1  0.36076085  0.50005447  0.55391046  1
  S2-  S238  1  0.38321003  0.72973025  0.03465434  1
  S2-  S239  1  0.36441555  0.74911929  0.54620290  1
  S2-  S240  1  0.62831479  -0.02373267  0.04782865  1
  S2-  S241  1  0.61366654  0.00253688  0.54777496  1
  S2-  S242  1  0.62943234  0.23628732  0.04073670  1
  S2-  S243  1  0.61347504  0.25066561  0.54211781  1
  S2-  S244  1  0.63088400  0.48221236  0.05510605  1
  S2-  S245  1  0.61441747  0.49855922  0.54800538  1
  S2-  S246  1  0.62673651  0.72859532  0.04067741  1
  S2-  S247  1  0.61577799  0.74933522  0.56034679  1
  S2-  S248  1  0.87929832  -0.01650325  0.04810082  1
  S2-  S249  1  0.86215022  0.00684131  0.54445125  1
  S2-  S250  1  0.88639542  0.23442240  0.04689282  1
  S2-  S251  1  0.86039537  0.25037224  0.53842260  1
  S2-  S252  1  0.88556425  0.48615436  0.04788726  1
  S2-  S253  1  0.86231179  0.49859078  0.54461681  1
  S2-  S254  1  0.88061970  0.72955891  0.02834571  1
  S2-  S255  1  0.86157904  0.74320070  0.54735307  1
