# generated using pymatgen
data_La12Ce14Pr13Nd13Sm12(BiS2)64
_symmetry_space_group_name_H-M   'P 1'
_cell_length_a   16.07818578
_cell_length_b   16.13319243
_cell_length_c   27.12814125
_cell_angle_alpha   89.77203113
_cell_angle_beta   89.98686417
_cell_angle_gamma   90.00310301
_symmetry_Int_Tables_number   1
_chemical_formula_structural   La12Ce14Pr13Nd13Sm12(BiS2)64
_chemical_formula_sum   'La12 Ce14 Pr13 Nd13 Sm12 Bi64 S128'
_cell_volume   7036.77953798
_cell_formula_units_Z   1
loop_
 _symmetry_equiv_pos_site_id
 _symmetry_equiv_pos_as_xyz
  1  'x, y, z'
loop_
 _atom_type_symbol
 _atom_type_oxidation_number
  La3+  3.0
  Ce3+  3.0
  Pr3+  3.0
  Nd3+  3.0
  Sm3+  3.0
  Bi2+  2.0
  S2-  -2.0
loop_
 _atom_site_type_symbol
 _atom_site_label
 _atom_site_symmetry_multiplicity
 _atom_site_fract_x
 _atom_site_fract_y
 _atom_site_fract_z
 _atom_site_occupancy
  La3+  La0  1  0.11750956  0.51027250  0.41994243  1
  La3+  La1  1  0.50731833  0.37804822  0.56449519  1
  La3+  La2  1  0.75206734  0.63450237  0.57648206  1
  La3+  La3  1  0.62723211  0.50852551  0.42557496  1
  La3+  La4  1  0.24324181  0.87821292  0.57445657  1
  La3+  La5  1  0.62959172  0.75435331  0.93715237  1
  La3+  La6  1  0.00496276  0.61987985  0.57633991  1
  La3+  La7  1  0.37959395  0.24134897  0.88045006  1
  La3+  La8  1  0.00718769  0.38863477  0.09282962  1
  La3+  La9  1  0.73478681  0.62300154  0.08599391  1
  La3+  La10  1  0.75547609  0.12628354  0.56729164  1
  La3+  La11  1  0.88170558  0.01157526  0.40354733  1
  Ce3+  Ce12  1  0.87691472  0.75162481  0.44072073  1
  Ce3+  Ce13  1  0.75382698  0.87607625  0.55491802  1
  Ce3+  Ce14  1  0.62745615  0.00512710  0.44125125  1
  Ce3+  Ce15  1  0.00634325  0.88105784  0.54950419  1
  Ce3+  Ce16  1  0.62845128  0.24407316  0.43687003  1
  Ce3+  Ce17  1  0.00680449  0.13332415  0.55564678  1
  Ce3+  Ce18  1  0.12707270  0.75327623  0.43592670  1
  Ce3+  Ce19  1  0.75519389  0.37776836  0.55313559  1
  Ce3+  Ce20  1  0.49696827  0.12754797  0.05105485  1
  Ce3+  Ce21  1  0.25503582  0.12987005  0.56166798  1
  Ce3+  Ce22  1  0.25013125  0.62530634  0.55505601  1
  Ce3+  Ce23  1  -0.00713129  0.87920314  0.07011570  1
  Ce3+  Ce24  1  0.12401216  0.75821726  0.94408080  1
  Ce3+  Ce25  1  0.01083614  0.12443174  0.08465158  1
  Pr3+  Pr26  1  0.74349154  0.88037551  0.07331279  1
  Pr3+  Pr27  1  0.38055647  0.25251893  0.42876181  1
  Pr3+  Pr28  1  0.24725737  0.12887117  0.05452588  1
  Pr3+  Pr29  1  0.62226844  0.76303609  0.42561310  1
  Pr3+  Pr30  1  0.50042232  0.88582492  0.07134684  1
  Pr3+  Pr31  1  -0.00430096  0.63022267  0.06455503  1
  Pr3+  Pr32  1  0.75345971  0.13279182  0.06748162  1
  Pr3+  Pr33  1  0.13532787  0.00657204  0.42747225  1
  Pr3+  Pr34  1  0.62675826  0.25393451  0.93624247  1
  Pr3+  Pr35  1  0.37670277  0.75638862  0.43995056  1
  Pr3+  Pr36  1  0.12022592  0.25735886  0.93637408  1
  Pr3+  Pr37  1  0.63087472  0.00558150  0.93237988  1
  Pr3+  Pr38  1  0.25470916  0.87720871  0.06682765  1
  Nd3+  Nd39  1  0.49997935  0.87064783  0.58140557  1
  Nd3+  Nd40  1  0.11930818  0.50774640  0.93613231  1
  Nd3+  Nd41  1  0.49525550  0.37681708  0.05441516  1
  Nd3+  Nd42  1  0.25101666  0.62959975  0.05596291  1
  Nd3+  Nd43  1  0.50752594  0.12446073  0.57163542  1
  Nd3+  Nd44  1  0.25368296  0.37859329  0.55234760  1
  Nd3+  Nd45  1  0.37196930  0.50112971  0.93012197  1
  Nd3+  Nd46  1  0.37736096  0.00174086  0.44633863  1
  Nd3+  Nd47  1  0.13213380  0.25899987  0.42396827  1
  Nd3+  Nd48  1  0.12178422  0.00629064  0.93992226  1
  Nd3+  Nd49  1  0.87012245  0.50712441  0.94227960  1
  Nd3+  Nd50  1  0.37355976  -0.00275624  0.92525104  1
  Nd3+  Nd51  1  0.88376571  0.25409523  0.42948425  1
  Sm3+  Sm52  1  0.87046956  0.50472449  0.43646720  1
  Sm3+  Sm53  1  0.24621471  0.37911892  0.05657741  1
  Sm3+  Sm54  1  0.51055639  0.63004370  0.56458379  1
  Sm3+  Sm55  1  0.48777830  0.62799409  0.06424635  1
  Sm3+  Sm56  1  0.00530994  0.37196276  0.55838789  1
  Sm3+  Sm57  1  0.87038896  0.75566273  0.94715419  1
  Sm3+  Sm58  1  0.88336858  0.25814330  0.95387796  1
  Sm3+  Sm59  1  0.38464546  0.75574711  0.92839964  1
  Sm3+  Sm60  1  0.62545500  0.50371055  0.94373960  1
  Sm3+  Sm61  1  0.87485484  0.00794336  0.94651906  1
  Sm3+  Sm62  1  0.38511404  0.50475639  0.44159918  1
  Sm3+  Sm63  1  0.74877982  0.38066128  0.06340314  1
  Bi2+  Bi64  1  -0.01916560  0.15153809  0.28273188  1
  Bi2+  Bi65  1  -0.02649780  0.09281263  0.83092132  1
  Bi2+  Bi66  1  0.02686935  0.40569432  0.28381256  1
  Bi2+  Bi67  1  -0.09601940  0.37161235  0.79847679  1
  Bi2+  Bi68  1  0.07244413  0.64354776  0.25312055  1
  Bi2+  Bi69  1  0.06913563  0.59640345  0.79306730  1
  Bi2+  Bi70  1  0.08174878  0.86013872  0.27410960  1
  Bi2+  Bi71  1  -0.02046396  0.89849770  0.80016286  1
  Bi2+  Bi72  1  0.20615240  0.10074192  0.29244486  1
  Bi2+  Bi73  1  0.14859319  0.12708506  0.78032473  1
  Bi2+  Bi74  1  0.32150323  0.36391854  0.29441754  1
  Bi2+  Bi75  1  0.25200712  0.37195985  0.78228885  1
  Bi2+  Bi76  1  0.26125566  0.63108814  0.29695137  1
  Bi2+  Bi77  1  0.29484403  0.62304872  0.80595770  1
  Bi2+  Bi78  1  0.25354863  0.82570896  0.32832248  1
  Bi2+  Bi79  1  0.20627036  0.84379774  0.80106595  1
  Bi2+  Bi80  1  0.47048844  0.14197360  0.30118897  1
  Bi2+  Bi81  1  0.51740877  0.11358504  0.78408944  1
  Bi2+  Bi82  1  0.51579093  0.32880960  0.32633060  1
  Bi2+  Bi83  1  0.49329979  0.43487244  0.75809556  1
  Bi2+  Bi84  1  0.45498305  0.62053655  0.28520180  1
  Bi2+  Bi85  1  0.49069868  0.61960996  0.79004584  1
  Bi2+  Bi86  1  0.47578305  0.89400491  0.29568507  1
  Bi2+  Bi87  1  0.48507433  0.86872805  0.78318514  1
  Bi2+  Bi88  1  0.72103988  0.10739068  0.28441403  1
  Bi2+  Bi89  1  0.78822339  0.12139282  0.79170939  1
  Bi2+  Bi90  1  0.69758624  0.35923826  0.28087976  1
  Bi2+  Bi91  1  0.72466661  0.30147642  0.81445872  1
  Bi2+  Bi92  1  0.81215221  0.61207304  0.30719432  1
  Bi2+  Bi93  1  0.80378927  0.63449570  0.80041800  1
  Bi2+  Bi94  1  0.73297352  0.83371729  0.29536959  1
  Bi2+  Bi95  1  0.78686487  0.87630352  0.78578112  1
  Bi2+  Bi96  1  0.18493210  -0.01815125  0.19772390  1
  Bi2+  Bi97  1  0.06989885  -0.00603913  0.70879612  1
  Bi2+  Bi98  1  0.18323254  0.25267555  0.21970134  1
  Bi2+  Bi99  1  0.02137647  0.25750300  0.73603854  1
  Bi2+  Bi100  1  0.20314661  0.53874008  0.18680825  1
  Bi2+  Bi101  1  0.13924571  0.48746226  0.70277026  1
  Bi2+  Bi102  1  0.15425304  0.78299591  0.17707369  1
  Bi2+  Bi103  1  0.12362883  0.74673713  0.71121041  1
  Bi2+  Bi104  1  0.37332037  0.03792454  0.21611798  1
  Bi2+  Bi105  1  0.31525444  0.01931618  0.71797882  1
  Bi2+  Bi106  1  0.37647841  0.23767146  0.20607778  1
  Bi2+  Bi107  1  0.37115065  0.26558204  0.67304072  1
  Bi2+  Bi108  1  0.38337360  0.46971001  0.20323716  1
  Bi2+  Bi109  1  0.34429603  0.53048235  0.70547472  1
  Bi2+  Bi110  1  0.35100705  0.77886398  0.22964655  1
  Bi2+  Bi111  1  0.34883530  0.73024569  0.71382958  1
  Bi2+  Bi112  1  0.58425399  -0.01859002  0.21685771  1
  Bi2+  Bi113  1  0.68341808  -0.01554203  0.70667220  1
  Bi2+  Bi114  1  0.57943352  0.24083473  0.21258244  1
  Bi2+  Bi115  1  0.67167733  0.25841628  0.70635509  1
  Bi2+  Bi116  1  0.58643563  0.49355915  0.22523184  1
  Bi2+  Bi117  1  0.67106045  0.51769366  0.75207145  1
  Bi2+  Bi118  1  0.63388508  0.73074561  0.21896233  1
  Bi2+  Bi119  1  0.62657763  0.72849556  0.69981545  1
  Bi2+  Bi120  1  0.88371504  -0.00012747  0.20389445  1
  Bi2+  Bi121  1  0.87689300  -0.00803496  0.69087309  1
  Bi2+  Bi122  1  0.77388434  0.23053965  0.19953383  1
  Bi2+  Bi123  1  0.85989044  0.18738255  0.68438216  1
  Bi2+  Bi124  1  0.86759631  0.51138821  0.20099852  1
  Bi2+  Bi125  1  0.87397112  0.48621068  0.70620106  1
  Bi2+  Bi126  1  0.92935716  0.76170668  0.22013439  1
  Bi2+  Bi127  1  0.92792852  0.74061924  0.73106540  1
  S2-  S128  1  -0.06376801  0.15976596  0.17766946  1
  S2-  S129  1  0.01123219  0.24321696  0.63382758  1
  S2-  S130  1  -0.05870621  0.36916717  0.18993402  1
  S2-  S131  1  0.00542775  0.46966437  0.64117547  1
  S2-  S132  1  0.01496719  0.54755364  0.15206963  1
  S2-  S133  1  -0.12121029  0.63024243  0.65301623  1
  S2-  S134  1  0.02295965  0.98238794  0.14829537  1
  S2-  S135  1  0.09287784  0.87212626  0.63690965  1
  S2-  S136  1  0.16104846  0.14161451  0.14388126  1
  S2-  S137  1  0.20852210  0.08768544  0.65482367  1
  S2-  S138  1  0.16728623  0.38177741  0.14694462  1
  S2-  S139  1  0.22317492  0.36023890  0.65115931  1
  S2-  S140  1  0.35293427  0.61019831  0.13649345  1
  S2-  S141  1  0.15514349  0.62959076  0.63935532  1
  S2-  S142  1  0.37411981  0.85453559  0.14150193  1
  S2-  S143  1  0.33022731  0.88693125  0.66340095  1
  S2-  S144  1  0.49625869  0.04396008  0.13737963  1
  S2-  S145  1  0.42624245  0.11240091  0.66277976  1
  S2-  S146  1  0.52330994  0.39246453  0.15426977  1
  S2-  S147  1  0.52493483  0.35074823  0.66447572  1
  S2-  S148  1  0.58006744  0.62959211  0.14976236  1
  S2-  S149  1  0.48278501  0.73082104  0.64566720  1
  S2-  S150  1  0.62252774  0.85826995  0.15032563  1
  S2-  S151  1  0.54588406  0.91295982  0.68240264  1
  S2-  S152  1  0.73670308  0.06229012  0.16025351  1
  S2-  S153  1  0.63883353  0.12816904  0.64645449  1
  S2-  S154  1  0.73954681  0.46719513  0.14825912  1
  S2-  S155  1  0.76876575  0.37409363  0.65171419  1
  S2-  S156  1  0.79394300  0.67315105  0.18234891  1
  S2-  S157  1  0.62255675  0.58990226  0.64388133  1
  S2-  S158  1  0.86525508  0.86379114  0.14807181  1
  S2-  S159  1  0.73503084  0.78982243  0.64038999  1
  S2-  S160  1  0.03156485  0.03258278  0.34251855  1
  S2-  S161  1  0.18091798  -0.01154724  0.84461476  1
  S2-  S162  1  0.00878902  0.27073507  0.34894872  1
  S2-  S163  1  0.20985836  0.25036232  0.84759525  1
  S2-  S164  1  0.16272951  0.42021386  0.33451014  1
  S2-  S165  1  0.13848262  0.46465258  0.83903615  1
  S2-  S166  1  0.11090335  0.65648088  0.35503756  1
  S2-  S167  1  0.07419898  0.75133092  0.85010729  1
  S2-  S168  1  0.27900457  -0.00733130  0.36121253  1
  S2-  S169  1  0.38463357  0.08215957  0.83515896  1
  S2-  S170  1  0.25996558  0.22946149  0.35349453  1
  S2-  S171  1  0.37154028  0.24670413  0.76682724  1
  S2-  S172  1  0.48665634  0.50583635  0.35877341  1
  S2-  S173  1  0.38483104  0.41139315  0.84481982  1
  S2-  S174  1  0.47501081  0.75295154  0.35557653  1
  S2-  S175  1  0.35829583  0.86611169  0.85171250  1
  S2-  S176  1  0.61910422  -0.09425619  0.35824980  1
  S2-  S177  1  0.56534583  -0.02397509  0.83568810  1
  S2-  S178  1  0.61824948  0.12372877  0.36357996  1
  S2-  S179  1  0.55373882  0.24192022  0.84308658  1
  S2-  S180  1  0.75210200  0.48081345  0.35365808  1
  S2-  S181  1  0.69475135  0.52276970  0.85390161  1
  S2-  S182  1  0.67116030  0.67590599  0.33657552  1
  S2-  S183  1  0.52148606  0.74730795  0.85541077  1
  S2-  S184  1  0.82836162  -0.03408762  0.30541305  1
  S2-  S185  1  0.77243014  -0.00336378  0.86483570  1
  S2-  S186  1  0.84231080  0.16171933  0.34590879  1
  S2-  S187  1  0.97872857  0.25940381  0.87000497  1
  S2-  S188  1  0.96157976  0.50349250  0.35008188  1
  S2-  S189  1  0.92940872  0.53309718  0.84867470  1
  S2-  S190  1  0.88144481  0.75869511  0.34103244  1
  S2-  S191  1  0.76586968  0.75751643  0.86592289  1
  S2-  S192  1  0.00607077  0.12914127  0.45127477  1
  S2-  S193  1  -0.00051087  0.12701220  0.96938086  1
  S2-  S194  1  0.00097555  0.38103856  0.45348795  1
  S2-  S195  1  -0.00216415  0.38922116  0.96371871  1
  S2-  S196  1  -0.00425228  0.62832857  0.46019384  1
  S2-  S197  1  -0.00412185  0.63398655  0.95747935  1
  S2-  S198  1  0.00372152  0.88197691  0.44292544  1
  S2-  S199  1  -0.00611328  0.88028102  0.95789095  1
  S2-  S200  1  0.25580819  0.13091247  0.45749851  1
  S2-  S201  1  0.25024338  0.12780974  0.94833474  1
  S2-  S202  1  0.26123232  0.38356116  0.44720204  1
  S2-  S203  1  0.24448786  0.38464141  0.95309739  1
  S2-  S204  1  0.25808182  0.62460234  0.44946655  1
  S2-  S205  1  0.25111955  0.63188032  0.94833585  1
  S2-  S206  1  0.24952413  0.87666525  0.46376618  1
  S2-  S207  1  0.24751750  0.87809885  0.95786587  1
  S2-  S208  1  0.49743068  0.12764046  0.46248208  1
  S2-  S209  1  0.49840440  0.12928982  0.94710898  1
  S2-  S210  1  0.50432632  0.37418723  0.45663305  1
  S2-  S211  1  0.50272015  0.37985257  0.94911012  1
  S2-  S212  1  0.50261108  0.63152153  0.46006536  1
  S2-  S213  1  0.49875996  0.62115598  0.95486945  1
  S2-  S214  1  0.49872736  0.88152031  0.46420543  1
  S2-  S215  1  0.50210241  0.88222709  0.95659766  1
  S2-  S216  1  0.75965446  0.12372146  0.45834313  1
  S2-  S217  1  0.75702359  0.13783834  0.95854415  1
  S2-  S218  1  0.75080659  0.36935898  0.44902456  1
  S2-  S219  1  0.75198419  0.37802786  0.95797453  1
  S2-  S220  1  0.75149818  0.63269755  0.45695354  1
  S2-  S221  1  0.74835901  0.62571532  0.96735869  1
  S2-  S222  1  0.76334387  0.88692794  0.44943605  1
  S2-  S223  1  0.75324901  0.88207680  0.96668317  1
  S2-  S224  1  0.12791239  -0.00306440  0.04451141  1
  S2-  S225  1  0.12819440  0.00922362  0.53835843  1
  S2-  S226  1  0.12104503  0.25948433  0.04446683  1
  S2-  S227  1  0.13294034  0.25581538  0.53331706  1
  S2-  S228  1  0.12599796  0.50812373  0.04335186  1
  S2-  S229  1  0.13016069  0.49836011  0.53471915  1
  S2-  S230  1  0.12376347  0.75365166  0.04973384  1
  S2-  S231  1  0.12539069  0.74898353  0.53886341  1
  S2-  S232  1  0.37152943  0.00509757  0.03684114  1
  S2-  S233  1  0.37882131  0.00028250  0.55181180  1
  S2-  S234  1  0.37044754  0.25488889  0.05644972  1
  S2-  S235  1  0.38103052  0.25256848  0.54416578  1
  S2-  S236  1  0.37161135  0.49868170  0.03724743  1
  S2-  S237  1  0.38216680  0.50509621  0.54797286  1
  S2-  S238  1  0.37541388  0.75169638  0.03398471  1
  S2-  S239  1  0.37214247  0.75187846  0.54722032  1
  S2-  S240  1  0.62872617  0.01055655  0.04068323  1
  S2-  S241  1  0.62578911  -0.00459014  0.54944260  1
  S2-  S242  1  0.62499675  0.25588595  0.04793866  1
  S2-  S243  1  0.62934978  0.25137733  0.54394790  1
  S2-  S244  1  0.61746015  0.50093537  0.04598509  1
  S2-  S245  1  0.63001314  0.50072661  0.53732283  1
  S2-  S246  1  0.61600147  0.74960520  0.04525941  1
  S2-  S247  1  0.62399749  0.75705547  0.53828760  1
  S2-  S248  1  0.87504032  0.00862449  0.05018420  1
  S2-  S249  1  0.88306727  0.00328029  0.55308330  1
  S2-  S250  1  0.87865228  0.26232102  0.05846932  1
  S2-  S251  1  0.87754388  0.25327030  0.53763150  1
  S2-  S252  1  0.87245951  0.50286385  0.05088639  1
  S2-  S253  1  0.87534631  0.50094572  0.54156948  1
  S2-  S254  1  0.86648716  0.74818697  0.05028604  1
  S2-  S255  1  0.88434330  0.75614987  0.54623341  1
