# generated using pymatgen
data_In22Ag21Sn22Bi21(Te54Pb11)2
_symmetry_space_group_name_H-M   'P 1'
_cell_length_a   19.12423585
_cell_length_b   19.12457114
_cell_length_c   19.12649498
_cell_angle_alpha   89.99312835
_cell_angle_beta   89.99235721
_cell_angle_gamma   89.99188148
_symmetry_Int_Tables_number   1
_chemical_formula_structural   In22Ag21Sn22Bi21(Te54Pb11)2
_chemical_formula_sum   'In22 Ag21 Sn22 Bi21 Te108 Pb22'
_cell_volume   6995.37781748
_cell_formula_units_Z   1
loop_
 _symmetry_equiv_pos_site_id
 _symmetry_equiv_pos_as_xyz
  1  'x, y, z'
loop_
 _atom_type_symbol
 _atom_type_oxidation_number
  In3+  3.0
  Ag+  1.0
  Sn2+  2.0
  Bi3+  3.0
  Te2-  -2.0
  Pb2+  2.0
loop_
 _atom_site_type_symbol
 _atom_site_label
 _atom_site_symmetry_multiplicity
 _atom_site_fract_x
 _atom_site_fract_y
 _atom_site_fract_z
 _atom_site_occupancy
  In3+  In0  1  0.33828975  0.34935246  0.67369380  1
  In3+  In1  1  0.16958026  0.68994892  0.83482970  1
  In3+  In2  1  0.16512638  0.67777097  0.17044862  1
  In3+  In3  1  0.83265617  0.18177179  0.66909799  1
  In3+  In4  1  0.34405099  0.82339802  0.50438775  1
  In3+  In5  1  0.17214872  0.15942697  0.32689709  1
  In3+  In6  1  0.35163830  0.83083331  0.15578823  1
  In3+  In7  1  0.19219061  -0.00607740  0.51798523  1
  In3+  In8  1  0.82106312  0.83452982  0.00294878  1
  In3+  In9  1  0.15284123  0.34215396  0.16741802  1
  In3+  In10  1  0.65318117  0.82857703  0.82842162  1
  In3+  In11  1  0.34276716  0.50144785  0.82913052  1
  In3+  In12  1  0.65600643  0.16008260  0.82918846  1
  In3+  In13  1  0.15582015  -0.01011204  0.16612820  1
  In3+  In14  1  0.33403982  0.83214834  0.85052932  1
  In3+  In15  1  0.66487394  -0.02695381  0.66516142  1
  In3+  In16  1  -0.01415787  0.66430475  0.66109923  1
  In3+  In17  1  0.01519953  -0.00429316  -0.00837351  1
  In3+  In18  1  0.66982793  0.34664381  0.01297845  1
  In3+  In19  1  0.31437741  0.14215747  0.82716425  1
  In3+  In20  1  0.82655066  0.51279764  0.33896799  1
  In3+  In21  1  0.51794862  0.66766824  0.17113766  1
  Ag+  Ag22  1  0.66256655  0.47781210  0.19324640  1
  Ag+  Ag23  1  0.65778941  0.83634857  0.18819717  1
  Ag+  Ag24  1  0.50122705  0.50862906  0.31572865  1
  Ag+  Ag25  1  0.18143843  -0.00307101  0.81312149  1
  Ag+  Ag26  1  0.50066227  0.36744045  0.14033283  1
  Ag+  Ag27  1  0.33758310  0.65041601  0.65153599  1
  Ag+  Ag28  1  0.50242082  0.47209883  0.02122981  1
  Ag+  Ag29  1  0.80456001  0.65359223  0.48985506  1
  Ag+  Ag30  1  0.80802817  0.36105326  0.49852371  1
  Ag+  Ag31  1  0.35850331  0.68519872  0.30862696  1
  Ag+  Ag32  1  0.63392097  0.66790348  0.65933712  1
  Ag+  Ag33  1  0.64540828  0.83251610  0.48476907  1
  Ag+  Ag34  1  0.33847947  0.52622252  0.46958623  1
  Ag+  Ag35  1  0.02516119  0.50050951  0.18935199  1
  Ag+  Ag36  1  0.36186230  0.00091432  0.65137115  1
  Ag+  Ag37  1  -0.01699234  0.18773664  0.84071148  1
  Ag+  Ag38  1  0.51671828  -0.02590832  0.52311315  1
  Ag+  Ag39  1  0.49804656  0.51184174  0.65018990  1
  Ag+  Ag40  1  0.51990612  0.83538199  0.00626995  1
  Ag+  Ag41  1  0.82939482  0.84892336  0.35993187  1
  Ag+  Ag42  1  0.16431029  0.81972663  0.01327672  1
  Sn2+  Sn43  1  0.83309559  -0.00143355  0.16713015  1
  Sn2+  Sn44  1  0.83608048  0.16469793  0.33899620  1
  Sn2+  Sn45  1  0.65130189  0.50845016  0.49684736  1
  Sn2+  Sn46  1  0.66584628  0.67035377  0.33991649  1
  Sn2+  Sn47  1  0.50370861  0.34349925  0.83595188  1
  Sn2+  Sn48  1  0.17979000  0.83010128  0.67101702  1
  Sn2+  Sn49  1  0.82787411  0.50131441  0.01146004  1
  Sn2+  Sn50  1  0.83681104  0.16241656  -0.00469179  1
  Sn2+  Sn51  1  0.50461854  0.65793618  0.49935600  1
  Sn2+  Sn52  1  0.33695327  -0.01679535  0.33445936  1
  Sn2+  Sn53  1  0.34078008  0.33800043  0.00303649  1
  Sn2+  Sn54  1  0.81615225  0.50479544  0.66500141  1
  Sn2+  Sn55  1  0.83529563  0.83439647  0.66713716  1
  Sn2+  Sn56  1  0.66452725  0.00302717  0.00237992  1
  Sn2+  Sn57  1  0.33357205  0.00169872  0.00279390  1
  Sn2+  Sn58  1  -0.00963300  -0.00559117  0.66770529  1
  Sn2+  Sn59  1  0.82859387  0.33594374  0.82413334  1
  Sn2+  Sn60  1  0.33757111  0.16421424  0.15910866  1
  Sn2+  Sn61  1  -0.00182543  -0.00398011  0.33240490  1
  Sn2+  Sn62  1  0.49063374  0.82119256  0.66878620  1
  Sn2+  Sn63  1  0.16689219  0.16261319  0.66345824  1
  Sn2+  Sn64  1  0.49710622  0.17613354  0.33605927  1
  Bi3+  Bi65  1  0.83467586  -0.00115859  0.83472973  1
  Bi3+  Bi66  1  0.17120185  0.66934444  0.50434893  1
  Bi3+  Bi67  1  0.00114977  0.16235709  0.50651760  1
  Bi3+  Bi68  1  0.82909622  0.66639390  0.17164151  1
  Bi3+  Bi69  1  0.34111454  0.49847259  0.16453079  1
  Bi3+  Bi70  1  0.49883039  -0.00230030  0.16635901  1
  Bi3+  Bi71  1  0.49755648  0.66777945  0.83809617  1
  Bi3+  Bi72  1  0.66343209  0.33379105  0.33631046  1
  Bi3+  Bi73  1  0.33398004  0.66673294  0.00052842  1
  Bi3+  Bi74  1  -0.00087140  0.83469190  0.50049473  1
  Bi3+  Bi75  1  0.16837387  0.16472621  0.00153325  1
  Bi3+  Bi76  1  0.49877961  0.33698535  0.49966504  1
  Bi3+  Bi77  1  0.33425499  0.16649586  0.50228139  1
  Bi3+  Bi78  1  0.00316597  0.83340615  0.83211633  1
  Bi3+  Bi79  1  0.66454420  0.50301707  0.83069128  1
  Bi3+  Bi80  1  0.17148630  0.32984162  0.49794352  1
  Bi3+  Bi81  1  0.33852353  0.33444243  0.33159186  1
  Bi3+  Bi82  1  0.83562377  0.66638283  0.82629301  1
  Bi3+  Bi83  1  0.83041030  -0.00421754  0.50237492  1
  Bi3+  Bi84  1  -0.00148849  0.66616329  0.33005083  1
  Bi3+  Bi85  1  0.00272246  0.49936324  0.83098435  1
  Te2-  Te86  1  0.17169194  0.16997473  0.16672470  1
  Te2-  Te87  1  0.16728628  0.16251242  0.49503660  1
  Te2-  Te88  1  0.16456448  0.15088823  0.83566858  1
  Te2-  Te89  1  0.17316010  0.49618393  0.16433233  1
  Te2-  Te90  1  0.17886846  0.49828428  0.50109028  1
  Te2-  Te91  1  0.16817039  0.49217178  0.83320342  1
  Te2-  Te92  1  0.16286778  0.83604443  0.16306425  1
  Te2-  Te93  1  0.16289417  0.83863209  0.49961575  1
  Te2-  Te94  1  0.16726822  0.84506269  0.83617842  1
  Te2-  Te95  1  0.49817204  0.15891520  0.16868644  1
  Te2-  Te96  1  0.49779222  0.16779014  0.49815980  1
  Te2-  Te97  1  0.50373966  0.17066381  0.83170244  1
  Te2-  Te98  1  0.51012048  0.51461224  0.16505199  1
  Te2-  Te99  1  0.48641418  0.49917715  0.50301935  1
  Te2-  Te100  1  0.50107575  0.50613823  0.83775134  1
  Te2-  Te101  1  0.50550291  0.83235944  0.16009563  1
  Te2-  Te102  1  0.49818603  0.83038089  0.50100378  1
  Te2-  Te103  1  0.49430388  0.83141092  0.83771565  1
  Te2-  Te104  1  0.83619359  0.16642549  0.16798592  1
  Te2-  Te105  1  0.83846617  0.15960234  0.50540347  1
  Te2-  Te106  1  0.83888817  0.16566463  0.82817327  1
  Te2-  Te107  1  0.80962370  0.50641053  0.16858918  1
  Te2-  Te108  1  0.82766824  0.50887764  0.49681192  1
  Te2-  Te109  1  0.83294573  0.50365265  0.83375817  1
  Te2-  Te110  1  0.82826875  0.82982913  0.15597072  1
  Te2-  Te111  1  0.83831421  0.83474923  0.50765999  1
  Te2-  Te112  1  0.84034990  0.83120078  0.83467350  1
  Te2-  Te113  1  0.16857579  0.00457639  0.01110355  1
  Te2-  Te114  1  0.16692627  0.00267351  0.32160520  1
  Te2-  Te115  1  0.15492602  0.00131895  0.66562539  1
  Te2-  Te116  1  0.17170519  0.32893220  0.00712454  1
  Te2-  Te117  1  0.17215682  0.32909070  0.33060242  1
  Te2-  Te118  1  0.17846147  0.33090938  0.66284190  1
  Te2-  Te119  1  0.17008423  0.67029146  -0.00382733  1
  Te2-  Te120  1  0.16124843  0.66561461  0.33601438  1
  Te2-  Te121  1  0.18734303  0.67129938  0.66840580  1
  Te2-  Te122  1  0.49572930  -0.01352493  0.00100474  1
  Te2-  Te123  1  0.49634738  0.00147377  0.32864328  1
  Te2-  Te124  1  0.51120106  -0.00079582  0.66794081  1
  Te2-  Te125  1  0.50755556  0.32599560  -0.00250866  1
  Te2-  Te126  1  0.50094526  0.34056516  0.33721063  1
  Te2-  Te127  1  0.49303367  0.34228602  0.66537768  1
  Te2-  Te128  1  0.49465468  0.68506557  0.00009757  1
  Te2-  Te129  1  0.50178475  0.65939113  0.32652545  1
  Te2-  Te130  1  0.48794443  0.66304221  0.67496024  1
  Te2-  Te131  1  0.83176750  -0.00414439  -0.00154671  1
  Te2-  Te132  1  0.83214239  -0.00515702  0.33544590  1
  Te2-  Te133  1  0.82253767  0.00150401  0.66918704  1
  Te2-  Te134  1  0.82455391  0.33378835  0.00231520  1
  Te2-  Te135  1  0.82548999  0.33337468  0.34648160  1
  Te2-  Te136  1  0.83274129  0.33556745  0.65055605  1
  Te2-  Te137  1  0.83091533  0.67180142  -0.00627466  1
  Te2-  Te138  1  0.83399511  0.66531262  0.34000437  1
  Te2-  Te139  1  0.83370535  0.66528824  0.66467878  1
  Te2-  Te140  1  0.00274323  0.16166349  -0.00905970  1
  Te2-  Te141  1  0.00177208  0.16173409  0.33549888  1
  Te2-  Te142  1  -0.00360437  0.16319136  0.66985265  1
  Te2-  Te143  1  -0.00278967  0.50027647  -0.00862358  1
  Te2-  Te144  1  -0.00543025  0.50159057  0.33403336  1
  Te2-  Te145  1  -0.00392678  0.50328185  0.66803134  1
  Te2-  Te146  1  0.01285407  0.83900181  -0.00439695  1
  Te2-  Te147  1  -0.01386914  0.83021710  0.33484784  1
  Te2-  Te148  1  0.00540266  0.82558491  0.66702637  1
  Te2-  Te149  1  0.33163547  0.16769176  -0.01305328  1
  Te2-  Te150  1  0.32984608  0.16686678  0.33492767  1
  Te2-  Te151  1  0.32963153  0.14973683  0.67005610  1
  Te2-  Te152  1  0.34908701  0.50168324  0.00265463  1
  Te2-  Te153  1  0.34541547  0.49785425  0.32492369  1
  Te2-  Te154  1  0.34489067  0.50279194  0.67650362  1
  Te2-  Te155  1  0.31645307  0.83199908  0.00340861  1
  Te2-  Te156  1  0.33277087  0.82644471  0.33750669  1
  Te2-  Te157  1  0.33554535  0.85282325  0.65467608  1
  Te2-  Te158  1  0.67280183  0.16247442  -0.01027373  1
  Te2-  Te159  1  0.66896417  0.16767685  0.33433863  1
  Te2-  Te160  1  0.67198467  0.17213805  0.67502783  1
  Te2-  Te161  1  0.65666395  0.49730059  -0.00679731  1
  Te2-  Te162  1  0.66039227  0.49949014  0.33946169  1
  Te2-  Te163  1  0.65567324  0.51282772  0.66659604  1
  Te2-  Te164  1  0.66711994  0.83685875  -0.01620132  1
  Te2-  Te165  1  0.67674486  0.82902714  0.33895753  1
  Te2-  Te166  1  0.66282704  0.82076964  0.67489693  1
  Te2-  Te167  1  0.00021722  -0.00054200  0.16354730  1
  Te2-  Te168  1  -0.00384870  0.00003155  0.49881715  1
  Te2-  Te169  1  -0.00488619  -0.00512313  0.83695081  1
  Te2-  Te170  1  -0.00188615  0.34873568  0.16737920  1
  Te2-  Te171  1  0.00968864  0.32704866  0.49947149  1
  Te2-  Te172  1  -0.00113367  0.33386689  0.83215288  1
  Te2-  Te173  1  -0.00685269  0.65007299  0.16791763  1
  Te2-  Te174  1  0.00794952  0.67069179  0.50066934  1
  Te2-  Te175  1  0.00319617  0.66552715  0.82523863  1
  Te2-  Te176  1  0.33460753  -0.00707563  0.16843027  1
  Te2-  Te177  1  0.34082135  0.00450153  0.50216838  1
  Te2-  Te178  1  0.32806672  -0.01035550  0.83352189  1
  Te2-  Te179  1  0.35247125  0.33460044  0.16854552  1
  Te2-  Te180  1  0.33307456  0.32811505  0.50079772  1
  Te2-  Te181  1  0.33947695  0.34000405  0.83266330  1
  Te2-  Te182  1  0.32817224  0.67068612  0.16556884  1
  Te2-  Te183  1  0.33040372  0.66954233  0.50390790  1
  Te2-  Te184  1  0.33095677  0.67147682  0.83761304  1
  Te2-  Te185  1  0.66648543  -0.01234198  0.16276375  1
  Te2-  Te186  1  0.66415207  -0.01335396  0.50840404  1
  Te2-  Te187  1  0.67309548  -0.00029895  0.83030860  1
  Te2-  Te188  1  0.65252496  0.33110902  0.16627005  1
  Te2-  Te189  1  0.66275185  0.33310757  0.49930223  1
  Te2-  Te190  1  0.67254858  0.33856420  0.83648739  1
  Te2-  Te191  1  0.66950203  0.68619437  0.16588010  1
  Te2-  Te192  1  0.66059254  0.67602413  0.50828563  1
  Te2-  Te193  1  0.66976699  0.66923411  0.82562747  1
  Pb2+  Pb194  1  0.49921663  0.00117048  0.83190047  1
  Pb2+  Pb195  1  -0.00070918  0.66706661  -0.00178621  1
  Pb2+  Pb196  1  0.66118174  0.66475677  -0.00192640  1
  Pb2+  Pb197  1  0.17426724  0.49991519  0.33473321  1
  Pb2+  Pb198  1  0.66348576  -0.00320270  0.33558661  1
  Pb2+  Pb199  1  0.00251364  0.33136163  0.66573759  1
  Pb2+  Pb200  1  0.17300194  0.50237768  -0.00323717  1
  Pb2+  Pb201  1  0.50530256  0.82986201  0.33220645  1
  Pb2+  Pb202  1  0.17143390  0.50567439  0.66831455  1
  Pb2+  Pb203  1  0.49826816  0.17355625  0.66493416  1
  Pb2+  Pb204  1  -0.00445722  0.33000706  0.33420357  1
  Pb2+  Pb205  1  0.66756594  0.15890446  0.16210964  1
  Pb2+  Pb206  1  0.16245929  0.83305914  0.33194799  1
  Pb2+  Pb207  1  0.82384537  0.33878572  0.17603442  1
  Pb2+  Pb208  1  -0.00047721  0.50224255  0.50002303  1
  Pb2+  Pb209  1  -0.00727704  0.82565166  0.16404949  1
  Pb2+  Pb210  1  0.17305495  0.32185449  0.83407839  1
  Pb2+  Pb211  1  0.66841018  0.15943530  0.50460352  1
  Pb2+  Pb212  1  0.66336391  0.34322021  0.66838290  1
  Pb2+  Pb213  1  -0.00411387  0.33372339  -0.00044565  1
  Pb2+  Pb214  1  0.00414037  0.16886890  0.16271960  1
  Pb2+  Pb215  1  0.50141551  0.15695339  0.00073082  1
