# generated using pymatgen
data_In22Ag21Sn22Bi21(Te54Pb11)2
_symmetry_space_group_name_H-M   'P 1'
_cell_length_a   19.13065729
_cell_length_b   19.10976603
_cell_length_c   19.13201517
_cell_angle_alpha   90.01314050
_cell_angle_beta   90.02210810
_cell_angle_gamma   90.00542026
_symmetry_Int_Tables_number   1
_chemical_formula_structural   In22Ag21Sn22Bi21(Te54Pb11)2
_chemical_formula_sum   'In22 Ag21 Sn22 Bi21 Te108 Pb22'
_cell_volume   6994.32699386
_cell_formula_units_Z   1
loop_
 _symmetry_equiv_pos_site_id
 _symmetry_equiv_pos_as_xyz
  1  'x, y, z'
loop_
 _atom_type_symbol
 _atom_type_oxidation_number
  In3+  3.0
  Ag+  1.0
  Sn2+  2.0
  Bi3+  3.0
  Te2-  -2.0
  Pb2+  2.0
loop_
 _atom_site_type_symbol
 _atom_site_label
 _atom_site_symmetry_multiplicity
 _atom_site_fract_x
 _atom_site_fract_y
 _atom_site_fract_z
 _atom_site_occupancy
  In3+  In0  1  0.48283964  0.00237170  0.49982983  1
  In3+  In1  1  0.83917151  0.64773161  0.83438958  1
  In3+  In2  1  0.84339103  0.00429230  0.82186320  1
  In3+  In3  1  0.66754029  0.00543087  0.34846049  1
  In3+  In4  1  0.66644872  0.00958052  0.66584212  1
  In3+  In5  1  0.00182289  0.33202355  0.67067912  1
  In3+  In6  1  0.84330489  0.49355036  0.32965419  1
  In3+  In7  1  0.00440813  0.66136131  0.33844577  1
  In3+  In8  1  0.32717131  0.16931241  0.14149205  1
  In3+  In9  1  0.30912382  0.17040132  0.51794215  1
  In3+  In10  1  0.01267654  0.48435963  0.49958723  1
  In3+  In11  1  0.31690052  0.00702559  0.33618836  1
  In3+  In12  1  0.83031453  0.33868372  0.15829583  1
  In3+  In13  1  0.66837870  0.65979660  0.33209598  1
  In3+  In14  1  0.67575209  0.83564336  0.49858843  1
  In3+  In15  1  0.66933461  0.49427251  0.85933598  1
  In3+  In16  1  0.50141479  0.66129898  0.18812223  1
  In3+  In17  1  0.00665613  0.34271093  0.33486245  1
  In3+  In18  1  0.00407302  0.14765206  0.50372622  1
  In3+  In19  1  0.50522533  0.00512533  0.16119289  1
  In3+  In20  1  0.83153512  0.01897170  0.16503385  1
  In3+  In21  1  0.31006281  0.49840231  0.18874816  1
  Ag+  Ag22  1  0.00173331  0.48436000  0.15303811  1
  Ag+  Ag23  1  0.67010404  0.30950071  -0.01365260  1
  Ag+  Ag24  1  0.15358523  0.16612447  0.65994629  1
  Ag+  Ag25  1  0.30166712  0.13800795  0.84001952  1
  Ag+  Ag26  1  0.47885638  0.17167773  0.00056826  1
  Ag+  Ag27  1  0.30830994  0.50305851  0.85679502  1
  Ag+  Ag28  1  0.16509403  0.35212006  0.52084242  1
  Ag+  Ag29  1  0.01000562  0.86315756  0.81423204  1
  Ag+  Ag30  1  0.19535723  -0.00513021  0.81455409  1
  Ag+  Ag31  1  0.35828263  0.52784456  0.49947595  1
  Ag+  Ag32  1  0.47085721  0.63455417  0.49782381  1
  Ag+  Ag33  1  0.83866816  0.86161525  -0.02195322  1
  Ag+  Ag34  1  0.02596940  0.85863883  0.52960554  1
  Ag+  Ag35  1  0.83525874  0.01568152  0.51978908  1
  Ag+  Ag36  1  0.31316278  0.01729070  0.69056930  1
  Ag+  Ag37  1  0.18813146  0.50228963  0.35576165  1
  Ag+  Ag38  1  0.83842472  0.14897305  -0.01623666  1
  Ag+  Ag39  1  0.85452123  0.16497414  0.64713716  1
  Ag+  Ag40  1  0.64524200  0.47850182  0.16370612  1
  Ag+  Ag41  1  0.01587055  0.50378106  0.85348609  1
  Ag+  Ag42  1  0.18215596  -0.00495367  0.52097609  1
  Sn2+  Sn43  1  0.17240885  0.49578629  0.66624598  1
  Sn2+  Sn44  1  -0.00168199  0.17193102  0.16489968  1
  Sn2+  Sn45  1  0.16733488  0.65681684  0.16607073  1
  Sn2+  Sn46  1  0.15648005  0.16513990  -0.01239509  1
  Sn2+  Sn47  1  0.15329386  0.84159947  -0.00412242  1
  Sn2+  Sn48  1  0.48944973  0.50186665  0.66796166  1
  Sn2+  Sn49  1  0.66826007  0.33707126  0.32975880  1
  Sn2+  Sn50  1  0.00193859  0.17609394  0.83203027  1
  Sn2+  Sn51  1  0.50053277  0.49419796  -0.00055594  1
  Sn2+  Sn52  1  0.83305944  0.49108516  0.65843551  1
  Sn2+  Sn53  1  0.16865210  0.84604830  0.66893131  1
  Sn2+  Sn54  1  0.33230264  0.66630376  0.66864182  1
  Sn2+  Sn55  1  0.00512119  0.66090287  0.66139573  1
  Sn2+  Sn56  1  0.32942279  0.83502824  0.16164898  1
  Sn2+  Sn57  1  -0.00510144  -0.00610586  -0.00334560  1
  Sn2+  Sn58  1  0.32316099  0.32981187  0.33795593  1
  Sn2+  Sn59  1  0.33385904  0.83470293  0.50335506  1
  Sn2+  Sn60  1  0.83754807  0.16786880  0.33869331  1
  Sn2+  Sn61  1  0.17225261  0.32767758  0.82547710  1
  Sn2+  Sn62  1  0.66544016  0.16864023  0.15841151  1
  Sn2+  Sn63  1  0.51305549  0.83904295  0.00018692  1
  Sn2+  Sn64  1  0.66974128  0.00578205  -0.00120380  1
  Bi3+  Bi65  1  0.50106095  0.50038499  0.32948213  1
  Bi3+  Bi66  1  0.66706260  0.67066100  0.00085239  1
  Bi3+  Bi67  1  0.16633972  0.33093211  0.16569452  1
  Bi3+  Bi68  1  0.50000112  0.16359395  0.67196690  1
  Bi3+  Bi69  1  0.67166044  0.83326753  0.83306986  1
  Bi3+  Bi70  1  0.16887072  -0.00089491  0.16769744  1
  Bi3+  Bi71  1  0.32967107  0.33045962  0.66813991  1
  Bi3+  Bi72  1  0.66907809  0.66644170  0.66436591  1
  Bi3+  Bi73  1  0.50343157  0.66704810  0.82199382  1
  Bi3+  Bi74  1  0.83289888  0.66645475  0.16694549  1
  Bi3+  Bi75  1  0.50323833  0.33109999  0.16345948  1
  Bi3+  Bi76  1  -0.00260116  0.83360858  0.16665553  1
  Bi3+  Bi77  1  0.83651090  0.32701411  0.83540997  1
  Bi3+  Bi78  1  0.83179075  0.66765198  0.50258418  1
  Bi3+  Bi79  1  0.83147744  0.82972594  0.33145342  1
  Bi3+  Bi80  1  0.49928278  0.83334561  0.33373128  1
  Bi3+  Bi81  1  0.50466887  0.00152815  0.83379698  1
  Bi3+  Bi82  1  -0.00519609  -0.00005397  0.33087699  1
  Bi3+  Bi83  1  0.49752140  0.83412879  0.66159494  1
  Bi3+  Bi84  1  0.66433349  0.83421350  0.16680110  1
  Bi3+  Bi85  1  0.66763041  0.16436068  0.83644113  1
  Te2-  Te86  1  0.16920268  0.16623040  0.16732742  1
  Te2-  Te87  1  0.15942204  0.14653195  0.50859809  1
  Te2-  Te88  1  0.15868245  0.16171197  0.82899392  1
  Te2-  Te89  1  0.15495348  0.49643968  0.16546079  1
  Te2-  Te90  1  0.16225693  0.49900334  0.50128886  1
  Te2-  Te91  1  0.16115480  0.49889434  0.82345013  1
  Te2-  Te92  1  0.16532987  0.83312574  0.16461020  1
  Te2-  Te93  1  0.16832035  0.84385911  0.50050226  1
  Te2-  Te94  1  0.15652625  0.84643284  0.83909717  1
  Te2-  Te95  1  0.49385607  0.16649728  0.15368326  1
  Te2-  Te96  1  0.50436857  0.15645965  0.50324305  1
  Te2-  Te97  1  0.50545760  0.16324377  0.83972671  1
  Te2-  Te98  1  0.49760427  0.49794266  0.16820374  1
  Te2-  Te99  1  0.50232551  0.49019832  0.49421094  1
  Te2-  Te100  1  0.51394127  0.50425544  0.82976342  1
  Te2-  Te101  1  0.50018218  0.83311550  0.16754294  1
  Te2-  Te102  1  0.50458727  0.84644976  0.49860865  1
  Te2-  Te103  1  0.50220880  0.83354158  0.83001991  1
  Te2-  Te104  1  0.83408167  0.17457618  0.17395893  1
  Te2-  Te105  1  0.84355836  0.16440174  0.49915679  1
  Te2-  Te106  1  0.83165297  0.16305925  0.83565486  1
  Te2-  Te107  1  0.84867891  0.50426594  0.17620605  1
  Te2-  Te108  1  0.83495761  0.50298334  0.48977001  1
  Te2-  Te109  1  0.82476380  0.49064990  0.82865566  1
  Te2-  Te110  1  0.83012330  0.82822130  0.16912536  1
  Te2-  Te111  1  0.83086823  0.82900752  0.49422441  1
  Te2-  Te112  1  0.83322166  0.84869145  0.83098296  1
  Te2-  Te113  1  0.16390530  0.00385459  0.00720153  1
  Te2-  Te114  1  0.16191858  0.00200554  0.33046671  1
  Te2-  Te115  1  0.16888020  0.00348503  0.66915150  1
  Te2-  Te116  1  0.16639031  0.32881654  0.00160200  1
  Te2-  Te117  1  0.16396561  0.34926756  0.32600677  1
  Te2-  Te118  1  0.16369291  0.32048007  0.66662388  1
  Te2-  Te119  1  0.16817169  0.66971543  0.00100249  1
  Te2-  Te120  1  0.16212790  0.65251150  0.32874549  1
  Te2-  Te121  1  0.16730206  0.67080864  0.66765545  1
  Te2-  Te122  1  0.50099262  0.00562644  -0.00016271  1
  Te2-  Te123  1  0.51150429  -0.00479064  0.33625807  1
  Te2-  Te124  1  0.50668562  -0.00239130  0.66383104  1
  Te2-  Te125  1  0.51390669  0.32389524  0.00514512  1
  Te2-  Te126  1  0.49846592  0.33264546  0.32702990  1
  Te2-  Te127  1  0.49820675  0.32968670  0.66481205  1
  Te2-  Te128  1  0.50645326  0.67129457  -0.01446069  1
  Te2-  Te129  1  0.50387036  0.66826628  0.35114200  1
  Te2-  Te130  1  0.50293033  0.66981464  0.65599618  1
  Te2-  Te131  1  0.83281160  0.00199421  0.01367127  1
  Te2-  Te132  1  0.82942680  -0.00388437  0.31943992  1
  Te2-  Te133  1  0.83162405  0.01290921  0.66841900  1
  Te2-  Te134  1  0.82318575  0.33292896  0.00525726  1
  Te2-  Te135  1  0.83666967  0.33840831  0.32908861  1
  Te2-  Te136  1  0.84224139  0.32087326  0.66928117  1
  Te2-  Te137  1  0.82930706  0.66603471  -0.00206190  1
  Te2-  Te138  1  0.83123044  0.66519053  0.33299482  1
  Te2-  Te139  1  0.83296576  0.66161523  0.66938525  1
  Te2-  Te140  1  -0.01106928  0.16568339  0.00551399  1
  Te2-  Te141  1  0.00048034  0.16493933  0.33519547  1
  Te2-  Te142  1  0.00340709  0.17385555  0.65952381  1
  Te2-  Te143  1  0.00057738  0.49884528  0.00097674  1
  Te2-  Te144  1  -0.00158710  0.50100626  0.34238344  1
  Te2-  Te145  1  -0.00508645  0.49138484  0.65294644  1
  Te2-  Te146  1  -0.01283053  0.83407730  0.00457724  1
  Te2-  Te147  1  -0.00386301  0.83376312  0.33030284  1
  Te2-  Te148  1  0.00232055  0.82883946  0.67126330  1
  Te2-  Te149  1  0.33096759  0.16885639  -0.01580984  1
  Te2-  Te150  1  0.33324092  0.16250965  0.34640619  1
  Te2-  Te151  1  0.33920636  0.16369882  0.66968067  1
  Te2-  Te152  1  0.34096543  0.49931293  0.00169171  1
  Te2-  Te153  1  0.33727786  0.49830284  0.34507691  1
  Te2-  Te154  1  0.33332161  0.49453219  0.64693772  1
  Te2-  Te155  1  0.33622020  0.83380238  0.00280805  1
  Te2-  Te156  1  0.33751242  0.84114299  0.32972638  1
  Te2-  Te157  1  0.33571536  0.83856817  0.66552660  1
  Te2-  Te158  1  0.68627136  0.16332810  -0.00080180  1
  Te2-  Te159  1  0.66771133  0.16192407  0.32849332  1
  Te2-  Te160  1  0.66470354  0.16723097  0.67232667  1
  Te2-  Te161  1  0.66243438  0.50720480  0.01406799  1
  Te2-  Te162  1  0.66166921  0.49889581  0.31589247  1
  Te2-  Te163  1  0.66627735  0.50456424  0.66092932  1
  Te2-  Te164  1  0.67834950  0.83540847  -0.00128194  1
  Te2-  Te165  1  0.66445181  0.83505260  0.33116398  1
  Te2-  Te166  1  0.66397739  0.83324947  0.66772284  1
  Te2-  Te167  1  0.00289484  -0.00094414  0.16887829  1
  Te2-  Te168  1  -0.01630880  -0.00528285  0.49268999  1
  Te2-  Te169  1  -0.00499022  0.00757203  0.83484125  1
  Te2-  Te170  1  -0.00065092  0.33812953  0.17567865  1
  Te2-  Te171  1  0.01470292  0.33208528  0.49133651  1
  Te2-  Te172  1  -0.00280999  0.34270438  0.82778515  1
  Te2-  Te173  1  -0.00168085  0.67164528  0.17647283  1
  Te2-  Te174  1  -0.00740198  0.67143053  0.49432791  1
  Te2-  Te175  1  -0.00918645  0.65102378  0.82881812  1
  Te2-  Te176  1  0.33427879  0.00656371  0.17681658  1
  Te2-  Te177  1  0.32977550  0.00373943  0.49243015  1
  Te2-  Te178  1  0.34110039  -0.00433389  0.83353988  1
  Te2-  Te179  1  0.33306822  0.33107697  0.17039900  1
  Te2-  Te180  1  0.31563909  0.32294421  0.50344637  1
  Te2-  Te181  1  0.33106202  0.35447436  0.82703420  1
  Te2-  Te182  1  0.33626394  0.66067788  0.16868567  1
  Te2-  Te183  1  0.32890735  0.67408976  0.50288734  1
  Te2-  Te184  1  0.33915790  0.65042245  0.82646255  1
  Te2-  Te185  1  0.66001491  -0.00336754  0.16617443  1
  Te2-  Te186  1  0.68591174  -0.00479554  0.49993037  1
  Te2-  Te187  1  0.66739821  -0.00264898  0.83188783  1
  Te2-  Te188  1  0.67158669  0.33283282  0.16969495  1
  Te2-  Te189  1  0.66972782  0.33187883  0.49638270  1
  Te2-  Te190  1  0.67109243  0.33475141  0.83967617  1
  Te2-  Te191  1  0.66531975  0.67232224  0.16559154  1
  Te2-  Te192  1  0.66915324  0.67569313  0.50169681  1
  Te2-  Te193  1  0.67200973  0.67006092  0.83081547  1
  Pb2+  Pb194  1  0.15846756  0.66978400  0.83247078  1
  Pb2+  Pb195  1  0.32498602  0.82409267  0.83220293  1
  Pb2+  Pb196  1  0.67267172  0.16489035  0.49893830  1
  Pb2+  Pb197  1  0.16715877  0.17683873  0.33971860  1
  Pb2+  Pb198  1  0.83207382  0.49966216  0.00396078  1
  Pb2+  Pb199  1  0.33863367  0.33463663  -0.00153653  1
  Pb2+  Pb200  1  0.16994068  0.49840856  -0.00276898  1
  Pb2+  Pb201  1  0.67130553  0.33830190  0.66861835  1
  Pb2+  Pb202  1  0.00317408  -0.00001033  0.66452487  1
  Pb2+  Pb203  1  0.49830271  0.16268160  0.32634011  1
  Pb2+  Pb204  1  0.16436434  0.82970512  0.33450686  1
  Pb2+  Pb205  1  0.33845885  0.66602298  0.00111597  1
  Pb2+  Pb206  1  0.33156120  0.00108453  0.00415264  1
  Pb2+  Pb207  1  -0.00511850  0.33142974  0.00005948  1
  Pb2+  Pb208  1  0.66796195  0.50351711  0.49047584  1
  Pb2+  Pb209  1  0.49591677  0.33165093  0.83492848  1
  Pb2+  Pb210  1  0.15848593  0.66895663  0.50054369  1
  Pb2+  Pb211  1  0.84302651  0.33336270  0.49842535  1
  Pb2+  Pb212  1  0.83516360  0.83628380  0.66495772  1
  Pb2+  Pb213  1  0.33307482  0.66909511  0.33418128  1
  Pb2+  Pb214  1  -0.00146436  0.66761270  0.00154041  1
  Pb2+  Pb215  1  0.48800810  0.32208378  0.49708220  1
