# generated using pymatgen
data_In22Ag21Sn22Bi21(Te54Pb11)2
_symmetry_space_group_name_H-M   'P 1'
_cell_length_a   19.16720675
_cell_length_b   19.14595457
_cell_length_c   19.16224138
_cell_angle_alpha   90.01089696
_cell_angle_beta   90.00417455
_cell_angle_gamma   89.98928761
_symmetry_Int_Tables_number   1
_chemical_formula_structural   In22Ag21Sn22Bi21(Te54Pb11)2
_chemical_formula_sum   'In22 Ag21 Sn22 Bi21 Te108 Pb22'
_cell_volume   7032.05309776
_cell_formula_units_Z   1
loop_
 _symmetry_equiv_pos_site_id
 _symmetry_equiv_pos_as_xyz
  1  'x, y, z'
loop_
 _atom_type_symbol
 _atom_type_oxidation_number
  In3+  3.0
  Ag+  1.0
  Sn2+  2.0
  Bi3+  3.0
  Te2-  -2.0
  Pb2+  2.0
loop_
 _atom_site_type_symbol
 _atom_site_label
 _atom_site_symmetry_multiplicity
 _atom_site_fract_x
 _atom_site_fract_y
 _atom_site_fract_z
 _atom_site_occupancy
  In3+  In0  1  0.00375697  0.83582468  0.81494498  1
  In3+  In1  1  0.65935771  0.32767705  0.32828410  1
  In3+  In2  1  0.01481264  0.66763533  0.66962365  1
  In3+  In3  1  0.66162993  0.65423328  0.68404566  1
  In3+  In4  1  0.48769417  0.32240235  0.50031547  1
  In3+  In5  1  0.47322232  0.01702860  0.16494143  1
  In3+  In6  1  0.82671265  0.83256430  0.66921784  1
  In3+  In7  1  0.66227742  0.33246037  0.66550295  1
  In3+  In8  1  0.82779015  0.35086641  0.83536027  1
  In3+  In9  1  0.00424848  0.32083404  0.33938602  1
  In3+  In10  1  0.65876123  -0.01189068  0.66919169  1
  In3+  In11  1  0.83681230  0.50273081  0.34466016  1
  In3+  In12  1  0.16871472  0.85419295  0.66459471  1
  In3+  In13  1  0.30670870  0.15103417  0.50429569  1
  In3+  In14  1  0.80851932  0.32966649  0.16484111  1
  In3+  In15  1  0.00262416  0.83649762  0.48986670  1
  In3+  In16  1  0.51183972  0.50069735  0.32999974  1
  In3+  In17  1  0.83309157  0.65528009  0.51550375  1
  In3+  In18  1  0.00287321  0.47965952  0.82320005  1
  In3+  In19  1  0.34976443  0.84130055  0.50810872  1
  In3+  In20  1  0.82937323  0.00698675  0.17536728  1
  In3+  In21  1  0.48490809  -0.00306046  0.82111333  1
  Ag+  Ag22  1  0.30765647  0.00855262  0.65390475  1
  Ag+  Ag23  1  0.01866536  0.66585625  0.36561609  1
  Ag+  Ag24  1  0.16864091  -0.02571784  0.49005168  1
  Ag+  Ag25  1  0.85813545  0.64821444  0.80677722  1
  Ag+  Ag26  1  0.18936207  0.49667813  0.64296784  1
  Ag+  Ag27  1  0.82999673  0.35371304  0.47030202  1
  Ag+  Ag28  1  0.16936700  0.02826978  0.19356891  1
  Ag+  Ag29  1  0.18326465  0.00115686  0.83361893  1
  Ag+  Ag30  1  0.19109220  0.34016573  0.81195140  1
  Ag+  Ag31  1  0.33846021  0.16394963  0.15055913  1
  Ag+  Ag32  1  0.18728330  0.33444569  0.48011790  1
  Ag+  Ag33  1  0.46933375  0.86738489  0.30401316  1
  Ag+  Ag34  1  0.18953369  0.13148276  0.30792183  1
  Ag+  Ag35  1  0.64389935  0.49255182  0.82890295  1
  Ag+  Ag36  1  0.52521423  0.85284598  0.65248569  1
  Ag+  Ag37  1  0.30932129  0.69705026  -0.00574917  1
  Ag+  Ag38  1  0.47388067  0.15478338  0.34042341  1
  Ag+  Ag39  1  0.64262344  0.33442488  -0.00384460  1
  Ag+  Ag40  1  0.51284302  0.30472501  0.14109833  1
  Ag+  Ag41  1  0.48154204  0.16176905  -0.02351709  1
  Ag+  Ag42  1  0.19035201  0.15739449  -0.03147365  1
  Sn2+  Sn43  1  0.16477375  0.49863453  0.33823997  1
  Sn2+  Sn44  1  0.00568693  0.00066386  0.66398686  1
  Sn2+  Sn45  1  -0.00503607  0.50030827  0.17595143  1
  Sn2+  Sn46  1  0.32755330  0.16784387  0.83617516  1
  Sn2+  Sn47  1  0.82757477  0.16652225  0.66602139  1
  Sn2+  Sn48  1  0.33053392  0.83140349  0.82859433  1
  Sn2+  Sn49  1  0.82853476  0.82027722  0.33409546  1
  Sn2+  Sn50  1  0.64045419  0.16265703  0.16341781  1
  Sn2+  Sn51  1  0.00591655  0.33160541  0.00874589  1
  Sn2+  Sn52  1  0.67147237  0.17140061  0.84231774  1
  Sn2+  Sn53  1  0.83417664  0.49730817  0.67028167  1
  Sn2+  Sn54  1  0.84022281  0.66803840  0.16000689  1
  Sn2+  Sn55  1  0.66743909  0.17752494  0.49984378  1
  Sn2+  Sn56  1  0.00556398  0.16257226  0.84147367  1
  Sn2+  Sn57  1  0.16789495  0.82982628  0.33249814  1
  Sn2+  Sn58  1  0.31710774  0.32535338  0.66404921  1
  Sn2+  Sn59  1  0.33541179  0.83259479  0.17670950  1
  Sn2+  Sn60  1  0.66096468  0.49249517  0.50225411  1
  Sn2+  Sn61  1  0.16594864  0.65500457  0.83131264  1
  Sn2+  Sn62  1  0.33678576  0.50776782  0.50443513  1
  Sn2+  Sn63  1  0.00556774  0.49295350  0.49598907  1
  Sn2+  Sn64  1  0.66639184  0.49987274  0.15615394  1
  Bi3+  Bi65  1  -0.00129586  0.16722817  0.50594871  1
  Bi3+  Bi66  1  0.49876917  0.67119405  0.83694529  1
  Bi3+  Bi67  1  0.83430503  0.49910929  0.00276684  1
  Bi3+  Bi68  1  0.84182805  -0.00091740  0.50427153  1
  Bi3+  Bi69  1  0.66656358  0.65756466  0.00073383  1
  Bi3+  Bi70  1  0.83908692  0.00040161  0.83288878  1
  Bi3+  Bi71  1  0.66800746  0.66441989  0.33700600  1
  Bi3+  Bi72  1  0.50001203  0.50176654  0.66665532  1
  Bi3+  Bi73  1  0.33264892  0.33272821  0.00348841  1
  Bi3+  Bi74  1  0.33376514  0.49419413  0.17057970  1
  Bi3+  Bi75  1  -0.00353564  0.33610757  0.66304859  1
  Bi3+  Bi76  1  0.00664691  0.16932093  0.17112895  1
  Bi3+  Bi77  1  0.00534924  0.83433984  0.17036060  1
  Bi3+  Bi78  1  0.50069290  0.66189150  0.16608222  1
  Bi3+  Bi79  1  0.83586989  0.17117283  0.00032405  1
  Bi3+  Bi80  1  0.16633550  0.49103338  0.00482983  1
  Bi3+  Bi81  1  0.33136344  0.00332893  -0.00291452  1
  Bi3+  Bi82  1  0.17008563  0.33529832  0.16930234  1
  Bi3+  Bi83  1  0.16754681  0.67080491  0.16593999  1
  Bi3+  Bi84  1  0.16406709  0.17816167  0.66822624  1
  Bi3+  Bi85  1  0.00469784  0.00281666  0.00038923  1
  Te2-  Te86  1  0.16793895  0.17555620  0.16896204  1
  Te2-  Te87  1  0.15911979  0.18580960  0.50745186  1
  Te2-  Te88  1  0.16422283  0.18917141  0.82828336  1
  Te2-  Te89  1  0.16869662  0.50394711  0.16937729  1
  Te2-  Te90  1  0.16500392  0.48831891  0.49737268  1
  Te2-  Te91  1  0.15592286  0.48737741  0.84331162  1
  Te2-  Te92  1  0.17029327  0.82983303  0.16460427  1
  Te2-  Te93  1  0.15514090  0.82833019  0.50942018  1
  Te2-  Te94  1  0.16342127  0.82518057  0.82206700  1
  Te2-  Te95  1  0.48441948  0.16895008  0.18864232  1
  Te2-  Te96  1  0.50867539  0.17097636  0.48889496  1
  Te2-  Te97  1  0.50255517  0.15126365  0.83094485  1
  Te2-  Te98  1  0.49767313  0.49848422  0.17301628  1
  Te2-  Te99  1  0.50176953  0.49707696  0.50350161  1
  Te2-  Te100  1  0.49679677  0.50236206  0.83111368  1
  Te2-  Te101  1  0.49420021  0.82618253  0.16727140  1
  Te2-  Te102  1  0.50047162  0.83435581  0.50835291  1
  Te2-  Te103  1  0.49812520  0.83759805  0.82850300  1
  Te2-  Te104  1  0.83946520  0.17248514  0.16550017  1
  Te2-  Te105  1  0.83695148  0.15985984  0.50179643  1
  Te2-  Te106  1  0.83521845  0.16193035  0.83606181  1
  Te2-  Te107  1  0.83142108  0.49534893  0.16192073  1
  Te2-  Te108  1  0.83192310  0.50137797  0.50147581  1
  Te2-  Te109  1  0.84469973  0.50553176  0.83878707  1
  Te2-  Te110  1  0.84121082  0.83879748  0.16932469  1
  Te2-  Te111  1  0.84489824  0.83722908  0.50545624  1
  Te2-  Te112  1  0.84103981  0.83556103  0.82522412  1
  Te2-  Te113  1  0.16752919  0.01057964  -0.01922628  1
  Te2-  Te114  1  0.16598757  -0.01069517  0.34296857  1
  Te2-  Te115  1  0.16389754  0.00761725  0.68663590  1
  Te2-  Te116  1  0.16864571  0.32915915  0.00596259  1
  Te2-  Te117  1  0.15795714  0.33934523  0.33461409  1
  Te2-  Te118  1  0.15786855  0.34618244  0.66730259  1
  Te2-  Te119  1  0.16756065  0.66088999  0.00019990  1
  Te2-  Te120  1  0.16419745  0.66655126  0.33106063  1
  Te2-  Te121  1  0.16382889  0.64366296  0.67122475  1
  Te2-  Te122  1  0.49998822  0.01528440  0.01477508  1
  Te2-  Te123  1  0.50355375  0.00561392  0.32861417  1
  Te2-  Te124  1  0.50245541  -0.00274484  0.66742112  1
  Te2-  Te125  1  0.49709783  0.31853545  -0.00409437  1
  Te2-  Te126  1  0.50870078  0.34424055  0.34921554  1
  Te2-  Te127  1  0.50165160  0.33667035  0.65876819  1
  Te2-  Te128  1  0.50704327  0.66418592  0.00135790  1
  Te2-  Te129  1  0.50528810  0.66069333  0.33186922  1
  Te2-  Te130  1  0.50251257  0.66517028  0.67211677  1
  Te2-  Te131  1  0.83659671  0.00549217  -0.00129931  1
  Te2-  Te132  1  0.83371251  -0.00392303  0.33961278  1
  Te2-  Te133  1  0.83907151  -0.00663611  0.66645477  1
  Te2-  Te134  1  0.83809936  0.33465461  0.00398488  1
  Te2-  Te135  1  0.83254615  0.34613118  0.32306194  1
  Te2-  Te136  1  0.83641773  0.33305881  0.67877770  1
  Te2-  Te137  1  0.82734159  0.66448055  -0.00284597  1
  Te2-  Te138  1  0.82684504  0.66037834  0.32650958  1
  Te2-  Te139  1  0.82412031  0.67226073  0.66734794  1
  Te2-  Te140  1  -0.00113936  0.16571625  0.00753279  1
  Te2-  Te141  1  0.00768738  0.16564915  0.33695743  1
  Te2-  Te142  1  -0.00034720  0.17040149  0.66959044  1
  Te2-  Te143  1  0.00049920  0.49669931  0.00515006  1
  Te2-  Te144  1  -0.00897806  0.51787802  0.33547644  1
  Te2-  Te145  1  -0.00630465  0.50210943  0.66954008  1
  Te2-  Te146  1  0.00242308  0.83732211  0.00556603  1
  Te2-  Te147  1  -0.00125655  0.81745302  0.33516608  1
  Te2-  Te148  1  0.00833380  0.82694208  0.66295728  1
  Te2-  Te149  1  0.33506613  0.16772120  0.00271607  1
  Te2-  Te150  1  0.32557515  0.16717437  0.35511761  1
  Te2-  Te151  1  0.32950132  0.15872590  0.66206060  1
  Te2-  Te152  1  0.33165418  0.49530835  0.00525326  1
  Te2-  Te153  1  0.33632913  0.49806333  0.33494849  1
  Te2-  Te154  1  0.33618614  0.49731841  0.66691568  1
  Te2-  Te155  1  0.33396792  0.84115592  0.00141839  1
  Te2-  Te156  1  0.33521285  0.83174126  0.34641071  1
  Te2-  Te157  1  0.32216473  0.84057464  0.66210376  1
  Te2-  Te158  1  0.67494402  0.18574787  0.00104111  1
  Te2-  Te159  1  0.67350019  0.17686524  0.32972880  1
  Te2-  Te160  1  0.66791639  0.17721063  0.67054111  1
  Te2-  Te161  1  0.66984057  0.48552562  -0.00779341  1
  Te2-  Te162  1  0.67065516  0.49963149  0.33317132  1
  Te2-  Te163  1  0.66505418  0.49955151  0.67623369  1
  Te2-  Te164  1  0.66820792  0.83417484  0.00255697  1
  Te2-  Te165  1  0.66695269  0.83004464  0.33509844  1
  Te2-  Te166  1  0.66962547  0.82921009  0.66848759  1
  Te2-  Te167  1  0.02080391  0.00079905  0.16288011  1
  Te2-  Te168  1  0.01052520  0.00036487  0.50175578  1
  Te2-  Te169  1  0.00013876  -0.00606998  0.83585670  1
  Te2-  Te170  1  0.00497418  0.33340435  0.17811369  1
  Te2-  Te171  1  -0.02020039  0.33131443  0.49787261  1
  Te2-  Te172  1  -0.01290184  0.32924835  0.83325648  1
  Te2-  Te173  1  0.00235186  0.67094348  0.16400291  1
  Te2-  Te174  1  -0.01266764  0.66382470  0.50947763  1
  Te2-  Te175  1  -0.00063610  0.67823261  0.82486548  1
  Te2-  Te176  1  0.31998778  0.00829359  0.16329848  1
  Te2-  Te177  1  0.31934653  -0.00467168  0.50835444  1
  Te2-  Te178  1  0.33177479  -0.00065947  0.83600301  1
  Te2-  Te179  1  0.33600428  0.33134956  0.16880190  1
  Te2-  Te180  1  0.33424834  0.33704634  0.50614776  1
  Te2-  Te181  1  0.33705686  0.32777553  0.83470682  1
  Te2-  Te182  1  0.33507638  0.66288444  0.15687490  1
  Te2-  Te183  1  0.33070937  0.66709459  0.50253555  1
  Te2-  Te184  1  0.33619490  0.67094238  0.84612492  1
  Te2-  Te185  1  0.67281799  0.00600080  0.16595234  1
  Te2-  Te186  1  0.67324631  0.00446302  0.51303026  1
  Te2-  Te187  1  0.67580105  0.00058682  0.82456955  1
  Te2-  Te188  1  0.65364943  0.33364494  0.17441697  1
  Te2-  Te189  1  0.68583691  0.33532941  0.51012682  1
  Te2-  Te190  1  0.67369751  0.34215299  0.82499623  1
  Te2-  Te191  1  0.66659884  0.66442089  0.16580026  1
  Te2-  Te192  1  0.67682127  0.66376712  0.49921566  1
  Te2-  Te193  1  0.66283854  0.65783967  0.83807463  1
  Pb2+  Pb194  1  0.50045798  0.84066068  -0.00284063  1
  Pb2+  Pb195  1  0.16729272  0.84370032  -0.00981949  1
  Pb2+  Pb196  1  0.66571220  0.01445485  -0.00372470  1
  Pb2+  Pb197  1  0.16231321  0.65946866  0.50304457  1
  Pb2+  Pb198  1  0.49655271  0.00194567  0.49769032  1
  Pb2+  Pb199  1  0.83620941  0.83537819  -0.00168229  1
  Pb2+  Pb200  1  0.50325944  0.66630490  0.50109813  1
  Pb2+  Pb201  1  0.50286192  0.49039878  0.00359092  1
  Pb2+  Pb202  1  0.33330164  0.00165816  0.33228254  1
  Pb2+  Pb203  1  0.32497972  0.49940690  0.83521745  1
  Pb2+  Pb204  1  0.67360564  0.83462391  0.49932722  1
  Pb2+  Pb205  1  0.49959999  0.16724143  0.66038552  1
  Pb2+  Pb206  1  0.66647303  0.83527837  0.17030546  1
  Pb2+  Pb207  1  0.33204003  0.67204344  0.67230658  1
  Pb2+  Pb208  1  0.83866809  0.17245096  0.33274690  1
  Pb2+  Pb209  1  -0.00050870  0.66452714  -0.00587763  1
  Pb2+  Pb210  1  -0.00053038  -0.00700375  0.32908914  1
  Pb2+  Pb211  1  0.66753404  0.00686892  0.33707911  1
  Pb2+  Pb212  1  0.33410551  0.66520875  0.32612618  1
  Pb2+  Pb213  1  0.50582229  0.32545408  0.82952613  1
  Pb2+  Pb214  1  0.66806931  0.82830612  0.83647416  1
  Pb2+  Pb215  1  0.33331232  0.33073681  0.33494895  1
