# generated using pymatgen
data_In22Ag21Sn22Bi21(Te54Pb11)2
_symmetry_space_group_name_H-M   'P 1'
_cell_length_a   19.15789791
_cell_length_b   19.11181813
_cell_length_c   19.15032210
_cell_angle_alpha   89.99345079
_cell_angle_beta   90.01098993
_cell_angle_gamma   90.02050634
_symmetry_Int_Tables_number   1
_chemical_formula_structural   In22Ag21Sn22Bi21(Te54Pb11)2
_chemical_formula_sum   'In22 Ag21 Sn22 Bi21 Te108 Pb22'
_cell_volume   7011.74160276
_cell_formula_units_Z   1
loop_
 _symmetry_equiv_pos_site_id
 _symmetry_equiv_pos_as_xyz
  1  'x, y, z'
loop_
 _atom_type_symbol
 _atom_type_oxidation_number
  In3+  3.0
  Ag+  1.0
  Sn2+  2.0
  Bi3+  3.0
  Te2-  -2.0
  Pb2+  2.0
loop_
 _atom_site_type_symbol
 _atom_site_label
 _atom_site_symmetry_multiplicity
 _atom_site_fract_x
 _atom_site_fract_y
 _atom_site_fract_z
 _atom_site_occupancy
  In3+  In0  1  0.01107110  0.33904978  0.68375872  1
  In3+  In1  1  0.33616549  0.16334901  0.18715848  1
  In3+  In2  1  0.50033745  0.82065833  0.66830385  1
  In3+  In3  1  0.50350269  0.49995711  0.67760672  1
  In3+  In4  1  0.47622735  0.33763728  0.84201393  1
  In3+  In5  1  0.83514752  0.31873190  0.15399712  1
  In3+  In6  1  0.00269807  0.33595596  0.00204196  1
  In3+  In7  1  0.16789271  0.67899072  0.50174678  1
  In3+  In8  1  0.32684254  0.17874395  0.49728549  1
  In3+  In9  1  -0.00395111  0.67201948  0.67411721  1
  In3+  In10  1  0.65829457  0.67203365  0.00099150  1
  In3+  In11  1  0.85106796  0.66882241  0.49999606  1
  In3+  In12  1  0.48442850  -0.00621089  0.49785694  1
  In3+  In13  1  0.65394110  0.16525301  0.48963078  1
  In3+  In14  1  0.68250485  0.66147873  0.66714624  1
  In3+  In15  1  0.83280986  0.48735538  0.33250224  1
  In3+  In16  1  0.33660399  0.66580940  0.66711211  1
  In3+  In17  1  0.14919798  0.16676469  0.67810307  1
  In3+  In18  1  0.66219008  -0.00410441  0.67138510  1
  In3+  In19  1  0.34856351  0.49125213  0.15962074  1
  In3+  In20  1  0.00024696  0.50381915  0.85035312  1
  In3+  In21  1  0.65300784  0.33846227  0.01520196  1
  Ag+  Ag22  1  0.15111610  0.03478231  0.14194085  1
  Ag+  Ag23  1  0.02260653  0.86033206  0.83073803  1
  Ag+  Ag24  1  0.36468458  0.36030980  0.32634225  1
  Ag+  Ag25  1  -0.02806040  0.68223623  0.30777704  1
  Ag+  Ag26  1  0.35379866  0.50169853  0.80990699  1
  Ag+  Ag27  1  0.46848053  -0.00532891  0.86285260  1
  Ag+  Ag28  1  0.47324906  0.33318929  0.19902338  1
  Ag+  Ag29  1  0.35805727  0.82706953  0.50420019  1
  Ag+  Ag30  1  0.47081814  0.81888740  0.30341858  1
  Ag+  Ag31  1  0.65095484  0.36261912  0.30972018  1
  Ag+  Ag32  1  0.16244294  0.13907529  0.31159882  1
  Ag+  Ag33  1  0.17631090  0.34277601  0.85743939  1
  Ag+  Ag34  1  0.86689792  -0.01858518  0.13578086  1
  Ag+  Ag35  1  0.01431193  0.83218911  0.47799312  1
  Ag+  Ag36  1  0.19243444  0.47390223  -0.03213197  1
  Ag+  Ag37  1  0.47203989  0.46886066  0.33170113  1
  Ag+  Ag38  1  0.83371586  0.64574475  0.85554735  1
  Ag+  Ag39  1  -0.02403712  0.15334476  0.16976848  1
  Ag+  Ag40  1  -0.00652624  -0.02886229  0.03152015  1
  Ag+  Ag41  1  0.48093156  0.50110561  -0.01915940  1
  Ag+  Ag42  1  0.85681361  0.50376220  0.68503597  1
  Sn2+  Sn43  1  0.49767247  0.64393250  0.17216622  1
  Sn2+  Sn44  1  0.83101752  0.18256747  0.66632446  1
  Sn2+  Sn45  1  0.32750200  0.00583091  0.00269893  1
  Sn2+  Sn46  1  0.15744193  0.66011749  0.83280994  1
  Sn2+  Sn47  1  0.16837891  0.83450652  0.33519773  1
  Sn2+  Sn48  1  -0.00115506  -0.00329489  0.33172638  1
  Sn2+  Sn49  1  0.83711230  0.82951556  0.67317070  1
  Sn2+  Sn50  1  0.33038906  0.81853168  0.82839655  1
  Sn2+  Sn51  1  0.00684574  0.33224335  0.33445660  1
  Sn2+  Sn52  1  0.34013772  -0.00061096  0.66434163  1
  Sn2+  Sn53  1  0.84372026  0.16157895  -0.00205466  1
  Sn2+  Sn54  1  0.16289476  0.50241532  0.67113084  1
  Sn2+  Sn55  1  0.83872155  0.82863382  -0.00590622  1
  Sn2+  Sn56  1  0.16861044  0.00665902  0.84411660  1
  Sn2+  Sn57  1  0.83088280  0.33463734  0.83203791  1
  Sn2+  Sn58  1  0.66223802  0.66729801  0.33725011  1
  Sn2+  Sn59  1  0.16036423  0.16528061  0.00558627  1
  Sn2+  Sn60  1  0.00175311  0.66953782  -0.00313369  1
  Sn2+  Sn61  1  0.33000483  -0.00305091  0.33576476  1
  Sn2+  Sn62  1  0.00722040  0.16588937  0.84802670  1
  Sn2+  Sn63  1  0.33221472  0.67130682  0.33521512  1
  Sn2+  Sn64  1  0.65827818  0.16598158  0.16596324  1
  Bi3+  Bi65  1  0.66626825  0.83328482  0.83128937  1
  Bi3+  Bi66  1  0.67118005  0.83645301  0.50335780  1
  Bi3+  Bi67  1  0.49611496  0.00391898  0.16889310  1
  Bi3+  Bi68  1  0.83632526  0.00131981  0.82805366  1
  Bi3+  Bi69  1  0.83614697  0.33503128  0.49957099  1
  Bi3+  Bi70  1  0.16645843  0.83041977  -0.00082727  1
  Bi3+  Bi71  1  0.50334461  0.33453151  0.50137590  1
  Bi3+  Bi72  1  0.16554155  0.33268211  0.49577717  1
  Bi3+  Bi73  1  0.66703751  0.50094767  0.16678565  1
  Bi3+  Bi74  1  0.66911368  0.33438696  0.66278477  1
  Bi3+  Bi75  1  0.83217694  0.83648298  0.33710454  1
  Bi3+  Bi76  1  0.66651468  -0.00061336  0.33668868  1
  Bi3+  Bi77  1  0.16123527  0.33646827  0.17175195  1
  Bi3+  Bi78  1  0.66652862  0.16759119  0.82894771  1
  Bi3+  Bi79  1  0.50126421  0.16738439  0.66694874  1
  Bi3+  Bi80  1  0.00147139  0.49909142  0.17186574  1
  Bi3+  Bi81  1  0.00113390  0.50584564  0.49950957  1
  Bi3+  Bi82  1  0.16054364  0.50191466  0.33363544  1
  Bi3+  Bi83  1  0.83487522  -0.00167707  0.49957755  1
  Bi3+  Bi84  1  0.16768957  -0.00165583  0.50222670  1
  Bi3+  Bi85  1  0.17090162  0.66562594  0.17254142  1
  Te2-  Te86  1  0.18213423  0.17498816  0.16878666  1
  Te2-  Te87  1  0.17171602  0.16527041  0.50423012  1
  Te2-  Te88  1  0.16543211  0.18272982  0.83103166  1
  Te2-  Te89  1  0.16408244  0.50172531  0.16951918  1
  Te2-  Te90  1  0.16357360  0.49839274  0.49929838  1
  Te2-  Te91  1  0.15145335  0.49280712  0.83027152  1
  Te2-  Te92  1  0.16888263  0.82830181  0.16457793  1
  Te2-  Te93  1  0.15828337  0.83289403  0.50449354  1
  Te2-  Te94  1  0.16835067  0.82870794  0.83649252  1
  Te2-  Te95  1  0.48990762  0.17768455  0.16404305  1
  Te2-  Te96  1  0.49344815  0.16392647  0.50254027  1
  Te2-  Te97  1  0.50375535  0.14358836  0.82663102  1
  Te2-  Te98  1  0.50251267  0.48416734  0.18228870  1
  Te2-  Te99  1  0.50052637  0.49599218  0.47968187  1
  Te2-  Te100  1  0.50066826  0.50020058  0.83296467  1
  Te2-  Te101  1  0.49925613  0.83843263  0.16088678  1
  Te2-  Te102  1  0.50782175  0.83801887  0.51027437  1
  Te2-  Te103  1  0.50133129  0.84814215  0.82409563  1
  Te2-  Te104  1  0.82934475  0.16769051  0.16354689  1
  Te2-  Te105  1  0.83995660  0.16555726  0.50208404  1
  Te2-  Te106  1  0.83204017  0.16616628  0.83039236  1
  Te2-  Te107  1  0.83604303  0.50245608  0.17417947  1
  Te2-  Te108  1  0.83840124  0.50325554  0.49218664  1
  Te2-  Te109  1  0.84315120  0.49974211  0.83148689  1
  Te2-  Te110  1  0.83457652  0.84106685  0.16842852  1
  Te2-  Te111  1  0.83332487  0.83167405  0.50448397  1
  Te2-  Te112  1  0.82685316  0.83970173  0.83135259  1
  Te2-  Te113  1  0.15571193  -0.00401718  0.00099703  1
  Te2-  Te114  1  0.16623001  -0.00481431  0.34152714  1
  Te2-  Te115  1  0.16894165  0.00949317  0.66703320  1
  Te2-  Te116  1  0.16025057  0.33480490  0.00595457  1
  Te2-  Te117  1  0.16755493  0.33799482  0.33470891  1
  Te2-  Te118  1  0.16442722  0.32733518  0.65704238  1
  Te2-  Te119  1  0.16339014  0.66694824  0.00199591  1
  Te2-  Te120  1  0.16653518  0.66552649  0.33852780  1
  Te2-  Te121  1  0.16570324  0.66480252  0.67162104  1
  Te2-  Te122  1  0.50162586  0.00300328  0.00675938  1
  Te2-  Te123  1  0.50108252  -0.01160889  0.33448539  1
  Te2-  Te124  1  0.50161092  0.00538605  0.65268520  1
  Te2-  Te125  1  0.50175409  0.34862992  -0.00494358  1
  Te2-  Te126  1  0.51190164  0.32275823  0.34099211  1
  Te2-  Te127  1  0.50237570  0.33559515  0.66327068  1
  Te2-  Te128  1  0.50460474  0.65235782  0.00046383  1
  Te2-  Te129  1  0.50217115  0.67680504  0.32852592  1
  Te2-  Te130  1  0.49838707  0.66339219  0.66565544  1
  Te2-  Te131  1  0.84696922  -0.00071596  -0.00719903  1
  Te2-  Te132  1  0.83151432  -0.00104976  0.33665402  1
  Te2-  Te133  1  0.83040966  0.00402924  0.66269183  1
  Te2-  Te134  1  0.83785002  0.33089967  0.00064758  1
  Te2-  Te135  1  0.83465319  0.33431944  0.33802940  1
  Te2-  Te136  1  0.83174460  0.34940573  0.66124347  1
  Te2-  Te137  1  0.83038766  0.66934363  0.00060301  1
  Te2-  Te138  1  0.82953814  0.67488757  0.34135769  1
  Te2-  Te139  1  0.83434044  0.65433066  0.65689822  1
  Te2-  Te140  1  0.00197930  0.17765438  0.01413240  1
  Te2-  Te141  1  0.01164103  0.16840691  0.32146036  1
  Te2-  Te142  1  -0.00126563  0.17582285  0.66693806  1
  Te2-  Te143  1  0.00472267  0.49769971  0.00545037  1
  Te2-  Te144  1  -0.00466067  0.50875186  0.33641187  1
  Te2-  Te145  1  0.00208091  0.49554235  0.66018684  1
  Te2-  Te146  1  0.00191047  0.83020304  -0.01615000  1
  Te2-  Te147  1  -0.00380600  0.82551788  0.33271030  1
  Te2-  Te148  1  -0.00271906  0.82419741  0.68563666  1
  Te2-  Te149  1  0.33019620  0.16413921  -0.00972028  1
  Te2-  Te150  1  0.32053617  0.15849497  0.33976609  1
  Te2-  Te151  1  0.33924279  0.16788047  0.65750404  1
  Te2-  Te152  1  0.33265002  0.49761064  0.00912961  1
  Te2-  Te153  1  0.32635188  0.50899484  0.32780224  1
  Te2-  Te154  1  0.33685186  0.50697600  0.66357786  1
  Te2-  Te155  1  0.33119332  0.83649470  -0.00430759  1
  Te2-  Te156  1  0.33225144  0.83108271  0.34886227  1
  Te2-  Te157  1  0.34077890  0.82654644  0.66568270  1
  Te2-  Te158  1  0.66809359  0.17741257  -0.00533452  1
  Te2-  Te159  1  0.66745866  0.16070088  0.33372387  1
  Te2-  Te160  1  0.66539524  0.16907362  0.66493082  1
  Te2-  Te161  1  0.66774602  0.49439437  0.00482405  1
  Te2-  Te162  1  0.67518405  0.50647538  0.32858303  1
  Te2-  Te163  1  0.65977392  0.50146621  0.66613753  1
  Te2-  Te164  1  0.66879998  0.83089735  -0.00383073  1
  Te2-  Te165  1  0.66697556  0.83495114  0.34044679  1
  Te2-  Te166  1  0.66468310  0.82952210  0.66800523  1
  Te2-  Te167  1  0.00800999  0.00837466  0.17315967  1
  Te2-  Te168  1  0.00073855  -0.01201442  0.49873412  1
  Te2-  Te169  1  0.00071704  0.00748680  0.82986570  1
  Te2-  Te170  1  -0.00493023  0.33720117  0.16604638  1
  Te2-  Te171  1  0.00002671  0.33575900  0.49967386  1
  Te2-  Te172  1  -0.00098678  0.33478650  0.83475331  1
  Te2-  Te173  1  0.00420620  0.66394388  0.16515882  1
  Te2-  Te174  1  0.00596766  0.67260759  0.51247919  1
  Te2-  Te175  1  -0.01319717  0.65619320  0.82934273  1
  Te2-  Te176  1  0.33400827  0.00612122  0.16767692  1
  Te2-  Te177  1  0.33049853  -0.01797746  0.50340258  1
  Te2-  Te178  1  0.32494109  -0.00429916  0.83119478  1
  Te2-  Te179  1  0.32691167  0.33733737  0.18027621  1
  Te2-  Te180  1  0.33466095  0.33359603  0.48386445  1
  Te2-  Te181  1  0.32381287  0.34930842  0.82986389  1
  Te2-  Te182  1  0.33357102  0.66548167  0.16738310  1
  Te2-  Te183  1  0.32629652  0.67836645  0.50800821  1
  Te2-  Te184  1  0.33431662  0.65515569  0.82554013  1
  Te2-  Te185  1  0.66096249  0.00596027  0.16977465  1
  Te2-  Te186  1  0.67238637  0.00247144  0.50193085  1
  Te2-  Te187  1  0.67175273  0.00114554  0.83370381  1
  Te2-  Te188  1  0.67804198  0.33394208  0.16891015  1
  Te2-  Te189  1  0.67117085  0.32812527  0.50033373  1
  Te2-  Te190  1  0.66756700  0.32952620  0.82502820  1
  Te2-  Te191  1  0.66362967  0.66421780  0.16113722  1
  Te2-  Te192  1  0.66518029  0.67123462  0.50885590  1
  Te2-  Te193  1  0.67965934  0.66868789  0.82648072  1
  Pb2+  Pb194  1  0.33373848  0.83509499  0.17371210  1
  Pb2+  Pb195  1  0.49945929  0.17434361  -0.00645046  1
  Pb2+  Pb196  1  0.00661222  0.16306052  0.48979538  1
  Pb2+  Pb197  1  0.83628475  0.49833266  0.00504449  1
  Pb2+  Pb198  1  0.00321349  0.83724999  0.16084703  1
  Pb2+  Pb199  1  0.66598425  0.83533079  0.17217399  1
  Pb2+  Pb200  1  0.33189347  0.33706643  0.66011876  1
  Pb2+  Pb201  1  0.49935927  0.83036233  -0.00525018  1
  Pb2+  Pb202  1  0.32986621  0.66452116  -0.00363914  1
  Pb2+  Pb203  1  0.49443705  0.15534187  0.33314450  1
  Pb2+  Pb204  1  0.33222631  0.33069364  0.00674693  1
  Pb2+  Pb205  1  0.67201193  0.49774662  0.83643114  1
  Pb2+  Pb206  1  0.67731914  0.00614610  0.00158678  1
  Pb2+  Pb207  1  0.66709613  0.49976333  0.49749870  1
  Pb2+  Pb208  1  0.33429284  0.17050852  0.82469879  1
  Pb2+  Pb209  1  0.50608063  0.67235684  0.83285364  1
  Pb2+  Pb210  1  0.16726085  0.83522526  0.66992212  1
  Pb2+  Pb211  1  0.84177688  0.16832841  0.33113405  1
  Pb2+  Pb212  1  0.83291553  0.67321770  0.16931460  1
  Pb2+  Pb213  1  -0.00073294  -0.00329894  0.66486950  1
  Pb2+  Pb214  1  0.33451805  0.50640841  0.49503095  1
  Pb2+  Pb215  1  0.49798259  0.66554727  0.49470996  1
