# generated using pymatgen
data_In22Ag21Sn22Bi21(Te54Pb11)2
_symmetry_space_group_name_H-M   'P 1'
_cell_length_a   19.15579548
_cell_length_b   19.14169541
_cell_length_c   19.14498672
_cell_angle_alpha   89.99473994
_cell_angle_beta   89.98201935
_cell_angle_gamma   90.01945429
_symmetry_Int_Tables_number   1
_chemical_formula_structural   In22Ag21Sn22Bi21(Te54Pb11)2
_chemical_formula_sum   'In22 Ag21 Sn22 Bi21 Te108 Pb22'
_cell_volume   7019.97578664
_cell_formula_units_Z   1
loop_
 _symmetry_equiv_pos_site_id
 _symmetry_equiv_pos_as_xyz
  1  'x, y, z'
loop_
 _atom_type_symbol
 _atom_type_oxidation_number
  In3+  3.0
  Ag+  1.0
  Sn2+  2.0
  Bi3+  3.0
  Te2-  -2.0
  Pb2+  2.0
loop_
 _atom_site_type_symbol
 _atom_site_label
 _atom_site_symmetry_multiplicity
 _atom_site_fract_x
 _atom_site_fract_y
 _atom_site_fract_z
 _atom_site_occupancy
  In3+  In0  1  0.67290532  0.32383942  0.34400865  1
  In3+  In1  1  0.33338787  0.65621821  0.33617693  1
  In3+  In2  1  0.00297123  0.67299540  0.32631525  1
  In3+  In3  1  0.66685913  0.69324212  0.33456964  1
  In3+  In4  1  0.52227990  0.31506914  0.16995104  1
  In3+  In5  1  0.00894676  0.83590780  0.50882223  1
  In3+  In6  1  0.83191989  0.84720735  0.33951602  1
  In3+  In7  1  0.18005958  0.49816051  0.65623575  1
  In3+  In8  1  -0.00752784  0.32655941  0.67008585  1
  In3+  In9  1  -0.01008580  -0.00027951  -0.01292006  1
  In3+  In10  1  0.66614813  0.15192351  0.49462782  1
  In3+  In11  1  0.83685426  0.66649103  0.50502098  1
  In3+  In12  1  0.49533010  -0.01073182  0.16353900  1
  In3+  In13  1  0.18004990  0.16023565  -0.00134001  1
  In3+  In14  1  0.67268745  0.82515869  0.83406354  1
  In3+  In15  1  0.18432860  0.33385195  0.83900514  1
  In3+  In16  1  0.84304891  0.15889197  0.67185985  1
  In3+  In17  1  0.66775568  0.84735650  0.15945429  1
  In3+  In18  1  0.83480242  0.50687853  -0.02832396  1
  In3+  In19  1  0.34964078  -0.00144477  0.34331422  1
  In3+  In20  1  0.66348431  0.14543490  0.82441110  1
  In3+  In21  1  0.66692449  0.00655015  0.64142658  1
  Ag+  Ag22  1  0.31016964  0.00426667  0.68357802  1
  Ag+  Ag23  1  0.85500050  0.47124981  0.65388044  1
  Ag+  Ag24  1  0.81148899  0.29784427  0.50472949  1
  Ag+  Ag25  1  0.19530734  0.86271838  0.66687153  1
  Ag+  Ag26  1  0.48261954  0.15637396  -0.00419261  1
  Ag+  Ag27  1  0.48920278  0.02454265  0.52793961  1
  Ag+  Ag28  1  0.81888834  0.31322225  0.14109666  1
  Ag+  Ag29  1  0.19714988  -0.02392934  0.19131932  1
  Ag+  Ag30  1  0.47909172  0.84208189  0.32859471  1
  Ag+  Ag31  1  0.19277168  0.69314914  0.15331013  1
  Ag+  Ag32  1  0.85708533  -0.00552090  0.51727411  1
  Ag+  Ag33  1  0.31047086  0.13950153  0.49625786  1
  Ag+  Ag34  1  0.64907403  -0.00416609  0.33379331  1
  Ag+  Ag35  1  0.31325471  0.16045409  0.85695487  1
  Ag+  Ag36  1  0.64933994  -0.00098537  -0.01391570  1
  Ag+  Ag37  1  0.30788448  0.52685130  0.82064256  1
  Ag+  Ag38  1  0.46659707  0.69839987  0.80446547  1
  Ag+  Ag39  1  0.83449153  0.64486800  0.80507735  1
  Ag+  Ag40  1  0.81076116  0.00251419  0.81333105  1
  Ag+  Ag41  1  0.01245013  0.00673344  0.64273908  1
  Ag+  Ag42  1  0.34562300  0.47648517  0.52859668  1
  Sn2+  Sn43  1  0.33233183  0.16663518  0.17650475  1
  Sn2+  Sn44  1  0.66431482  0.49723500  0.50181482  1
  Sn2+  Sn45  1  0.16076401  0.50120518  -0.00275109  1
  Sn2+  Sn46  1  0.50023920  0.83767817  0.64946161  1
  Sn2+  Sn47  1  0.50174818  0.49425569  -0.00618323  1
  Sn2+  Sn48  1  0.33234444  0.83698299  0.16860212  1
  Sn2+  Sn49  1  -0.00568800  0.83635989  0.82561584  1
  Sn2+  Sn50  1  0.00343696  0.50806660  0.82525656  1
  Sn2+  Sn51  1  -0.00217561  0.00093773  0.32726601  1
  Sn2+  Sn52  1  0.00144173  0.50448071  0.51065345  1
  Sn2+  Sn53  1  0.00238377  0.67052593  -0.00107735  1
  Sn2+  Sn54  1  0.17391429  0.16073196  0.32454729  1
  Sn2+  Sn55  1  0.00182403  0.84031429  0.16876902  1
  Sn2+  Sn56  1  0.50197121  0.50986967  0.33251343  1
  Sn2+  Sn57  1  0.50445802  0.00001756  0.83940704  1
  Sn2+  Sn58  1  0.49068713  0.15901378  0.67394758  1
  Sn2+  Sn59  1  0.66696183  0.15692304  0.15616370  1
  Sn2+  Sn60  1  0.82933304  0.16235975  0.00076689  1
  Sn2+  Sn61  1  0.17492272  0.16936953  0.66590022  1
  Sn2+  Sn62  1  0.00299707  0.67873660  0.66863914  1
  Sn2+  Sn63  1  0.15920130  0.33592129  0.16556984  1
  Sn2+  Sn64  1  0.15318531  0.66967442  0.83957592  1
  Bi3+  Bi65  1  0.66430723  0.50608091  0.83390883  1
  Bi3+  Bi66  1  0.50277520  0.49860859  0.66899784  1
  Bi3+  Bi67  1  0.33214217  0.49627878  0.16383033  1
  Bi3+  Bi68  1  0.83225109  0.66402693  0.17591040  1
  Bi3+  Bi69  1  0.66489771  0.83432425  0.49948059  1
  Bi3+  Bi70  1  0.83633061  0.00102237  0.17151283  1
  Bi3+  Bi71  1  0.82975158  0.50075889  0.34833349  1
  Bi3+  Bi72  1  0.83160074  0.83945206  0.66559675  1
  Bi3+  Bi73  1  0.50271913  0.33104837  0.83803633  1
  Bi3+  Bi74  1  0.50039575  0.66562584  0.16741537  1
  Bi3+  Bi75  1  0.17010123  0.33451781  0.50317530  1
  Bi3+  Bi76  1  -0.00383049  0.33983980  0.34105116  1
  Bi3+  Bi77  1  0.16497555  0.49959357  0.33143087  1
  Bi3+  Bi78  1  0.33537687  0.83369669  0.49706119  1
  Bi3+  Bi79  1  0.00078367  0.16778849  0.16713517  1
  Bi3+  Bi80  1  0.50032453  0.66909474  0.49860098  1
  Bi3+  Bi81  1  0.16751364  -0.00005522  0.83386236  1
  Bi3+  Bi82  1  0.33196187  0.32098622  0.66493625  1
  Bi3+  Bi83  1  0.83753690  0.16732970  0.33879662  1
  Bi3+  Bi84  1  0.66964278  0.32610202  -0.00002821  1
  Bi3+  Bi85  1  -0.00259935  0.50147974  0.16921612  1
  Te2-  Te86  1  0.16290167  0.16943019  0.15840463  1
  Te2-  Te87  1  0.16494983  0.17107837  0.49727900  1
  Te2-  Te88  1  0.16665264  0.17003319  0.83638403  1
  Te2-  Te89  1  0.16341902  0.49875336  0.16748578  1
  Te2-  Te90  1  0.17726834  0.49841358  0.49831739  1
  Te2-  Te91  1  0.16682057  0.49414522  0.84000606  1
  Te2-  Te92  1  0.16240698  0.83589805  0.16577452  1
  Te2-  Te93  1  0.16737311  0.83171045  0.51605682  1
  Te2-  Te94  1  0.16595861  0.83294406  0.81694122  1
  Te2-  Te95  1  0.50052955  0.16624715  0.16085415  1
  Te2-  Te96  1  0.51489850  0.16653886  0.50085401  1
  Te2-  Te97  1  0.51329328  0.16975405  0.84478726  1
  Te2-  Te98  1  0.49662061  0.50283203  0.16522867  1
  Te2-  Te99  1  0.49029610  0.50522578  0.50235478  1
  Te2-  Te100  1  0.50282510  0.49588757  0.83371342  1
  Te2-  Te101  1  0.50336994  0.83171579  0.17642035  1
  Te2-  Te102  1  0.50010479  0.82946188  0.48440058  1
  Te2-  Te103  1  0.51262365  0.83278636  0.83192586  1
  Te2-  Te104  1  0.83616164  0.16952149  0.17394869  1
  Te2-  Te105  1  0.82557188  0.14928245  0.50073810  1
  Te2-  Te106  1  0.82736543  0.15249968  0.82733453  1
  Te2-  Te107  1  0.83635685  0.50249094  0.18444340  1
  Te2-  Te108  1  0.83268240  0.50944389  0.51021721  1
  Te2-  Te109  1  0.83098594  0.49728199  0.81902927  1
  Te2-  Te110  1  0.83125207  0.83056299  0.17682913  1
  Te2-  Te111  1  0.82748740  0.84543122  0.49806581  1
  Te2-  Te112  1  0.82594189  0.85073268  0.83052801  1
  Te2-  Te113  1  0.16212365  0.00614727  -0.00451926  1
  Te2-  Te114  1  0.16414938  0.00321097  0.33083943  1
  Te2-  Te115  1  0.16265124  0.00730969  0.66987819  1
  Te2-  Te116  1  0.16550808  0.32893339  -0.00637501  1
  Te2-  Te117  1  0.16167606  0.33488681  0.33606569  1
  Te2-  Te118  1  0.16738046  0.33842365  0.66897437  1
  Te2-  Te119  1  0.16219956  0.66800199  0.00810113  1
  Te2-  Te120  1  0.16394161  0.66251981  0.32545069  1
  Te2-  Te121  1  0.16053949  0.65180144  0.67204375  1
  Te2-  Te122  1  0.50467192  0.00865299  0.01063665  1
  Te2-  Te123  1  0.50124101  -0.00860464  0.31817297  1
  Te2-  Te124  1  0.51304960  0.00180195  0.67097020  1
  Te2-  Te125  1  0.50811758  0.32749971  0.00551586  1
  Te2-  Te126  1  0.50699170  0.33492565  0.32350578  1
  Te2-  Te127  1  0.49717029  0.33283255  0.67063425  1
  Te2-  Te128  1  0.50337048  0.66391773  0.00509087  1
  Te2-  Te129  1  0.50190150  0.67131422  0.33295601  1
  Te2-  Te130  1  0.49772305  0.66401102  0.66504598  1
  Te2-  Te131  1  0.83691824  0.00147312  0.01203128  1
  Te2-  Te132  1  0.83667650  0.00262515  0.33383553  1
  Te2-  Te133  1  0.82156993  0.00475191  0.66266676  1
  Te2-  Te134  1  0.83220830  0.33614798  -0.00302506  1
  Te2-  Te135  1  0.83301776  0.33349489  0.35359345  1
  Te2-  Te136  1  0.83896544  0.32466764  0.65223617  1
  Te2-  Te137  1  0.83465112  0.65943560  0.01220784  1
  Te2-  Te138  1  0.82903897  0.66447541  0.34168366  1
  Te2-  Te139  1  0.83740457  0.67768440  0.66072409  1
  Te2-  Te140  1  -0.00540161  0.16287364  0.00512455  1
  Te2-  Te141  1  0.00198180  0.17483515  0.33104399  1
  Te2-  Te142  1  -0.00363374  0.15725439  0.66578107  1
  Te2-  Te143  1  -0.00623172  0.50098327  0.00366609  1
  Te2-  Te144  1  -0.00063819  0.50343640  0.33834231  1
  Te2-  Te145  1  -0.00194777  0.50505762  0.66719211  1
  Te2-  Te146  1  -0.00142369  0.83895688  0.00045633  1
  Te2-  Te147  1  -0.00562453  0.82961335  0.33829733  1
  Te2-  Te148  1  -0.00796229  0.84791350  0.66244827  1
  Te2-  Te149  1  0.33545725  0.16760953  0.00451541  1
  Te2-  Te150  1  0.33627175  0.15821945  0.34416821  1
  Te2-  Te151  1  0.33298657  0.15794493  0.64896693  1
  Te2-  Te152  1  0.33026480  0.49834079  0.00198658  1
  Te2-  Te153  1  0.33050897  0.50097323  0.32766993  1
  Te2-  Te154  1  0.33473856  0.49471256  0.67615292  1
  Te2-  Te155  1  0.33292987  0.83350532  0.00228382  1
  Te2-  Te156  1  0.32969053  0.84098920  0.33110647  1
  Te2-  Te157  1  0.34202428  0.84637333  0.66171637  1
  Te2-  Te158  1  0.67358937  0.16198578  -0.00275161  1
  Te2-  Te159  1  0.67433219  0.16876309  0.33319847  1
  Te2-  Te160  1  0.66607867  0.16248390  0.66999209  1
  Te2-  Te161  1  0.67420577  0.49483272  -0.00031390  1
  Te2-  Te162  1  0.66738244  0.49033023  0.34068901  1
  Te2-  Te163  1  0.66425225  0.50017958  0.66843486  1
  Te2-  Te164  1  0.66752016  0.84789449  0.00533258  1
  Te2-  Te165  1  0.67426694  0.84465767  0.33570977  1
  Te2-  Te166  1  0.66621304  0.83974100  0.66387072  1
  Te2-  Te167  1  -0.00040325  0.00415954  0.16786833  1
  Te2-  Te168  1  0.00258376  -0.00830464  0.49707048  1
  Te2-  Te169  1  0.00543790  -0.00196400  0.83593641  1
  Te2-  Te170  1  -0.00748677  0.33681030  0.17529453  1
  Te2-  Te171  1  0.00715703  0.33847118  0.50746501  1
  Te2-  Te172  1  -0.00066299  0.33595420  0.82406257  1
  Te2-  Te173  1  -0.00531435  0.66586954  0.17047776  1
  Te2-  Te174  1  -0.00543228  0.67630260  0.49728894  1
  Te2-  Te175  1  -0.01490071  0.67030855  0.83666643  1
  Te2-  Te176  1  0.33743565  0.00382466  0.16887365  1
  Te2-  Te177  1  0.34613123  -0.00423691  0.49600740  1
  Te2-  Te178  1  0.33485701  0.01354643  0.82903150  1
  Te2-  Te179  1  0.32802194  0.33355659  0.16676752  1
  Te2-  Te180  1  0.33315757  0.33311751  0.50184379  1
  Te2-  Te181  1  0.33699788  0.31326137  0.82685616  1
  Te2-  Te182  1  0.33595731  0.66582335  0.17502760  1
  Te2-  Te183  1  0.33492494  0.67096937  0.49337351  1
  Te2-  Te184  1  0.32667024  0.67045095  0.83207475  1
  Te2-  Te185  1  0.67201302  -0.00083921  0.18143433  1
  Te2-  Te186  1  0.64925514  -0.00221887  0.48911628  1
  Te2-  Te187  1  0.66431265  -0.00471058  0.83999035  1
  Te2-  Te188  1  0.67563907  0.33034467  0.16555635  1
  Te2-  Te189  1  0.66710602  0.33117019  0.49906097  1
  Te2-  Te190  1  0.66585944  0.33935042  0.83718077  1
  Te2-  Te191  1  0.66589592  0.67038158  0.17518511  1
  Te2-  Te192  1  0.66411862  0.66813618  0.49525709  1
  Te2-  Te193  1  0.68521171  0.66958913  0.83645434  1
  Pb2+  Pb194  1  -0.00018537  0.33252187  0.00118667  1
  Pb2+  Pb195  1  0.50594486  0.15986585  0.33175031  1
  Pb2+  Pb196  1  -0.00131354  0.16564948  0.83518645  1
  Pb2+  Pb197  1  0.50068726  0.33286506  0.49661077  1
  Pb2+  Pb198  1  0.33505251  0.66342506  0.00161277  1
  Pb2+  Pb199  1  0.16246085  0.83244570  0.33599786  1
  Pb2+  Pb200  1  0.33376825  0.00107730  -0.00396842  1
  Pb2+  Pb201  1  0.50138995  0.83439807  0.00029263  1
  Pb2+  Pb202  1  0.83357829  0.32575037  0.82733195  1
  Pb2+  Pb203  1  0.32736126  0.67083747  0.66445750  1
  Pb2+  Pb204  1  0.17534861  -0.00047937  0.49979986  1
  Pb2+  Pb205  1  0.16241350  0.66538970  0.49733875  1
  Pb2+  Pb206  1  0.66794861  0.66977324  0.00248293  1
  Pb2+  Pb207  1  0.33706337  0.84393896  0.82962876  1
  Pb2+  Pb208  1  0.66873499  0.66980702  0.66796591  1
  Pb2+  Pb209  1  0.66807512  0.49973528  0.17117091  1
  Pb2+  Pb210  1  0.16347058  0.83686245  -0.01158731  1
  Pb2+  Pb211  1  0.83392178  0.83075926  -0.00027051  1
  Pb2+  Pb212  1  0.33336878  0.33032257  0.33244819  1
  Pb2+  Pb213  1  0.66794397  0.33029041  0.66846435  1
  Pb2+  Pb214  1  -0.00341243  0.16734784  0.50008109  1
  Pb2+  Pb215  1  0.33797878  0.33431918  -0.00293595  1
