# generated using pymatgen
data_In22Ag21Sn22Bi21(Te54Pb11)2
_symmetry_space_group_name_H-M   'P 1'
_cell_length_a   19.15669220
_cell_length_b   19.15745069
_cell_length_c   19.15761506
_cell_angle_alpha   89.99345043
_cell_angle_beta   89.99249498
_cell_angle_gamma   90.00167481
_symmetry_Int_Tables_number   1
_chemical_formula_structural   In22Ag21Sn22Bi21(Te54Pb11)2
_chemical_formula_sum   'In22 Ag21 Sn22 Bi21 Te108 Pb22'
_cell_volume   7030.71791286
_cell_formula_units_Z   1
loop_
 _symmetry_equiv_pos_site_id
 _symmetry_equiv_pos_as_xyz
  1  'x, y, z'
loop_
 _atom_type_symbol
 _atom_type_oxidation_number
  In3+  3.0
  Ag+  1.0
  Sn2+  2.0
  Bi3+  3.0
  Te2-  -2.0
  Pb2+  2.0
loop_
 _atom_site_type_symbol
 _atom_site_label
 _atom_site_symmetry_multiplicity
 _atom_site_fract_x
 _atom_site_fract_y
 _atom_site_fract_z
 _atom_site_occupancy
  In3+  In0  1  0.32217205  0.48782996  0.15465500  1
  In3+  In1  1  0.17053283  0.64485815  0.51839695  1
  In3+  In2  1  0.50778174  0.00867050  0.84487918  1
  In3+  In3  1  0.50964146  0.64814965  0.49653123  1
  In3+  In4  1  0.84244624  0.18353999  0.00019137  1
  In3+  In5  1  0.67505804  0.65910600  0.32946211  1
  In3+  In6  1  0.34416867  0.16641180  0.49837772  1
  In3+  In7  1  0.85258929  0.14751427  0.31091284  1
  In3+  In8  1  0.31790904  -0.00079473  0.33539022  1
  In3+  In9  1  0.33173781  0.18482355  0.85131621  1
  In3+  In10  1  0.16311799  0.31011853  0.47355145  1
  In3+  In11  1  0.15740660  0.00590389  0.50992651  1
  In3+  In12  1  0.14256866  0.66766372  0.83657915  1
  In3+  In13  1  0.17009868  0.85648357  -0.00175317  1
  In3+  In14  1  0.00516004  0.33805576  0.67186493  1
  In3+  In15  1  0.66698843  0.32044813  0.31575164  1
  In3+  In16  1  0.83866326  0.49557801  0.31277100  1
  In3+  In17  1  0.32821965  0.00068177  0.68675476  1
  In3+  In18  1  0.00341474  0.00125035  0.65319377  1
  In3+  In19  1  0.52326978  0.48982078  -0.00568672  1
  In3+  In20  1  0.32991388  0.64880652  0.33522235  1
  In3+  In21  1  0.84515906  0.34041994  0.84582039  1
  Ag+  Ag22  1  0.80465584  0.66127870  0.14479456  1
  Ag+  Ag23  1  0.00118421  0.52084884  0.47713821  1
  Ag+  Ag24  1  -0.00101716  0.17274874  0.47780459  1
  Ag+  Ag25  1  0.47879989  0.31011468  0.83024489  1
  Ag+  Ag26  1  0.84243618  0.01663270  0.14097293  1
  Ag+  Ag27  1  0.31074134  0.33311651  -0.00044451  1
  Ag+  Ag28  1  0.46796247  0.00215249  0.52317994  1
  Ag+  Ag29  1  0.69798776  0.63776667  -0.02111475  1
  Ag+  Ag30  1  0.16488445  0.83493470  0.63994942  1
  Ag+  Ag31  1  0.14266031  0.16773733  -0.00532670  1
  Ag+  Ag32  1  0.01846181  0.02001468  0.32195050  1
  Ag+  Ag33  1  -0.01184084  0.16198499  0.83107333  1
  Ag+  Ag34  1  0.46632930  0.02833960  0.18710626  1
  Ag+  Ag35  1  0.18061506  0.17218075  0.35656626  1
  Ag+  Ag36  1  0.83752203  0.52128283  0.01379754  1
  Ag+  Ag37  1  0.68789905  0.18227611  0.83577202  1
  Ag+  Ag38  1  -0.01767127  0.52205983  0.83224230  1
  Ag+  Ag39  1  0.19001499  0.30217134  0.16952311  1
  Ag+  Ag40  1  0.84588730  0.31335256  0.18564688  1
  Ag+  Ag41  1  0.01206314  0.19601666  0.18007297  1
  Ag+  Ag42  1  0.83596597  0.69493972  0.85310625  1
  Sn2+  Sn43  1  0.33868800  0.66327142  0.00072750  1
  Sn2+  Sn44  1  0.66174077  0.50284130  0.16675740  1
  Sn2+  Sn45  1  0.16579207  0.84279184  0.33090914  1
  Sn2+  Sn46  1  0.83389724  0.82885615  0.01086307  1
  Sn2+  Sn47  1  0.33597241  0.01313256  -0.00132674  1
  Sn2+  Sn48  1  0.66930078  0.84001064  0.16184537  1
  Sn2+  Sn49  1  0.67028865  -0.00062663  0.00111405  1
  Sn2+  Sn50  1  0.33040625  0.83234647  0.82806656  1
  Sn2+  Sn51  1  0.66457787  0.83351852  0.83740897  1
  Sn2+  Sn52  1  0.49672298  0.15997345  0.33363768  1
  Sn2+  Sn53  1  0.84273394  0.82684467  0.67025948  1
  Sn2+  Sn54  1  0.15718823  0.33510969  0.84409186  1
  Sn2+  Sn55  1  -0.00442442  0.00709130  0.01185097  1
  Sn2+  Sn56  1  0.50197135  0.84297758  0.33802521  1
  Sn2+  Sn57  1  -0.00768022  0.49425301  0.15065493  1
  Sn2+  Sn58  1  0.15887999  0.50378496  0.66878654  1
  Sn2+  Sn59  1  0.49583389  0.83847799  0.66360882  1
  Sn2+  Sn60  1  0.33769639  0.32522046  0.32844970  1
  Sn2+  Sn61  1  0.83230375  0.83328500  0.32836234  1
  Sn2+  Sn62  1  0.00446534  0.32904919  0.00138335  1
  Sn2+  Sn63  1  0.83638021  0.00733449  0.83683446  1
  Sn2+  Sn64  1  0.16133363  0.00427172  0.83181381  1
  Bi3+  Bi65  1  0.67089869  0.32984220  0.67151765  1
  Bi3+  Bi66  1  0.16762477  0.66592719  0.16718410  1
  Bi3+  Bi67  1  0.32973693  0.50296794  0.83778339  1
  Bi3+  Bi68  1  0.50132085  0.83048938  0.00050282  1
  Bi3+  Bi69  1  -0.00288596  0.82893157  0.16731752  1
  Bi3+  Bi70  1  0.67129343  -0.00218313  0.32939593  1
  Bi3+  Bi71  1  0.00463518  0.66532008  0.00347296  1
  Bi3+  Bi72  1  0.83663463  0.49227040  0.66739249  1
  Bi3+  Bi73  1  0.83611698  0.00184251  0.50510557  1
  Bi3+  Bi74  1  -0.00027048  0.66768512  0.33254186  1
  Bi3+  Bi75  1  0.15206710  0.00507670  0.16385939  1
  Bi3+  Bi76  1  0.50588105  0.67007823  0.83621555  1
  Bi3+  Bi77  1  0.49768664  0.66709976  0.16826935  1
  Bi3+  Bi78  1  0.33538235  0.83108879  0.16303013  1
  Bi3+  Bi79  1  0.50109761  0.50140219  0.33004976  1
  Bi3+  Bi80  1  0.50619499  0.16458799  0.00233938  1
  Bi3+  Bi81  1  0.66882547  0.32794210  -0.00325865  1
  Bi3+  Bi82  1  0.66435014  -0.00003368  0.66698141  1
  Bi3+  Bi83  1  0.83599341  0.16121245  0.67031529  1
  Bi3+  Bi84  1  0.83688181  0.66433467  0.50296172  1
  Bi3+  Bi85  1  0.15782200  0.49553241  -0.00251126  1
  Te2-  Te86  1  0.15257690  0.16253912  0.14508637  1
  Te2-  Te87  1  0.15184619  0.16111473  0.50263476  1
  Te2-  Te88  1  0.18163371  0.16966970  0.84664416  1
  Te2-  Te89  1  0.16692860  0.50270750  0.16400084  1
  Te2-  Te90  1  0.15100748  0.49600467  0.50182675  1
  Te2-  Te91  1  0.16843061  0.50713241  0.83473951  1
  Te2-  Te92  1  0.16897149  0.83223358  0.16214441  1
  Te2-  Te93  1  0.16691610  0.85031723  0.49147784  1
  Te2-  Te94  1  0.17056405  0.82829313  0.84563034  1
  Te2-  Te95  1  0.49935452  0.16794998  0.16408984  1
  Te2-  Te96  1  0.49792872  0.15404392  0.49665787  1
  Te2-  Te97  1  0.48771703  0.16263500  0.83840611  1
  Te2-  Te98  1  0.49188652  0.50453004  0.16574893  1
  Te2-  Te99  1  0.49767229  0.49427460  0.49665169  1
  Te2-  Te100  1  0.49826672  0.50845167  0.84035744  1
  Te2-  Te101  1  0.49800877  0.83029903  0.16410993  1
  Te2-  Te102  1  0.49533717  0.85207864  0.49927022  1
  Te2-  Te103  1  0.49659247  0.83168046  0.83608372  1
  Te2-  Te104  1  0.84696297  0.16666830  0.15933864  1
  Te2-  Te105  1  0.84614325  0.16539216  0.50650650  1
  Te2-  Te106  1  0.83479880  0.16459894  0.83630043  1
  Te2-  Te107  1  0.82831718  0.51421289  0.16431441  1
  Te2-  Te108  1  0.85205757  0.50034243  0.50696122  1
  Te2-  Te109  1  0.83893707  0.49123309  0.82739013  1
  Te2-  Te110  1  0.83483911  0.80802002  0.17051295  1
  Te2-  Te111  1  0.83201809  0.83053503  0.50302456  1
  Te2-  Te112  1  0.83222592  0.83860637  0.82830806  1
  Te2-  Te113  1  0.16760912  0.01092004  0.00170342  1
  Te2-  Te114  1  0.16433786  0.01540872  0.32439438  1
  Te2-  Te115  1  0.16818347  -0.00909177  0.66421287  1
  Te2-  Te116  1  0.16290957  0.33429671  0.00913539  1
  Te2-  Te117  1  0.16862564  0.32264671  0.32101023  1
  Te2-  Te118  1  0.16067437  0.33391112  0.67758348  1
  Te2-  Te119  1  0.16809156  0.66013473  0.00103170  1
  Te2-  Te120  1  0.16614003  0.66948033  0.33047860  1
  Te2-  Te121  1  0.16574272  0.68077327  0.66741390  1
  Te2-  Te122  1  0.50141292  -0.00251394  0.00157503  1
  Te2-  Te123  1  0.51173862  0.00240107  0.32410904  1
  Te2-  Te124  1  0.49797762  -0.00353487  0.66921302  1
  Te2-  Te125  1  0.50862514  0.33458315  -0.01588477  1
  Te2-  Te126  1  0.50611810  0.33565008  0.33262702  1
  Te2-  Te127  1  0.50060807  0.33180628  0.67720621  1
  Te2-  Te128  1  0.50250763  0.66488014  0.00261254  1
  Te2-  Te129  1  0.49702415  0.66585271  0.33631824  1
  Te2-  Te130  1  0.49894457  0.67172684  0.66398160  1
  Te2-  Te131  1  0.83379904  -0.01250776  -0.00272191  1
  Te2-  Te132  1  0.83214887  0.00176245  0.34362656  1
  Te2-  Te133  1  0.83356278  -0.00349004  0.66711175  1
  Te2-  Te134  1  0.83152594  0.33331779  -0.00115536  1
  Te2-  Te135  1  0.82277362  0.34159015  0.32830965  1
  Te2-  Te136  1  0.83750720  0.32641464  0.67079588  1
  Te2-  Te137  1  0.84060741  0.66765712  -0.00352076  1
  Te2-  Te138  1  0.83411764  0.66000661  0.34238679  1
  Te2-  Te139  1  0.83401866  0.66140562  0.66415987  1
  Te2-  Te140  1  -0.00720863  0.16207356  -0.01269196  1
  Te2-  Te141  1  -0.00184826  0.16690022  0.32610807  1
  Te2-  Te142  1  -0.00266482  0.15222311  0.67965163  1
  Te2-  Te143  1  -0.00668013  0.50333408  -0.01386475  1
  Te2-  Te144  1  -0.00523011  0.50270205  0.32938612  1
  Te2-  Te145  1  0.00162380  0.49286785  0.68274964  1
  Te2-  Te146  1  0.00775448  0.83169528  0.00501164  1
  Te2-  Te147  1  -0.00062155  0.82949261  0.32964680  1
  Te2-  Te148  1  0.01126773  0.84266248  0.66813851  1
  Te2-  Te149  1  0.34403972  0.18155068  0.00311727  1
  Te2-  Te150  1  0.32789682  0.16933723  0.33687196  1
  Te2-  Te151  1  0.32881865  0.15522176  0.65526885  1
  Te2-  Te152  1  0.32549615  0.49139647  0.00041276  1
  Te2-  Te153  1  0.33575795  0.49251608  0.33326517  1
  Te2-  Te154  1  0.32789465  0.49936525  0.66910197  1
  Te2-  Te155  1  0.33474548  0.83501116  0.00146162  1
  Te2-  Te156  1  0.33450747  0.84643722  0.32518931  1
  Te2-  Te157  1  0.32231400  0.84581774  0.66581322  1
  Te2-  Te158  1  0.66893583  0.16372686  -0.01193224  1
  Te2-  Te159  1  0.66702880  0.16832239  0.33192226  1
  Te2-  Te160  1  0.67031250  0.16474320  0.67968311  1
  Te2-  Te161  1  0.68062337  0.49528455  0.00482770  1
  Te2-  Te162  1  0.66209692  0.50213830  0.33227880  1
  Te2-  Te163  1  0.66726989  0.49538703  0.66474046  1
  Te2-  Te164  1  0.66242202  0.83382738  0.00097471  1
  Te2-  Te165  1  0.66755848  0.83177106  0.33048985  1
  Te2-  Te166  1  0.66603016  0.83851743  0.66857262  1
  Te2-  Te167  1  -0.01076407  -0.01047064  0.17628791  1
  Te2-  Te168  1  0.00153790  0.00763709  0.49622428  1
  Te2-  Te169  1  0.00685687  0.00881009  0.83890290  1
  Te2-  Te170  1  -0.01101856  0.33998086  0.16247127  1
  Te2-  Te171  1  0.01275376  0.31997968  0.50649086  1
  Te2-  Te172  1  -0.00067995  0.31519147  0.83045922  1
  Te2-  Te173  1  0.00526186  0.66338471  0.16874412  1
  Te2-  Te174  1  0.00647383  0.66792922  0.49734855  1
  Te2-  Te175  1  -0.01239918  0.67128520  0.83789743  1
  Te2-  Te176  1  0.32576340  -0.00381215  0.16668744  1
  Te2-  Te177  1  0.32572332  0.01037908  0.48803263  1
  Te2-  Te178  1  0.33352933  0.00048366  0.83704244  1
  Te2-  Te179  1  0.33308876  0.33530855  0.15915735  1
  Te2-  Te180  1  0.32282178  0.32515956  0.50094158  1
  Te2-  Te181  1  0.33315156  0.33979735  0.84193026  1
  Te2-  Te182  1  0.33210118  0.66676354  0.16990824  1
  Te2-  Te183  1  0.32273999  0.66622650  0.49768914  1
  Te2-  Te184  1  0.34086166  0.66404343  0.83753862  1
  Te2-  Te185  1  0.69090274  -0.00114264  0.16892025  1
  Te2-  Te186  1  0.67118285  0.00196397  0.50163527  1
  Te2-  Te187  1  0.65978478  -0.00147530  0.82882397  1
  Te2-  Te188  1  0.67351592  0.33281426  0.16214012  1
  Te2-  Te189  1  0.66712627  0.33094964  0.50959015  1
  Te2-  Te190  1  0.67699429  0.32929727  0.83238003  1
  Te2-  Te191  1  0.65865359  0.66716504  0.17571851  1
  Te2-  Te192  1  0.66888201  0.66492417  0.49602357  1
  Te2-  Te193  1  0.66935999  0.66666940  0.83794518  1
  Pb2+  Pb194  1  -0.00044203  0.83953159  0.49980522  1
  Pb2+  Pb195  1  0.32536534  0.49639188  0.50106817  1
  Pb2+  Pb196  1  0.67503640  0.16272455  0.16004479  1
  Pb2+  Pb197  1  -0.00186580  0.33333838  0.33260869  1
  Pb2+  Pb198  1  0.32761351  0.32716423  0.67367518  1
  Pb2+  Pb199  1  0.67734556  0.16611834  0.50283761  1
  Pb2+  Pb200  1  -0.00024896  0.66437064  0.66675510  1
  Pb2+  Pb201  1  0.16393329  0.49800487  0.33261529  1
  Pb2+  Pb202  1  0.49824887  0.32343408  0.50092384  1
  Pb2+  Pb203  1  0.68073138  0.49670405  0.49696103  1
  Pb2+  Pb204  1  0.33266711  0.83592162  0.49638025  1
  Pb2+  Pb205  1  0.49879922  0.16542120  0.66927682  1
  Pb2+  Pb206  1  0.66728753  0.67029437  0.67221012  1
  Pb2+  Pb207  1  0.00097525  0.84446096  0.83538530  1
  Pb2+  Pb208  1  0.84475587  0.33192201  0.50004024  1
  Pb2+  Pb209  1  0.50187002  0.33516693  0.15671888  1
  Pb2+  Pb210  1  0.67398235  0.49394766  0.83504545  1
  Pb2+  Pb211  1  0.31811958  0.16445275  0.16752377  1
  Pb2+  Pb212  1  0.33232411  0.67301481  0.67013726  1
  Pb2+  Pb213  1  0.66077399  0.83485507  0.49770233  1
  Pb2+  Pb214  1  0.49654140  0.49989318  0.67254687  1
  Pb2+  Pb215  1  0.16165074  0.16572706  0.67792364  1
