# generated using pymatgen
data_In22Ag21Sn22Bi21(Te54Pb11)2
_symmetry_space_group_name_H-M   'P 1'
_cell_length_a   19.14008714
_cell_length_b   19.14674524
_cell_length_c   19.14497239
_cell_angle_alpha   90.00456176
_cell_angle_beta   89.98889621
_cell_angle_gamma   90.00380422
_symmetry_Int_Tables_number   1
_chemical_formula_structural   In22Ag21Sn22Bi21(Te54Pb11)2
_chemical_formula_sum   'In22 Ag21 Sn22 Bi21 Te108 Pb22'
_cell_volume   7016.06498969
_cell_formula_units_Z   1
loop_
 _symmetry_equiv_pos_site_id
 _symmetry_equiv_pos_as_xyz
  1  'x, y, z'
loop_
 _atom_type_symbol
 _atom_type_oxidation_number
  In3+  3.0
  Ag+  1.0
  Sn2+  2.0
  Bi3+  3.0
  Te2-  -2.0
  Pb2+  2.0
loop_
 _atom_site_type_symbol
 _atom_site_label
 _atom_site_symmetry_multiplicity
 _atom_site_fract_x
 _atom_site_fract_y
 _atom_site_fract_z
 _atom_site_occupancy
  In3+  In0  1  0.50122504  0.49766755  0.66824638  1
  In3+  In1  1  -0.01199285  0.83850123  0.49361465  1
  In3+  In2  1  0.67595942  0.16771414  0.49452170  1
  In3+  In3  1  0.51328497  0.50003372  0.01731225  1
  In3+  In4  1  0.32885273  0.82887158  0.50252917  1
  In3+  In5  1  0.51252572  -0.00543656  0.83686883  1
  In3+  In6  1  0.67657197  0.67052371  0.00948997  1
  In3+  In7  1  0.66420884  0.33471754  0.66772350  1
  In3+  In8  1  0.18256172  0.49900822  0.00983802  1
  In3+  In9  1  0.66704191  -0.00349654  0.33209859  1
  In3+  In10  1  0.00216242  0.65545454  0.00650795  1
  In3+  In11  1  0.18529792  0.66311271  0.84134152  1
  In3+  In12  1  0.32943747  0.48258500  0.49703298  1
  In3+  In13  1  0.50024236  0.63936751  0.49619078  1
  In3+  In14  1  0.00446743  0.33611517  0.34123660  1
  In3+  In15  1  0.49793583  0.16662129  0.65632603  1
  In3+  In16  1  0.50526607  0.17018931  0.32337690  1
  In3+  In17  1  0.16260307  0.83517646  0.66498937  1
  In3+  In18  1  0.82892921  0.33220538  0.49996116  1
  In3+  In19  1  0.82355536  0.33377334  0.15048721  1
  In3+  In20  1  0.16753456  0.49953491  0.32824441  1
  In3+  In21  1  0.17514506  0.15602520  0.33815576  1
  Ag+  Ag22  1  0.02685891  0.36062679  0.03349872  1
  Ag+  Ag23  1  0.66201371  0.30580542  0.02683712  1
  Ag+  Ag24  1  0.68818515  0.52443705  0.16677246  1
  Ag+  Ag25  1  0.69717063  0.01494907  -0.02260277  1
  Ag+  Ag26  1  0.79416616  0.63614209  0.47030625  1
  Ag+  Ag27  1  0.16836967  0.02393632  0.52560608  1
  Ag+  Ag28  1  0.16707438  0.64707077  0.14234932  1
  Ag+  Ag29  1  0.80473040  0.15908934  0.64190375  1
  Ag+  Ag30  1  0.35343460  0.49909767  0.85508552  1
  Ag+  Ag31  1  0.50300038  0.33010171  0.49176754  1
  Ag+  Ag32  1  0.30758493  0.20454055  0.14745856  1
  Ag+  Ag33  1  0.35645801  0.65306938  0.03205621  1
  Ag+  Ag34  1  0.33200917  0.50026249  0.15235302  1
  Ag+  Ag35  1  0.80748814  0.02984075  0.86936130  1
  Ag+  Ag36  1  0.19288825  0.79631046  0.03119208  1
  Ag+  Ag37  1  0.13763107  0.31852880  0.49592503  1
  Ag+  Ag38  1  0.69656123  0.69809940  0.36263917  1
  Ag+  Ag39  1  0.65541412  0.18653487  0.13711877  1
  Ag+  Ag40  1  0.81426308  0.18876583  0.02191395  1
  Ag+  Ag41  1  0.65154904  0.85234288  0.82875055  1
  Ag+  Ag42  1  0.81042803  -0.02183801  0.49721136  1
  Sn2+  Sn43  1  0.65930935  0.49784198  0.84208502  1
  Sn2+  Sn44  1  -0.01092719  0.00577838  0.66257364  1
  Sn2+  Sn45  1  0.49384694  0.65899391  0.16898053  1
  Sn2+  Sn46  1  -0.00005992  0.49822240  0.16237774  1
  Sn2+  Sn47  1  0.50426689  0.83107754  0.34277898  1
  Sn2+  Sn48  1  0.82547927  0.49026885  -0.00227853  1
  Sn2+  Sn49  1  -0.00515976  0.15625398  0.49976991  1
  Sn2+  Sn50  1  0.17074100  0.82967952  0.33512209  1
  Sn2+  Sn51  1  0.00452546  0.49980574  0.83646122  1
  Sn2+  Sn52  1  0.50524006  0.33309660  0.17051832  1
  Sn2+  Sn53  1  0.83495330  0.16988393  0.32625366  1
  Sn2+  Sn54  1  -0.00597643  0.66872119  0.66938137  1
  Sn2+  Sn55  1  0.67371080  0.16995371  0.83480529  1
  Sn2+  Sn56  1  0.50575629  0.83249188  0.66377794  1
  Sn2+  Sn57  1  0.50492504  0.66673548  0.83552090  1
  Sn2+  Sn58  1  -0.00589996  0.17090917  0.16081016  1
  Sn2+  Sn59  1  0.50487351  0.49748168  0.32966273  1
  Sn2+  Sn60  1  0.82753460  0.00719839  0.17542252  1
  Sn2+  Sn61  1  0.66599315  0.49383243  0.48379777  1
  Sn2+  Sn62  1  0.82553170  0.49856520  0.33321531  1
  Sn2+  Sn63  1  0.34103963  0.16934868  0.84735382  1
  Sn2+  Sn64  1  0.66614231  0.83794682  0.15072150  1
  Bi3+  Bi65  1  0.83384895  0.66303149  0.83034187  1
  Bi3+  Bi66  1  0.33344918  -0.00512252  0.00038338  1
  Bi3+  Bi67  1  0.16795924  0.50275433  0.66335518  1
  Bi3+  Bi68  1  0.33664778  0.66565769  0.33294504  1
  Bi3+  Bi69  1  0.16081534  0.16679244  0.00070046  1
  Bi3+  Bi70  1  0.49959215  0.33338518  0.83205391  1
  Bi3+  Bi71  1  0.16903869  0.66773432  0.50012070  1
  Bi3+  Bi72  1  0.33079204  0.66660266  0.66573162  1
  Bi3+  Bi73  1  0.83513731  0.82924664  -0.00260726  1
  Bi3+  Bi74  1  0.83050660  0.32831179  0.82942163  1
  Bi3+  Bi75  1  -0.00425007  0.33315026  0.66818141  1
  Bi3+  Bi76  1  0.16068051  -0.00431283  0.83442573  1
  Bi3+  Bi77  1  -0.00285095  0.16379035  0.83203114  1
  Bi3+  Bi78  1  0.17056017  0.00054703  0.16270325  1
  Bi3+  Bi79  1  -0.00195109  0.83034603  0.83068756  1
  Bi3+  Bi80  1  0.50460154  -0.00138369  0.16399768  1
  Bi3+  Bi81  1  0.33696802  0.16579059  0.49711090  1
  Bi3+  Bi82  1  0.33421775  0.00100765  0.33162737  1
  Bi3+  Bi83  1  -0.00143495  0.00226446  -0.00240728  1
  Bi3+  Bi84  1  -0.00115640  0.00729147  0.33471511  1
  Bi3+  Bi85  1  0.67064019  0.33276272  0.33599213  1
  Te2-  Te86  1  0.16647523  0.16605707  0.16648417  1
  Te2-  Te87  1  0.17117731  0.17117804  0.49279826  1
  Te2-  Te88  1  0.16862252  0.16652253  0.83570975  1
  Te2-  Te89  1  0.16988607  0.50004192  0.16597960  1
  Te2-  Te90  1  0.17142087  0.50300307  0.49930404  1
  Te2-  Te91  1  0.16355441  0.50634074  0.82632454  1
  Te2-  Te92  1  0.16698604  0.83797723  0.16889089  1
  Te2-  Te93  1  0.17432225  0.82885796  0.50375814  1
  Te2-  Te94  1  0.16263675  0.82989268  0.82654547  1
  Te2-  Te95  1  0.50963685  0.16438369  0.16935422  1
  Te2-  Te96  1  0.49878629  0.17450687  0.50244968  1
  Te2-  Te97  1  0.49845132  0.17121180  0.83203632  1
  Te2-  Te98  1  0.48384969  0.50040780  0.16781983  1
  Te2-  Te99  1  0.49967223  0.48642718  0.49926812  1
  Te2-  Te100  1  0.49765855  0.49708503  0.82373363  1
  Te2-  Te101  1  0.50442852  0.83286496  0.16953775  1
  Te2-  Te102  1  0.49679768  0.84133622  0.50497545  1
  Te2-  Te103  1  0.50462088  0.83530498  0.82914869  1
  Te2-  Te104  1  0.82653328  0.17161291  0.16716288  1
  Te2-  Te105  1  0.83128526  0.17644797  0.49756470  1
  Te2-  Te106  1  0.83515250  0.16713800  0.82624688  1
  Te2-  Te107  1  0.83363428  0.49017792  0.16646453  1
  Te2-  Te108  1  0.83200426  0.49818478  0.49937535  1
  Te2-  Te109  1  0.83036980  0.49580188  0.83298890  1
  Te2-  Te110  1  0.83065968  0.83093875  0.16336581  1
  Te2-  Te111  1  0.83586468  0.83213649  0.50196235  1
  Te2-  Te112  1  0.83605570  0.82619335  0.83484275  1
  Te2-  Te113  1  0.16620981  0.00013723  -0.00103011  1
  Te2-  Te114  1  0.16796937  0.00046717  0.32584849  1
  Te2-  Te115  1  0.16449221  -0.00475343  0.67202640  1
  Te2-  Te116  1  0.16681891  0.33394647  -0.00033085  1
  Te2-  Te117  1  0.15905711  0.34168864  0.34541264  1
  Te2-  Te118  1  0.16133973  0.33957496  0.65138836  1
  Te2-  Te119  1  0.15946119  0.65934295  -0.00508201  1
  Te2-  Te120  1  0.17172977  0.66200148  0.33793856  1
  Te2-  Te121  1  0.16625457  0.66696187  0.66441179  1
  Te2-  Te122  1  0.49623972  -0.00162606  -0.00135406  1
  Te2-  Te123  1  0.49824100  0.00236261  0.32923368  1
  Te2-  Te124  1  0.50182445  0.00707110  0.67474996  1
  Te2-  Te125  1  0.51508921  0.34353519  -0.00180721  1
  Te2-  Te126  1  0.50592276  0.32786484  0.33734178  1
  Te2-  Te127  1  0.50536822  0.33413829  0.66894333  1
  Te2-  Te128  1  0.49730015  0.65508287  -0.00461841  1
  Te2-  Te129  1  0.49748695  0.66521775  0.33703601  1
  Te2-  Te130  1  0.49487650  0.66326186  0.66048856  1
  Te2-  Te131  1  0.83846651  -0.00691749  0.00991365  1
  Te2-  Te132  1  0.83734420  0.00548698  0.34623556  1
  Te2-  Te133  1  0.83716782  0.01181315  0.64333449  1
  Te2-  Te134  1  0.81450336  0.33211484  -0.00416741  1
  Te2-  Te135  1  0.83409721  0.33429471  0.34265957  1
  Te2-  Te136  1  0.82951919  0.32355319  0.66317436  1
  Te2-  Te137  1  0.83761233  0.66313550  -0.00225638  1
  Te2-  Te138  1  0.83570963  0.66389192  0.33213986  1
  Te2-  Te139  1  0.83378247  0.66544910  0.66850397  1
  Te2-  Te140  1  -0.00020951  0.16483696  -0.00497478  1
  Te2-  Te141  1  0.00652680  0.16999059  0.33459068  1
  Te2-  Te142  1  0.00324574  0.17142179  0.66658601  1
  Te2-  Te143  1  -0.00199639  0.49843274  -0.00232638  1
  Te2-  Te144  1  0.00265536  0.49267198  0.33052432  1
  Te2-  Te145  1  0.00186532  0.49694460  0.66631518  1
  Te2-  Te146  1  0.00015485  0.83673989  -0.00707368  1
  Te2-  Te147  1  0.00323613  0.84014491  0.33513977  1
  Te2-  Te148  1  0.00507595  0.83582788  0.66436094  1
  Te2-  Te149  1  0.32867621  0.16513576  0.00641683  1
  Te2-  Te150  1  0.33730077  0.16318356  0.33178123  1
  Te2-  Te151  1  0.33910208  0.16809764  0.66598390  1
  Te2-  Te152  1  0.33084750  0.50967102  -0.00001887  1
  Te2-  Te153  1  0.33063837  0.50310676  0.34313211  1
  Te2-  Te154  1  0.33458945  0.50488890  0.65508272  1
  Te2-  Te155  1  0.33194589  0.83032358  -0.00188875  1
  Te2-  Te156  1  0.33648218  0.83542669  0.33845959  1
  Te2-  Te157  1  0.33572880  0.82989762  0.66362295  1
  Te2-  Te158  1  0.67120996  0.15933211  -0.00648783  1
  Te2-  Te159  1  0.66473736  0.16581164  0.34061652  1
  Te2-  Te160  1  0.65937952  0.17639645  0.66287318  1
  Te2-  Te161  1  0.66343244  0.51116450  0.01563364  1
  Te2-  Te162  1  0.66550045  0.49700789  0.31853140  1
  Te2-  Te163  1  0.65807409  0.49416712  0.65997627  1
  Te2-  Te164  1  0.67109771  0.82466904  -0.01283825  1
  Te2-  Te165  1  0.66411481  0.83930240  0.33395823  1
  Te2-  Te166  1  0.66457212  0.83515876  0.67615866  1
  Te2-  Te167  1  0.00044491  0.00432177  0.16864340  1
  Te2-  Te168  1  0.02146513  -0.00565760  0.49416966  1
  Te2-  Te169  1  -0.00275421  -0.00169726  0.83188466  1
  Te2-  Te170  1  -0.01134655  0.33001429  0.17009818  1
  Te2-  Te171  1  -0.00833427  0.33176628  0.50078359  1
  Te2-  Te172  1  -0.00630951  0.32962123  0.83240303  1
  Te2-  Te173  1  0.01204046  0.66279087  0.16180449  1
  Te2-  Te174  1  0.00510506  0.67829471  0.50240583  1
  Te2-  Te175  1  -0.00324216  0.66679199  0.83444772  1
  Te2-  Te176  1  0.33708102  0.00108363  0.16615951  1
  Te2-  Te177  1  0.31776865  0.00271298  0.49568453  1
  Te2-  Te178  1  0.32612923  0.00038482  0.83802987  1
  Te2-  Te179  1  0.33666305  0.34508125  0.16810513  1
  Te2-  Te180  1  0.34684791  0.32951837  0.49842570  1
  Te2-  Te181  1  0.33521765  0.34361494  0.83401198  1
  Te2-  Te182  1  0.32252292  0.65721766  0.17280834  1
  Te2-  Te183  1  0.33936361  0.67078168  0.49925431  1
  Te2-  Te184  1  0.33580739  0.65366781  0.82837947  1
  Te2-  Te185  1  0.66607252  -0.00106921  0.17714259  1
  Te2-  Te186  1  0.66386431  0.00937880  0.49265024  1
  Te2-  Te187  1  0.66693343  -0.00111073  0.83477397  1
  Te2-  Te188  1  0.66920918  0.32993785  0.17387995  1
  Te2-  Te189  1  0.66167967  0.33006773  0.50005049  1
  Te2-  Te190  1  0.66571925  0.33755012  0.82680562  1
  Te2-  Te191  1  0.66035013  0.66933745  0.16186032  1
  Te2-  Te192  1  0.65412259  0.66426673  0.49852360  1
  Te2-  Te193  1  0.66884914  0.65574800  0.83815261  1
  Pb2+  Pb194  1  0.34248789  0.34020727  0.00125568  1
  Pb2+  Pb195  1  0.49177757  0.00731634  0.49936074  1
  Pb2+  Pb196  1  0.00280720  0.50558548  0.49828869  1
  Pb2+  Pb197  1  0.00035647  0.83355538  0.15939327  1
  Pb2+  Pb198  1  0.83215496  0.66047814  0.16719901  1
  Pb2+  Pb199  1  0.33471962  0.82626746  0.83330027  1
  Pb2+  Pb200  1  0.16889065  0.16878164  0.66423988  1
  Pb2+  Pb201  1  0.82854119  0.49427854  0.66688371  1
  Pb2+  Pb202  1  0.67308731  0.00730419  0.66510766  1
  Pb2+  Pb203  1  0.33467176  -0.00054962  0.66668681  1
  Pb2+  Pb204  1  0.33199859  0.33263713  0.33278255  1
  Pb2+  Pb205  1  0.50203393  0.16894389  0.00126958  1
  Pb2+  Pb206  1  0.33562940  0.82601168  0.16642942  1
  Pb2+  Pb207  1  0.50327857  0.82778850  0.00104020  1
  Pb2+  Pb208  1  0.66577685  0.83604383  0.50578790  1
  Pb2+  Pb209  1  0.16292276  0.33369009  0.17367299  1
  Pb2+  Pb210  1  0.00443675  0.66581776  0.33501651  1
  Pb2+  Pb211  1  0.83302661  0.83838525  0.33278385  1
  Pb2+  Pb212  1  0.33421886  0.33687641  0.66598514  1
  Pb2+  Pb213  1  0.66492525  0.66465309  0.67126900  1
  Pb2+  Pb214  1  0.16269448  0.33862714  0.82856312  1
  Pb2+  Pb215  1  0.83612821  0.84228738  0.66976124  1
