# generated using pymatgen
data_In22Ag21Sn22Bi21(Te54Pb11)2
_symmetry_space_group_name_H-M   'P 1'
_cell_length_a   19.12214014
_cell_length_b   19.11533375
_cell_length_c   19.11370895
_cell_angle_alpha   90.01604083
_cell_angle_beta   89.99423638
_cell_angle_gamma   90.01004575
_symmetry_Int_Tables_number   1
_chemical_formula_structural   In22Ag21Sn22Bi21(Te54Pb11)2
_chemical_formula_sum   'In22 Ag21 Sn22 Bi21 Te108 Pb22'
_cell_volume   6986.55889391
_cell_formula_units_Z   1
loop_
 _symmetry_equiv_pos_site_id
 _symmetry_equiv_pos_as_xyz
  1  'x, y, z'
loop_
 _atom_type_symbol
 _atom_type_oxidation_number
  In3+  3.0
  Ag+  1.0
  Sn2+  2.0
  Bi3+  3.0
  Te2-  -2.0
  Pb2+  2.0
loop_
 _atom_site_type_symbol
 _atom_site_label
 _atom_site_symmetry_multiplicity
 _atom_site_fract_x
 _atom_site_fract_y
 _atom_site_fract_z
 _atom_site_occupancy
  In3+  In0  1  0.67354176  0.49398126  0.17090570  1
  In3+  In1  1  0.33898418  0.86473945  0.17991014  1
  In3+  In2  1  0.00192794  -0.00190954  0.32755451  1
  In3+  In3  1  0.50397114  0.84056078  0.65583665  1
  In3+  In4  1  -0.00370409  0.83021759  0.50878857  1
  In3+  In5  1  0.01961702  0.81940592  0.16753802  1
  In3+  In6  1  -0.00858171  0.66117974  0.00820763  1
  In3+  In7  1  0.50089214  0.49300621  0.66535948  1
  In3+  In8  1  -0.00227299  0.15287255  0.16537795  1
  In3+  In9  1  0.50192648  0.69204523  0.49719273  1
  In3+  In10  1  -0.01045259  0.00904720  -0.00251745  1
  In3+  In11  1  -0.01787574  0.49582867  0.81837202  1
  In3+  In12  1  0.82753154  0.32784105  0.18252170  1
  In3+  In13  1  0.51010951  0.32701758  0.16023299  1
  In3+  In14  1  0.65208177  0.01030729  0.33165470  1
  In3+  In15  1  0.66864449  0.65148279  0.00254721  1
  In3+  In16  1  0.49410611  0.01293813  0.17475654  1
  In3+  In17  1  0.82348241  0.16546408  -0.00901522  1
  In3+  In18  1  0.35086555  0.16135747  0.48605557  1
  In3+  In19  1  0.65899845  0.00622033  -0.00074644  1
  In3+  In20  1  -0.01766751  0.32402468  0.66599312  1
  In3+  In21  1  0.34813793  0.66292676  0.02990212  1
  Ag+  Ag22  1  0.50309311  0.00594604  0.47721095  1
  Ag+  Ag23  1  0.68037533  0.17708869  0.80814701  1
  Ag+  Ag24  1  0.49977411  0.14406043  0.67922653  1
  Ag+  Ag25  1  0.85374622  0.16314920  0.69031531  1
  Ag+  Ag26  1  0.34945921  0.00850363  0.34390903  1
  Ag+  Ag27  1  -0.03241140  0.65723393  0.69862063  1
  Ag+  Ag28  1  0.35404791  0.16927931  0.18323097  1
  Ag+  Ag29  1  0.81202247  0.31596298  0.82913024  1
  Ag+  Ag30  1  0.14385002  0.00381623  0.47269229  1
  Ag+  Ag31  1  0.14241755  0.00354079  0.17209391  1
  Ag+  Ag32  1  0.50586027  0.50115674  0.02059165  1
  Ag+  Ag33  1  0.49792522  0.85251121  0.31525137  1
  Ag+  Ag34  1  0.51998123  0.30449949  0.86717442  1
  Ag+  Ag35  1  0.82202535  0.47622985  0.33992666  1
  Ag+  Ag36  1  0.35987849  0.63919467  0.33236260  1
  Ag+  Ag37  1  0.64676989  0.31307703  0.32929162  1
  Ag+  Ag38  1  0.19122943  0.64828441  0.16575444  1
  Ag+  Ag39  1  0.49970861  0.18198354  0.31801766  1
  Ag+  Ag40  1  0.80825203  0.01980503  0.81033357  1
  Ag+  Ag41  1  0.65540670  0.15240209  0.17066973  1
  Ag+  Ag42  1  0.82675415  0.69189357  0.15870952  1
  Sn2+  Sn43  1  -0.00525608  0.33716243  0.00011505  1
  Sn2+  Sn44  1  0.16515125  0.66357764  0.84428971  1
  Sn2+  Sn45  1  0.66869160  0.66362073  0.67322032  1
  Sn2+  Sn46  1  0.50424963  0.00511575  0.83285457  1
  Sn2+  Sn47  1  0.82500674  0.00470848  0.16837662  1
  Sn2+  Sn48  1  0.33845660  0.49130758  0.16790881  1
  Sn2+  Sn49  1  0.83205619  0.00449025  0.50316442  1
  Sn2+  Sn50  1  0.82529114  0.83391105  0.32622370  1
  Sn2+  Sn51  1  0.82653145  0.32943996  0.50787071  1
  Sn2+  Sn52  1  0.33285399  0.49554702  0.49309027  1
  Sn2+  Sn53  1  0.32999569  0.00510290  0.64684210  1
  Sn2+  Sn54  1  0.16889782  0.16381048  0.00653473  1
  Sn2+  Sn55  1  0.15306800  0.50882177  0.33029355  1
  Sn2+  Sn56  1  0.33212987  0.33463915  0.00172077  1
  Sn2+  Sn57  1  0.65882418  0.32626794  0.66365215  1
  Sn2+  Sn58  1  -0.00241204  -0.00667503  0.66767085  1
  Sn2+  Sn59  1  0.66497912  0.83519705  0.17099023  1
  Sn2+  Sn60  1  0.83491861  0.83721232  0.00278691  1
  Sn2+  Sn61  1  0.17517713  0.50923214  0.00661891  1
  Sn2+  Sn62  1  0.83106035  0.66244969  0.48718908  1
  Sn2+  Sn63  1  0.34097156  0.32969675  0.32650894  1
  Sn2+  Sn64  1  0.33489071  0.66904405  0.65307133  1
  Bi3+  Bi65  1  0.16922780  0.00013126  0.84171256  1
  Bi3+  Bi66  1  0.33459190  0.50204322  0.83398406  1
  Bi3+  Bi67  1  -0.00284237  0.49769061  0.16509931  1
  Bi3+  Bi68  1  0.33364267  -0.00194741  -0.00192040  1
  Bi3+  Bi69  1  0.00277906  0.33422730  0.33258870  1
  Bi3+  Bi70  1  0.49622735  0.66825048  0.82638870  1
  Bi3+  Bi71  1  0.66890755  0.67015968  0.33111585  1
  Bi3+  Bi72  1  0.66747764  0.83992303  0.83838299  1
  Bi3+  Bi73  1  0.49995968  0.32664262  0.49995873  1
  Bi3+  Bi74  1  -0.00172104  0.67161554  0.33018808  1
  Bi3+  Bi75  1  0.33201397  0.83613704  0.49549710  1
  Bi3+  Bi76  1  0.16718780  0.83097263  0.00183884  1
  Bi3+  Bi77  1  0.17104492  0.83493433  0.32984122  1
  Bi3+  Bi78  1  0.33558156  0.83294515  0.83569185  1
  Bi3+  Bi79  1  0.33740363  0.16813750  0.83492774  1
  Bi3+  Bi80  1  0.17147404  0.83379157  0.66099623  1
  Bi3+  Bi81  1  -0.00053567  0.16348945  0.49847624  1
  Bi3+  Bi82  1  0.67258860  0.32822842  0.00462462  1
  Bi3+  Bi83  1  0.17502764  0.33388233  0.83355778  1
  Bi3+  Bi84  1  0.33574811  0.33266523  0.66678906  1
  Bi3+  Bi85  1  0.66541290  0.16822528  0.49725129  1
  Te2-  Te86  1  0.15438627  0.15627535  0.16420248  1
  Te2-  Te87  1  0.16235561  0.15218869  0.49949459  1
  Te2-  Te88  1  0.16936677  0.16689863  0.83662939  1
  Te2-  Te89  1  0.16341614  0.50130195  0.16661548  1
  Te2-  Te90  1  0.17046500  0.50436663  0.49746966  1
  Te2-  Te91  1  0.17288691  0.49906099  0.83933361  1
  Te2-  Te92  1  0.17079287  0.84905148  0.16606524  1
  Te2-  Te93  1  0.16935651  0.85105769  0.49706989  1
  Te2-  Te94  1  0.17103237  0.83331215  0.83369149  1
  Te2-  Te95  1  0.50423982  0.16855926  0.16939765  1
  Te2-  Te96  1  0.50294156  0.16117047  0.49964784  1
  Te2-  Te97  1  0.50021177  0.16476036  0.82848303  1
  Te2-  Te98  1  0.49896140  0.49154515  0.16809666  1
  Te2-  Te99  1  0.49442638  0.49271992  0.50525722  1
  Te2-  Te100  1  0.49599894  0.50626727  0.82285959  1
  Te2-  Te101  1  0.49196331  0.83535980  0.16914246  1
  Te2-  Te102  1  0.49647158  0.84746421  0.50079996  1
  Te2-  Te103  1  0.50050888  0.83279406  0.83314941  1
  Te2-  Te104  1  0.84319468  0.17306052  0.16246074  1
  Te2-  Te105  1  0.83196132  0.16803213  0.50246684  1
  Te2-  Te106  1  0.82651292  0.16438650  0.83653993  1
  Te2-  Te107  1  0.83104823  0.48561848  0.17096176  1
  Te2-  Te108  1  0.83196165  0.50026828  0.49101802  1
  Te2-  Te109  1  0.83043204  0.50315959  0.83296777  1
  Te2-  Te110  1  0.83095890  0.84076191  0.16404674  1
  Te2-  Te111  1  0.83980987  0.83450302  0.49901323  1
  Te2-  Te112  1  0.83014227  0.83777273  0.83489958  1
  Te2-  Te113  1  0.16889863  -0.00496451  0.00359973  1
  Te2-  Te114  1  0.15600682  -0.00364127  0.32498967  1
  Te2-  Te115  1  0.16406250  -0.00518950  0.67828780  1
  Te2-  Te116  1  0.16712829  0.33394613  -0.00398922  1
  Te2-  Te117  1  0.16471766  0.33585106  0.33333622  1
  Te2-  Te118  1  0.17155047  0.33462498  0.66883205  1
  Te2-  Te119  1  0.16443573  0.67005014  0.01590322  1
  Te2-  Te120  1  0.16024533  0.67283498  0.31708752  1
  Te2-  Te121  1  0.17613021  0.67315423  0.66278443  1
  Te2-  Te122  1  0.49960131  -0.00094729  0.00826302  1
  Te2-  Te123  1  0.49876544  -0.00087702  0.32825181  1
  Te2-  Te124  1  0.49766366  -0.00446299  0.67153249  1
  Te2-  Te125  1  0.50484328  0.34381168  0.00607677  1
  Te2-  Te126  1  0.50019889  0.33056631  0.33463769  1
  Te2-  Te127  1  0.49803415  0.33769718  0.66215799  1
  Te2-  Te128  1  0.50310188  0.65456755  -0.00254612  1
  Te2-  Te129  1  0.50526778  0.66660463  0.34292478  1
  Te2-  Te130  1  0.50197876  0.67444177  0.66009019  1
  Te2-  Te131  1  0.83827672  0.00795567  0.00147246  1
  Te2-  Te132  1  0.84421528  -0.00560881  0.33732880  1
  Te2-  Te133  1  0.83636685  0.01159645  0.66722679  1
  Te2-  Te134  1  0.83298558  0.32538503  -0.01813940  1
  Te2-  Te135  1  0.84126727  0.33047271  0.33652387  1
  Te2-  Te136  1  0.83114414  0.32195809  0.67744121  1
  Te2-  Te137  1  0.82983675  0.66670942  0.00904993  1
  Te2-  Te138  1  0.83221704  0.67305367  0.32787047  1
  Te2-  Te139  1  0.82622444  0.66776491  0.66100548  1
  Te2-  Te140  1  0.00030984  0.16852379  0.00527129  1
  Te2-  Te141  1  0.00049753  0.16766246  0.33443172  1
  Te2-  Te142  1  0.00094274  0.16866645  0.66440407  1
  Te2-  Te143  1  0.00226393  0.50371115  0.00264265  1
  Te2-  Te144  1  -0.00936399  0.50039019  0.32821077  1
  Te2-  Te145  1  -0.00050271  0.51448480  0.66773276  1
  Te2-  Te146  1  0.00362019  0.82654961  0.00730954  1
  Te2-  Te147  1  0.00205425  0.83646702  0.32690200  1
  Te2-  Te148  1  0.00653175  0.82405200  0.66491015  1
  Te2-  Te149  1  0.33534674  0.16479208  -0.00366743  1
  Te2-  Te150  1  0.34463933  0.16067910  0.33172913  1
  Te2-  Te151  1  0.34643323  0.16811497  0.67303752  1
  Te2-  Te152  1  0.33996472  0.50429467  -0.00199599  1
  Te2-  Te153  1  0.32683257  0.49453594  0.33256629  1
  Te2-  Te154  1  0.33846953  0.49904335  0.66595585  1
  Te2-  Te155  1  0.33152417  0.82706384  0.00030119  1
  Te2-  Te156  1  0.33671417  0.84767892  0.33218639  1
  Te2-  Te157  1  0.33699588  0.83650529  0.66706086  1
  Te2-  Te158  1  0.67114706  0.16343842  0.01824659  1
  Te2-  Te159  1  0.65845310  0.16440732  0.32595385  1
  Te2-  Te160  1  0.65278297  0.17016313  0.66242825  1
  Te2-  Te161  1  0.65864553  0.49190638  0.00767560  1
  Te2-  Te162  1  0.67623645  0.50694338  0.32414930  1
  Te2-  Te163  1  0.66163016  0.49680993  0.66661706  1
  Te2-  Te164  1  0.66850009  0.84997548  0.00078107  1
  Te2-  Te165  1  0.65302831  0.83390342  0.32917557  1
  Te2-  Te166  1  0.66341345  0.83578628  0.67196191  1
  Te2-  Te167  1  -0.00535489  -0.00068299  0.16170472  1
  Te2-  Te168  1  -0.00240047  -0.00032374  0.50397583  1
  Te2-  Te169  1  0.00489070  0.00330503  0.84180433  1
  Te2-  Te170  1  -0.00400551  0.33576321  0.16747425  1
  Te2-  Te171  1  -0.00309965  0.33122890  0.50326732  1
  Te2-  Te172  1  0.00998081  0.34325318  0.82673124  1
  Te2-  Te173  1  -0.01655741  0.66434044  0.16613664  1
  Te2-  Te174  1  0.00092387  0.67519302  0.49260320  1
  Te2-  Te175  1  0.00408227  0.66173902  0.84091316  1
  Te2-  Te176  1  0.34028007  0.01639163  0.15902838  1
  Te2-  Te177  1  0.34512273  0.00381771  0.49186979  1
  Te2-  Te178  1  0.33436002  -0.00193560  0.83417360  1
  Te2-  Te179  1  0.33646158  0.32091338  0.16575009  1
  Te2-  Te180  1  0.33431245  0.32229446  0.50070994  1
  Te2-  Te181  1  0.33874213  0.33527110  0.83237013  1
  Te2-  Te182  1  0.33775641  0.65916846  0.17979797  1
  Te2-  Te183  1  0.34103254  0.67146554  0.48429259  1
  Te2-  Te184  1  0.33397682  0.66899962  0.82917522  1
  Te2-  Te185  1  0.66608487  0.00371505  0.17404061  1
  Te2-  Te186  1  0.66015208  0.00469213  0.48950930  1
  Te2-  Te187  1  0.66614102  0.00380083  0.84349514  1
  Te2-  Te188  1  0.66839921  0.33251396  0.17400137  1
  Te2-  Te189  1  0.66515955  0.33026476  0.48511901  1
  Te2-  Te190  1  0.66297714  0.32300962  0.83848574  1
  Te2-  Te191  1  0.67532031  0.66685317  0.16427484  1
  Te2-  Te192  1  0.66220397  0.66961304  0.49922527  1
  Te2-  Te193  1  0.66037781  0.67155448  0.84047863  1
  Pb2+  Pb194  1  0.50221335  0.82685540  0.00228530  1
  Pb2+  Pb195  1  0.83148668  0.49297759  0.66082748  1
  Pb2+  Pb196  1  0.16539792  0.32594881  0.49995539  1
  Pb2+  Pb197  1  0.66491895  0.00529017  0.66520633  1
  Pb2+  Pb198  1  0.50791835  0.66431761  0.17152940  1
  Pb2+  Pb199  1  0.16795075  0.50472961  0.67037649  1
  Pb2+  Pb200  1  0.66365915  0.49985874  0.49514968  1
  Pb2+  Pb201  1  -0.00435436  0.17245145  0.83624015  1
  Pb2+  Pb202  1  -0.00097414  0.83572176  0.83796562  1
  Pb2+  Pb203  1  0.66062603  0.48974281  0.83650726  1
  Pb2+  Pb204  1  0.17643551  0.16354262  0.66541142  1
  Pb2+  Pb205  1  0.17599893  0.16385797  0.33168313  1
  Pb2+  Pb206  1  0.83235993  0.49517179  0.00507318  1
  Pb2+  Pb207  1  0.67081853  0.83723595  0.49579942  1
  Pb2+  Pb208  1  0.50333701  0.49862171  0.33481896  1
  Pb2+  Pb209  1  0.16801977  0.32793578  0.16430193  1
  Pb2+  Pb210  1  0.82697479  0.16008407  0.33198458  1
  Pb2+  Pb211  1  0.83525727  0.83910935  0.66698793  1
  Pb2+  Pb212  1  0.83127290  0.67016569  0.83749753  1
  Pb2+  Pb213  1  0.50304757  0.16844836  -0.00239394  1
  Pb2+  Pb214  1  0.17056821  0.67572904  0.48888963  1
  Pb2+  Pb215  1  0.00050568  0.50436305  0.49666432  1
