# generated using pymatgen
data_In22Ag21Sn22Bi21(Te54Pb11)2
_symmetry_space_group_name_H-M   'P 1'
_cell_length_a   19.12165559
_cell_length_b   19.12380772
_cell_length_c   19.16387536
_cell_angle_alpha   89.98651183
_cell_angle_beta   89.99131543
_cell_angle_gamma   89.98670545
_symmetry_Int_Tables_number   1
_chemical_formula_structural   In22Ag21Sn22Bi21(Te54Pb11)2
_chemical_formula_sum   'In22 Ag21 Sn22 Bi21 Te108 Pb22'
_cell_volume   7007.82372403
_cell_formula_units_Z   1
loop_
 _symmetry_equiv_pos_site_id
 _symmetry_equiv_pos_as_xyz
  1  'x, y, z'
loop_
 _atom_type_symbol
 _atom_type_oxidation_number
  In3+  3.0
  Ag+  1.0
  Sn2+  2.0
  Bi3+  3.0
  Te2-  -2.0
  Pb2+  2.0
loop_
 _atom_site_type_symbol
 _atom_site_label
 _atom_site_symmetry_multiplicity
 _atom_site_fract_x
 _atom_site_fract_y
 _atom_site_fract_z
 _atom_site_occupancy
  In3+  In0  1  0.66251303  0.17089155  0.50294476  1
  In3+  In1  1  0.16982696  0.14414773  0.66564300  1
  In3+  In2  1  0.33265152  0.52576457  0.48670467  1
  In3+  In3  1  0.00587721  0.16081630  0.50244835  1
  In3+  In4  1  0.33778477  0.83708459  0.15513497  1
  In3+  In5  1  0.82718882  0.65911502  0.83249338  1
  In3+  In6  1  0.52312167  0.16137830  -0.00568687  1
  In3+  In7  1  0.18116763  0.85773532  0.33189320  1
  In3+  In8  1  -0.00080699  0.31561158  0.66886546  1
  In3+  In9  1  0.50332401  0.83864121  0.68150811  1
  In3+  In10  1  -0.00693028  0.16006271  0.83434126  1
  In3+  In11  1  0.68368383  0.82585523  0.16260012  1
  In3+  In12  1  0.16040450  0.15865857  0.01797667  1
  In3+  In13  1  0.67657548  -0.00085957  0.66277317  1
  In3+  In14  1  0.17366446  -0.01346171  0.50206549  1
  In3+  In15  1  0.33083913  0.35406877  0.66369739  1
  In3+  In16  1  0.50778619  0.83008769  0.34021482  1
  In3+  In17  1  0.83749870  0.17197761  0.00522671  1
  In3+  In18  1  0.82009728  -0.00887346  0.14839399  1
  In3+  In19  1  0.51396715  0.32889644  0.15619848  1
  In3+  In20  1  0.02440324  0.84932039  0.83960044  1
  In3+  In21  1  0.31457104  -0.00931761  0.67450942  1
  Ag+  Ag22  1  0.33267767  0.85479598  0.79951125  1
  Ag+  Ag23  1  0.81462791  0.35795409  0.83142390  1
  Ag+  Ag24  1  0.81780248  0.81158764  -0.02580677  1
  Ag+  Ag25  1  0.16770758  0.69171870  0.19670502  1
  Ag+  Ag26  1  0.69129604  0.16452056  0.84948227  1
  Ag+  Ag27  1  0.52936399  0.34485341  0.85853536  1
  Ag+  Ag28  1  -0.00824861  -0.01529787  0.02257219  1
  Ag+  Ag29  1  0.66485101  0.30738555  0.31116237  1
  Ag+  Ag30  1  0.83464360  0.52208580  0.66382993  1
  Ag+  Ag31  1  0.34172121  0.83418571  0.49737796  1
  Ag+  Ag32  1  0.64417376  0.63765489  0.69433130  1
  Ag+  Ag33  1  0.14459743  0.01425904  0.84991255  1
  Ag+  Ag34  1  0.64736274  0.83093947  0.52293135  1
  Ag+  Ag35  1  0.66441187  0.18393386  0.14685671  1
  Ag+  Ag36  1  0.01003528  0.00143464  0.66411652  1
  Ag+  Ag37  1  0.14423112  0.83434520  0.68652597  1
  Ag+  Ag38  1  0.19221906  0.15497977  0.31384060  1
  Ag+  Ag39  1  0.16750917  -0.01795964  0.14395704  1
  Ag+  Ag40  1  0.83251979  0.47328904  0.30458424  1
  Ag+  Ag41  1  0.64176673  0.33787592  -0.02880457  1
  Ag+  Ag42  1  0.81032942  0.65763402  0.14022028  1
  Sn2+  Sn43  1  0.16327630  0.49795508  0.00348997  1
  Sn2+  Sn44  1  -0.00056831  0.68095396  0.00630601  1
  Sn2+  Sn45  1  0.66825172  0.00206398  0.33657378  1
  Sn2+  Sn46  1  0.49933329  -0.00256362  0.50760850  1
  Sn2+  Sn47  1  0.66919386  0.49305766  0.17146900  1
  Sn2+  Sn48  1  -0.00314360  0.49846923  0.82989514  1
  Sn2+  Sn49  1  0.33415705  0.68199319  0.67292614  1
  Sn2+  Sn50  1  0.50529954  0.84092160  0.00179710  1
  Sn2+  Sn51  1  0.83077722  0.49184019  -0.00100066  1
  Sn2+  Sn52  1  0.82796510  0.34075407  0.50978574  1
  Sn2+  Sn53  1  0.16663040  0.67193968  0.49850843  1
  Sn2+  Sn54  1  0.49993359  0.16620511  0.67624061  1
  Sn2+  Sn55  1  0.52346793  0.49606563  0.33550854  1
  Sn2+  Sn56  1  0.00039648  0.83674935  0.16503234  1
  Sn2+  Sn57  1  0.32595454  0.67458718  0.33215151  1
  Sn2+  Sn58  1  -0.00661626  0.66759077  0.32701727  1
  Sn2+  Sn59  1  0.66882016  0.48149466  0.82958572  1
  Sn2+  Sn60  1  0.32132286  -0.00042431  -0.00252403  1
  Sn2+  Sn61  1  0.33102346  0.32985254  -0.00542594  1
  Sn2+  Sn62  1  0.67033526  0.33043086  0.66899060  1
  Sn2+  Sn63  1  0.33189301  0.15863155  0.49801255  1
  Sn2+  Sn64  1  0.83217794  0.83351847  0.66765366  1
  Bi3+  Bi65  1  0.32980027  0.16340163  0.82931329  1
  Bi3+  Bi66  1  0.83236627  0.16779262  0.33140386  1
  Bi3+  Bi67  1  -0.00004038  0.33321291  -0.00404537  1
  Bi3+  Bi68  1  0.83213369  0.00478010  0.49675481  1
  Bi3+  Bi69  1  0.33016574  0.66594655  0.00274594  1
  Bi3+  Bi70  1  0.16794008  0.33150102  0.50281983  1
  Bi3+  Bi71  1  0.33188218  0.49733774  0.83162524  1
  Bi3+  Bi72  1  0.16749625  0.32531786  0.82948765  1
  Bi3+  Bi73  1  0.83292053  0.67086078  0.50199291  1
  Bi3+  Bi74  1  -0.00921974  0.16220556  0.16694636  1
  Bi3+  Bi75  1  0.66897103  0.66989401  0.33672662  1
  Bi3+  Bi76  1  0.83291133  0.16883168  0.66293118  1
  Bi3+  Bi77  1  -0.00070042  0.50657141  0.16516728  1
  Bi3+  Bi78  1  0.83498234  -0.00163383  0.83097086  1
  Bi3+  Bi79  1  -0.00311214  0.67093262  0.67164789  1
  Bi3+  Bi80  1  0.50043446  0.33029319  0.50407825  1
  Bi3+  Bi81  1  0.16318632  0.67375242  0.82990563  1
  Bi3+  Bi82  1  0.16624207  0.33259048  0.16715527  1
  Bi3+  Bi83  1  0.50042561  0.00542030  0.83221545  1
  Bi3+  Bi84  1  0.83550927  0.83289267  0.33238807  1
  Bi3+  Bi85  1  0.33779358  -0.00217797  0.33569762  1
  Te2-  Te86  1  0.16000785  0.17107694  0.17180904  1
  Te2-  Te87  1  0.16270205  0.17023627  0.51191829  1
  Te2-  Te88  1  0.16515448  0.15941935  0.82057663  1
  Te2-  Te89  1  0.16300289  0.49453758  0.16740143  1
  Te2-  Te90  1  0.17460964  0.49698668  0.50368907  1
  Te2-  Te91  1  0.16867457  0.49642434  0.83587887  1
  Te2-  Te92  1  0.16740248  0.83934438  0.17911568  1
  Te2-  Te93  1  0.16649880  0.83455839  0.48574687  1
  Te2-  Te94  1  0.17876135  0.83575402  0.83064071  1
  Te2-  Te95  1  0.51264258  0.17263222  0.16201074  1
  Te2-  Te96  1  0.50225314  0.16546825  0.50536469  1
  Te2-  Te97  1  0.49095573  0.16836537  0.84198604  1
  Te2-  Te98  1  0.50255585  0.48967559  0.16958022  1
  Te2-  Te99  1  0.49235829  0.49605813  0.50068292  1
  Te2-  Te100  1  0.49741682  0.48824557  0.83350658  1
  Te2-  Te101  1  0.49010920  0.83410647  0.16568844  1
  Te2-  Te102  1  0.50241232  0.83862254  0.49141452  1
  Te2-  Te103  1  0.48665156  0.83842639  0.83459297  1
  Te2-  Te104  1  0.82615440  0.16416458  0.16549876  1
  Te2-  Te105  1  0.83527828  0.16942440  0.49881392  1
  Te2-  Te106  1  0.83798066  0.15994324  0.82743566  1
  Te2-  Te107  1  0.83695350  0.51240225  0.16131957  1
  Te2-  Te108  1  0.83128397  0.50152733  0.51508109  1
  Te2-  Te109  1  0.83151461  0.50407768  0.83044483  1
  Te2-  Te110  1  0.83787715  0.83478327  0.16837124  1
  Te2-  Te111  1  0.83133973  0.83970283  0.49637101  1
  Te2-  Te112  1  0.82874568  0.83977515  0.83142156  1
  Te2-  Te113  1  0.15983741  0.00421415  -0.00320943  1
  Te2-  Te114  1  0.17108774  0.01171092  0.34588970  1
  Te2-  Te115  1  0.16077197  -0.01436509  0.65854858  1
  Te2-  Te116  1  0.16532610  0.32783198  -0.00152430  1
  Te2-  Te117  1  0.16730328  0.32923744  0.33723659  1
  Te2-  Te118  1  0.16098828  0.33532971  0.66758974  1
  Te2-  Te119  1  0.16768723  0.66548877  -0.00809791  1
  Te2-  Te120  1  0.16549114  0.66145243  0.34057065  1
  Te2-  Te121  1  0.16413799  0.68202463  0.66752306  1
  Te2-  Te122  1  0.49732713  0.00362883  -0.00215138  1
  Te2-  Te123  1  0.49936040  -0.00588939  0.33479685  1
  Te2-  Te124  1  0.50636233  -0.00237586  0.67120557  1
  Te2-  Te125  1  0.49675400  0.32402771  0.00204645  1
  Te2-  Te126  1  0.51416442  0.33724628  0.33996438  1
  Te2-  Te127  1  0.49354471  0.32625683  0.66380174  1
  Te2-  Te128  1  0.49769782  0.66960619  0.00084202  1
  Te2-  Te129  1  0.50136483  0.66874279  0.33238115  1
  Te2-  Te130  1  0.50455039  0.67329210  0.66874171  1
  Te2-  Te131  1  0.84546397  0.00845907  -0.00331957  1
  Te2-  Te132  1  0.83428959  -0.00043542  0.33352166  1
  Te2-  Te133  1  0.83427416  0.00351738  0.66335419  1
  Te2-  Te134  1  0.84019181  0.32691182  -0.01674507  1
  Te2-  Te135  1  0.81980099  0.32913014  0.33660870  1
  Te2-  Te136  1  0.84267403  0.32689712  0.68000025  1
  Te2-  Te137  1  0.83937000  0.66874583  -0.00331766  1
  Te2-  Te138  1  0.83182572  0.67219892  0.33904837  1
  Te2-  Te139  1  0.83376592  0.67219664  0.66876658  1
  Te2-  Te140  1  -0.00035408  0.16820950  0.00032275  1
  Te2-  Te141  1  -0.00536030  0.16702446  0.33245823  1
  Te2-  Te142  1  0.00188043  0.15864482  0.66567263  1
  Te2-  Te143  1  -0.00107326  0.49677883  -0.00050561  1
  Te2-  Te144  1  -0.01698283  0.49827469  0.32933608  1
  Te2-  Te145  1  -0.00880678  0.50626391  0.67264212  1
  Te2-  Te146  1  -0.00372979  0.84109299  -0.00782580  1
  Te2-  Te147  1  -0.00032154  0.83012138  0.33201775  1
  Te2-  Te148  1  -0.00345956  0.83426567  0.67469783  1
  Te2-  Te149  1  0.32078126  0.16198007  -0.00546067  1
  Te2-  Te150  1  0.33720639  0.16285097  0.33233371  1
  Te2-  Te151  1  0.32815431  0.14883695  0.66648670  1
  Te2-  Te152  1  0.33371078  0.49997112  -0.00223721  1
  Te2-  Te153  1  0.33713689  0.50431576  0.33683706  1
  Te2-  Te154  1  0.33402141  0.51100687  0.66936941  1
  Te2-  Te155  1  0.33414195  0.83209520  0.00219416  1
  Te2-  Te156  1  0.33310276  0.83448701  0.34528667  1
  Te2-  Te157  1  0.34649154  0.83962480  0.65302072  1
  Te2-  Te158  1  0.67474077  0.17855500  -0.00195630  1
  Te2-  Te159  1  0.67083780  0.16334793  0.34387960  1
  Te2-  Te160  1  0.66893871  0.16027581  0.65822015  1
  Te2-  Te161  1  0.67136163  0.48562703  -0.00229430  1
  Te2-  Te162  1  0.68272150  0.50752908  0.33129194  1
  Te2-  Te163  1  0.67537578  0.49750622  0.67278843  1
  Te2-  Te164  1  0.67446382  0.83460184  0.00835559  1
  Te2-  Te165  1  0.66798816  0.83505784  0.31984874  1
  Te2-  Te166  1  0.66050821  0.84152304  0.66780210  1
  Te2-  Te167  1  0.01309680  0.00386434  0.16604675  1
  Te2-  Te168  1  -0.00233262  0.00546715  0.51016083  1
  Te2-  Te169  1  0.00066444  0.00135890  0.81881751  1
  Te2-  Te170  1  -0.00034091  0.33283887  0.16228790  1
  Te2-  Te171  1  0.00158814  0.32916335  0.50829563  1
  Te2-  Te172  1  0.00715430  0.32501721  0.83127006  1
  Te2-  Te173  1  0.01824608  0.66632555  0.16550067  1
  Te2-  Te174  1  -0.00234132  0.66515823  0.50400525  1
  Te2-  Te175  1  0.00039118  0.66808234  0.83397112  1
  Te2-  Te176  1  0.32054079  -0.00479843  0.17007860  1
  Te2-  Te177  1  0.33057023  -0.00712688  0.49940543  1
  Te2-  Te178  1  0.33520184  -0.00008006  0.82833039  1
  Te2-  Te179  1  0.32942952  0.33084864  0.16676068  1
  Te2-  Te180  1  0.33252338  0.32519186  0.50578179  1
  Te2-  Te181  1  0.32887560  0.33040051  0.82710441  1
  Te2-  Te182  1  0.31840065  0.67344608  0.16503229  1
  Te2-  Te183  1  0.33456648  0.67739912  0.50247163  1
  Te2-  Te184  1  0.32878089  0.66122056  0.83740045  1
  Te2-  Te185  1  0.66925610  -0.00087386  0.16419911  1
  Te2-  Te186  1  0.67044136  -0.00560193  0.50408252  1
  Te2-  Te187  1  0.66448711  0.01418637  0.83027364  1
  Te2-  Te188  1  0.66694392  0.33194128  0.16569078  1
  Te2-  Te189  1  0.66434802  0.33206764  0.50724193  1
  Te2-  Te190  1  0.67012841  0.31821872  0.82662453  1
  Te2-  Te191  1  0.66585030  0.66802686  0.16930052  1
  Te2-  Te192  1  0.67173469  0.68006492  0.49931578  1
  Te2-  Te193  1  0.67338225  0.66842782  0.83437505  1
  Pb2+  Pb194  1  0.16524261  0.83271737  0.00447805  1
  Pb2+  Pb195  1  0.50605497  0.49406395  0.66781178  1
  Pb2+  Pb196  1  0.49137256  0.66607163  0.16807628  1
  Pb2+  Pb197  1  0.50477929  0.16827823  0.33520025  1
  Pb2+  Pb198  1  0.15912268  0.49531922  0.33619155  1
  Pb2+  Pb199  1  0.50455249  0.66955316  0.50132258  1
  Pb2+  Pb200  1  -0.00317914  0.49813317  0.50251964  1
  Pb2+  Pb201  1  -0.00793388  0.33193415  0.33741555  1
  Pb2+  Pb202  1  0.66729927  0.50648658  0.50011710  1
  Pb2+  Pb203  1  0.67239267  0.65771772  0.00121558  1
  Pb2+  Pb204  1  0.33966563  0.33626051  0.33815777  1
  Pb2+  Pb205  1  0.49886819  0.00097417  0.16702664  1
  Pb2+  Pb206  1  0.33708740  0.16405002  0.16021927  1
  Pb2+  Pb207  1  0.67455228  0.00668998  -0.00346193  1
  Pb2+  Pb208  1  -0.00165587  0.83399999  0.50551572  1
  Pb2+  Pb209  1  0.00239184  -0.00174447  0.33380635  1
  Pb2+  Pb210  1  0.66278133  0.84037383  0.83476328  1
  Pb2+  Pb211  1  0.50478294  0.49766978  0.00063612  1
  Pb2+  Pb212  1  0.33170538  0.50092449  0.16753638  1
  Pb2+  Pb213  1  0.16085026  0.50801831  0.67002458  1
  Pb2+  Pb214  1  0.83209777  0.33699207  0.15929030  1
  Pb2+  Pb215  1  0.49861628  0.66300347  0.83295235  1
