# generated using pymatgen
data_In22Ag21Sn22Bi21(Te54Pb11)2
_symmetry_space_group_name_H-M   'P 1'
_cell_length_a   19.19667688
_cell_length_b   19.14874005
_cell_length_c   19.17835550
_cell_angle_alpha   90.01957418
_cell_angle_beta   89.99749634
_cell_angle_gamma   89.99491437
_symmetry_Int_Tables_number   1
_chemical_formula_structural   In22Ag21Sn22Bi21(Te54Pb11)2
_chemical_formula_sum   'In22 Ag21 Sn22 Bi21 Te108 Pb22'
_cell_volume   7049.81297187
_cell_formula_units_Z   1
loop_
 _symmetry_equiv_pos_site_id
 _symmetry_equiv_pos_as_xyz
  1  'x, y, z'
loop_
 _atom_type_symbol
 _atom_type_oxidation_number
  In3+  3.0
  Ag+  1.0
  Sn2+  2.0
  Bi3+  3.0
  Te2-  -2.0
  Pb2+  2.0
loop_
 _atom_site_type_symbol
 _atom_site_label
 _atom_site_symmetry_multiplicity
 _atom_site_fract_x
 _atom_site_fract_y
 _atom_site_fract_z
 _atom_site_occupancy
  In3+  In0  1  0.32464026  0.67205245  0.66889830  1
  In3+  In1  1  0.68496500  0.49872591  0.82935047  1
  In3+  In2  1  0.46602706  0.83273005  0.31976619  1
  In3+  In3  1  0.32711577  0.34756291  0.00357135  1
  In3+  In4  1  0.85471886  -0.02013401  0.16292720  1
  In3+  In5  1  0.50258299  0.66794408  0.84070914  1
  In3+  In6  1  -0.01354755  0.68109534  -0.00208293  1
  In3+  In7  1  0.67730622  0.84357988  0.16770954  1
  In3+  In8  1  0.33336865  0.50324142  0.82557602  1
  In3+  In9  1  0.01096845  0.33959546  0.66286961  1
  In3+  In10  1  0.15448946  0.50173648  0.00263459  1
  In3+  In11  1  0.68107362  0.16498448  0.83559369  1
  In3+  In12  1  0.49918785  0.32217158  0.83589093  1
  In3+  In13  1  0.32364244  0.84639387  0.83644528  1
  In3+  In14  1  0.67968250  0.65495431  -0.00055664  1
  In3+  In15  1  0.15731386  0.67017226  0.48172644  1
  In3+  In16  1  0.85077067  0.49721912  0.34722314  1
  In3+  In17  1  0.49712127  0.49675859  -0.01114992  1
  In3+  In18  1  0.15596852  0.32108639  0.83489426  1
  In3+  In19  1  0.84675793  0.81636936  0.34828979  1
  In3+  In20  1  0.50433697  0.83088367  0.00493817  1
  In3+  In21  1  0.17758260  0.01069828  0.17945553  1
  Ag+  Ag22  1  0.85553293  0.51993041  0.00227861  1
  Ag+  Ag23  1  0.69059634  0.47125449  0.46935703  1
  Ag+  Ag24  1  0.13752959  0.85180781  0.64016258  1
  Ag+  Ag25  1  0.14762757  0.48968865  0.36862300  1
  Ag+  Ag26  1  0.69146161  0.36265773  -0.00453979  1
  Ag+  Ag27  1  0.86409301  0.64552496  0.81744272  1
  Ag+  Ag28  1  0.15164975  0.14289430  0.66437435  1
  Ag+  Ag29  1  0.30721087  0.53386085  0.46138685  1
  Ag+  Ag30  1  -0.03325711  0.84355757  0.81551766  1
  Ag+  Ag31  1  0.30560526  0.01428997  0.35625942  1
  Ag+  Ag32  1  0.14948126  0.85032525  0.30199512  1
  Ag+  Ag33  1  0.85862075  0.50903566  0.64330268  1
  Ag+  Ag34  1  0.03228357  0.37581295  0.29821777  1
  Ag+  Ag35  1  0.83399248  -0.03282494  0.81342397  1
  Ag+  Ag36  1  -0.00025730  0.66705987  0.35568263  1
  Ag+  Ag37  1  0.86073399  -0.01541001  0.52530299  1
  Ag+  Ag38  1  0.02515251  0.51946212  0.49371266  1
  Ag+  Ag39  1  0.84835637  0.81632245  -0.00508389  1
  Ag+  Ag40  1  0.14594373  -0.03724909  0.53112137  1
  Ag+  Ag41  1  0.30616087  0.83604774  0.19602031  1
  Ag+  Ag42  1  0.14416686  0.36497424  0.19538976  1
  Sn2+  Sn43  1  0.49446688  0.00062667  0.49540464  1
  Sn2+  Sn44  1  0.49317784  0.15517673  0.33700446  1
  Sn2+  Sn45  1  -0.00245776  0.15451947  0.83622119  1
  Sn2+  Sn46  1  0.67086553  0.49824400  0.16398509  1
  Sn2+  Sn47  1  0.32605404  -0.00452662  0.00291285  1
  Sn2+  Sn48  1  0.32740335  0.16748866  0.83176467  1
  Sn2+  Sn49  1  0.16505930  0.66813466  0.17590871  1
  Sn2+  Sn50  1  -0.00145777  0.16757886  0.17445304  1
  Sn2+  Sn51  1  -0.00137150  -0.00802135  -0.00867288  1
  Sn2+  Sn52  1  -0.00249923  0.00382333  0.66913055  1
  Sn2+  Sn53  1  -0.00425592  0.33044517  -0.00452768  1
  Sn2+  Sn54  1  0.00288349  0.66565067  0.67556131  1
  Sn2+  Sn55  1  0.32973050  0.67385329  0.00322531  1
  Sn2+  Sn56  1  0.67206539  0.00059256  0.33893184  1
  Sn2+  Sn57  1  0.32766118  0.00036863  0.66234622  1
  Sn2+  Sn58  1  0.00245049  0.83144850  0.16771573  1
  Sn2+  Sn59  1  0.83451336  0.66322392  0.16583570  1
  Sn2+  Sn60  1  0.83946551  0.17867608  0.66361706  1
  Sn2+  Sn61  1  0.32274244  0.66484526  0.33247799  1
  Sn2+  Sn62  1  0.16461704  0.82908492  -0.00077371  1
  Sn2+  Sn63  1  0.67080295  0.83457210  0.83991375  1
  Sn2+  Sn64  1  0.67431541  -0.00508587  0.00011821  1
  Bi3+  Bi65  1  0.83466677  0.16516712  -0.00022414  1
  Bi3+  Bi66  1  0.49603955  -0.00240022  0.16565291  1
  Bi3+  Bi67  1  0.49934548  0.50506521  0.33390869  1
  Bi3+  Bi68  1  0.83286266  0.16709704  0.33178971  1
  Bi3+  Bi69  1  0.49817790  0.66947132  0.16459161  1
  Bi3+  Bi70  1  0.50332362  0.66909408  0.49924212  1
  Bi3+  Bi71  1  0.32902980  0.16498095  0.50175302  1
  Bi3+  Bi72  1  0.50274264  0.83158680  0.66471037  1
  Bi3+  Bi73  1  0.33292210  0.15773176  0.16260962  1
  Bi3+  Bi74  1  0.66879287  0.00043839  0.66649161  1
  Bi3+  Bi75  1  0.49616608  0.50340561  0.66582684  1
  Bi3+  Bi76  1  0.66893446  0.83336478  0.49262611  1
  Bi3+  Bi77  1  0.83402860  0.32949556  0.50169798  1
  Bi3+  Bi78  1  0.00162896  0.16691110  0.50517589  1
  Bi3+  Bi79  1  0.16760494  0.50859530  0.67430423  1
  Bi3+  Bi80  1  0.33887192  0.83382143  0.50537858  1
  Bi3+  Bi81  1  0.17180899  0.66645525  0.83863432  1
  Bi3+  Bi82  1  0.49459559  0.33747661  0.16343425  1
  Bi3+  Bi83  1  0.33503256  0.33244646  0.67125153  1
  Bi3+  Bi84  1  0.66881965  0.33319490  0.67794556  1
  Bi3+  Bi85  1  0.66743829  0.16672228  0.16150816  1
  Te2-  Te86  1  0.17195220  0.16288713  0.16692135  1
  Te2-  Te87  1  0.16670935  0.16517349  0.51097127  1
  Te2-  Te88  1  0.16487018  0.16721781  0.82074344  1
  Te2-  Te89  1  0.16870326  0.50227797  0.15513021  1
  Te2-  Te90  1  0.17153827  0.50866022  0.51288196  1
  Te2-  Te91  1  0.17249690  0.50130171  0.83948476  1
  Te2-  Te92  1  0.16487693  0.83174360  0.15802056  1
  Te2-  Te93  1  0.17753472  0.82190085  0.50163400  1
  Te2-  Te94  1  0.17336336  0.82813215  0.83732325  1
  Te2-  Te95  1  0.49777964  0.16596645  0.17003226  1
  Te2-  Te96  1  0.49606038  0.16706795  0.49789697  1
  Te2-  Te97  1  0.49665807  0.16679364  0.83594241  1
  Te2-  Te98  1  0.50060133  0.50322493  0.16677343  1
  Te2-  Te99  1  0.49941228  0.50815636  0.49862024  1
  Te2-  Te100  1  0.49019886  0.50643179  0.83170313  1
  Te2-  Te101  1  0.51037988  0.83234029  0.16502917  1
  Te2-  Te102  1  0.50470209  0.83269347  0.49779451  1
  Te2-  Te103  1  0.50432688  0.82385520  0.82726012  1
  Te2-  Te104  1  0.82930420  0.16786336  0.16728674  1
  Te2-  Te105  1  0.83646293  0.16368321  0.49613055  1
  Te2-  Te106  1  0.83528924  0.16960839  0.83356754  1
  Te2-  Te107  1  0.82803678  0.50345076  0.15222511  1
  Te2-  Te108  1  0.83095930  0.49695790  0.49915237  1
  Te2-  Te109  1  0.83245053  0.50497151  0.85091798  1
  Te2-  Te110  1  0.82871560  0.83097187  0.14723271  1
  Te2-  Te111  1  0.83187980  0.84215985  0.49998044  1
  Te2-  Te112  1  0.82490785  0.82523612  0.84678632  1
  Te2-  Te113  1  0.16541401  -0.00192695  0.00020489  1
  Te2-  Te114  1  0.16399275  -0.00526712  0.32843278  1
  Te2-  Te115  1  0.16789362  -0.00457060  0.67054485  1
  Te2-  Te116  1  0.17203955  0.33672829  -0.01147704  1
  Te2-  Te117  1  0.16785245  0.34221830  0.33956420  1
  Te2-  Te118  1  0.17164406  0.34242364  0.67933339  1
  Te2-  Te119  1  0.17052432  0.65835005  0.00049086  1
  Te2-  Te120  1  0.16125897  0.65010042  0.33328864  1
  Te2-  Te121  1  0.16837723  0.66993170  0.67609435  1
  Te2-  Te122  1  0.50076169  -0.00883504  0.00228941  1
  Te2-  Te123  1  0.50270409  -0.01033718  0.32804494  1
  Te2-  Te124  1  0.50343649  -0.00388592  0.66679708  1
  Te2-  Te125  1  0.48723406  0.33785472  -0.00042066  1
  Te2-  Te126  1  0.50194797  0.33522213  0.32837848  1
  Te2-  Te127  1  0.50081657  0.33723718  0.67389763  1
  Te2-  Te128  1  0.49431808  0.66856395  0.00172308  1
  Te2-  Te129  1  0.50005917  0.67086715  0.33090279  1
  Te2-  Te130  1  0.49768169  0.66669857  0.66581242  1
  Te2-  Te131  1  0.83300529  0.00495700  0.01072336  1
  Te2-  Te132  1  0.83242908  0.00345994  0.31522397  1
  Te2-  Te133  1  0.82964499  0.00883693  0.66738284  1
  Te2-  Te134  1  0.83347240  0.32674459  0.00004475  1
  Te2-  Te135  1  0.83528963  0.33731201  0.33646839  1
  Te2-  Te136  1  0.82767706  0.34495973  0.66543995  1
  Te2-  Te137  1  0.83086114  0.66673807  -0.00192732  1
  Te2-  Te138  1  0.84557748  0.66447100  0.33200467  1
  Te2-  Te139  1  0.83600004  0.65424063  0.67442257  1
  Te2-  Te140  1  -0.00162941  0.16520563  -0.00186645  1
  Te2-  Te141  1  -0.00531352  0.16863082  0.33537871  1
  Te2-  Te142  1  0.00439538  0.16759452  0.66797623  1
  Te2-  Te143  1  0.00112011  0.49403580  -0.00069652  1
  Te2-  Te144  1  -0.00042828  0.51107682  0.34415557  1
  Te2-  Te145  1  0.00422850  0.49678759  0.66218973  1
  Te2-  Te146  1  -0.00310759  0.83350720  0.00145044  1
  Te2-  Te147  1  0.00361573  0.81908511  0.33052130  1
  Te2-  Te148  1  -0.00328066  0.83175456  0.67124056  1
  Te2-  Te149  1  0.33226298  0.15938903  0.00080290  1
  Te2-  Te150  1  0.33207095  0.15783371  0.33075741  1
  Te2-  Te151  1  0.32740641  0.16878674  0.66509978  1
  Te2-  Te152  1  0.34012574  0.50105091  -0.00740939  1
  Te2-  Te153  1  0.33912832  0.49872581  0.32522749  1
  Te2-  Te154  1  0.33481378  0.49648269  0.66760645  1
  Te2-  Te155  1  0.34019713  0.83488466  -0.01051384  1
  Te2-  Te156  1  0.31689343  0.83129311  0.34208438  1
  Te2-  Te157  1  0.34137190  0.83281880  0.67140395  1
  Te2-  Te158  1  0.66873252  0.16306779  -0.00333350  1
  Te2-  Te159  1  0.66723955  0.16784415  0.32812590  1
  Te2-  Te160  1  0.66610505  0.16999307  0.67457336  1
  Te2-  Te161  1  0.65053526  0.50249712  -0.00552532  1
  Te2-  Te162  1  0.66207466  0.50215158  0.32975776  1
  Te2-  Te163  1  0.65823400  0.49514081  0.67776044  1
  Te2-  Te164  1  0.65675953  0.83350382  0.00119186  1
  Te2-  Te165  1  0.68771085  0.83264432  0.32800532  1
  Te2-  Te166  1  0.66648465  0.83443204  0.66420345  1
  Te2-  Te167  1  0.00613769  0.00289812  0.16252281  1
  Te2-  Te168  1  0.00493758  0.00332186  0.50288019  1
  Te2-  Te169  1  -0.01437085  -0.00950918  0.83047539  1
  Te2-  Te170  1  0.00561669  0.32856930  0.16014224  1
  Te2-  Te171  1  -0.00513880  0.32893184  0.50901424  1
  Te2-  Te172  1  0.00341612  0.33071559  0.82579729  1
  Te2-  Te173  1  0.00002892  0.66795221  0.15116286  1
  Te2-  Te174  1  0.00515477  0.66529917  0.50619344  1
  Te2-  Te175  1  0.00595434  0.67543781  0.84385707  1
  Te2-  Te176  1  0.33362472  -0.01170328  0.16684190  1
  Te2-  Te177  1  0.33345846  0.00003884  0.49950113  1
  Te2-  Te178  1  0.33681805  -0.00043836  0.83175529  1
  Te2-  Te179  1  0.33362283  0.32594077  0.15760160  1
  Te2-  Te180  1  0.33374686  0.32806611  0.50539172  1
  Te2-  Te181  1  0.33969351  0.33275001  0.83380717  1
  Te2-  Te182  1  0.33715505  0.68491673  0.17155443  1
  Te2-  Te183  1  0.33928561  0.67060697  0.50238202  1
  Te2-  Te184  1  0.33663942  0.66439508  0.83212568  1
  Te2-  Te185  1  0.65865381  0.00265444  0.16691305  1
  Te2-  Te186  1  0.66371787  -0.00293329  0.50249810  1
  Te2-  Te187  1  0.67910192  0.00396308  0.82915186  1
  Te2-  Te188  1  0.65786804  0.32983874  0.14928136  1
  Te2-  Te189  1  0.66766357  0.33147970  0.50714418  1
  Te2-  Te190  1  0.65587152  0.33757833  0.84595654  1
  Te2-  Te191  1  0.66190504  0.66865340  0.15423525  1
  Te2-  Te192  1  0.66751057  0.67210473  0.49962243  1
  Te2-  Te193  1  0.65725836  0.66251929  0.84523397  1
  Pb2+  Pb194  1  0.16084568  0.16739617  0.34121182  1
  Pb2+  Pb195  1  0.00100144  0.50488113  0.83126649  1
  Pb2+  Pb196  1  0.66737978  0.66159744  0.67481657  1
  Pb2+  Pb197  1  0.15847192  -0.00444180  0.83552279  1
  Pb2+  Pb198  1  0.66988494  0.33560190  0.32433462  1
  Pb2+  Pb199  1  -0.00299584  -0.00688428  0.33123774  1
  Pb2+  Pb200  1  0.16555272  0.16691349  -0.00352058  1
  Pb2+  Pb201  1  0.16374655  0.33235852  0.50754187  1
  Pb2+  Pb202  1  0.50092757  0.16572046  0.00200171  1
  Pb2+  Pb203  1  0.83079566  0.33897817  0.83393621  1
  Pb2+  Pb204  1  -0.00059982  0.50373224  0.17080257  1
  Pb2+  Pb205  1  0.83446971  0.66509316  0.50723579  1
  Pb2+  Pb206  1  0.67147225  0.66810971  0.32563782  1
  Pb2+  Pb207  1  0.49244393  0.16494091  0.66850472  1
  Pb2+  Pb208  1  0.49759964  0.34345047  0.49986709  1
  Pb2+  Pb209  1  0.33270125  0.50811148  0.16090629  1
  Pb2+  Pb210  1  0.83218439  0.82779732  0.68030856  1
  Pb2+  Pb211  1  0.33260285  0.32908180  0.33168045  1
  Pb2+  Pb212  1  0.51018629  -0.00774906  0.83555358  1
  Pb2+  Pb213  1  0.83508565  0.33758240  0.16768273  1
  Pb2+  Pb214  1  0.66952993  0.16531863  0.50147194  1
  Pb2+  Pb215  1  0.00372592  0.83463607  0.50216906  1
