# generated using pymatgen
data_In22Ag21Sn22Bi21(Te54Pb11)2
_symmetry_space_group_name_H-M   'P 1'
_cell_length_a   19.14944675
_cell_length_b   19.14689202
_cell_length_c   19.16748133
_cell_angle_alpha   89.97775188
_cell_angle_beta   89.99539401
_cell_angle_gamma   89.99763357
_symmetry_Int_Tables_number   1
_chemical_formula_structural   In22Ag21Sn22Bi21(Te54Pb11)2
_chemical_formula_sum   'In22 Ag21 Sn22 Bi21 Te108 Pb22'
_cell_volume   7027.80226707
_cell_formula_units_Z   1
loop_
 _symmetry_equiv_pos_site_id
 _symmetry_equiv_pos_as_xyz
  1  'x, y, z'
loop_
 _atom_type_symbol
 _atom_type_oxidation_number
  In3+  3.0
  Ag+  1.0
  Sn2+  2.0
  Bi3+  3.0
  Te2-  -2.0
  Pb2+  2.0
loop_
 _atom_site_type_symbol
 _atom_site_label
 _atom_site_symmetry_multiplicity
 _atom_site_fract_x
 _atom_site_fract_y
 _atom_site_fract_z
 _atom_site_occupancy
  In3+  In0  1  0.16689125  0.33204708  0.15459269  1
  In3+  In1  1  0.84274773  0.01871457  0.83527447  1
  In3+  In2  1  0.67512685  0.17559322  0.51019803  1
  In3+  In3  1  0.00833445  0.00210769  0.66578128  1
  In3+  In4  1  0.49875073  0.50388696  0.65679653  1
  In3+  In5  1  0.18435554  0.14915346  0.66538384  1
  In3+  In6  1  0.50670026  0.84054202  0.67335003  1
  In3+  In7  1  0.33056798  0.83728070  0.82441715  1
  In3+  In8  1  0.82445861  0.50015247  -0.01609111  1
  In3+  In9  1  0.33036560  0.50593150  0.19117131  1
  In3+  In10  1  0.01707595  -0.00898024  -0.00407170  1
  In3+  In11  1  0.83446195  0.64796445  0.17024056  1
  In3+  In12  1  -0.01030991  0.33284687  -0.01837802  1
  In3+  In13  1  0.34580696  0.16094413  0.17173411  1
  In3+  In14  1  0.49259933  0.16643342  -0.00803297  1
  In3+  In15  1  0.66861553  0.63685185  0.33722840  1
  In3+  In16  1  0.81050635  0.50165151  0.66113371  1
  In3+  In17  1  0.49305761  0.34202376  0.50543015  1
  In3+  In18  1  0.33361346  0.67034002  -0.01838049  1
  In3+  In19  1  0.49595028  0.67709186  0.51876559  1
  In3+  In20  1  0.14480036  0.50161875  0.34813637  1
  In3+  In21  1  0.66782973  -0.00846581  0.33119462  1
  Ag+  Ag22  1  0.69220586  0.69034124  0.00288540  1
  Ag+  Ag23  1  0.52146800  0.35241543  0.80294859  1
  Ag+  Ag24  1  0.33688222  0.52208067  0.49538977  1
  Ag+  Ag25  1  0.69696372  0.33362636  0.36651528  1
  Ag+  Ag26  1  0.14038020  0.02009175  0.83105376  1
  Ag+  Ag27  1  0.84745650  0.50604917  0.36254858  1
  Ag+  Ag28  1  0.35811947  0.15604368  0.52149115  1
  Ag+  Ag29  1  0.13779894  0.69031232  0.48460472  1
  Ag+  Ag30  1  0.03547688  0.69533155  0.36794963  1
  Ag+  Ag31  1  0.13988307  0.68854928  0.85606418  1
  Ag+  Ag32  1  0.85162309  0.14497615  0.67015083  1
  Ag+  Ag33  1  -0.02796938  0.83244103  0.81649556  1
  Ag+  Ag34  1  0.32675395  0.86143243  0.52712852  1
  Ag+  Ag35  1  0.49729886  0.79976117  -0.02358683  1
  Ag+  Ag36  1  0.31949729  -0.03183407  0.64027092  1
  Ag+  Ag37  1  0.66548934  -0.01646923  -0.02556307  1
  Ag+  Ag38  1  0.67504919  0.66776594  0.64068151  1
  Ag+  Ag39  1  0.86106195  0.34344828  0.80390111  1
  Ag+  Ag40  1  0.68732108  0.31094014  0.69575388  1
  Ag+  Ag41  1  0.30018145  -0.02796631  0.36202577  1
  Ag+  Ag42  1  0.79545165  0.34443448  0.51137565  1
  Sn2+  Sn43  1  0.00414862  0.66495039  0.67286908  1
  Sn2+  Sn44  1  0.32668264  0.66109975  0.66135194  1
  Sn2+  Sn45  1  0.50014609  0.49328324  -0.00915173  1
  Sn2+  Sn46  1  0.50558393  0.66352179  0.83494247  1
  Sn2+  Sn47  1  0.83327392  0.33497118  0.17672268  1
  Sn2+  Sn48  1  0.66651942  0.50424871  0.16823747  1
  Sn2+  Sn49  1  0.17247170  0.50084649  -0.00314639  1
  Sn2+  Sn50  1  0.49865057  -0.00566858  0.16187106  1
  Sn2+  Sn51  1  0.82892541  0.17727772  0.34754012  1
  Sn2+  Sn52  1  -0.00414320  0.16892677  0.50730896  1
  Sn2+  Sn53  1  0.83105795  0.00374743  0.15719219  1
  Sn2+  Sn54  1  0.33172791  0.34101552  -0.00376221  1
  Sn2+  Sn55  1  0.65614672  0.83886096  0.50103967  1
  Sn2+  Sn56  1  0.50507932  0.16704603  0.33996891  1
  Sn2+  Sn57  1  0.50524731  0.16528314  0.66608398  1
  Sn2+  Sn58  1  0.34830876  -0.00299362  -0.00290531  1
  Sn2+  Sn59  1  -0.01723910  0.33184657  0.66000236  1
  Sn2+  Sn60  1  0.17402822  0.34146649  0.82742939  1
  Sn2+  Sn61  1  0.33265512  0.50242777  0.82786061  1
  Sn2+  Sn62  1  0.34282695  0.66973836  0.34058383  1
  Sn2+  Sn63  1  0.83163691  0.82941321  0.66785147  1
  Sn2+  Sn64  1  0.66112593  0.49632036  0.50097971  1
  Bi3+  Bi65  1  0.50272647  0.66370339  0.16500537  1
  Bi3+  Bi66  1  0.66859420  0.17064543  0.17500997  1
  Bi3+  Bi67  1  0.33623886  0.83355008  0.16303892  1
  Bi3+  Bi68  1  0.16793754  0.82506537  0.66664958  1
  Bi3+  Bi69  1  0.00124567  0.33408205  0.33257959  1
  Bi3+  Bi70  1  0.33455388  0.32975053  0.33333847  1
  Bi3+  Bi71  1  0.83233742  0.00601562  0.50563611  1
  Bi3+  Bi72  1  0.66567982  0.83520786  0.16537984  1
  Bi3+  Bi73  1  0.66412438  0.82996191  0.83462567  1
  Bi3+  Bi74  1  0.50253566  0.00362586  0.83253116  1
  Bi3+  Bi75  1  0.32986400  0.33525860  0.66611408  1
  Bi3+  Bi76  1  0.00232574  0.49841941  0.16512774  1
  Bi3+  Bi77  1  0.66613207  0.33345370  0.00138504  1
  Bi3+  Bi78  1  0.50079081  0.00154213  0.49754716  1
  Bi3+  Bi79  1  0.17165103  0.33334705  0.50035342  1
  Bi3+  Bi80  1  0.83071921  0.17098169  -0.00329085  1
  Bi3+  Bi81  1  0.49530905  0.33124007  0.16613984  1
  Bi3+  Bi82  1  0.50249354  0.49692338  0.33305985  1
  Bi3+  Bi83  1  -0.00169547  0.16789275  0.16716359  1
  Bi3+  Bi84  1  0.17155143  0.49975273  0.66375589  1
  Bi3+  Bi85  1  -0.00272519  0.83166310  0.16485352  1
  Te2-  Te86  1  0.16068385  0.17101221  0.16477264  1
  Te2-  Te87  1  0.16329653  0.16832743  0.51120943  1
  Te2-  Te88  1  0.16531297  0.16666213  0.82127009  1
  Te2-  Te89  1  0.16906059  0.49414795  0.16590814  1
  Te2-  Te90  1  0.18065949  0.49686241  0.49894887  1
  Te2-  Te91  1  0.17199257  0.50712968  0.82661979  1
  Te2-  Te92  1  0.16442774  0.83267334  0.16245378  1
  Te2-  Te93  1  0.17822829  0.83210334  0.50451417  1
  Te2-  Te94  1  0.17882412  0.82568557  0.82604567  1
  Te2-  Te95  1  0.50264726  0.16705795  0.16776220  1
  Te2-  Te96  1  0.50409938  0.16323049  0.50050193  1
  Te2-  Te97  1  0.49896924  0.16860863  0.83532802  1
  Te2-  Te98  1  0.49432339  0.49751455  0.16626575  1
  Te2-  Te99  1  0.49346094  0.50309088  0.49779649  1
  Te2-  Te100  1  0.49429843  0.49499917  0.83004735  1
  Te2-  Te101  1  0.50209152  0.82932187  0.16611025  1
  Te2-  Te102  1  0.49174347  0.83567695  0.50710342  1
  Te2-  Te103  1  0.50113036  0.83727252  0.83325691  1
  Te2-  Te104  1  0.83428547  0.16789695  0.16705910  1
  Te2-  Te105  1  0.83039750  0.16955915  0.51683226  1
  Te2-  Te106  1  0.83301426  0.17083539  0.82385329  1
  Te2-  Te107  1  0.83726054  0.49633158  0.15972717  1
  Te2-  Te108  1  0.82712660  0.48956797  0.50685441  1
  Te2-  Te109  1  0.83629492  0.48847186  0.83108984  1
  Te2-  Te110  1  0.83191844  0.83873867  0.16499012  1
  Te2-  Te111  1  0.82735458  0.83894515  0.50414020  1
  Te2-  Te112  1  0.82542618  0.83466011  0.83139076  1
  Te2-  Te113  1  0.16989206  0.00265292  -0.01732528  1
  Te2-  Te114  1  0.16090004  0.00322458  0.33364801  1
  Te2-  Te115  1  0.17648807  -0.00498516  0.68227096  1
  Te2-  Te116  1  0.16266940  0.33544790  -0.00138666  1
  Te2-  Te117  1  0.16834629  0.34152161  0.33473782  1
  Te2-  Te118  1  0.16476143  0.33654442  0.66298127  1
  Te2-  Te119  1  0.17643344  0.66503078  -0.00322143  1
  Te2-  Te120  1  0.17275769  0.65494362  0.34058462  1
  Te2-  Te121  1  0.16423364  0.66334396  0.65175645  1
  Te2-  Te122  1  0.51255646  0.01120269  -0.00328815  1
  Te2-  Te123  1  0.50948949  0.00398100  0.33605239  1
  Te2-  Te124  1  0.49023176  -0.00389960  0.66598131  1
  Te2-  Te125  1  0.49930296  0.32605264  0.00437214  1
  Te2-  Te126  1  0.49563076  0.33467982  0.32925204  1
  Te2-  Te127  1  0.49380151  0.33811224  0.66054804  1
  Te2-  Te128  1  0.48845988  0.65585277  0.00508425  1
  Te2-  Te129  1  0.51108791  0.66039034  0.32590484  1
  Te2-  Te130  1  0.50099278  0.66154937  0.66744760  1
  Te2-  Te131  1  0.81730329  0.00872582  -0.01043217  1
  Te2-  Te132  1  0.82649044  0.00460765  0.34011814  1
  Te2-  Te133  1  0.83306560  -0.00214786  0.66853532  1
  Te2-  Te134  1  0.83392134  0.33340000  0.00147731  1
  Te2-  Te135  1  0.84094376  0.34135519  0.33701811  1
  Te2-  Te136  1  0.82567164  0.34785925  0.66110416  1
  Te2-  Te137  1  0.83669076  0.65681726  0.00255402  1
  Te2-  Te138  1  0.82178294  0.65167490  0.32687030  1
  Te2-  Te139  1  0.82543841  0.65854504  0.66416222  1
  Te2-  Te140  1  -0.00578618  0.16799161  0.00348973  1
  Te2-  Te141  1  -0.00296641  0.16987599  0.33133104  1
  Te2-  Te142  1  -0.00210138  0.16177976  0.66643303  1
  Te2-  Te143  1  0.00256410  0.49174917  0.00402278  1
  Te2-  Te144  1  -0.00858685  0.50104682  0.32760485  1
  Te2-  Te145  1  0.00770177  0.50048784  0.66731929  1
  Te2-  Te146  1  -0.00040011  0.83694752  0.00504873  1
  Te2-  Te147  1  -0.00226648  0.83154204  0.32913576  1
  Te2-  Te148  1  0.00275810  0.84028599  0.67104724  1
  Te2-  Te149  1  0.33613510  0.16677728  0.00785174  1
  Te2-  Te150  1  0.33508820  0.16868163  0.32301900  1
  Te2-  Te151  1  0.33541586  0.17193702  0.66594124  1
  Te2-  Te152  1  0.33164105  0.49954841  -0.00406829  1
  Te2-  Te153  1  0.33905517  0.49599708  0.34257827  1
  Te2-  Te154  1  0.33863600  0.49654583  0.65454810  1
  Te2-  Te155  1  0.34902792  0.82780536  0.00385555  1
  Te2-  Te156  1  0.33448458  0.83519967  0.32392168  1
  Te2-  Te157  1  0.33813351  0.82511765  0.66960275  1
  Te2-  Te158  1  0.66980177  0.17050976  0.01117441  1
  Te2-  Te159  1  0.67255524  0.18472226  0.33572620  1
  Te2-  Te160  1  0.66209379  0.16993590  0.66372259  1
  Te2-  Te161  1  0.67022686  0.49529299  0.00305735  1
  Te2-  Te162  1  0.66418995  0.48333531  0.33416809  1
  Te2-  Te163  1  0.65602321  0.51502121  0.66240382  1
  Te2-  Te164  1  0.65533934  0.83631509  0.00198213  1
  Te2-  Te165  1  0.66699673  0.83486040  0.33067884  1
  Te2-  Te166  1  0.66111946  0.81786268  0.66772694  1
  Te2-  Te167  1  -0.00050813  0.00033225  0.15737994  1
  Te2-  Te168  1  -0.00356594  0.00026378  0.50700502  1
  Te2-  Te169  1  -0.00462073  -0.01444800  0.83661047  1
  Te2-  Te170  1  0.00456918  0.33266598  0.16921547  1
  Te2-  Te171  1  0.00579194  0.33134967  0.49588336  1
  Te2-  Te172  1  0.00461073  0.33280748  0.83000251  1
  Te2-  Te173  1  -0.00545355  0.66577466  0.17019633  1
  Te2-  Te174  1  -0.00780928  0.66434068  0.50420718  1
  Te2-  Te175  1  -0.00327012  0.68008762  0.83075777  1
  Te2-  Te176  1  0.33663818  0.00051207  0.16419017  1
  Te2-  Te177  1  0.33837423  0.00935574  0.49817179  1
  Te2-  Te178  1  0.34244671  -0.00878011  0.83912799  1
  Te2-  Te179  1  0.33068663  0.33569341  0.16674388  1
  Te2-  Te180  1  0.33674470  0.32079225  0.49825008  1
  Te2-  Te181  1  0.33130760  0.33150363  0.83128083  1
  Te2-  Te182  1  0.33622474  0.66629708  0.17075314  1
  Te2-  Te183  1  0.34739639  0.66845257  0.49589012  1
  Te2-  Te184  1  0.34224968  0.67122568  0.83121856  1
  Te2-  Te185  1  0.66671348  0.00398597  0.17449689  1
  Te2-  Te186  1  0.66734622  0.00563965  0.49496035  1
  Te2-  Te187  1  0.66509738  -0.00346531  0.82710747  1
  Te2-  Te188  1  0.66163318  0.33357011  0.16556406  1
  Te2-  Te189  1  0.64954565  0.32896423  0.50590939  1
  Te2-  Te190  1  0.66220904  0.33479853  0.83817347  1
  Te2-  Te191  1  0.66846663  0.67155688  0.15278355  1
  Te2-  Te192  1  0.65494665  0.67040485  0.49286883  1
  Te2-  Te193  1  0.66326067  0.66878817  0.85349989  1
  Pb2+  Pb194  1  0.83178258  0.82459228  0.33375575  1
  Pb2+  Pb195  1  0.00413251  0.49726457  0.50261011  1
  Pb2+  Pb196  1  0.16701101  0.17000804  -0.00555384  1
  Pb2+  Pb197  1  0.16888753  -0.00014871  0.50950360  1
  Pb2+  Pb198  1  0.66572520  0.16857104  0.83920295  1
  Pb2+  Pb199  1  0.33278454  0.16039632  0.83338488  1
  Pb2+  Pb200  1  0.17025190  0.17056696  0.33949453  1
  Pb2+  Pb201  1  0.00450165  0.50800530  0.83363522  1
  Pb2+  Pb202  1  0.16929937  0.83032426  0.33351798  1
  Pb2+  Pb203  1  0.17720130  0.83614300  -0.00845606  1
  Pb2+  Pb204  1  0.17129634  0.00256436  0.16090182  1
  Pb2+  Pb205  1  0.00033323  0.83097342  0.50680251  1
  Pb2+  Pb206  1  -0.00088450  0.15978476  0.83345540  1
  Pb2+  Pb207  1  0.82326536  0.66057588  0.49690943  1
  Pb2+  Pb208  1  0.00306385  0.66390111  0.00344573  1
  Pb2+  Pb209  1  0.66357578  0.50043207  0.83142082  1
  Pb2+  Pb210  1  0.82841679  0.66288936  0.83025788  1
  Pb2+  Pb211  1  0.16601124  0.66163993  0.17041291  1
  Pb2+  Pb212  1  0.82621499  0.83703025  -0.00208200  1
  Pb2+  Pb213  1  -0.00736866  0.00201935  0.33131031  1
  Pb2+  Pb214  1  0.49911696  0.83410649  0.33648713  1
  Pb2+  Pb215  1  0.66184535  -0.00336288  0.66251812  1
