# generated using pymatgen
data_In22Ag21Sn22Bi21(Te54Pb11)2
_symmetry_space_group_name_H-M   'P 1'
_cell_length_a   19.15884173
_cell_length_b   19.13783491
_cell_length_c   19.16138971
_cell_angle_alpha   89.99400668
_cell_angle_beta   89.98029442
_cell_angle_gamma   89.99844847
_symmetry_Int_Tables_number   1
_chemical_formula_structural   In22Ag21Sn22Bi21(Te54Pb11)2
_chemical_formula_sum   'In22 Ag21 Sn22 Bi21 Te108 Pb22'
_cell_volume   7025.69074370
_cell_formula_units_Z   1
loop_
 _symmetry_equiv_pos_site_id
 _symmetry_equiv_pos_as_xyz
  1  'x, y, z'
loop_
 _atom_type_symbol
 _atom_type_oxidation_number
  In3+  3.0
  Ag+  1.0
  Sn2+  2.0
  Bi3+  3.0
  Te2-  -2.0
  Pb2+  2.0
loop_
 _atom_site_type_symbol
 _atom_site_label
 _atom_site_symmetry_multiplicity
 _atom_site_fract_x
 _atom_site_fract_y
 _atom_site_fract_z
 _atom_site_occupancy
  In3+  In0  1  0.32686823  0.67213020  0.67333504  1
  In3+  In1  1  0.16891131  0.00936924  0.48200627  1
  In3+  In2  1  0.85150341  0.52532761  -0.00168209  1
  In3+  In3  1  0.15448838  0.66351837  0.49240502  1
  In3+  In4  1  0.16723773  0.34610956  0.83823789  1
  In3+  In5  1  0.31708928  0.32526398  0.66484697  1
  In3+  In6  1  0.48518722  0.48752773  0.66957370  1
  In3+  In7  1  0.49839815  0.66294685  0.84771186  1
  In3+  In8  1  0.65687865  0.85672796  0.83645881  1
  In3+  In9  1  0.17488110  0.67143107  0.84514429  1
  In3+  In10  1  0.02130839  0.34007954  0.33442375  1
  In3+  In11  1  0.65306666  0.65468685  0.67184388  1
  In3+  In12  1  0.15196584  0.49738307  0.32931386  1
  In3+  In13  1  0.65745533  0.17032585  0.83131282  1
  In3+  In14  1  0.50412476  0.33583946  0.19246972  1
  In3+  In15  1  0.14812247  0.33687630  0.14951476  1
  In3+  In16  1  0.82191629  0.66178783  0.50457707  1
  In3+  In17  1  0.15313850  0.65972225  0.15590955  1
  In3+  In18  1  0.66237761  0.33841713  0.35219474  1
  In3+  In19  1  0.85982043  -0.00412119  0.15302494  1
  In3+  In20  1  0.31035678  0.66551776  0.00777358  1
  In3+  In21  1  0.33147344  0.34282799  0.31990653  1
  Ag+  Ag22  1  0.66359580  0.31365349  0.67511066  1
  Ag+  Ag23  1  0.01938717  0.18432408  0.16843889  1
  Ag+  Ag24  1  0.18168860  0.85701022  0.30685169  1
  Ag+  Ag25  1  0.17157792  0.85716910  0.02776735  1
  Ag+  Ag26  1  0.19299624  0.36191182  0.50297415  1
  Ag+  Ag27  1  0.51859590  0.35338775  0.51712840  1
  Ag+  Ag28  1  0.81295398  0.83289892  -0.02236905  1
  Ag+  Ag29  1  0.64914686  0.50022475  0.52510673  1
  Ag+  Ag30  1  0.36524182  0.03504289  0.69964119  1
  Ag+  Ag31  1  0.00807834  0.48145987  0.14616705  1
  Ag+  Ag32  1  0.18753780  0.49723176  -0.02227729  1
  Ag+  Ag33  1  0.50162167  0.49924029  0.31156436  1
  Ag+  Ag34  1  0.64132289  0.85419801  0.19903067  1
  Ag+  Ag35  1  0.33987220  0.48765780  0.82772744  1
  Ag+  Ag36  1  0.02645780  0.35150589  0.69052400  1
  Ag+  Ag37  1  0.17127652  0.00596748  0.16071195  1
  Ag+  Ag38  1  0.49701662  0.02281992  0.85978874  1
  Ag+  Ag39  1  0.65365037  -0.02795274  0.02282754  1
  Ag+  Ag40  1  0.31507635  0.19016759  0.14581814  1
  Ag+  Ag41  1  0.00445721  0.68794873  -0.00530311  1
  Ag+  Ag42  1  0.64137050  -0.02440602  0.68977851  1
  Sn2+  Sn43  1  0.49725152  0.33388158  0.81917532  1
  Sn2+  Sn44  1  0.00213221  0.66293490  0.32191039  1
  Sn2+  Sn45  1  -0.00179525  0.49482952  0.50115113  1
  Sn2+  Sn46  1  0.49600435  0.49472636  -0.00129843  1
  Sn2+  Sn47  1  0.00139399  0.65340715  0.67199731  1
  Sn2+  Sn48  1  0.83321074  0.17480358  0.66837907  1
  Sn2+  Sn49  1  0.50392561  0.16361202  0.66603199  1
  Sn2+  Sn50  1  0.82251416  0.33151858  0.16088293  1
  Sn2+  Sn51  1  0.32916780  0.65893795  0.33396220  1
  Sn2+  Sn52  1  0.50467360  0.65503708  0.16586311  1
  Sn2+  Sn53  1  0.81514282  0.00289339  0.83271780  1
  Sn2+  Sn54  1  0.00479138  0.16585215  0.84349341  1
  Sn2+  Sn55  1  0.33943713  0.49405175  0.50213855  1
  Sn2+  Sn56  1  0.49869746  0.17045740  0.00665133  1
  Sn2+  Sn57  1  0.16070030  0.16518921  0.00022965  1
  Sn2+  Sn58  1  0.66420976  0.16052833  0.15704663  1
  Sn2+  Sn59  1  0.66343778  0.65796481  0.32845875  1
  Sn2+  Sn60  1  0.67663877  0.49867447  0.16617492  1
  Sn2+  Sn61  1  0.33221301  0.16815997  0.49199012  1
  Sn2+  Sn62  1  0.00832983  0.50508922  0.84304904  1
  Sn2+  Sn63  1  0.82255600  0.50172411  0.32711364  1
  Sn2+  Sn64  1  0.16074511  0.16367902  0.67029316  1
  Bi3+  Bi65  1  0.49682914  0.00193290  0.16591560  1
  Bi3+  Bi66  1  0.00364621  0.82932488  0.50158307  1
  Bi3+  Bi67  1  0.49670411  0.83147328  0.66281850  1
  Bi3+  Bi68  1  0.66489655  0.33106821  -0.00222217  1
  Bi3+  Bi69  1  0.00204901  -0.00463999  0.00042571  1
  Bi3+  Bi70  1  0.49873657  0.00652661  0.49720381  1
  Bi3+  Bi71  1  0.83350802  -0.00054845  0.50255739  1
  Bi3+  Bi72  1  0.33531028  0.83040461  0.83094406  1
  Bi3+  Bi73  1  0.49959354  0.17161187  0.33560774  1
  Bi3+  Bi74  1  0.00338794  0.00079908  0.66793355  1
  Bi3+  Bi75  1  0.83373041  0.66714419  0.16799804  1
  Bi3+  Bi76  1  0.33241201  0.00432555  0.33268064  1
  Bi3+  Bi77  1  0.83955217  0.83066114  0.33022614  1
  Bi3+  Bi78  1  0.33153424  0.82851990  0.50002844  1
  Bi3+  Bi79  1  0.83213394  0.83749411  0.67017442  1
  Bi3+  Bi80  1  0.82942889  0.33899624  0.49716934  1
  Bi3+  Bi81  1  0.16641602  0.83188887  0.66193814  1
  Bi3+  Bi82  1  0.49916611  0.66128716  0.49858712  1
  Bi3+  Bi83  1  -0.00053243  0.82942736  0.16709783  1
  Bi3+  Bi84  1  0.00213358  -0.00323666  0.33011825  1
  Bi3+  Bi85  1  0.83449969  0.50012540  0.66506255  1
  Te2-  Te86  1  0.16884256  0.18708500  0.16186656  1
  Te2-  Te87  1  0.16896165  0.16287571  0.50023711  1
  Te2-  Te88  1  0.16560615  0.16948368  0.83604817  1
  Te2-  Te89  1  0.15546154  0.49062797  0.17552934  1
  Te2-  Te90  1  0.16792906  0.50822363  0.49387883  1
  Te2-  Te91  1  0.17169147  0.49799022  0.83027687  1
  Te2-  Te92  1  0.16339865  0.81115291  0.16870120  1
  Te2-  Te93  1  0.16690752  0.81896410  0.49950346  1
  Te2-  Te94  1  0.17119385  0.82567184  0.82690269  1
  Te2-  Te95  1  0.50176388  0.16674310  0.17229559  1
  Te2-  Te96  1  0.49833861  0.16734455  0.49863927  1
  Te2-  Te97  1  0.50090852  0.16741491  0.83155203  1
  Te2-  Te98  1  0.49865853  0.49220742  0.16293136  1
  Te2-  Te99  1  0.50092968  0.50048880  0.51518276  1
  Te2-  Te100  1  0.48947895  0.50558144  0.82567481  1
  Te2-  Te101  1  0.50086296  0.83055469  0.16534501  1
  Te2-  Te102  1  0.49736292  0.83287016  0.49920091  1
  Te2-  Te103  1  0.50057165  0.82365713  0.82452325  1
  Te2-  Te104  1  0.82302442  0.15778209  0.16442275  1
  Te2-  Te105  1  0.83283309  0.16535791  0.49846988  1
  Te2-  Te106  1  0.84047530  0.16429315  0.83041826  1
  Te2-  Te107  1  0.84323935  0.50458346  0.15832227  1
  Te2-  Te108  1  0.83361969  0.50426921  0.49866163  1
  Te2-  Te109  1  0.83691491  0.50077666  0.83760861  1
  Te2-  Te110  1  0.83789037  0.83277466  0.17064692  1
  Te2-  Te111  1  0.83859188  0.83299037  0.50173954  1
  Te2-  Te112  1  0.82754769  0.83592888  0.83041226  1
  Te2-  Te113  1  0.16649230  0.00403070  0.00870350  1
  Te2-  Te114  1  0.16709683  0.00170608  0.31700844  1
  Te2-  Te115  1  0.16366488  -0.00516727  0.66779426  1
  Te2-  Te116  1  0.16854427  0.34593089  -0.00341000  1
  Te2-  Te117  1  0.17495632  0.34036869  0.35239568  1
  Te2-  Te118  1  0.16366129  0.32961519  0.64901383  1
  Te2-  Te119  1  0.15819450  0.64657810  0.00067805  1
  Te2-  Te120  1  0.16963144  0.65147458  0.33188067  1
  Te2-  Te121  1  0.16504109  0.66890104  0.66736780  1
  Te2-  Te122  1  0.50834748  0.00119516  0.00514351  1
  Te2-  Te123  1  0.49792414  -0.00280000  0.33191609  1
  Te2-  Te124  1  0.50018229  -0.00423620  0.65642915  1
  Te2-  Te125  1  0.50303033  0.33310742  -0.01308750  1
  Te2-  Te126  1  0.49765107  0.33727079  0.34468291  1
  Te2-  Te127  1  0.51384155  0.33565291  0.66453708  1
  Te2-  Te128  1  0.50363926  0.66267907  -0.00006608  1
  Te2-  Te129  1  0.49962342  0.65189054  0.33461592  1
  Te2-  Te130  1  0.49891187  0.66971976  0.66059569  1
  Te2-  Te131  1  0.83912995  -0.01721839  -0.00059975  1
  Te2-  Te132  1  0.83828383  -0.00413600  0.33882338  1
  Te2-  Te133  1  0.83799854  -0.00017023  0.66387508  1
  Te2-  Te134  1  0.82806129  0.32864638  0.00057776  1
  Te2-  Te135  1  0.81690396  0.34065362  0.33060220  1
  Te2-  Te136  1  0.82401336  0.33686221  0.65882971  1
  Te2-  Te137  1  0.84643940  0.67950564  0.00249523  1
  Te2-  Te138  1  0.83352869  0.66778632  0.33457685  1
  Te2-  Te139  1  0.83498437  0.67014094  0.66341342  1
  Te2-  Te140  1  0.00132979  0.16091695  0.01707152  1
  Te2-  Te141  1  0.00057138  0.15969050  0.31858879  1
  Te2-  Te142  1  -0.00060675  0.16201876  0.66839718  1
  Te2-  Te143  1  -0.00182082  0.49486215  0.00064212  1
  Te2-  Te144  1  -0.00217159  0.49735096  0.33635518  1
  Te2-  Te145  1  -0.00425958  0.49396496  0.66818797  1
  Te2-  Te146  1  0.02075287  0.83348894  0.00475887  1
  Te2-  Te147  1  0.00478310  0.83116168  0.33688189  1
  Te2-  Te148  1  -0.00178993  0.83084987  0.66608267  1
  Te2-  Te149  1  0.33413945  0.17013071  0.00252619  1
  Te2-  Te150  1  0.33840591  0.17008543  0.33034290  1
  Te2-  Te151  1  0.33304383  0.17138109  0.66367909  1
  Te2-  Te152  1  0.33554313  0.51120757  -0.00831793  1
  Te2-  Te153  1  0.34744318  0.49253274  0.33466666  1
  Te2-  Te154  1  0.33568671  0.50940243  0.67605000  1
  Te2-  Te155  1  0.31787968  0.82173780  -0.00558533  1
  Te2-  Te156  1  0.32507951  0.83286688  0.33798488  1
  Te2-  Te157  1  0.33129709  0.83636524  0.66409629  1
  Te2-  Te158  1  0.66378809  0.16850141  -0.01061310  1
  Te2-  Te159  1  0.66130794  0.17885415  0.33144518  1
  Te2-  Te160  1  0.66638558  0.16655127  0.67493773  1
  Te2-  Te161  1  0.66641678  0.49482094  0.00335897  1
  Te2-  Te162  1  0.65564939  0.49388280  0.32460443  1
  Te2-  Te163  1  0.67569136  0.50459238  0.67002525  1
  Te2-  Te164  1  0.66498824  0.83181718  -0.01391674  1
  Te2-  Te165  1  0.67300247  0.82795762  0.33840045  1
  Te2-  Te166  1  0.66827719  0.83125284  0.67325139  1
  Te2-  Te167  1  0.01805081  -0.00588837  0.16673693  1
  Te2-  Te168  1  0.00102388  -0.00509701  0.49853735  1
  Te2-  Te169  1  0.00199434  0.00178112  0.83457640  1
  Te2-  Te170  1  -0.00478492  0.33376652  0.17886353  1
  Te2-  Te171  1  -0.00955301  0.33175693  0.48445891  1
  Te2-  Te172  1  0.01110665  0.33080248  0.83297873  1
  Te2-  Te173  1  -0.00056195  0.66337761  0.15931506  1
  Te2-  Te174  1  -0.00041383  0.66674309  0.49906822  1
  Te2-  Te175  1  0.00742174  0.66401533  0.84125953  1
  Te2-  Te176  1  0.32896206  0.00017743  0.17111969  1
  Te2-  Te177  1  0.33282305  -0.00485751  0.49384048  1
  Te2-  Te178  1  0.34537702  -0.00501661  0.83775264  1
  Te2-  Te179  1  0.34569623  0.33195905  0.16820092  1
  Te2-  Te180  1  0.33772177  0.33513305  0.51565495  1
  Te2-  Te181  1  0.32533215  0.33986792  0.82178829  1
  Te2-  Te182  1  0.33856431  0.66325984  0.16328596  1
  Te2-  Te183  1  0.33769708  0.66662469  0.49972313  1
  Te2-  Te184  1  0.33405144  0.66925325  0.83629848  1
  Te2-  Te185  1  0.66050947  -0.00300721  0.16600105  1
  Te2-  Te186  1  0.66840324  0.00129396  0.49892212  1
  Te2-  Te187  1  0.65388809  0.00926002  0.83154572  1
  Te2-  Te188  1  0.65797956  0.33009186  0.15890894  1
  Te2-  Te189  1  0.66719295  0.34661919  0.50399217  1
  Te2-  Te190  1  0.66738967  0.32603751  0.82688377  1
  Te2-  Te191  1  0.67146050  0.66469429  0.16686817  1
  Te2-  Te192  1  0.66455243  0.65364596  0.50092716  1
  Te2-  Te193  1  0.65895669  0.66182656  0.82753831  1
  Pb2+  Pb194  1  0.33399788  0.16873348  0.83375332  1
  Pb2+  Pb195  1  0.32508132  0.49971726  0.16517464  1
  Pb2+  Pb196  1  0.17206528  -0.00201247  0.83366863  1
  Pb2+  Pb197  1  0.16876049  0.17192483  0.33006233  1
  Pb2+  Pb198  1  0.16907111  0.49816398  0.66224128  1
  Pb2+  Pb199  1  0.67416847  0.66544286  -0.00091527  1
  Pb2+  Pb200  1  -0.00483703  0.32982716  0.00234423  1
  Pb2+  Pb201  1  0.83756646  0.33310218  0.82818887  1
  Pb2+  Pb202  1  0.33687132  -0.00055555  0.00452547  1
  Pb2+  Pb203  1  0.33103233  0.83327146  0.16624709  1
  Pb2+  Pb204  1  0.66974680  0.00624154  0.33190847  1
  Pb2+  Pb205  1  0.65987390  0.49393623  0.83722899  1
  Pb2+  Pb206  1  0.49623478  0.81957050  0.32985777  1
  Pb2+  Pb207  1  0.83516393  0.17352253  0.32805265  1
  Pb2+  Pb208  1  0.83209219  0.66704964  0.83100358  1
  Pb2+  Pb209  1  0.49495422  0.83097798  -0.00337513  1
  Pb2+  Pb210  1  0.00274191  0.16774746  0.49642953  1
  Pb2+  Pb211  1  0.66546266  0.17284094  0.50699478  1
  Pb2+  Pb212  1  0.66827602  0.82675373  0.50626964  1
  Pb2+  Pb213  1  -0.00083777  0.83220690  0.83996566  1
  Pb2+  Pb214  1  0.83102457  0.15455494  -0.00188772  1
  Pb2+  Pb215  1  0.33704448  0.33923891  -0.00304342  1
