# generated using pymatgen
data_In22Ag21Sn22Bi21(Te54Pb11)2
_symmetry_space_group_name_H-M   'P 1'
_cell_length_a   19.13212399
_cell_length_b   19.14148276
_cell_length_c   19.14521087
_cell_angle_alpha   90.00962593
_cell_angle_beta   89.98679142
_cell_angle_gamma   90.00609405
_symmetry_Int_Tables_number   1
_chemical_formula_structural   In22Ag21Sn22Bi21(Te54Pb11)2
_chemical_formula_sum   'In22 Ag21 Sn22 Bi21 Te108 Pb22'
_cell_volume   7011.30560539
_cell_formula_units_Z   1
loop_
 _symmetry_equiv_pos_site_id
 _symmetry_equiv_pos_as_xyz
  1  'x, y, z'
loop_
 _atom_type_symbol
 _atom_type_oxidation_number
  In3+  3.0
  Ag+  1.0
  Sn2+  2.0
  Bi3+  3.0
  Te2-  -2.0
  Pb2+  2.0
loop_
 _atom_site_type_symbol
 _atom_site_label
 _atom_site_symmetry_multiplicity
 _atom_site_fract_x
 _atom_site_fract_y
 _atom_site_fract_z
 _atom_site_occupancy
  In3+  In0  1  0.66058691  0.50897340  0.49678609  1
  In3+  In1  1  0.66331923  0.33312314  0.64228694  1
  In3+  In2  1  0.66151574  0.16763903  0.17148138  1
  In3+  In3  1  0.00208580  0.17551238  0.83266055  1
  In3+  In4  1  0.84295919  0.33458820  0.47713998  1
  In3+  In5  1  -0.00445521  0.52825804  0.48649244  1
  In3+  In6  1  0.65466829  0.67533645  0.33176772  1
  In3+  In7  1  0.16783632  0.50380453  0.01506501  1
  In3+  In8  1  0.84790851  0.82264344  0.34205428  1
  In3+  In9  1  0.66183231  0.34438341  0.00308308  1
  In3+  In10  1  0.50456898  0.50812726  0.65738960  1
  In3+  In11  1  0.50811044  0.66466877  0.81929481  1
  In3+  In12  1  0.32552040  0.33759094  0.65783515  1
  In3+  In13  1  0.83692139  -0.00977339  0.81841225  1
  In3+  In14  1  0.66616903  -0.01535258  0.65736114  1
  In3+  In15  1  0.15966995  0.82650608  0.00473161  1
  In3+  In16  1  0.66625734  0.50331293  0.18376468  1
  In3+  In17  1  0.50602739  0.16059786  -0.01499174  1
  In3+  In18  1  0.50670310  0.17738263  0.32060460  1
  In3+  In19  1  0.83635437  0.32854048  0.83911586  1
  In3+  In20  1  0.34712636  0.82307423  0.50409908  1
  In3+  In21  1  0.83831825  0.50486201  0.00232486  1
  Ag+  Ag22  1  0.83455509  -0.02731614  0.51834007  1
  Ag+  Ag23  1  0.50200455  0.35919824  0.81595535  1
  Ag+  Ag24  1  0.51892617  0.79832456  0.36674346  1
  Ag+  Ag25  1  0.19210746  0.16861610  0.64536095  1
  Ag+  Ag26  1  0.01255326  0.85781644  0.81205037  1
  Ag+  Ag27  1  0.47102943  0.50774597  0.30238461  1
  Ag+  Ag28  1  0.01073000  0.32926700  0.36022655  1
  Ag+  Ag29  1  0.67853374  0.81143751  0.49065805  1
  Ag+  Ag30  1  0.66650176  0.68442156  0.68833834  1
  Ag+  Ag31  1  0.30454182  0.52720644  0.19072492  1
  Ag+  Ag32  1  0.02703756  0.35460823  -0.00327178  1
  Ag+  Ag33  1  0.50489532  -0.02129385  0.19277071  1
  Ag+  Ag34  1  0.64789122  0.35408177  0.34162713  1
  Ag+  Ag35  1  0.36233370  0.48951559  0.51999169  1
  Ag+  Ag36  1  0.13041745  0.80600149  0.64527521  1
  Ag+  Ag37  1  0.82891711  0.68797064  0.18242731  1
  Ag+  Ag38  1  0.52080431  0.67046386  0.48440303  1
  Ag+  Ag39  1  0.01989967  0.83558651  0.47591077  1
  Ag+  Ag40  1  -0.02193891  0.69029318  0.32195705  1
  Ag+  Ag41  1  0.18789589  0.67388106  0.16667937  1
  Ag+  Ag42  1  0.53190446  -0.00422684  0.83966286  1
  Sn2+  Sn43  1  0.83254065  0.66706547  0.49636910  1
  Sn2+  Sn44  1  -0.00945441  0.00833869  0.33769584  1
  Sn2+  Sn45  1  0.16670323  0.49916964  0.66104961  1
  Sn2+  Sn46  1  0.00609312  -0.00429477  0.66234180  1
  Sn2+  Sn47  1  0.15801128  -0.00717842  0.50752918  1
  Sn2+  Sn48  1  -0.00275263  0.66517121  0.01488546  1
  Sn2+  Sn49  1  0.49895159  0.83507447  -0.00253245  1
  Sn2+  Sn50  1  0.66016204  0.83790239  0.17821589  1
  Sn2+  Sn51  1  0.49680598  0.49666462  0.00267625  1
  Sn2+  Sn52  1  0.15901090  0.16571146  -0.00366423  1
  Sn2+  Sn53  1  -0.00175303  0.82553193  0.16516151  1
  Sn2+  Sn54  1  0.17248615  0.82788469  0.33837636  1
  Sn2+  Sn55  1  0.66451181  0.17336227  0.83464524  1
  Sn2+  Sn56  1  0.83285011  0.16171328  0.33718781  1
  Sn2+  Sn57  1  0.16046503  0.33366509  0.50032561  1
  Sn2+  Sn58  1  0.83916379  0.66879521  0.83413693  1
  Sn2+  Sn59  1  0.83241527  0.82897910  0.66248383  1
  Sn2+  Sn60  1  0.65995680  -0.00232626  0.33661060  1
  Sn2+  Sn61  1  0.66552202  -0.00495781  -0.00061230  1
  Sn2+  Sn62  1  0.33533313  0.83501391  0.16883734  1
  Sn2+  Sn63  1  0.00109057  -0.00110606  0.00249113  1
  Sn2+  Sn64  1  0.83225177  0.50568182  0.67081992  1
  Bi3+  Bi65  1  0.66586987  0.16416562  0.49597583  1
  Bi3+  Bi66  1  0.33401736  -0.00265725  0.33423873  1
  Bi3+  Bi67  1  0.33664739  0.16706640  0.16737326  1
  Bi3+  Bi68  1  0.83398907  0.33183742  0.16112699  1
  Bi3+  Bi69  1  0.50422482  0.16794852  0.66803545  1
  Bi3+  Bi70  1  0.83782876  0.83155906  0.00117573  1
  Bi3+  Bi71  1  0.33952212  0.33405585  -0.00182783  1
  Bi3+  Bi72  1  0.16427151  0.16344043  0.33748045  1
  Bi3+  Bi73  1  0.82646521  -0.00285521  0.16708289  1
  Bi3+  Bi74  1  0.15798519  0.00028243  0.83177556  1
  Bi3+  Bi75  1  0.32461424  0.83581976  0.83085445  1
  Bi3+  Bi76  1  0.33329690  0.66473757  -0.00148673  1
  Bi3+  Bi77  1  0.82798224  0.16494283  -0.00040502  1
  Bi3+  Bi78  1  0.50311616  0.33176756  0.16629798  1
  Bi3+  Bi79  1  0.16608515  0.66723589  0.49494287  1
  Bi3+  Bi80  1  0.49952051  0.83357581  0.67178696  1
  Bi3+  Bi81  1  0.32933506  0.67026743  0.33530812  1
  Bi3+  Bi82  1  -0.00143336  0.50125153  0.83136390  1
  Bi3+  Bi83  1  0.83808451  0.49965714  0.33487025  1
  Bi3+  Bi84  1  0.82831107  0.17078334  0.67073465  1
  Bi3+  Bi85  1  0.16535560  0.50085479  0.33800484  1
  Te2-  Te86  1  0.17002853  0.16247706  0.17029516  1
  Te2-  Te87  1  0.16516379  0.16389919  0.50005609  1
  Te2-  Te88  1  0.15852921  0.16545856  0.83587581  1
  Te2-  Te89  1  0.16152717  0.50517340  0.17154191  1
  Te2-  Te90  1  0.15568089  0.50091040  0.50015909  1
  Te2-  Te91  1  0.16311173  0.50121905  0.82212227  1
  Te2-  Te92  1  0.16791479  0.82496002  0.16396008  1
  Te2-  Te93  1  0.16537726  0.83277537  0.50512533  1
  Te2-  Te94  1  0.15901842  0.83825847  0.83659797  1
  Te2-  Te95  1  0.50062761  0.16845293  0.16359782  1
  Te2-  Te96  1  0.50343155  0.16770846  0.50270947  1
  Te2-  Te97  1  0.50140354  0.14824572  0.83053364  1
  Te2-  Te98  1  0.51261044  0.49657490  0.16392571  1
  Te2-  Te99  1  0.50592369  0.50992479  0.50481967  1
  Te2-  Te100  1  0.50181899  0.50809981  0.83222703  1
  Te2-  Te101  1  0.50274474  0.83768752  0.15791062  1
  Te2-  Te102  1  0.49985451  0.82293428  0.50883132  1
  Te2-  Te103  1  0.49649023  0.84136254  0.83223382  1
  Te2-  Te104  1  0.82614169  0.16298857  0.16576613  1
  Te2-  Te105  1  0.82953290  0.17865235  0.50428077  1
  Te2-  Te106  1  0.83325007  0.16675044  0.83635265  1
  Te2-  Te107  1  0.82242747  0.49316229  0.16406551  1
  Te2-  Te108  1  0.83986050  0.49333463  0.50027205  1
  Te2-  Te109  1  0.83497031  0.49745738  0.84108143  1
  Te2-  Te110  1  0.82613243  0.83608608  0.16593546  1
  Te2-  Te111  1  0.82431793  0.82834759  0.49147183  1
  Te2-  Te112  1  0.84116330  0.83475984  0.83811474  1
  Te2-  Te113  1  0.16397441  0.00094564  -0.00031660  1
  Te2-  Te114  1  0.16678784  -0.00014631  0.33817973  1
  Te2-  Te115  1  0.16332959  0.01801814  0.66798399  1
  Te2-  Te116  1  0.17431062  0.33474899  -0.00301952  1
  Te2-  Te117  1  0.16078871  0.33019615  0.33596435  1
  Te2-  Te118  1  0.17102015  0.32154616  0.66376942  1
  Te2-  Te119  1  0.16800271  0.66628165  0.01279212  1
  Te2-  Te120  1  0.16635780  0.66605000  0.32864204  1
  Te2-  Te121  1  0.16421972  0.66423828  0.66153304  1
  Te2-  Te122  1  0.50580673  0.00437931  -0.01354349  1
  Te2-  Te123  1  0.49725352  0.00941292  0.33526090  1
  Te2-  Te124  1  0.50718793  -0.00068507  0.66942772  1
  Te2-  Te125  1  0.50295863  0.32624389  0.00365509  1
  Te2-  Te126  1  0.50209900  0.33621701  0.33117524  1
  Te2-  Te127  1  0.50890016  0.33323888  0.67040808  1
  Te2-  Te128  1  0.49534808  0.66653035  -0.00197851  1
  Te2-  Te129  1  0.49908426  0.65329454  0.33698221  1
  Te2-  Te130  1  0.51462918  0.66548389  0.66516810  1
  Te2-  Te131  1  0.83370974  -0.00142348  0.00430121  1
  Te2-  Te132  1  0.82966169  -0.00074625  0.32676036  1
  Te2-  Te133  1  0.83077684  0.00459064  0.66434397  1
  Te2-  Te134  1  0.82191769  0.32835157  -0.00268825  1
  Te2-  Te135  1  0.84452757  0.33388903  0.32378921  1
  Te2-  Te136  1  0.82016540  0.33478736  0.68392425  1
  Te2-  Te137  1  0.83402567  0.66600130  0.00112255  1
  Te2-  Te138  1  0.83291095  0.66538153  0.33044704  1
  Te2-  Te139  1  0.81787852  0.66332763  0.66725922  1
  Te2-  Te140  1  -0.00787062  0.16351551  -0.00838480  1
  Te2-  Te141  1  0.00298464  0.17633547  0.33477811  1
  Te2-  Te142  1  -0.01135913  0.16642602  0.67552208  1
  Te2-  Te143  1  -0.00033105  0.50050688  -0.00513858  1
  Te2-  Te144  1  0.00064142  0.48506895  0.33896428  1
  Te2-  Te145  1  -0.00308936  0.49995907  0.66778026  1
  Te2-  Te146  1  0.00047400  0.83132450  0.00051043  1
  Te2-  Te147  1  -0.00062575  0.83613696  0.33030508  1
  Te2-  Te148  1  -0.01042037  0.83461401  0.66934987  1
  Te2-  Te149  1  0.33190626  0.16806784  0.00524420  1
  Te2-  Te150  1  0.33010931  0.16513934  0.33103150  1
  Te2-  Te151  1  0.33934399  0.17459221  0.66651366  1
  Te2-  Te152  1  0.32942655  0.50099164  0.00385410  1
  Te2-  Te153  1  0.32808563  0.50447559  0.33456935  1
  Te2-  Te154  1  0.33973656  0.49469749  0.66612789  1
  Te2-  Te155  1  0.32746915  0.82811149  -0.00325205  1
  Te2-  Te156  1  0.33820853  0.83384586  0.33356122  1
  Te2-  Te157  1  0.33319257  0.83252070  0.66579844  1
  Te2-  Te158  1  0.66615972  0.16287687  0.00310009  1
  Te2-  Te159  1  0.66693572  0.16642942  0.33263324  1
  Te2-  Te160  1  0.66609888  0.17261122  0.66413215  1
  Te2-  Te161  1  0.66763496  0.49637845  -0.00112538  1
  Te2-  Te162  1  0.67702626  0.49732528  0.34092861  1
  Te2-  Te163  1  0.66343764  0.49242835  0.65443959  1
  Te2-  Te164  1  0.67219151  0.83318904  0.00081767  1
  Te2-  Te165  1  0.65939670  0.83015973  0.33942407  1
  Te2-  Te166  1  0.66576282  0.83029171  0.65613327  1
  Te2-  Te167  1  -0.00481333  -0.00078557  0.16976719  1
  Te2-  Te168  1  -0.01385804  -0.01436504  0.49472349  1
  Te2-  Te169  1  -0.00573944  0.00194842  0.83357132  1
  Te2-  Te170  1  -0.00375111  0.33334724  0.14504224  1
  Te2-  Te171  1  -0.00504183  0.32792769  0.50780840  1
  Te2-  Te172  1  -0.00283010  0.33489504  0.84631563  1
  Te2-  Te173  1  -0.01751057  0.66782045  0.17338019  1
  Te2-  Te174  1  0.00189825  0.68041675  0.48908543  1
  Te2-  Te175  1  -0.00298345  0.66244867  0.83724626  1
  Te2-  Te176  1  0.34629989  0.00091199  0.17022252  1
  Te2-  Te177  1  0.33311401  -0.00544802  0.49639720  1
  Te2-  Te178  1  0.32287854  -0.00258322  0.83332380  1
  Te2-  Te179  1  0.33776695  0.33244645  0.16206196  1
  Te2-  Te180  1  0.33279739  0.34400617  0.50419599  1
  Te2-  Te181  1  0.34984607  0.33397582  0.83634661  1
  Te2-  Te182  1  0.33692373  0.66784006  0.16566720  1
  Te2-  Te183  1  0.32773070  0.66714347  0.49640327  1
  Te2-  Te184  1  0.33528872  0.67319847  0.83393529  1
  Te2-  Te185  1  0.65772518  0.00508131  0.16885420  1
  Te2-  Te186  1  0.68161898  0.00383709  0.50349205  1
  Te2-  Te187  1  0.68027659  -0.00080147  0.82669047  1
  Te2-  Te188  1  0.66755655  0.32921641  0.17014956  1
  Te2-  Te189  1  0.67468174  0.32967904  0.48763866  1
  Te2-  Te190  1  0.64882166  0.32966236  0.84876917  1
  Te2-  Te191  1  0.67704718  0.66203198  0.17671761  1
  Te2-  Te192  1  0.66954447  0.66293890  0.48776222  1
  Te2-  Te193  1  0.66443786  0.66434396  0.83517818  1
  Pb2+  Pb194  1  -0.00683252  0.33362037  0.67324321  1
  Pb2+  Pb195  1  0.33903299  -0.00338904  0.00133707  1
  Pb2+  Pb196  1  0.33335008  -0.00052378  0.66570074  1
  Pb2+  Pb197  1  0.50406767  0.67077593  0.16910266  1
  Pb2+  Pb198  1  0.66949570  0.83292852  0.82954609  1
  Pb2+  Pb199  1  0.66768655  0.49283947  0.82645978  1
  Pb2+  Pb200  1  0.33291060  0.33678764  0.33044995  1
  Pb2+  Pb201  1  -0.00909842  0.66814666  0.66311494  1
  Pb2+  Pb202  1  0.16905302  -0.00884901  0.17031341  1
  Pb2+  Pb203  1  0.50312850  0.33920596  0.50256744  1
  Pb2+  Pb204  1  0.33318945  0.50048649  0.83612875  1
  Pb2+  Pb205  1  -0.00206014  0.16805309  0.16318338  1
  Pb2+  Pb206  1  0.16367123  0.33435607  0.16654618  1
  Pb2+  Pb207  1  0.50819545  -0.00606896  0.49962269  1
  Pb2+  Pb208  1  0.33221370  0.16744221  0.83648511  1
  Pb2+  Pb209  1  0.16254830  0.67115023  0.83859778  1
  Pb2+  Pb210  1  0.17487404  0.33483253  0.83032633  1
  Pb2+  Pb211  1  0.66598578  0.66447187  0.00669050  1
  Pb2+  Pb212  1  -0.00673798  0.50087560  0.16796625  1
  Pb2+  Pb213  1  0.33890779  0.66565351  0.66324665  1
  Pb2+  Pb214  1  0.33362714  0.16720120  0.49906643  1
  Pb2+  Pb215  1  -0.00314853  0.15403657  0.50401822  1
