# generated using pymatgen
data_In22Ag21Sn22Bi21(Te54Pb11)2
_symmetry_space_group_name_H-M   'P 1'
_cell_length_a   19.14551668
_cell_length_b   19.14185291
_cell_length_c   19.12841088
_cell_angle_alpha   89.99779776
_cell_angle_beta   89.99434113
_cell_angle_gamma   90.00164904
_symmetry_Int_Tables_number   1
_chemical_formula_structural   In22Ag21Sn22Bi21(Te54Pb11)2
_chemical_formula_sum   'In22 Ag21 Sn22 Bi21 Te108 Pb22'
_cell_volume   7010.19268428
_cell_formula_units_Z   1
loop_
 _symmetry_equiv_pos_site_id
 _symmetry_equiv_pos_as_xyz
  1  'x, y, z'
loop_
 _atom_type_symbol
 _atom_type_oxidation_number
  In3+  3.0
  Ag+  1.0
  Sn2+  2.0
  Bi3+  3.0
  Te2-  -2.0
  Pb2+  2.0
loop_
 _atom_site_type_symbol
 _atom_site_label
 _atom_site_symmetry_multiplicity
 _atom_site_fract_x
 _atom_site_fract_y
 _atom_site_fract_z
 _atom_site_occupancy
  In3+  In0  1  0.17150182  0.84584057  0.66998549  1
  In3+  In1  1  0.34897214  0.67143402  -0.00547387  1
  In3+  In2  1  0.66150123  0.66609271  0.32708715  1
  In3+  In3  1  0.16180213  0.82731632  0.01401611  1
  In3+  In4  1  -0.00568556  0.67997376  0.33414415  1
  In3+  In5  1  0.18540567  0.66448848  0.49700148  1
  In3+  In6  1  0.66969648  0.67500620  0.69214656  1
  In3+  In7  1  0.83763775  0.33390147  0.15261923  1
  In3+  In8  1  -0.00278693  0.31045484  0.00009826  1
  In3+  In9  1  0.82912838  -0.01332277  0.84283204  1
  In3+  In10  1  0.34343358  0.01268978  0.32644519  1
  In3+  In11  1  0.32862537  0.18650308  0.50715534  1
  In3+  In12  1  0.17194025  0.50194017  0.65969354  1
  In3+  In13  1  0.49946490  0.65724304  0.49750499  1
  In3+  In14  1  0.65682832  0.33200036  0.01136956  1
  In3+  In15  1  0.84146672  0.16737260  0.30345203  1
  In3+  In16  1  0.82908720  0.33335454  0.84664013  1
  In3+  In17  1  0.49502155  0.48261890  0.66193304  1
  In3+  In18  1  0.50036187  0.16644371  0.02251781  1
  In3+  In19  1  0.49854188  0.00201386  0.49570906  1
  In3+  In20  1  0.34229111  0.83495353  0.49651019  1
  In3+  In21  1  -0.01356970  0.51414837  0.83556584  1
  Ag+  Ag22  1  0.83574938  0.68737212  0.85747443  1
  Ag+  Ag23  1  0.03408726  -0.02110064  0.33115760  1
  Ag+  Ag24  1  0.19097830  0.14620518  0.66343416  1
  Ag+  Ag25  1  0.33690365  0.15672158  0.19449461  1
  Ag+  Ag26  1  0.35590298  0.51856360  0.51586605  1
  Ag+  Ag27  1  0.47907099  0.18779697  0.68706736  1
  Ag+  Ag28  1  0.49823493  -0.02361565  0.14520514  1
  Ag+  Ag29  1  0.19528874  0.32389975  0.14024807  1
  Ag+  Ag30  1  0.64663364  0.69720587  -0.00548864  1
  Ag+  Ag31  1  0.02090980  -0.00111827  0.68714802  1
  Ag+  Ag32  1  0.68862273  0.52969743  0.52809017  1
  Ag+  Ag33  1  0.35779806  0.67467529  0.31735460  1
  Ag+  Ag34  1  0.81233340  0.51640508  -0.00360337  1
  Ag+  Ag35  1  0.51931399  0.80458790  0.02534640  1
  Ag+  Ag36  1  0.47496092  0.82891761  0.31772280  1
  Ag+  Ag37  1  0.64680979  0.80022935  0.86823878  1
  Ag+  Ag38  1  0.31183865  0.33731301  0.66507426  1
  Ag+  Ag39  1  0.80329631  0.14669029  -0.00634254  1
  Ag+  Ag40  1  0.63899162  -0.01201380  -0.02433446  1
  Ag+  Ag41  1  -0.02258810  -0.00236870  -0.01580657  1
  Ag+  Ag42  1  0.48632559  0.33616395  0.18265507  1
  Sn2+  Sn43  1  0.00485847  0.84745617  0.16059912  1
  Sn2+  Sn44  1  0.84017577  -0.00166266  0.50184566  1
  Sn2+  Sn45  1  0.34733650  0.83293519  0.83669633  1
  Sn2+  Sn46  1  0.82870276  0.84539381  0.33504200  1
  Sn2+  Sn47  1  -0.00063613  0.83573325  0.83356641  1
  Sn2+  Sn48  1  0.82345424  0.65970295  0.49545262  1
  Sn2+  Sn49  1  0.66857194  0.50057160  0.83278325  1
  Sn2+  Sn50  1  0.16741166  0.33233038  0.83327836  1
  Sn2+  Sn51  1  0.33113376  0.49611136  0.82644209  1
  Sn2+  Sn52  1  0.66621519  0.16750492  0.83023820  1
  Sn2+  Sn53  1  0.66023513  0.33983269  0.33328560  1
  Sn2+  Sn54  1  0.65797750  0.83009635  0.50304750  1
  Sn2+  Sn55  1  0.17084871  0.65528783  0.17108139  1
  Sn2+  Sn56  1  0.33682795  0.16917119  0.83170640  1
  Sn2+  Sn57  1  0.83182050  0.50318153  0.67546310  1
  Sn2+  Sn58  1  0.50603404  0.15827754  0.33053255  1
  Sn2+  Sn59  1  -0.00416495  0.66894841  0.00518764  1
  Sn2+  Sn60  1  0.49901740  0.33010277  0.83254281  1
  Sn2+  Sn61  1  0.17468593  0.01506895  0.16511733  1
  Sn2+  Sn62  1  0.49069601  0.50383507  0.33346410  1
  Sn2+  Sn63  1  0.00423173  0.32042063  0.67636668  1
  Sn2+  Sn64  1  0.17490735  0.82559176  0.33617497  1
  Bi3+  Bi65  1  0.17205213  0.16546359  -0.00494539  1
  Bi3+  Bi66  1  0.00154494  0.16679964  0.83317617  1
  Bi3+  Bi67  1  0.66831473  -0.00025384  0.66924425  1
  Bi3+  Bi68  1  0.83379705  0.83551086  0.66374051  1
  Bi3+  Bi69  1  0.66105075  0.16513819  0.49740092  1
  Bi3+  Bi70  1  0.33385426  0.49999033  0.16993573  1
  Bi3+  Bi71  1  0.66655327  0.49998755  0.16527040  1
  Bi3+  Bi72  1  0.33524223  -0.00057342  -0.00101973  1
  Bi3+  Bi73  1  0.16427368  0.49918777  0.33277644  1
  Bi3+  Bi74  1  0.66279743  -0.00098061  0.33140063  1
  Bi3+  Bi75  1  0.66309052  0.16530818  0.16794372  1
  Bi3+  Bi76  1  -0.00589442  0.33260293  0.33433070  1
  Bi3+  Bi77  1  0.83041024  0.32957639  0.50053705  1
  Bi3+  Bi78  1  0.16361491  0.33464499  0.50120269  1
  Bi3+  Bi79  1  -0.00181407  0.83392824  0.50019564  1
  Bi3+  Bi80  1  0.16619510  0.50423110  -0.00229323  1
  Bi3+  Bi81  1  0.67350727  0.33693438  0.66817292  1
  Bi3+  Bi82  1  0.49918625  0.83567765  0.66622142  1
  Bi3+  Bi83  1  0.66661142  0.83562007  0.17085154  1
  Bi3+  Bi84  1  0.83261696  0.16748322  0.67684791  1
  Bi3+  Bi85  1  0.83377625  0.66451840  0.16519651  1
  Te2-  Te86  1  0.18374214  0.17430187  0.16101791  1
  Te2-  Te87  1  0.17221442  0.16914341  0.51227373  1
  Te2-  Te88  1  0.16724409  0.16951161  0.82489837  1
  Te2-  Te89  1  0.16859239  0.48876453  0.16395654  1
  Te2-  Te90  1  0.16478124  0.50175359  0.49842367  1
  Te2-  Te91  1  0.17099255  0.49941736  0.83402854  1
  Te2-  Te92  1  0.16638732  0.83009285  0.16655564  1
  Te2-  Te93  1  0.16176745  0.82070361  0.50540326  1
  Te2-  Te94  1  0.16853090  0.83166092  0.82169876  1
  Te2-  Te95  1  0.49706883  0.18261569  0.17338356  1
  Te2-  Te96  1  0.49833090  0.15924217  0.49619201  1
  Te2-  Te97  1  0.49880756  0.16978393  0.83035899  1
  Te2-  Te98  1  0.50146271  0.48989939  0.16546580  1
  Te2-  Te99  1  0.50182600  0.50315727  0.50173201  1
  Te2-  Te100  1  0.49724095  0.49932628  0.82190441  1
  Te2-  Te101  1  0.50195759  0.83021811  0.17005775  1
  Te2-  Te102  1  0.49699511  0.83252086  0.50463997  1
  Te2-  Te103  1  0.50765763  0.83319455  0.82944541  1
  Te2-  Te104  1  0.82816704  0.16985529  0.14498657  1
  Te2-  Te105  1  0.82619988  0.16710910  0.50975406  1
  Te2-  Te106  1  0.83602535  0.17667007  0.84287824  1
  Te2-  Te107  1  0.83033035  0.49843727  0.15275737  1
  Te2-  Te108  1  0.82870980  0.49486086  0.50044256  1
  Te2-  Te109  1  0.83566534  0.49046375  0.84461217  1
  Te2-  Te110  1  0.83203618  0.83127615  0.16802699  1
  Te2-  Te111  1  0.83232695  0.83184941  0.50127864  1
  Te2-  Te112  1  0.83120678  0.83245871  0.82654105  1
  Te2-  Te113  1  0.17506589  -0.00360673  0.00590706  1
  Te2-  Te114  1  0.18249720  -0.00196522  0.32537504  1
  Te2-  Te115  1  0.16728293  0.00073275  0.66388281  1
  Te2-  Te116  1  0.16059455  0.33201523  -0.00197762  1
  Te2-  Te117  1  0.15985141  0.33466798  0.33813264  1
  Te2-  Te118  1  0.16307505  0.34626275  0.66363544  1
  Te2-  Te119  1  0.16161349  0.67089867  0.00286816  1
  Te2-  Te120  1  0.15394388  0.66056109  0.33795115  1
  Te2-  Te121  1  0.16579355  0.65536709  0.66043133  1
  Te2-  Te122  1  0.49641432  0.01325326  0.00224299  1
  Te2-  Te123  1  0.49733532  -0.01478402  0.34035633  1
  Te2-  Te124  1  0.50598637  -0.00094703  0.65924626  1
  Te2-  Te125  1  0.50102731  0.32413952  -0.00145696  1
  Te2-  Te126  1  0.50146423  0.33447778  0.33064442  1
  Te2-  Te127  1  0.51214465  0.32934277  0.66487664  1
  Te2-  Te128  1  0.50293376  0.66166089  -0.00384537  1
  Te2-  Te129  1  0.50349566  0.67508873  0.34193190  1
  Te2-  Te130  1  0.51104080  0.67327232  0.65608105  1
  Te2-  Te131  1  0.83254897  0.00165315  -0.00391983  1
  Te2-  Te132  1  0.82553236  0.00667263  0.33317073  1
  Te2-  Te133  1  0.82832473  0.00141929  0.67012819  1
  Te2-  Te134  1  0.84554012  0.33516035  -0.00123176  1
  Te2-  Te135  1  0.83103876  0.32841938  0.33761456  1
  Te2-  Te136  1  0.83579311  0.33384918  0.66673865  1
  Te2-  Te137  1  0.83895324  0.66262512  0.00343622  1
  Te2-  Te138  1  0.83448765  0.66760529  0.32725665  1
  Te2-  Te139  1  0.82297414  0.66953239  0.66252109  1
  Te2-  Te140  1  0.01110697  0.15207589  -0.00327762  1
  Te2-  Te141  1  -0.00173883  0.17102914  0.33253814  1
  Te2-  Te142  1  -0.00700124  0.15139713  0.67139179  1
  Te2-  Te143  1  0.00785053  0.50348646  -0.01010152  1
  Te2-  Te144  1  -0.00095727  0.49490918  0.33087057  1
  Te2-  Te145  1  -0.00506292  0.50040784  0.67935732  1
  Te2-  Te146  1  0.00561584  0.84569007  -0.00600034  1
  Te2-  Te147  1  0.00082835  0.83476897  0.33578260  1
  Te2-  Te148  1  -0.00148374  0.84656140  0.66463096  1
  Te2-  Te149  1  0.33310226  0.16586133  -0.00741216  1
  Te2-  Te150  1  0.33572380  0.16685985  0.34247883  1
  Te2-  Te151  1  0.33550459  0.17458960  0.66119962  1
  Te2-  Te152  1  0.32814100  0.50899295  0.00077592  1
  Te2-  Te153  1  0.32890238  0.50902703  0.33115087  1
  Te2-  Te154  1  0.33772439  0.49504689  0.66100116  1
  Te2-  Te155  1  0.33582085  0.83292873  -0.00269007  1
  Te2-  Te156  1  0.33048633  0.82085649  0.34103785  1
  Te2-  Te157  1  0.33193775  0.83216649  0.66182947  1
  Te2-  Te158  1  0.65938959  0.17706878  0.00321843  1
  Te2-  Te159  1  0.67013775  0.16581449  0.33278958  1
  Te2-  Te160  1  0.66923549  0.16543382  0.66204118  1
  Te2-  Te161  1  0.66755715  0.48509887  0.00213990  1
  Te2-  Te162  1  0.66073949  0.50719418  0.32633535  1
  Te2-  Te163  1  0.66259746  0.50117642  0.66861345  1
  Te2-  Te164  1  0.66116968  0.84560157  0.00819633  1
  Te2-  Te165  1  0.66762810  0.83232344  0.33237150  1
  Te2-  Te166  1  0.66822932  0.83551789  0.66904667  1
  Te2-  Te167  1  0.00440636  0.00018825  0.18332359  1
  Te2-  Te168  1  0.00045028  -0.00412100  0.48123699  1
  Te2-  Te169  1  -0.00734217  0.00185908  0.83392978  1
  Te2-  Te170  1  -0.00821319  0.33157090  0.16801807  1
  Te2-  Te171  1  -0.00337233  0.33242053  0.50334266  1
  Te2-  Te172  1  -0.00094534  0.32936309  0.83798950  1
  Te2-  Te173  1  -0.00092939  0.67170758  0.17224759  1
  Te2-  Te174  1  -0.00909200  0.67061012  0.49527144  1
  Te2-  Te175  1  -0.01395307  0.66806166  0.83298786  1
  Te2-  Te176  1  0.34937642  0.01042984  0.16934235  1
  Te2-  Te177  1  0.33551385  -0.01121295  0.49135365  1
  Te2-  Te178  1  0.33222635  -0.00155936  0.83303959  1
  Te2-  Te179  1  0.33823732  0.33964371  0.16425565  1
  Te2-  Te180  1  0.32755496  0.33861806  0.51056253  1
  Te2-  Te181  1  0.33487958  0.33669821  0.81864479  1
  Te2-  Te182  1  0.33102098  0.66567894  0.17097620  1
  Te2-  Te183  1  0.33780588  0.66413874  0.49595350  1
  Te2-  Te184  1  0.33235059  0.66760094  0.83698872  1
  Te2-  Te185  1  0.65173084  0.00452799  0.17085552  1
  Te2-  Te186  1  0.66610074  0.00084118  0.49834383  1
  Te2-  Te187  1  0.67370801  0.00599426  0.83351041  1
  Te2-  Te188  1  0.67671765  0.33178508  0.16644581  1
  Te2-  Te189  1  0.66741091  0.33025542  0.50200040  1
  Te2-  Te190  1  0.66998503  0.33298038  0.83015979  1
  Te2-  Te191  1  0.66978157  0.66566778  0.15490825  1
  Te2-  Te192  1  0.66462119  0.66680479  0.48715876  1
  Te2-  Te193  1  0.68093118  0.66039182  0.84545264  1
  Pb2+  Pb194  1  0.50363387  0.66720152  0.82523265  1
  Pb2+  Pb195  1  0.82898537  0.49808248  0.32625601  1
  Pb2+  Pb196  1  0.83120382  0.83182767  -0.00174616  1
  Pb2+  Pb197  1  -0.00432490  0.67294165  0.66490888  1
  Pb2+  Pb198  1  0.83172532  0.00050700  0.16352383  1
  Pb2+  Pb199  1  0.50051048  0.65855542  0.17091079  1
  Pb2+  Pb200  1  0.33900078  0.00559274  0.66073347  1
  Pb2+  Pb201  1  0.49920200  0.49219956  -0.00822509  1
  Pb2+  Pb202  1  0.33087552  0.34076474  0.33348509  1
  Pb2+  Pb203  1  -0.00209299  0.16238342  0.50326400  1
  Pb2+  Pb204  1  0.16151995  0.00001681  0.83756469  1
  Pb2+  Pb205  1  0.15884923  0.66649977  0.83288808  1
  Pb2+  Pb206  1  0.16694237  0.16580060  0.33663720  1
  Pb2+  Pb207  1  0.00041035  0.50269699  0.15806522  1
  Pb2+  Pb208  1  0.33759578  0.66395102  0.66423902  1
  Pb2+  Pb209  1  0.33076606  0.33537488  -0.00588582  1
  Pb2+  Pb210  1  0.50168947  0.00187996  0.83323909  1
  Pb2+  Pb211  1  0.33355845  0.84203882  0.16671767  1
  Pb2+  Pb212  1  0.49665245  0.33139720  0.49680649  1
  Pb2+  Pb213  1  -0.00238784  0.50332338  0.50540448  1
  Pb2+  Pb214  1  0.00870139  0.16445647  0.16357091  1
  Pb2+  Pb215  1  0.16656379  -0.00736795  0.49402594  1
