# generated using pymatgen
data_In22Ag21Sn22Bi21(Te54Pb11)2
_symmetry_space_group_name_H-M   'P 1'
_cell_length_a   19.13789770
_cell_length_b   19.12096134
_cell_length_c   19.12554801
_cell_angle_alpha   90.00616401
_cell_angle_beta   90.00451357
_cell_angle_gamma   90.00377374
_symmetry_Int_Tables_number   1
_chemical_formula_structural   In22Ag21Sn22Bi21(Te54Pb11)2
_chemical_formula_sum   'In22 Ag21 Sn22 Bi21 Te108 Pb22'
_cell_volume   6998.70737369
_cell_formula_units_Z   1
loop_
 _symmetry_equiv_pos_site_id
 _symmetry_equiv_pos_as_xyz
  1  'x, y, z'
loop_
 _atom_type_symbol
 _atom_type_oxidation_number
  In3+  3.0
  Ag+  1.0
  Sn2+  2.0
  Bi3+  3.0
  Te2-  -2.0
  Pb2+  2.0
loop_
 _atom_site_type_symbol
 _atom_site_label
 _atom_site_symmetry_multiplicity
 _atom_site_fract_x
 _atom_site_fract_y
 _atom_site_fract_z
 _atom_site_occupancy
  In3+  In0  1  0.15193021  0.32738365  0.82258170  1
  In3+  In1  1  0.84231068  0.51728186  0.34753462  1
  In3+  In2  1  0.47676583  0.51106595  0.33273077  1
  In3+  In3  1  0.49914942  0.34925219  0.85118881  1
  In3+  In4  1  0.33203822  0.19610555  0.50184009  1
  In3+  In5  1  0.51991207  0.83147642  0.33602967  1
  In3+  In6  1  0.16936100  0.84024688  0.33152113  1
  In3+  In7  1  0.17171429  0.18528272  0.33604628  1
  In3+  In8  1  0.83708475  0.31960762  0.17587657  1
  In3+  In9  1  0.18451235  0.32362600  0.16901905  1
  In3+  In10  1  0.65645580  0.50829042  0.83588502  1
  In3+  In11  1  0.15581289  0.66813774  0.50284513  1
  In3+  In12  1  0.16815749  0.67486034  0.84470103  1
  In3+  In13  1  0.83314617  0.52860620  0.66614282  1
  In3+  In14  1  0.65370671  0.66644469  0.66757123  1
  In3+  In15  1  0.30941779  0.66901238  0.34029784  1
  In3+  In16  1  -0.00041923  0.66532332  0.64751668  1
  In3+  In17  1  -0.01045660  0.83685152  0.17263127  1
  In3+  In18  1  0.47384359  0.16691921  0.67171419  1
  In3+  In19  1  0.84177368  0.34675348  0.48540897  1
  In3+  In20  1  0.66908659  0.84791988  0.83503777  1
  In3+  In21  1  0.82448042  -0.01137152  0.17015075  1
  Ag+  Ag22  1  -0.02518707  0.31035635  0.33435586  1
  Ag+  Ag23  1  -0.00004559  0.81581118  0.52086734  1
  Ag+  Ag24  1  0.30614667  0.83846919  0.82160954  1
  Ag+  Ag25  1  0.85908618  0.80716830  0.00412457  1
  Ag+  Ag26  1  0.16369367  0.18611688  0.63920402  1
  Ag+  Ag27  1  0.48305770  0.00108382  0.85837304  1
  Ag+  Ag28  1  0.69084888  0.00850461  0.32202379  1
  Ag+  Ag29  1  0.47333104  0.50636995  0.03212683  1
  Ag+  Ag30  1  0.86691802  0.18002543  0.33281570  1
  Ag+  Ag31  1  0.33472663  0.19078700  0.14553239  1
  Ag+  Ag32  1  0.00658659  0.49601643  0.48005590  1
  Ag+  Ag33  1  0.64664511  0.83280044  0.18564959  1
  Ag+  Ag34  1  0.33697215  0.31045292  0.31900316  1
  Ag+  Ag35  1  0.85604670  0.69193014  0.49864074  1
  Ag+  Ag36  1  0.33816669  0.66183317  -0.02047921  1
  Ag+  Ag37  1  0.31964583  0.31607543  -0.02623258  1
  Ag+  Ag38  1  0.31020580  0.50769910  0.49992789  1
  Ag+  Ag39  1  0.30483593  0.66208750  0.68228016  1
  Ag+  Ag40  1  0.85367320  0.83420836  0.64115023  1
  Ag+  Ag41  1  0.19107111  -0.03022848  0.81034444  1
  Ag+  Ag42  1  0.00016580  0.68642654  0.32871664  1
  Sn2+  Sn43  1  0.67557562  0.33198087  0.66718835  1
  Sn2+  Sn44  1  0.82936221  0.17028520  0.00921859  1
  Sn2+  Sn45  1  0.66356281  -0.01136707  0.00577314  1
  Sn2+  Sn46  1  0.66200945  0.66902861  -0.00118079  1
  Sn2+  Sn47  1  0.16738134  -0.00665243  0.50636917  1
  Sn2+  Sn48  1  0.16743237  0.66256530  0.16913715  1
  Sn2+  Sn49  1  -0.00375672  -0.00302674  0.00000063  1
  Sn2+  Sn50  1  0.83200215  0.66621715  0.17333575  1
  Sn2+  Sn51  1  0.49321746  0.68072861  0.83520827  1
  Sn2+  Sn52  1  0.49816825  0.49623377  0.65436096  1
  Sn2+  Sn53  1  -0.00290718  -0.00366908  0.33811072  1
  Sn2+  Sn54  1  0.49799273  0.17934247  -0.00801893  1
  Sn2+  Sn55  1  0.00474467  0.16378182  0.82845832  1
  Sn2+  Sn56  1  0.33095937  0.83125089  0.15500817  1
  Sn2+  Sn57  1  0.49899534  0.32508615  0.16865293  1
  Sn2+  Sn58  1  0.17397188  0.83689530  0.00550724  1
  Sn2+  Sn59  1  0.33089703  -0.00499019  0.33536634  1
  Sn2+  Sn60  1  0.01109543  0.33371488  0.01651058  1
  Sn2+  Sn61  1  0.84075494  0.15457443  0.65868738  1
  Sn2+  Sn62  1  -0.00457564  0.33895660  0.65993795  1
  Sn2+  Sn63  1  -0.01290075  0.83244743  0.83248381  1
  Sn2+  Sn64  1  0.83706903  0.83670636  0.32767425  1
  Bi3+  Bi65  1  0.16588818  -0.00391794  0.16784057  1
  Bi3+  Bi66  1  0.16827632  0.16880874  0.00491549  1
  Bi3+  Bi67  1  0.16424002  0.49624721  0.66786491  1
  Bi3+  Bi68  1  0.83739936  0.00268218  0.83908659  1
  Bi3+  Bi69  1  -0.00298674  0.50304882  0.17169313  1
  Bi3+  Bi70  1  0.83529724  -0.00094552  0.49736798  1
  Bi3+  Bi71  1  0.00094387  0.50099701  0.82982532  1
  Bi3+  Bi72  1  0.00090952  -0.00098546  0.66900594  1
  Bi3+  Bi73  1  0.50321031  0.66486541  0.49803824  1
  Bi3+  Bi74  1  0.50200510  0.83356105  0.66720024  1
  Bi3+  Bi75  1  0.83360783  0.49766341  -0.00312832  1
  Bi3+  Bi76  1  0.66659745  0.16787767  0.83156624  1
  Bi3+  Bi77  1  0.15821557  0.50244889  0.33322902  1
  Bi3+  Bi78  1  0.50181175  0.33253549  0.49991760  1
  Bi3+  Bi79  1  0.49278688  0.16445275  0.33466102  1
  Bi3+  Bi80  1  0.49691724  -0.00247344  0.49976264  1
  Bi3+  Bi81  1  0.66513580  0.33304584  0.00003069  1
  Bi3+  Bi82  1  0.49717399  0.82649315  -0.00255745  1
  Bi3+  Bi83  1  0.17060776  0.50074115  -0.00047552  1
  Bi3+  Bi84  1  0.33333579  -0.00827813  0.66612800  1
  Bi3+  Bi85  1  0.67176229  0.49763498  0.50179511  1
  Te2-  Te86  1  0.18353519  0.16382545  0.17025759  1
  Te2-  Te87  1  0.17235135  0.16566513  0.49239156  1
  Te2-  Te88  1  0.16789375  0.17602866  0.84412026  1
  Te2-  Te89  1  0.15973963  0.49533950  0.16581696  1
  Te2-  Te90  1  0.15666398  0.50794139  0.50261451  1
  Te2-  Te91  1  0.16510269  0.49018598  0.83351846  1
  Te2-  Te92  1  0.16395430  0.83012548  0.17125817  1
  Te2-  Te93  1  0.15293768  0.82472164  0.49597877  1
  Te2-  Te94  1  0.15907061  0.83004880  0.84069923  1
  Te2-  Te95  1  0.48528699  0.16774196  0.16900337  1
  Te2-  Te96  1  0.49234683  0.16438118  0.50123924  1
  Te2-  Te97  1  0.50555244  0.14894977  0.82920250  1
  Te2-  Te98  1  0.50377428  0.49872958  0.17684639  1
  Te2-  Te99  1  0.51007294  0.49907981  0.49388996  1
  Te2-  Te100  1  0.50370384  0.50367806  0.81914543  1
  Te2-  Te101  1  0.49942471  0.83188647  0.16468412  1
  Te2-  Te102  1  0.50230497  0.83103544  0.49994187  1
  Te2-  Te103  1  0.51071556  0.84221326  0.83246789  1
  Te2-  Te104  1  0.83542356  0.16617407  0.17886060  1
  Te2-  Te105  1  0.83362105  0.15772480  0.48797633  1
  Te2-  Te106  1  0.83314143  0.16538920  0.83257740  1
  Te2-  Te107  1  0.83696365  0.49912801  0.16117887  1
  Te2-  Te108  1  0.83631454  0.49946213  0.50813711  1
  Te2-  Te109  1  0.83655965  0.50133865  0.82714382  1
  Te2-  Te110  1  0.83864931  0.83642611  0.15303930  1
  Te2-  Te111  1  0.84658665  0.83922113  0.49291564  1
  Te2-  Te112  1  0.82621557  0.83833167  0.85470958  1
  Te2-  Te113  1  0.16374400  0.00617133  0.00519480  1
  Te2-  Te114  1  0.16545838  -0.00621954  0.33306313  1
  Te2-  Te115  1  0.16548405  -0.00157796  0.66840666  1
  Te2-  Te116  1  0.17779741  0.33529818  0.01000011  1
  Te2-  Te117  1  0.18412354  0.33898741  0.32808691  1
  Te2-  Te118  1  0.16487915  0.33168319  0.66628809  1
  Te2-  Te119  1  0.17778298  0.66355047  -0.00011427  1
  Te2-  Te120  1  0.15179032  0.66356268  0.33794537  1
  Te2-  Te121  1  0.15927172  0.66074813  0.66127348  1
  Te2-  Te122  1  0.50180512  -0.00328989  0.00330695  1
  Te2-  Te123  1  0.49332834  -0.00634364  0.33882091  1
  Te2-  Te124  1  0.49700329  -0.00053580  0.66126410  1
  Te2-  Te125  1  0.50211998  0.35021276  0.00188931  1
  Te2-  Te126  1  0.48779603  0.33025707  0.33853407  1
  Te2-  Te127  1  0.50550553  0.32654849  0.66009786  1
  Te2-  Te128  1  0.49343417  0.65688737  -0.00504366  1
  Te2-  Te129  1  0.50870740  0.66975092  0.33568630  1
  Te2-  Te130  1  0.50027565  0.66788649  0.66291297  1
  Te2-  Te131  1  0.83261781  0.01088490  0.00462544  1
  Te2-  Te132  1  0.83752651  0.00236404  0.32849247  1
  Te2-  Te133  1  0.83762171  -0.01281307  0.66947114  1
  Te2-  Te134  1  0.83164514  0.33454583  0.00206609  1
  Te2-  Te135  1  0.82713502  0.32272346  0.33323325  1
  Te2-  Te136  1  0.84093433  0.32003081  0.65790820  1
  Te2-  Te137  1  0.83249174  0.65996068  0.00080607  1
  Te2-  Te138  1  0.84705875  0.66977960  0.34359918  1
  Te2-  Te139  1  0.84300225  0.68099166  0.65533691  1
  Te2-  Te140  1  0.00287087  0.17405259  0.00072875  1
  Te2-  Te141  1  0.01693150  0.16751541  0.33267196  1
  Te2-  Te142  1  0.01286092  0.16504135  0.66794480  1
  Te2-  Te143  1  0.00191776  0.49793159  -0.00064386  1
  Te2-  Te144  1  -0.00536114  0.49631549  0.33384041  1
  Te2-  Te145  1  -0.00183807  0.50353288  0.66842096  1
  Te2-  Te146  1  0.00467327  0.83532169  0.00327165  1
  Te2-  Te147  1  0.00391235  0.83505469  0.32480269  1
  Te2-  Te148  1  -0.00170236  0.83002111  0.67108966  1
  Te2-  Te149  1  0.33748835  0.17125915  -0.00124348  1
  Te2-  Te150  1  0.32906243  0.16363806  0.34445011  1
  Te2-  Te151  1  0.31547348  0.16243056  0.65874049  1
  Te2-  Te152  1  0.32991939  0.51252496  0.00024613  1
  Te2-  Te153  1  0.32143569  0.51215025  0.34481993  1
  Te2-  Te154  1  0.32569781  0.51234697  0.65914286  1
  Te2-  Te155  1  0.33746498  0.82103260  -0.00479609  1
  Te2-  Te156  1  0.32326131  0.82467890  0.33398019  1
  Te2-  Te157  1  0.33717772  0.82633884  0.67413461  1
  Te2-  Te158  1  0.66176770  0.16832520  -0.00161949  1
  Te2-  Te159  1  0.65353220  0.15469739  0.32960125  1
  Te2-  Te160  1  0.67771067  0.16630461  0.66884943  1
  Te2-  Te161  1  0.67049032  0.49813111  -0.00820614  1
  Te2-  Te162  1  0.68835357  0.49840147  0.33601606  1
  Te2-  Te163  1  0.67524947  0.49881523  0.66690538  1
  Te2-  Te164  1  0.65748685  0.82849513  -0.00775095  1
  Te2-  Te165  1  0.67250255  0.84023168  0.33133982  1
  Te2-  Te166  1  0.66491009  0.82579892  0.67609828  1
  Te2-  Te167  1  0.00323720  -0.00458310  0.16643713  1
  Te2-  Te168  1  0.00082797  -0.00310213  0.50632751  1
  Te2-  Te169  1  -0.00109389  -0.00025006  0.83251365  1
  Te2-  Te170  1  -0.00726544  0.33646774  0.18044620  1
  Te2-  Te171  1  -0.00489018  0.34161890  0.48728495  1
  Te2-  Te172  1  -0.00038771  0.33691593  0.83613583  1
  Te2-  Te173  1  -0.00129321  0.66776679  0.17627665  1
  Te2-  Te174  1  0.00104681  0.66721701  0.49626408  1
  Te2-  Te175  1  0.00757059  0.66361558  0.83678684  1
  Te2-  Te176  1  0.32672729  -0.00871925  0.16837199  1
  Te2-  Te177  1  0.33197485  -0.00858392  0.50444310  1
  Te2-  Te178  1  0.33467780  -0.00970108  0.83002556  1
  Te2-  Te179  1  0.33756505  0.33648047  0.17217534  1
  Te2-  Te180  1  0.33768646  0.35026655  0.50163444  1
  Te2-  Te181  1  0.34920020  0.33410515  0.83267243  1
  Te2-  Te182  1  0.32872893  0.66893502  0.18263208  1
  Te2-  Te183  1  0.34157251  0.65769708  0.49251000  1
  Te2-  Te184  1  0.32352685  0.67755275  0.82771815  1
  Te2-  Te185  1  0.67258160  -0.01345316  0.17385990  1
  Te2-  Te186  1  0.66535775  -0.00456202  0.49574295  1
  Te2-  Te187  1  0.67428846  0.00430408  0.83681082  1
  Te2-  Te188  1  0.66798270  0.33297255  0.16186128  1
  Te2-  Te189  1  0.66844101  0.33374700  0.50001936  1
  Te2-  Te190  1  0.65893923  0.33115394  0.83434636  1
  Te2-  Te191  1  0.67308491  0.68042235  0.16670967  1
  Te2-  Te192  1  0.66961670  0.66106441  0.50849726  1
  Te2-  Te193  1  0.66728675  0.65974701  0.82762873  1
  Pb2+  Pb194  1  0.67088916  0.50826793  0.16427230  1
  Pb2+  Pb195  1  -0.00162405  0.16835571  0.50081445  1
  Pb2+  Pb196  1  0.65556973  0.32914602  0.33029934  1
  Pb2+  Pb197  1  0.66386514  0.16061508  0.16671017  1
  Pb2+  Pb198  1  0.00664980  0.66868240  0.00747873  1
  Pb2+  Pb199  1  0.00689314  0.16536841  0.16646375  1
  Pb2+  Pb200  1  0.16442061  0.33844914  0.49523593  1
  Pb2+  Pb201  1  0.83041266  0.33392180  0.82881627  1
  Pb2+  Pb202  1  0.49848247  0.66635923  0.16364738  1
  Pb2+  Pb203  1  0.33447974  0.16094678  0.82862459  1
  Pb2+  Pb204  1  0.83621181  0.67287529  0.82747795  1
  Pb2+  Pb205  1  0.33533443  0.50884998  0.83125229  1
  Pb2+  Pb206  1  0.66735491  -0.00148233  0.66555888  1
  Pb2+  Pb207  1  0.67729291  0.66729941  0.33697415  1
  Pb2+  Pb208  1  0.33093821  -0.00344901  -0.00081971  1
  Pb2+  Pb209  1  0.33752442  0.34222240  0.66749688  1
  Pb2+  Pb210  1  0.67547840  0.82948845  0.50356139  1
  Pb2+  Pb211  1  0.49864975  -0.00091884  0.17110223  1
  Pb2+  Pb212  1  0.32827129  0.82235610  0.50380128  1
  Pb2+  Pb213  1  0.16688467  0.83158415  0.66721493  1
  Pb2+  Pb214  1  0.33165636  0.50183272  0.16847873  1
  Pb2+  Pb215  1  0.66531360  0.16326246  0.49788484  1
