# generated using pymatgen
data_In22Ag21Sn22Bi21(Te54Pb11)2
_symmetry_space_group_name_H-M   'P 1'
_cell_length_a   19.15330788
_cell_length_b   19.15738307
_cell_length_c   19.16511427
_cell_angle_alpha   89.98980759
_cell_angle_beta   89.99307480
_cell_angle_gamma   90.01033749
_symmetry_Int_Tables_number   1
_chemical_formula_structural   In22Ag21Sn22Bi21(Te54Pb11)2
_chemical_formula_sum   'In22 Ag21 Sn22 Bi21 Te108 Pb22'
_cell_volume   7032.20251602
_cell_formula_units_Z   1
loop_
 _symmetry_equiv_pos_site_id
 _symmetry_equiv_pos_as_xyz
  1  'x, y, z'
loop_
 _atom_type_symbol
 _atom_type_oxidation_number
  In3+  3.0
  Ag+  1.0
  Sn2+  2.0
  Bi3+  3.0
  Te2-  -2.0
  Pb2+  2.0
loop_
 _atom_site_type_symbol
 _atom_site_label
 _atom_site_symmetry_multiplicity
 _atom_site_fract_x
 _atom_site_fract_y
 _atom_site_fract_z
 _atom_site_occupancy
  In3+  In0  1  0.15991116  0.00790174  0.50307206  1
  In3+  In1  1  0.83494702  -0.01164867  0.15679255  1
  In3+  In2  1  0.50671061  0.65484432  0.16629718  1
  In3+  In3  1  0.66922465  0.81426678  0.51217190  1
  In3+  In4  1  -0.02326189  0.48547921  0.83371162  1
  In3+  In5  1  0.82747464  0.82049265  -0.03404865  1
  In3+  In6  1  0.51472157  0.31386993  0.50956930  1
  In3+  In7  1  0.68877861  0.49602700  0.15819435  1
  In3+  In8  1  0.33015877  0.66562304  -0.02999600  1
  In3+  In9  1  0.36538505  0.50066663  0.51485371  1
  In3+  In10  1  0.14295415  0.84076339  -0.00140534  1
  In3+  In11  1  0.34888258  0.01267728  0.33572809  1
  In3+  In12  1  0.51317366  0.00613709  0.16529704  1
  In3+  In13  1  0.66765321  0.66932060  0.68319439  1
  In3+  In14  1  0.50849548  0.00516185  0.50717358  1
  In3+  In15  1  0.67763443  0.34096211  0.33610694  1
  In3+  In16  1  0.82346921  0.82777704  0.33989638  1
  In3+  In17  1  0.82400532  0.33555535  0.15031452  1
  In3+  In18  1  -0.01912067  0.84114529  0.50741884  1
  In3+  In19  1  0.14430742  0.66832732  0.50805522  1
  In3+  In20  1  0.80778783  0.16211335  0.33416943  1
  In3+  In21  1  0.50685431  0.47161151  0.34336636  1
  Ag+  Ag22  1  0.36699801  0.65726257  0.66053303  1
  Ag+  Ag23  1  0.65677765  0.02400628  0.68569125  1
  Ag+  Ag24  1  0.66280891  0.31271417  -0.02237634  1
  Ag+  Ag25  1  0.81283329  0.47768409  -0.02619983  1
  Ag+  Ag26  1  0.63976981  0.47964048  0.80917130  1
  Ag+  Ag27  1  -0.02100816  0.13678797  0.80450262  1
  Ag+  Ag28  1  0.65302303  0.14442616  0.50314458  1
  Ag+  Ag29  1  0.66875739  0.49564122  0.51841257  1
  Ag+  Ag30  1  -0.03423377  0.00033866  0.67291038  1
  Ag+  Ag31  1  0.51945376  0.83628228  0.67800591  1
  Ag+  Ag32  1  0.84008252  0.02663654  0.80228569  1
  Ag+  Ag33  1  0.80866950  0.69526139  0.14984375  1
  Ag+  Ag34  1  0.52936252  0.47557439  0.69532695  1
  Ag+  Ag35  1  0.50147058  0.16510105  0.36109218  1
  Ag+  Ag36  1  0.53718342  0.13252162  0.69202382  1
  Ag+  Ag37  1  0.81582567  0.84283270  0.66398931  1
  Ag+  Ag38  1  0.82917596  0.67916691  0.51626642  1
  Ag+  Ag39  1  -0.00127897  0.35842808  0.68958023  1
  Ag+  Ag40  1  0.83139614  0.65388844  0.81482541  1
  Ag+  Ag41  1  0.54174833  0.01362720  0.80183788  1
  Ag+  Ag42  1  0.35636077  0.13831664  0.51581587  1
  Sn2+  Sn43  1  0.67038826  0.83782032  0.83028570  1
  Sn2+  Sn44  1  0.33543094  0.67028682  0.34623274  1
  Sn2+  Sn45  1  -0.00372056  0.00721101  0.34241641  1
  Sn2+  Sn46  1  0.15696673  0.32442554  0.16085620  1
  Sn2+  Sn47  1  0.17530540  0.16966812  -0.00898847  1
  Sn2+  Sn48  1  0.32956881  0.15897738  0.81116150  1
  Sn2+  Sn49  1  0.34296236  -0.00637203  0.66513424  1
  Sn2+  Sn50  1  -0.00875386  0.16447582  0.16246351  1
  Sn2+  Sn51  1  0.83180082  0.16379987  -0.00370559  1
  Sn2+  Sn52  1  0.82586521  0.00388676  0.50420619  1
  Sn2+  Sn53  1  0.15525369  0.66778323  0.83018121  1
  Sn2+  Sn54  1  0.49981578  0.83978716  0.33958351  1
  Sn2+  Sn55  1  0.49810377  0.33233463  0.16463444  1
  Sn2+  Sn56  1  0.83201687  0.15724349  0.66090676  1
  Sn2+  Sn57  1  0.49862070  0.16757223  -0.01230054  1
  Sn2+  Sn58  1  0.82740234  0.33275171  0.82729699  1
  Sn2+  Sn59  1  0.34005745  0.16202989  0.17377897  1
  Sn2+  Sn60  1  -0.01595276  0.33002231  -0.00182703  1
  Sn2+  Sn61  1  0.15588234  0.16385192  0.66670590  1
  Sn2+  Sn62  1  -0.00868846  0.67090769  0.33739940  1
  Sn2+  Sn63  1  0.66708846  0.66541319  0.33548679  1
  Sn2+  Sn64  1  0.17226784  0.49772019  0.66748817  1
  Bi3+  Bi65  1  0.17009619  0.66436533  0.16869613  1
  Bi3+  Bi66  1  0.33711509  0.83006976  0.50332752  1
  Bi3+  Bi67  1  0.17264130  0.50366187  0.33780705  1
  Bi3+  Bi68  1  0.66749666  0.66888559  -0.00036118  1
  Bi3+  Bi69  1  0.16807868  0.50467669  0.00035873  1
  Bi3+  Bi70  1  0.33757417  0.50302613  0.82751692  1
  Bi3+  Bi71  1  0.66725882  0.00362202  0.33999154  1
  Bi3+  Bi72  1  -0.00292593  0.83181095  0.82823529  1
  Bi3+  Bi73  1  0.17022184  0.83277375  0.66650371  1
  Bi3+  Bi74  1  0.33736057  0.83648398  0.82935717  1
  Bi3+  Bi75  1  0.50244163  0.83565287  -0.00429315  1
  Bi3+  Bi76  1  -0.00076835  0.33098958  0.33497015  1
  Bi3+  Bi77  1  0.16633291  0.33660925  0.50041566  1
  Bi3+  Bi78  1  0.50671227  0.67421432  0.49670723  1
  Bi3+  Bi79  1  -0.00228711  0.16437371  0.50084447  1
  Bi3+  Bi80  1  0.83412146  0.49808568  0.66516730  1
  Bi3+  Bi81  1  0.33536573  0.50000399  0.16947044  1
  Bi3+  Bi82  1  0.83384490  0.33696274  0.50163155  1
  Bi3+  Bi83  1  0.00188026  0.49727119  0.16181023  1
  Bi3+  Bi84  1  0.33666542  0.33230097  0.33527374  1
  Bi3+  Bi85  1  0.16592246  0.83297655  0.33853394  1
  Te2-  Te86  1  0.16818400  0.16723831  0.16493718  1
  Te2-  Te87  1  0.16342019  0.17009462  0.49984950  1
  Te2-  Te88  1  0.16529783  0.16783237  0.83491259  1
  Te2-  Te89  1  0.16968954  0.49925403  0.16878085  1
  Te2-  Te90  1  0.16142516  0.50597670  0.49873703  1
  Te2-  Te91  1  0.17471322  0.50802887  0.83704521  1
  Te2-  Te92  1  0.16702939  0.82923982  0.17152798  1
  Te2-  Te93  1  0.17333000  0.82640476  0.50014633  1
  Te2-  Te94  1  0.16710922  0.82996128  0.83536493  1
  Te2-  Te95  1  0.49730215  0.16333922  0.15913136  1
  Te2-  Te96  1  0.50084986  0.16403963  0.51045130  1
  Te2-  Te97  1  0.49873425  0.15498414  0.83169440  1
  Te2-  Te98  1  0.49489287  0.49971056  0.17436776  1
  Te2-  Te99  1  0.51584335  0.51061917  0.49145676  1
  Te2-  Te100  1  0.49941375  0.50622682  0.83551300  1
  Te2-  Te101  1  0.50050636  0.84424773  0.16594692  1
  Te2-  Te102  1  0.50033359  0.83718465  0.50350731  1
  Te2-  Te103  1  0.50029131  0.84446682  0.82996172  1
  Te2-  Te104  1  0.83161966  0.17855459  0.17342256  1
  Te2-  Te105  1  0.83665421  0.17371299  0.49256519  1
  Te2-  Te106  1  0.83999992  0.17162990  0.83467155  1
  Te2-  Te107  1  0.84076147  0.49391614  0.16734741  1
  Te2-  Te108  1  0.82334887  0.49873451  0.49984018  1
  Te2-  Te109  1  0.82910690  0.50470909  0.83031673  1
  Te2-  Te110  1  0.83342394  0.83570868  0.18401381  1
  Te2-  Te111  1  0.82816686  0.82821367  0.50995867  1
  Te2-  Te112  1  0.83619561  0.82911990  0.81588914  1
  Te2-  Te113  1  0.16395986  -0.00120730  0.00179784  1
  Te2-  Te114  1  0.16408664  -0.00521491  0.34274151  1
  Te2-  Te115  1  0.17474237  -0.00420526  0.65700472  1
  Te2-  Te116  1  0.16604823  0.33938182  0.00156088  1
  Te2-  Te117  1  0.16790260  0.33848729  0.33431275  1
  Te2-  Te118  1  0.15171002  0.33708666  0.66141917  1
  Te2-  Te119  1  0.17006096  0.66756450  0.00388948  1
  Te2-  Te120  1  0.16575502  0.66673898  0.33630251  1
  Te2-  Te121  1  0.16041991  0.66807637  0.66250475  1
  Te2-  Te122  1  0.49883552  -0.00265552  0.00903529  1
  Te2-  Te123  1  0.50258200  0.01018686  0.32622544  1
  Te2-  Te124  1  0.50724877  -0.00893548  0.66007347  1
  Te2-  Te125  1  0.51239996  0.33122567  0.00028505  1
  Te2-  Te126  1  0.49723693  0.31975994  0.33777625  1
  Te2-  Te127  1  0.49713121  0.33748223  0.65688121  1
  Te2-  Te128  1  0.50039455  0.67395677  0.00409126  1
  Te2-  Te129  1  0.50099697  0.67971966  0.33134308  1
  Te2-  Te130  1  0.51423998  0.67788943  0.66017297  1
  Te2-  Te131  1  0.83135583  0.00067404  0.00731469  1
  Te2-  Te132  1  0.83129964  0.00286368  0.33958523  1
  Te2-  Te133  1  0.81784401  -0.00497798  0.65925605  1
  Te2-  Te134  1  0.81757186  0.33398249  0.00002888  1
  Te2-  Te135  1  0.83427616  0.33046749  0.33830352  1
  Te2-  Te136  1  0.84685650  0.33433700  0.66330292  1
  Te2-  Te137  1  0.82949720  0.67517286  0.00745714  1
  Te2-  Te138  1  0.83349313  0.67410407  0.32876547  1
  Te2-  Te139  1  0.82148890  0.66119439  0.66417053  1
  Te2-  Te140  1  0.00171884  0.17330017  0.00482529  1
  Te2-  Te141  1  0.00537946  0.16937741  0.33432532  1
  Te2-  Te142  1  -0.00213207  0.15164677  0.66106763  1
  Te2-  Te143  1  0.00482916  0.49582284  -0.00201936  1
  Te2-  Te144  1  0.00564525  0.49644618  0.33113410  1
  Te2-  Te145  1  -0.00087999  0.50623974  0.67611773  1
  Te2-  Te146  1  -0.01496422  0.83530289  0.00111073  1
  Te2-  Te147  1  0.00301525  0.83854296  0.34812404  1
  Te2-  Te148  1  0.00813686  0.84650897  0.66068406  1
  Te2-  Te149  1  0.33350684  0.16712036  -0.00100544  1
  Te2-  Te150  1  0.34552979  0.16725776  0.34410253  1
  Te2-  Te151  1  0.32450265  0.16369374  0.65783014  1
  Te2-  Te152  1  0.33371782  0.50368675  0.00041381  1
  Te2-  Te153  1  0.33735051  0.49942691  0.33454036  1
  Te2-  Te154  1  0.33499432  0.50954787  0.66627982  1
  Te2-  Te155  1  0.33977799  0.82751119  -0.00636042  1
  Te2-  Te156  1  0.33124460  0.83767557  0.33761216  1
  Te2-  Te157  1  0.33115710  0.82829192  0.66733411  1
  Te2-  Te158  1  0.66988601  0.16823664  0.00238473  1
  Te2-  Te159  1  0.65642636  0.16817614  0.34987718  1
  Te2-  Te160  1  0.67439610  0.16881557  0.65339708  1
  Te2-  Te161  1  0.67423449  0.50761493  0.00826161  1
  Te2-  Te162  1  0.65958508  0.49685553  0.31939832  1
  Te2-  Te163  1  0.66962002  0.50856328  0.66685525  1
  Te2-  Te164  1  0.66827746  0.83428807  0.00336634  1
  Te2-  Te165  1  0.66929461  0.83936101  0.34363265  1
  Te2-  Te166  1  0.66617326  0.82482682  0.66309756  1
  Te2-  Te167  1  -0.00963711  -0.00025715  0.17143977  1
  Te2-  Te168  1  0.00068475  -0.00054869  0.50890871  1
  Te2-  Te169  1  -0.01169276  -0.00744413  0.82467204  1
  Te2-  Te170  1  -0.00670326  0.33544093  0.17143760  1
  Te2-  Te171  1  0.00101086  0.33066110  0.49741253  1
  Te2-  Te172  1  -0.00399439  0.33608972  0.83433194  1
  Te2-  Te173  1  0.00687464  0.66047532  0.17057568  1
  Te2-  Te174  1  -0.01474983  0.67240890  0.49720176  1
  Te2-  Te175  1  -0.01296594  0.67226996  0.83496094  1
  Te2-  Te176  1  0.33091974  0.00261302  0.17719879  1
  Te2-  Te177  1  0.34007354  -0.00591307  0.49202232  1
  Te2-  Te178  1  0.32923768  -0.00126219  0.83189687  1
  Te2-  Te179  1  0.33319480  0.33404303  0.17184404  1
  Te2-  Te180  1  0.32817378  0.34829730  0.49583833  1
  Te2-  Te181  1  0.33354589  0.33677350  0.83141566  1
  Te2-  Te182  1  0.33271590  0.66217139  0.17598523  1
  Te2-  Te183  1  0.34307670  0.66453856  0.50839127  1
  Te2-  Te184  1  0.33440825  0.66822906  0.81400397  1
  Te2-  Te185  1  0.67506865  0.00291578  0.17474935  1
  Te2-  Te186  1  0.66147069  -0.00247286  0.49837154  1
  Te2-  Te187  1  0.68611686  -0.00341391  0.82808962  1
  Te2-  Te188  1  0.66646596  0.33939243  0.17800501  1
  Te2-  Te189  1  0.66505299  0.34625568  0.49096249  1
  Te2-  Te190  1  0.66656744  0.33611560  0.83138746  1
  Te2-  Te191  1  0.66670387  0.65990208  0.16759034  1
  Te2-  Te192  1  0.67573483  0.66475574  0.49112815  1
  Te2-  Te193  1  0.67871160  0.67278756  0.83797545  1
  Pb2+  Pb194  1  0.33286136  -0.00151386  0.00125976  1
  Pb2+  Pb195  1  -0.00371764  0.00613580  -0.00625052  1
  Pb2+  Pb196  1  0.15853144  0.00106312  0.82578445  1
  Pb2+  Pb197  1  0.67340669  0.16545386  0.82815093  1
  Pb2+  Pb198  1  -0.00323624  0.66411440  0.00040662  1
  Pb2+  Pb199  1  0.66453662  0.00279490  -0.00552661  1
  Pb2+  Pb200  1  -0.00106864  0.82810182  0.17637593  1
  Pb2+  Pb201  1  0.32812865  0.33172230  0.66317732  1
  Pb2+  Pb202  1  0.66361169  0.17163739  0.17458865  1
  Pb2+  Pb203  1  0.33689008  0.82956026  0.16525496  1
  Pb2+  Pb204  1  0.49969544  0.32713765  0.82713049  1
  Pb2+  Pb205  1  0.83047161  0.50489467  0.33457186  1
  Pb2+  Pb206  1  0.17713972  0.16580025  0.33335951  1
  Pb2+  Pb207  1  0.51006745  0.50083571  0.00384042  1
  Pb2+  Pb208  1  -0.01012097  0.67736680  0.66755503  1
  Pb2+  Pb209  1  0.16351877  0.33595006  0.83149468  1
  Pb2+  Pb210  1  0.33891836  0.33259148  0.00218666  1
  Pb2+  Pb211  1  0.66437471  0.82946401  0.17239318  1
  Pb2+  Pb212  1  0.67310699  0.33474349  0.66203760  1
  Pb2+  Pb213  1  -0.00744515  0.50125325  0.50341965  1
  Pb2+  Pb214  1  0.16144920  0.00133829  0.17209764  1
  Pb2+  Pb215  1  0.50715737  0.67865917  0.82757022  1
