# generated using pymatgen
data_In22Ag21Sn22Bi21(Te54Pb11)2
_symmetry_space_group_name_H-M   'P 1'
_cell_length_a   19.19621791
_cell_length_b   19.16756003
_cell_length_c   19.16576130
_cell_angle_alpha   89.98519132
_cell_angle_beta   89.98084289
_cell_angle_gamma   90.00104095
_symmetry_Int_Tables_number   1
_chemical_formula_structural   In22Ag21Sn22Bi21(Te54Pb11)2
_chemical_formula_sum   'In22 Ag21 Sn22 Bi21 Te108 Pb22'
_cell_volume   7051.93887981
_cell_formula_units_Z   1
loop_
 _symmetry_equiv_pos_site_id
 _symmetry_equiv_pos_as_xyz
  1  'x, y, z'
loop_
 _atom_type_symbol
 _atom_type_oxidation_number
  In3+  3.0
  Ag+  1.0
  Sn2+  2.0
  Bi3+  3.0
  Te2-  -2.0
  Pb2+  2.0
loop_
 _atom_site_type_symbol
 _atom_site_label
 _atom_site_symmetry_multiplicity
 _atom_site_fract_x
 _atom_site_fract_y
 _atom_site_fract_z
 _atom_site_occupancy
  In3+  In0  1  0.00509384  0.19412686  0.84701754  1
  In3+  In1  1  0.33078275  0.51356276  0.16793637  1
  In3+  In2  1  0.67397969  0.51505298  0.50828063  1
  In3+  In3  1  0.84323407  0.67385063  0.16398552  1
  In3+  In4  1  0.15187811  0.66928021  0.16241646  1
  In3+  In5  1  0.84141830  0.31166365  0.15899332  1
  In3+  In6  1  0.84963474  0.49892606  0.33966058  1
  In3+  In7  1  0.14209775  0.00129117  0.49316961  1
  In3+  In8  1  -0.00501655  0.18105804  0.49873417  1
  In3+  In9  1  0.14915036  0.35825540  0.83900964  1
  In3+  In10  1  0.32966374  0.66042678  0.68429253  1
  In3+  In11  1  0.34407526  0.17865250  0.16974098  1
  In3+  In12  1  0.67496357  -0.02641165  0.66832048  1
  In3+  In13  1  0.51239391  0.49860369  -0.00173508  1
  In3+  In14  1  0.34424556  0.83729362  0.50310031  1
  In3+  In15  1  0.34268855  0.17039380  0.80741606  1
  In3+  In16  1  0.50531143  0.65943417  0.16431433  1
  In3+  In17  1  0.67575964  0.50154978  0.17298574  1
  In3+  In18  1  0.66721431  0.49874296  0.83317622  1
  In3+  In19  1  0.50358275  0.81651442  0.32369210  1
  In3+  In20  1  0.50185967  0.50860598  0.64692061  1
  In3+  In21  1  0.52073243  0.33315998  0.16397632  1
  Ag+  Ag22  1  -0.02327984  0.49871134  0.16997258  1
  Ag+  Ag23  1  0.52362781  0.67713126  0.80880696  1
  Ag+  Ag24  1  0.03261514  0.47610160  0.52238618  1
  Ag+  Ag25  1  0.13925488  0.64691706  0.80221036  1
  Ag+  Ag26  1  -0.00083538  0.14027994  0.19996702  1
  Ag+  Ag27  1  0.13617798  0.82886087  -0.02003825  1
  Ag+  Ag28  1  -0.03239417  0.50752170  0.81012679  1
  Ag+  Ag29  1  0.84403349  0.83802120  -0.02459021  1
  Ag+  Ag30  1  0.68834548  0.86289348  0.86627272  1
  Ag+  Ag31  1  0.68802729  0.35924451  0.00180793  1
  Ag+  Ag32  1  0.81346781  0.02810842  0.48500397  1
  Ag+  Ag33  1  0.85710090  0.65703502  0.47492670  1
  Ag+  Ag34  1  0.85992807  0.29993190  0.80376391  1
  Ag+  Ag35  1  0.18486059  0.47761799  0.32814259  1
  Ag+  Ag36  1  0.50591462  0.68425605  0.52207161  1
  Ag+  Ag37  1  0.00451236  0.85339288  0.15521731  1
  Ag+  Ag38  1  0.83651030  0.19510631  0.33326680  1
  Ag+  Ag39  1  0.70106511  0.14175566  0.16832048  1
  Ag+  Ag40  1  0.47565405  0.16400879  0.31043814  1
  Ag+  Ag41  1  0.30076570  0.13410878  0.47740485  1
  Ag+  Ag42  1  0.68746126  0.66329977  0.66527071  1
  Sn2+  Sn43  1  -0.00511867  0.66245319  0.66549482  1
  Sn2+  Sn44  1  0.33038368  0.66319836  0.34248986  1
  Sn2+  Sn45  1  0.67231976  0.00556009  -0.00368983  1
  Sn2+  Sn46  1  0.16173478  0.51045924  0.01028916  1
  Sn2+  Sn47  1  0.67449285  0.82933090  0.16224902  1
  Sn2+  Sn48  1  -0.00766193  -0.00045577  -0.00090440  1
  Sn2+  Sn49  1  0.50362136  0.82684585  -0.00408393  1
  Sn2+  Sn50  1  0.82364106  0.16435901  0.66107343  1
  Sn2+  Sn51  1  0.83898694  0.50590184  0.00501260  1
  Sn2+  Sn52  1  -0.00589815  -0.00355727  0.33340494  1
  Sn2+  Sn53  1  0.82621595  0.33412447  0.49528339  1
  Sn2+  Sn54  1  0.66743168  0.17192452  0.47988007  1
  Sn2+  Sn55  1  0.83590860  0.00182492  0.83215239  1
  Sn2+  Sn56  1  0.33506843  0.32991312  0.33713892  1
  Sn2+  Sn57  1  0.16214248  0.33993597  0.16087355  1
  Sn2+  Sn58  1  0.16989460  0.15655331  0.00487759  1
  Sn2+  Sn59  1  0.32745676  -0.00125258  0.00108491  1
  Sn2+  Sn60  1  0.17015929  0.67007703  0.48990981  1
  Sn2+  Sn61  1  -0.00106842  0.00171281  0.67175583  1
  Sn2+  Sn62  1  0.66285067  0.66667634  -0.01234608  1
  Sn2+  Sn63  1  0.83307767  -0.00732245  0.17599158  1
  Sn2+  Sn64  1  0.32634333  0.51327778  0.50039857  1
  Bi3+  Bi65  1  0.33577164  0.00218382  0.66784301  1
  Bi3+  Bi66  1  0.66422856  0.33333618  0.32878889  1
  Bi3+  Bi67  1  0.16501379  -0.00005703  0.16466966  1
  Bi3+  Bi68  1  -0.00175164  0.82735531  0.49568144  1
  Bi3+  Bi69  1  0.50326451  0.16588707  0.00149477  1
  Bi3+  Bi70  1  0.83545223  0.83380472  0.66276449  1
  Bi3+  Bi71  1  0.66878778  0.82852036  0.50164816  1
  Bi3+  Bi72  1  -0.00331411  0.34046951  0.00321161  1
  Bi3+  Bi73  1  0.33763396  0.83014993  0.83717592  1
  Bi3+  Bi74  1  0.50384122  0.17141845  0.66787653  1
  Bi3+  Bi75  1  0.33169681  0.66794075  0.00179353  1
  Bi3+  Bi76  1  0.00147922  0.66572797  0.33483682  1
  Bi3+  Bi77  1  0.83134211  0.83136068  0.33796458  1
  Bi3+  Bi78  1  0.33518518  0.33261454  0.66781960  1
  Bi3+  Bi79  1  0.50333137  0.33487893  0.49710820  1
  Bi3+  Bi80  1  0.16437106  -0.00194307  0.83687853  1
  Bi3+  Bi81  1  0.50179271  0.33662059  0.83949416  1
  Bi3+  Bi82  1  0.82951376  0.66352714  0.84085709  1
  Bi3+  Bi83  1  0.33954870  0.50011904  0.84079209  1
  Bi3+  Bi84  1  0.16707749  0.83184360  0.33575942  1
  Bi3+  Bi85  1  -0.00310482  0.66616228  0.00195741  1
  Te2-  Te86  1  0.14439714  0.16248087  0.16079438  1
  Te2-  Te87  1  0.15682471  0.15982765  0.49982788  1
  Te2-  Te88  1  0.15476221  0.15978124  0.83965572  1
  Te2-  Te89  1  0.17836607  0.50156893  0.17524563  1
  Te2-  Te90  1  0.17076676  0.50130252  0.48561111  1
  Te2-  Te91  1  0.17694094  0.50967366  0.83925125  1
  Te2-  Te92  1  0.15622097  0.83428349  0.17493118  1
  Te2-  Te93  1  0.16412995  0.83950250  0.49785063  1
  Te2-  Te94  1  0.17202135  0.83374659  0.83732111  1
  Te2-  Te95  1  0.49737349  0.17546451  0.16355394  1
  Te2-  Te96  1  0.51172318  0.17449863  0.50723006  1
  Te2-  Te97  1  0.50291938  0.16928858  0.83685888  1
  Te2-  Te98  1  0.48694277  0.48841738  0.15900615  1
  Te2-  Te99  1  0.49964849  0.49712013  0.49579885  1
  Te2-  Te100  1  0.50186369  0.49960846  0.84350491  1
  Te2-  Te101  1  0.49974466  0.83255698  0.17309051  1
  Te2-  Te102  1  0.50084053  0.82883084  0.49020674  1
  Te2-  Te103  1  0.49864359  0.82017692  0.83420936  1
  Te2-  Te104  1  0.84703618  0.16252875  0.17554467  1
  Te2-  Te105  1  0.83255151  0.17284890  0.49526059  1
  Te2-  Te106  1  0.84086040  0.15998077  0.83250442  1
  Te2-  Te107  1  0.82685588  0.51567840  0.16630074  1
  Te2-  Te108  1  0.82623442  0.51064405  0.49322657  1
  Te2-  Te109  1  0.82260260  0.50228614  0.83815883  1
  Te2-  Te110  1  0.83980793  0.82966533  0.17789373  1
  Te2-  Te111  1  0.83269126  0.81437489  0.50109006  1
  Te2-  Te112  1  0.82635591  0.82912330  0.82804636  1
  Te2-  Te113  1  0.16246429  -0.01492838  0.00104092  1
  Te2-  Te114  1  0.16413436  -0.00300302  0.33407649  1
  Te2-  Te115  1  0.17185180  0.00090444  0.66845652  1
  Te2-  Te116  1  0.16102685  0.33314414  -0.00639374  1
  Te2-  Te117  1  0.16585789  0.33251251  0.33184754  1
  Te2-  Te118  1  0.17051747  0.33215001  0.67599685  1
  Te2-  Te119  1  0.16662091  0.67988291  0.00871221  1
  Te2-  Te120  1  0.16614421  0.67049109  0.32352545  1
  Te2-  Te121  1  0.17256609  0.66629167  0.66153045  1
  Te2-  Te122  1  0.49941697  0.00193505  0.00126587  1
  Te2-  Te123  1  0.50283307  0.01864631  0.33353811  1
  Te2-  Te124  1  0.49961018  0.00531359  0.66985017  1
  Te2-  Te125  1  0.49918359  0.33202654  0.00397643  1
  Te2-  Te126  1  0.50209627  0.31580996  0.33207562  1
  Te2-  Te127  1  0.49737269  0.33759665  0.67189794  1
  Te2-  Te128  1  0.49468777  0.65947151  0.00868382  1
  Te2-  Te129  1  0.49642297  0.66346142  0.32332399  1
  Te2-  Te130  1  0.48543694  0.65882563  0.66707551  1
  Te2-  Te131  1  0.83257820  -0.01274161  0.00037284  1
  Te2-  Te132  1  0.83659255  -0.00744368  0.34310769  1
  Te2-  Te133  1  0.82916450  -0.00362385  0.66391531  1
  Te2-  Te134  1  0.83213972  0.33584473  0.00826361  1
  Te2-  Te135  1  0.82766229  0.34479640  0.32840239  1
  Te2-  Te136  1  0.83056558  0.33485829  0.66515505  1
  Te2-  Te137  1  0.83255513  0.68148783  0.00488669  1
  Te2-  Te138  1  0.83230328  0.66555278  0.32869265  1
  Te2-  Te139  1  0.83579622  0.66897669  0.67574177  1
  Te2-  Te140  1  -0.00083921  0.17394608  -0.00429970  1
  Te2-  Te141  1  -0.01379637  0.16518587  0.34462269  1
  Te2-  Te142  1  -0.00661813  0.16061998  0.65615025  1
  Te2-  Te143  1  0.00194338  0.50521397  0.01381360  1
  Te2-  Te144  1  -0.00232563  0.50715600  0.32183663  1
  Te2-  Te145  1  0.00229485  0.50158641  0.66435015  1
  Te2-  Te146  1  -0.00881485  0.82855536  0.00902205  1
  Te2-  Te147  1  -0.00075351  0.82759713  0.33217690  1
  Te2-  Te148  1  -0.00164946  0.83105519  0.66435705  1
  Te2-  Te149  1  0.33592548  0.16395987  0.01042378  1
  Te2-  Te150  1  0.32944080  0.16970511  0.33964945  1
  Te2-  Te151  1  0.33799278  0.16745415  0.64873559  1
  Te2-  Te152  1  0.32777773  0.50277464  0.00343313  1
  Te2-  Te153  1  0.32985076  0.50063816  0.32853188  1
  Te2-  Te154  1  0.33843077  0.49867612  0.67407306  1
  Te2-  Te155  1  0.33904305  0.83175754  -0.00063695  1
  Te2-  Te156  1  0.33300731  0.83087067  0.34154724  1
  Te2-  Te157  1  0.33675310  0.83657292  0.66738700  1
  Te2-  Te158  1  0.66626275  0.16104205  0.01523134  1
  Te2-  Te159  1  0.68507554  0.17537907  0.32070516  1
  Te2-  Te160  1  0.66572797  0.17254621  0.66922382  1
  Te2-  Te161  1  0.66535556  0.50499321  0.01162167  1
  Te2-  Te162  1  0.66039621  0.49677715  0.32584497  1
  Te2-  Te163  1  0.65969498  0.51165380  0.66472082  1
  Te2-  Te164  1  0.66062843  0.83308318  0.00483421  1
  Te2-  Te165  1  0.66377115  0.83417991  0.33554127  1
  Te2-  Te166  1  0.66918967  0.81805658  0.66537888  1
  Te2-  Te167  1  0.00182958  -0.00212679  0.16451743  1
  Te2-  Te168  1  -0.00625059  -0.01163936  0.50363132  1
  Te2-  Te169  1  0.00241494  -0.00659682  0.83425351  1
  Te2-  Te170  1  -0.00684616  0.34606942  0.16231237  1
  Te2-  Te171  1  -0.00149529  0.33584905  0.49896155  1
  Te2-  Te172  1  -0.00942609  0.35620052  0.83920762  1
  Te2-  Te173  1  -0.00169932  0.65252112  0.16719068  1
  Te2-  Te174  1  0.00369105  0.66584282  0.49861803  1
  Te2-  Te175  1  -0.00255636  0.65474208  0.83842078  1
  Te2-  Te176  1  0.32664146  0.00257219  0.16621131  1
  Te2-  Te177  1  0.33797945  -0.00480273  0.50585630  1
  Te2-  Te178  1  0.32965140  0.00232185  0.83255368  1
  Te2-  Te179  1  0.32226747  0.32681539  0.17124496  1
  Te2-  Te180  1  0.34107116  0.34144211  0.50548906  1
  Te2-  Te181  1  0.33709894  0.33278041  0.83283164  1
  Te2-  Te182  1  0.34160664  0.66605652  0.16556969  1
  Te2-  Te183  1  0.33729884  0.67164631  0.50359490  1
  Te2-  Te184  1  0.33249580  0.66607372  0.83843839  1
  Te2-  Te185  1  0.67204540  -0.00301280  0.16546764  1
  Te2-  Te186  1  0.67303992  -0.00554659  0.51040607  1
  Te2-  Te187  1  0.66846691  0.00046064  0.82552042  1
  Te2-  Te188  1  0.67151738  0.34450138  0.15993459  1
  Te2-  Te189  1  0.66612648  0.34381095  0.49733140  1
  Te2-  Te190  1  0.66276442  0.34345866  0.84850605  1
  Te2-  Te191  1  0.65634295  0.66347034  0.16594131  1
  Te2-  Te192  1  0.65370147  0.66624751  0.50942844  1
  Te2-  Te193  1  0.66672457  0.65496074  0.82833155  1
  Pb2+  Pb194  1  0.33814284  -0.00107245  0.33482702  1
  Pb2+  Pb195  1  0.83248751  0.50306857  0.66508014  1
  Pb2+  Pb196  1  0.49465106  0.48851273  0.32720088  1
  Pb2+  Pb197  1  0.32489579  0.83138196  0.16890385  1
  Pb2+  Pb198  1  0.66510993  0.66490191  0.33896522  1
  Pb2+  Pb199  1  0.66447153  0.33900239  0.67373032  1
  Pb2+  Pb200  1  0.50707347  0.00163963  0.49888831  1
  Pb2+  Pb201  1  0.83351577  0.16060947  0.00434884  1
  Pb2+  Pb202  1  0.17030487  0.50058436  0.66297982  1
  Pb2+  Pb203  1  0.16423776  0.16518520  0.67274772  1
  Pb2+  Pb204  1  0.66910744  0.00892103  0.33405312  1
  Pb2+  Pb205  1  0.17577233  0.33204883  0.49931227  1
  Pb2+  Pb206  1  0.50015224  -0.01086185  0.83692714  1
  Pb2+  Pb207  1  -0.00133749  0.82493662  0.83936008  1
  Pb2+  Pb208  1  0.50241006  0.00076424  0.16875101  1
  Pb2+  Pb209  1  -0.00248630  0.32742783  0.67021926  1
  Pb2+  Pb210  1  0.33210701  0.33220704  0.00373855  1
  Pb2+  Pb211  1  -0.00034772  0.33759424  0.32921011  1
  Pb2+  Pb212  1  0.15901644  0.16664961  0.32510869  1
  Pb2+  Pb213  1  0.50348062  0.83056166  0.66488213  1
  Pb2+  Pb214  1  0.16764837  0.83297924  0.67095005  1
  Pb2+  Pb215  1  0.67188962  0.17250308  0.83987072  1
