# generated using pymatgen
data_In22Ag21Sn22Bi21(Te54Pb11)2
_symmetry_space_group_name_H-M   'P 1'
_cell_length_a   19.17066888
_cell_length_b   19.13783805
_cell_length_c   19.13818000
_cell_angle_alpha   89.98838972
_cell_angle_beta   90.01514878
_cell_angle_gamma   89.99315023
_symmetry_Int_Tables_number   1
_chemical_formula_structural   In22Ag21Sn22Bi21(Te54Pb11)2
_chemical_formula_sum   'In22 Ag21 Sn22 Bi21 Te108 Pb22'
_cell_volume   7021.51372118
_cell_formula_units_Z   1
loop_
 _symmetry_equiv_pos_site_id
 _symmetry_equiv_pos_as_xyz
  1  'x, y, z'
loop_
 _atom_type_symbol
 _atom_type_oxidation_number
  In3+  3.0
  Ag+  1.0
  Sn2+  2.0
  Bi3+  3.0
  Te2-  -2.0
  Pb2+  2.0
loop_
 _atom_site_type_symbol
 _atom_site_label
 _atom_site_symmetry_multiplicity
 _atom_site_fract_x
 _atom_site_fract_y
 _atom_site_fract_z
 _atom_site_occupancy
  In3+  In0  1  0.85784137  0.31347230  0.49568829  1
  In3+  In1  1  0.83575735  0.65978179  0.83283684  1
  In3+  In2  1  0.33695510  0.16153558  0.15293290  1
  In3+  In3  1  0.31718435  0.68070032  0.33638372  1
  In3+  In4  1  0.50619701  0.00628151  0.85151199  1
  In3+  In5  1  0.48260336  0.83669941  0.67848375  1
  In3+  In6  1  0.68674536  0.67222092  -0.00603245  1
  In3+  In7  1  0.01795058  0.15954293  0.49710550  1
  In3+  In8  1  0.00240416  0.30543913  0.66559520  1
  In3+  In9  1  0.15410986  0.00290287  0.17102032  1
  In3+  In10  1  0.49963201  0.32049100  0.18249007  1
  In3+  In11  1  0.67042282  0.00341426  0.34740797  1
  In3+  In12  1  -0.00186670  0.65753932  0.00339141  1
  In3+  In13  1  0.50298356  0.66421670  0.50956839  1
  In3+  In14  1  0.86398763  0.00140521  0.50020521  1
  In3+  In15  1  0.48107431  0.32366104  0.83246458  1
  In3+  In16  1  0.15367323  0.47360253  0.00213452  1
  In3+  In17  1  0.84002197  0.83863046  -0.00642812  1
  In3+  In18  1  0.31559685  0.16475463  0.83420418  1
  In3+  In19  1  0.16501097  0.68528076  0.83537393  1
  In3+  In20  1  0.83408050  0.33689152  0.85250779  1
  In3+  In21  1  0.00168447  0.16477113  0.85544226  1
  Ag+  Ag22  1  0.86230127  0.30066323  0.14155865  1
  Ag+  Ag23  1  0.48743634  0.16650809  -0.00105568  1
  Ag+  Ag24  1  0.47157107  0.16194915  0.36128129  1
  Ag+  Ag25  1  0.83668350  0.85591107  0.35624187  1
  Ag+  Ag26  1  0.16868952  0.31193522  0.48450429  1
  Ag+  Ag27  1  0.35716076  0.32559811  0.65952892  1
  Ag+  Ag28  1  0.13993011  0.86281677  0.65266997  1
  Ag+  Ag29  1  0.83172811  0.14115102  -0.02225491  1
  Ag+  Ag30  1  0.16880859  0.01736100  0.47445710  1
  Ag+  Ag31  1  0.18746980  0.15723026  0.01388439  1
  Ag+  Ag32  1  0.81343149  0.50191560  0.02010599  1
  Ag+  Ag33  1  0.01927859  -0.00295435  0.64958292  1
  Ag+  Ag34  1  0.01036690  0.81154827  0.52661809  1
  Ag+  Ag35  1  0.30866128  0.02256249  0.00336896  1
  Ag+  Ag36  1  -0.02664080  0.16890464  0.15728015  1
  Ag+  Ag37  1  0.02251883  -0.01519594  0.35188401  1
  Ag+  Ag38  1  0.47056352  0.46917959  0.66509965  1
  Ag+  Ag39  1  0.35105014  0.16087418  0.46937319  1
  Ag+  Ag40  1  -0.02366222  0.52059857  0.16874307  1
  Ag+  Ag41  1  -0.00199733  0.81083057  0.81503712  1
  Ag+  Ag42  1  0.69151498  0.02448386  -0.00482374  1
  Sn2+  Sn43  1  0.00193404  0.84169526  0.16641954  1
  Sn2+  Sn44  1  0.33044811  0.32952476  0.34951426  1
  Sn2+  Sn45  1  0.65689283  0.16654174  0.49774887  1
  Sn2+  Sn46  1  0.66951149  0.16288061  0.84135539  1
  Sn2+  Sn47  1  0.84171628  0.50178853  0.32889876  1
  Sn2+  Sn48  1  0.67710703  0.33824354  0.66597451  1
  Sn2+  Sn49  1  0.50055257  0.66131402  0.83906482  1
  Sn2+  Sn50  1  0.47800156  -0.00382446  0.49826269  1
  Sn2+  Sn51  1  0.51060190  0.84550260  0.34395768  1
  Sn2+  Sn52  1  0.15951291  0.17017533  0.32977097  1
  Sn2+  Sn53  1  0.17047475  0.16654003  0.66219748  1
  Sn2+  Sn54  1  0.82937411  0.67416170  0.49909921  1
  Sn2+  Sn55  1  0.66924865  0.50123889  0.16661035  1
  Sn2+  Sn56  1  0.67816636  0.84160685  0.49581061  1
  Sn2+  Sn57  1  0.66184313  0.49359750  0.83493790  1
  Sn2+  Sn58  1  0.16273550  0.84294604  -0.00702110  1
  Sn2+  Sn59  1  0.83667781  0.00028036  0.82551026  1
  Sn2+  Sn60  1  0.66313723  0.66763274  0.32886253  1
  Sn2+  Sn61  1  0.16420540  -0.00110558  0.83150263  1
  Sn2+  Sn62  1  -0.01199502  0.68793149  0.33045628  1
  Sn2+  Sn63  1  0.66800442  0.84060936  0.16860026  1
  Sn2+  Sn64  1  0.50737484  0.49471953  -0.01138248  1
  Bi3+  Bi65  1  0.33116508  0.49233960  0.49950229  1
  Bi3+  Bi66  1  0.50053993  0.66407204  0.16827763  1
  Bi3+  Bi67  1  0.00212202  -0.00113251  0.00170998  1
  Bi3+  Bi68  1  0.66399534  0.16509449  0.16456390  1
  Bi3+  Bi69  1  0.83367170  0.83758011  0.66844229  1
  Bi3+  Bi70  1  0.83393359  0.50105004  0.66288732  1
  Bi3+  Bi71  1  0.32842614  0.00710687  0.67110238  1
  Bi3+  Bi72  1  0.83106771  0.66791563  0.16799841  1
  Bi3+  Bi73  1  0.16136670  0.49948649  0.67104924  1
  Bi3+  Bi74  1  0.15959213  0.33124901  0.83173197  1
  Bi3+  Bi75  1  0.33918358  0.49701128  0.16553645  1
  Bi3+  Bi76  1  0.50103713  0.15899844  0.67560347  1
  Bi3+  Bi77  1  0.33463450  0.66820943  0.00003710  1
  Bi3+  Bi78  1  0.16744483  0.66818447  0.50365552  1
  Bi3+  Bi79  1  -0.00367665  0.32839914  0.33146212  1
  Bi3+  Bi80  1  -0.00163621  0.33109419  0.00471035  1
  Bi3+  Bi81  1  0.33471558  0.83664476  0.16625768  1
  Bi3+  Bi82  1  0.83090264  0.16734889  0.33905986  1
  Bi3+  Bi83  1  0.66714098  0.32853880  0.33694880  1
  Bi3+  Bi84  1  0.66851659  0.66761094  0.66766014  1
  Bi3+  Bi85  1  0.50348415  0.00162301  0.16353668  1
  Te2-  Te86  1  0.18182154  0.15609351  0.16133013  1
  Te2-  Te87  1  0.16804574  0.16611447  0.50007863  1
  Te2-  Te88  1  0.15985642  0.16859517  0.83285764  1
  Te2-  Te89  1  0.17848164  0.49876897  0.15823629  1
  Te2-  Te90  1  0.16913774  0.50667998  0.50227125  1
  Te2-  Te91  1  0.16629034  0.49398963  0.83933177  1
  Te2-  Te92  1  0.17186768  0.84284752  0.16682425  1
  Te2-  Te93  1  0.15871926  0.82711411  0.50797250  1
  Te2-  Te94  1  0.15074154  0.83605838  0.82544603  1
  Te2-  Te95  1  0.49713876  0.16792263  0.15229524  1
  Te2-  Te96  1  0.49324572  0.16334537  0.50945621  1
  Te2-  Te97  1  0.50856136  0.16747486  0.83972670  1
  Te2-  Te98  1  0.50166135  0.50093403  0.16434634  1
  Te2-  Te99  1  0.49325474  0.50544919  0.51396613  1
  Te2-  Te100  1  0.50031133  0.49378514  0.81734820  1
  Te2-  Te101  1  0.49948135  0.83123517  0.17285615  1
  Te2-  Te102  1  0.49683591  0.83150692  0.49720397  1
  Te2-  Te103  1  0.50030091  0.83710786  0.83170444  1
  Te2-  Te104  1  0.82572193  0.16370251  0.17650846  1
  Te2-  Te105  1  0.82397328  0.15914293  0.50012736  1
  Te2-  Te106  1  0.84027516  0.17224307  0.83263192  1
  Te2-  Te107  1  0.82967132  0.50541367  0.16912427  1
  Te2-  Te108  1  0.83458689  0.51030022  0.49981935  1
  Te2-  Te109  1  0.83257848  0.49722026  0.82504052  1
  Te2-  Te110  1  0.83409316  0.82731063  0.15167620  1
  Te2-  Te111  1  0.84731881  0.84168849  0.50354445  1
  Te2-  Te112  1  0.84628816  0.82946459  0.83765547  1
  Te2-  Te113  1  0.16334417  0.00671594  -0.00307893  1
  Te2-  Te114  1  0.16657433  0.00258883  0.32656806  1
  Te2-  Te115  1  0.16718834  0.00531113  0.67265993  1
  Te2-  Te116  1  0.16213943  0.31147277  -0.00419689  1
  Te2-  Te117  1  0.16297923  0.33063504  0.33674822  1
  Te2-  Te118  1  0.15076926  0.33670278  0.67089682  1
  Te2-  Te119  1  0.17101797  0.67327507  -0.00873608  1
  Te2-  Te120  1  0.15922116  0.66701214  0.33199403  1
  Te2-  Te121  1  0.16878673  0.66399545  0.67236528  1
  Te2-  Te122  1  0.50354299  0.00960197  0.00094690  1
  Te2-  Te123  1  0.50433173  0.01329207  0.32886870  1
  Te2-  Te124  1  0.49417771  -0.00518114  0.66643914  1
  Te2-  Te125  1  0.50039239  0.32660831  -0.01600701  1
  Te2-  Te126  1  0.50136944  0.32025090  0.33624841  1
  Te2-  Te127  1  0.50494831  0.32573273  0.67772396  1
  Te2-  Te128  1  0.49779067  0.66629115  0.00178920  1
  Te2-  Te129  1  0.50714314  0.66971096  0.33044769  1
  Te2-  Te130  1  0.50570647  0.67737296  0.66786301  1
  Te2-  Te131  1  0.83734990  -0.00672356  -0.00298786  1
  Te2-  Te132  1  0.82597396  0.00311608  0.34233881  1
  Te2-  Te133  1  0.83387382  -0.00086737  0.66170521  1
  Te2-  Te134  1  0.83782044  0.35221853  0.00604387  1
  Te2-  Te135  1  0.83085103  0.33293416  0.33748939  1
  Te2-  Te136  1  0.84493933  0.33878121  0.65406909  1
  Te2-  Te137  1  0.83797777  0.64907776  0.00057713  1
  Te2-  Te138  1  0.82915015  0.66814377  0.33013941  1
  Te2-  Te139  1  0.83277098  0.67098012  0.66741092  1
  Te2-  Te140  1  -0.01819257  0.16854217  0.00775759  1
  Te2-  Te141  1  -0.00561465  0.16700183  0.34396751  1
  Te2-  Te142  1  0.00109929  0.15246903  0.65311963  1
  Te2-  Te143  1  0.00279137  0.49964920  0.01423125  1
  Te2-  Te144  1  0.00009408  0.49232756  0.31847653  1
  Te2-  Te145  1  -0.00162739  0.50941139  0.66670418  1
  Te2-  Te146  1  0.00075416  0.83355109  0.00530352  1
  Te2-  Te147  1  -0.01421039  0.84398239  0.32425665  1
  Te2-  Te148  1  -0.00513819  0.84793690  0.67067510  1
  Te2-  Te149  1  0.33786708  0.16641575  -0.00773730  1
  Te2-  Te150  1  0.32965271  0.17362949  0.32479554  1
  Te2-  Te151  1  0.34026825  0.17129749  0.67866647  1
  Te2-  Te152  1  0.34226823  0.50352491  0.00141866  1
  Te2-  Te153  1  0.33764738  0.49295358  0.33292174  1
  Te2-  Te154  1  0.32475549  0.48917582  0.66332205  1
  Te2-  Te155  1  0.33172392  0.83093731  0.00345413  1
  Te2-  Te156  1  0.33355687  0.83930948  0.33028497  1
  Te2-  Te157  1  0.33034157  0.83877558  0.66879752  1
  Te2-  Te158  1  0.68625388  0.17076960  0.00250607  1
  Te2-  Te159  1  0.66488463  0.16424969  0.32967778  1
  Te2-  Te160  1  0.66349565  0.16786330  0.66739266  1
  Te2-  Te161  1  0.66590904  0.50432725  -0.00406730  1
  Te2-  Te162  1  0.66746517  0.49473009  0.33368501  1
  Te2-  Te163  1  0.67095708  0.50588674  0.66735418  1
  Te2-  Te164  1  0.67373847  0.82293312  -0.00192244  1
  Te2-  Te165  1  0.68045509  0.84207307  0.33300234  1
  Te2-  Te166  1  0.67088731  0.83077427  0.66297295  1
  Te2-  Te167  1  0.00185868  0.01424834  0.16473371  1
  Te2-  Te168  1  0.01533742  0.00529636  0.49687966  1
  Te2-  Te169  1  -0.00579443  0.01167913  0.84065190  1
  Te2-  Te170  1  0.00518830  0.31916683  0.16887924  1
  Te2-  Te171  1  0.01298617  0.32832815  0.49796457  1
  Te2-  Te172  1  -0.00554077  0.32747081  0.83263492  1
  Te2-  Te173  1  -0.00109031  0.66902944  0.16073485  1
  Te2-  Te174  1  0.00212697  0.66865252  0.49355665  1
  Te2-  Te175  1  0.00331591  0.66620979  0.84562818  1
  Te2-  Te176  1  0.34103713  0.00183562  0.15085322  1
  Te2-  Te177  1  0.32047322  0.01347777  0.50397259  1
  Te2-  Te178  1  0.33816196  0.00884378  0.83688458  1
  Te2-  Te179  1  0.34222130  0.33318766  0.16737056  1
  Te2-  Te180  1  0.32148766  0.32897377  0.50937816  1
  Te2-  Te181  1  0.32651456  0.32661796  0.82291976  1
  Te2-  Te182  1  0.33708352  0.66741478  0.16844483  1
  Te2-  Te183  1  0.33402962  0.66456489  0.49657409  1
  Te2-  Te184  1  0.33385715  0.67040619  0.83480983  1
  Te2-  Te185  1  0.66450363  0.00022384  0.14759660  1
  Te2-  Te186  1  0.65377615  -0.00075566  0.49934031  1
  Te2-  Te187  1  0.66754711  0.00121781  0.84476957  1
  Te2-  Te188  1  0.65598940  0.33157454  0.17195721  1
  Te2-  Te189  1  0.66053085  0.33094907  0.49919901  1
  Te2-  Te190  1  0.68280722  0.32996111  0.82767721  1
  Te2-  Te191  1  0.66485200  0.66923591  0.16026328  1
  Te2-  Te192  1  0.66137332  0.67169557  0.50129521  1
  Te2-  Te193  1  0.66623120  0.66449575  0.83428652  1
  Pb2+  Pb194  1  0.83438674  0.16979496  0.66906001  1
  Pb2+  Pb195  1  -0.00143425  0.49741278  0.83817465  1
  Pb2+  Pb196  1  0.00366012  0.67723873  0.66749011  1
  Pb2+  Pb197  1  0.83407694  -0.00352140  0.17030541  1
  Pb2+  Pb198  1  0.33284508  0.33477625  -0.00139760  1
  Pb2+  Pb199  1  0.33478441  0.49992919  0.83331151  1
  Pb2+  Pb200  1  0.50219589  0.49814336  0.33530858  1
  Pb2+  Pb201  1  0.66777512  0.49904377  0.50149674  1
  Pb2+  Pb202  1  0.48944603  0.33288432  0.50553198  1
  Pb2+  Pb203  1  -0.00042209  0.49672252  0.49225793  1
  Pb2+  Pb204  1  0.16716022  0.67011263  0.15816008  1
  Pb2+  Pb205  1  0.66678655  0.33326453  -0.00014284  1
  Pb2+  Pb206  1  0.67405730  0.83297809  0.83158797  1
  Pb2+  Pb207  1  0.66653315  0.00056851  0.67023592  1
  Pb2+  Pb208  1  0.15545899  0.83435205  0.34083881  1
  Pb2+  Pb209  1  0.33689355  0.65992626  0.66461104  1
  Pb2+  Pb210  1  0.33704621  0.00634425  0.32595996  1
  Pb2+  Pb211  1  0.32525567  0.84216672  0.50142080  1
  Pb2+  Pb212  1  0.16815449  0.49855050  0.32917382  1
  Pb2+  Pb213  1  0.16933104  0.32752912  0.16638708  1
  Pb2+  Pb214  1  0.32385648  0.84170752  0.83633312  1
  Pb2+  Pb215  1  0.50274461  0.84148382  0.00265690  1
