# generated using pymatgen
data_In22Ag21Sn22Bi21(Te54Pb11)2
_symmetry_space_group_name_H-M   'P 1'
_cell_length_a   19.17432594
_cell_length_b   19.15445055
_cell_length_c   19.15811033
_cell_angle_alpha   90.00633373
_cell_angle_beta   89.99673936
_cell_angle_gamma   90.00068964
_symmetry_Int_Tables_number   1
_chemical_formula_structural   In22Ag21Sn22Bi21(Te54Pb11)2
_chemical_formula_sum   'In22 Ag21 Sn22 Bi21 Te108 Pb22'
_cell_volume   7036.26959098
_cell_formula_units_Z   1
loop_
 _symmetry_equiv_pos_site_id
 _symmetry_equiv_pos_as_xyz
  1  'x, y, z'
loop_
 _atom_type_symbol
 _atom_type_oxidation_number
  In3+  3.0
  Ag+  1.0
  Sn2+  2.0
  Bi3+  3.0
  Te2-  -2.0
  Pb2+  2.0
loop_
 _atom_site_type_symbol
 _atom_site_label
 _atom_site_symmetry_multiplicity
 _atom_site_fract_x
 _atom_site_fract_y
 _atom_site_fract_z
 _atom_site_occupancy
  In3+  In0  1  0.31639594  0.31600309  0.66232685  1
  In3+  In1  1  0.35133477  0.65029922  0.34291929  1
  In3+  In2  1  0.49892062  0.00063378  0.82414056  1
  In3+  In3  1  0.16451788  0.13523747  0.67584925  1
  In3+  In4  1  0.84528360  0.33370839  0.16728376  1
  In3+  In5  1  0.17871021  0.83655355  0.32368735  1
  In3+  In6  1  0.16569824  0.84194101  0.00015294  1
  In3+  In7  1  0.17712903  0.30341395  0.16477848  1
  In3+  In8  1  -0.01539195  0.83341519  0.81630680  1
  In3+  In9  1  0.35108943  0.83612155  0.17890487  1
  In3+  In10  1  0.01556205  0.84124199  0.16936770  1
  In3+  In11  1  0.51036695  0.84244950  0.33766259  1
  In3+  In12  1  0.00030776  0.17342184  0.84758039  1
  In3+  In13  1  0.02826649  0.50093331  0.49563242  1
  In3+  In14  1  0.80633994  0.66809418  0.50081011  1
  In3+  In15  1  0.00659372  -0.00000355  0.00184095  1
  In3+  In16  1  0.34431201  0.16957031  0.84446669  1
  In3+  In17  1  0.02180943  0.33041709  0.00293124  1
  In3+  In18  1  0.67009418  0.85439268  0.16253677  1
  In3+  In19  1  0.67423954  0.01630870  0.33928501  1
  In3+  In20  1  0.48895299  0.47906374  0.33397931  1
  In3+  In21  1  0.01822833  0.32681946  0.33155827  1
  Ag+  Ag22  1  0.36245864  -0.02896263  0.64191635  1
  Ag+  Ag23  1  0.46850291  0.13651417  0.29835084  1
  Ag+  Ag24  1  -0.02072573  0.18729505  0.16642652  1
  Ag+  Ag25  1  0.52581793  0.16322341  -0.01460367  1
  Ag+  Ag26  1  0.80377623  0.15044869  0.30182044  1
  Ag+  Ag27  1  0.34597291  0.49978340  0.53161659  1
  Ag+  Ag28  1  0.51409545  0.86062900  0.69096727  1
  Ag+  Ag29  1  0.46779113  0.49653853  0.63480142  1
  Ag+  Ag30  1  0.83512429  0.69094228  0.86269867  1
  Ag+  Ag31  1  0.14874538  0.00501914  0.16784269  1
  Ag+  Ag32  1  0.34738584  0.17584750  0.19431578  1
  Ag+  Ag33  1  0.64009326  0.83888067  0.52386841  1
  Ag+  Ag34  1  0.64287173  0.19155063  0.83212112  1
  Ag+  Ag35  1  0.49271707  0.68719163  0.48802227  1
  Ag+  Ag36  1  0.32085461  0.47281368  0.18409591  1
  Ag+  Ag37  1  0.49137158  -0.01521599  0.16658976  1
  Ag+  Ag38  1  0.19301196  0.83624194  0.63187702  1
  Ag+  Ag39  1  0.33425502  0.30942510  0.01924014  1
  Ag+  Ag40  1  0.80550791  0.80627074  0.65398367  1
  Ag+  Ag41  1  0.68891006  0.33130340  -0.00578029  1
  Ag+  Ag42  1  0.31971940  0.31586070  0.31442487  1
  Sn2+  Sn43  1  0.16858152  0.51379852  0.66531949  1
  Sn2+  Sn44  1  0.33887914  0.00705056  0.32906233  1
  Sn2+  Sn45  1  0.33544108  0.49680086  0.84289385  1
  Sn2+  Sn46  1  0.82805887  0.00083518  0.83368489  1
  Sn2+  Sn47  1  0.50118196  0.33510566  0.84281156  1
  Sn2+  Sn48  1  0.66061826  0.65612599  0.00241319  1
  Sn2+  Sn49  1  -0.00610152  0.82346063  0.49917420  1
  Sn2+  Sn50  1  -0.00426159  0.16396203  0.48906944  1
  Sn2+  Sn51  1  0.64845642  0.16935157  0.16276947  1
  Sn2+  Sn52  1  0.66353774  0.67109747  0.33250905  1
  Sn2+  Sn53  1  0.34331296  0.00547278  0.01234502  1
  Sn2+  Sn54  1  0.83302907  0.66756074  0.17540083  1
  Sn2+  Sn55  1  0.17213961  0.66348777  0.16509695  1
  Sn2+  Sn56  1  -0.00394904  0.67343995  0.66298409  1
  Sn2+  Sn57  1  0.50604747  0.66512272  0.81834553  1
  Sn2+  Sn58  1  0.65898818  0.01379112  0.00471496  1
  Sn2+  Sn59  1  0.66285981  0.50037204  0.83166378  1
  Sn2+  Sn60  1  0.17636179  0.67161174  0.50122494  1
  Sn2+  Sn61  1  0.82845327  0.33369384  0.83566432  1
  Sn2+  Sn62  1  0.83139193  0.49613512  -0.00597222  1
  Sn2+  Sn63  1  0.17489587  -0.00314652  0.83922734  1
  Sn2+  Sn64  1  0.65892784  0.32974440  0.67018926  1
  Bi3+  Bi65  1  0.00096097  0.00013896  0.67543249  1
  Bi3+  Bi66  1  0.16598165  0.16100464  0.32994493  1
  Bi3+  Bi67  1  0.00191349  0.66660656  0.33397597  1
  Bi3+  Bi68  1  0.33414566  0.17104425  0.50551238  1
  Bi3+  Bi69  1  0.33535653  0.66915389  0.00119659  1
  Bi3+  Bi70  1  0.83188200  0.16806765  -0.00296459  1
  Bi3+  Bi71  1  0.65954206  0.66225794  0.67010640  1
  Bi3+  Bi72  1  0.83550084  0.50089612  0.66267754  1
  Bi3+  Bi73  1  0.33661493  0.66920369  0.66656362  1
  Bi3+  Bi74  1  -0.00384172  0.50260540  0.83071226  1
  Bi3+  Bi75  1  0.66071847  0.49392413  0.16555408  1
  Bi3+  Bi76  1  0.83021238  0.49548564  0.33069576  1
  Bi3+  Bi77  1  0.17007258  0.50239429  0.00061535  1
  Bi3+  Bi78  1  0.16432219  0.16297210  0.00012475  1
  Bi3+  Bi79  1  0.83791564  0.16824717  0.67008419  1
  Bi3+  Bi80  1  0.49905091  0.33276929  0.16406135  1
  Bi3+  Bi81  1  0.33119541  0.84025211  0.83633267  1
  Bi3+  Bi82  1  0.66595331  0.33314259  0.32545985  1
  Bi3+  Bi83  1  0.49814227  0.49385713  0.00158778  1
  Bi3+  Bi84  1  0.50176191  0.33499625  0.50475841  1
  Bi3+  Bi85  1  0.66460498  0.83009710  0.83838769  1
  Te2-  Te86  1  0.18566133  0.15308367  0.16739673  1
  Te2-  Te87  1  0.16540542  0.16908748  0.49353616  1
  Te2-  Te88  1  0.15765442  0.16361301  0.83475939  1
  Te2-  Te89  1  0.17600913  0.50110696  0.16181969  1
  Te2-  Te90  1  0.18161809  0.50316557  0.49817529  1
  Te2-  Te91  1  0.15986173  0.50201369  0.83609788  1
  Te2-  Te92  1  0.16617746  0.83651592  0.16567359  1
  Te2-  Te93  1  0.16299765  0.83328506  0.48700519  1
  Te2-  Te94  1  0.16562492  0.83562556  0.84525845  1
  Te2-  Te95  1  0.49269736  0.17371589  0.15965724  1
  Te2-  Te96  1  0.49944664  0.17097473  0.50646853  1
  Te2-  Te97  1  0.49841523  0.16176976  0.83982524  1
  Te2-  Te98  1  0.49475336  0.49843837  0.16785016  1
  Te2-  Te99  1  0.49067744  0.49678111  0.48834356  1
  Te2-  Te100  1  0.50094614  0.50221824  0.84067540  1
  Te2-  Te101  1  0.50676394  0.83621129  0.16766630  1
  Te2-  Te102  1  0.49800782  0.83451953  0.48930325  1
  Te2-  Te103  1  0.49724182  0.83511152  0.83434352  1
  Te2-  Te104  1  0.83207750  0.17637801  0.16032075  1
  Te2-  Te105  1  0.83796661  0.16874892  0.50510198  1
  Te2-  Te106  1  0.84341496  0.16709419  0.83403238  1
  Te2-  Te107  1  0.83211055  0.49445199  0.16662647  1
  Te2-  Te108  1  0.82728764  0.50789369  0.49669212  1
  Te2-  Te109  1  0.83585488  0.49636926  0.82896798  1
  Te2-  Te110  1  0.82039791  0.83068944  0.16714563  1
  Te2-  Te111  1  0.83762336  0.82255682  0.51014563  1
  Te2-  Te112  1  0.83088239  0.83267582  0.82425637  1
  Te2-  Te113  1  0.16453493  0.00074940  0.01078127  1
  Te2-  Te114  1  0.16895393  -0.00460250  0.32048213  1
  Te2-  Te115  1  0.16163093  -0.01666530  0.66986563  1
  Te2-  Te116  1  0.18315835  0.33425353  0.00550539  1
  Te2-  Te117  1  0.17327952  0.33246901  0.32451715  1
  Te2-  Te118  1  0.16604613  0.34189187  0.66687346  1
  Te2-  Te119  1  0.16922238  0.66646705  -0.00127317  1
  Te2-  Te120  1  0.16378528  0.67778024  0.33132241  1
  Te2-  Te121  1  0.16917345  0.68150083  0.66205104  1
  Te2-  Te122  1  0.50380912  0.01622284  0.01556064  1
  Te2-  Te123  1  0.50402916  -0.00307588  0.32095182  1
  Te2-  Te124  1  0.50108323  0.00600258  0.67077626  1
  Te2-  Te125  1  0.48238134  0.33275332  0.00008442  1
  Te2-  Te126  1  0.50472340  0.32877896  0.33322191  1
  Te2-  Te127  1  0.50524604  0.35052649  0.66833649  1
  Te2-  Te128  1  0.49861320  0.66539229  -0.00454967  1
  Te2-  Te129  1  0.49797825  0.67622820  0.33826919  1
  Te2-  Te130  1  0.49804784  0.64986454  0.66347165  1
  Te2-  Te131  1  0.83310056  0.00375458  -0.00533426  1
  Te2-  Te132  1  0.82959313  0.00811088  0.33287701  1
  Te2-  Te133  1  0.83893020  0.00550862  0.67152011  1
  Te2-  Te134  1  0.83584606  0.33217004  0.00634935  1
  Te2-  Te135  1  0.82944030  0.33401834  0.32403898  1
  Te2-  Te136  1  0.83088334  0.33293873  0.66650659  1
  Te2-  Te137  1  0.83186892  0.66216006  0.00612013  1
  Te2-  Te138  1  0.83589430  0.66104310  0.34108474  1
  Te2-  Te139  1  0.83030656  0.66103864  0.65831611  1
  Te2-  Te140  1  0.00261445  0.16740019  0.01370639  1
  Te2-  Te141  1  0.00529347  0.17303647  0.32001052  1
  Te2-  Te142  1  0.00542795  0.16453019  0.66240846  1
  Te2-  Te143  1  0.00300571  0.49438384  -0.00350724  1
  Te2-  Te144  1  -0.00412731  0.49794070  0.33685725  1
  Te2-  Te145  1  0.00052828  0.50340149  0.66465833  1
  Te2-  Te146  1  0.00278606  0.83809574  0.01313012  1
  Te2-  Te147  1  -0.00560355  0.83072334  0.32644626  1
  Te2-  Te148  1  0.00185379  0.83639150  0.66722297  1
  Te2-  Te149  1  0.32278283  0.16445553  -0.00745217  1
  Te2-  Te150  1  0.33096938  0.17066382  0.34317805  1
  Te2-  Te151  1  0.32008282  0.16166087  0.66600369  1
  Te2-  Te152  1  0.33319568  0.50786075  0.00090765  1
  Te2-  Te153  1  0.33673024  0.50244477  0.32702870  1
  Te2-  Te154  1  0.32679135  0.50854392  0.67947670  1
  Te2-  Te155  1  0.32733901  0.83435564  -0.00042356  1
  Te2-  Te156  1  0.33123012  0.83534609  0.33077792  1
  Te2-  Te157  1  0.33533623  0.83104776  0.67232828  1
  Te2-  Te158  1  0.67256275  0.17490694  -0.01203102  1
  Te2-  Te159  1  0.66417796  0.16913704  0.33637285  1
  Te2-  Te160  1  0.67198982  0.16794063  0.68143845  1
  Te2-  Te161  1  0.66300091  0.48900429  0.00316600  1
  Te2-  Te162  1  0.66704988  0.50057928  0.32878657  1
  Te2-  Te163  1  0.67295262  0.50072833  0.66600969  1
  Te2-  Te164  1  0.66522167  0.83231340  0.00377405  1
  Te2-  Te165  1  0.66306825  0.82889605  0.32044058  1
  Te2-  Te166  1  0.66004296  0.82762706  0.67135611  1
  Te2-  Te167  1  0.00088656  -0.00478208  0.16119084  1
  Te2-  Te168  1  0.00168589  -0.00007867  0.50301193  1
  Te2-  Te169  1  0.00164707  -0.01008432  0.84063403  1
  Te2-  Te170  1  0.00804743  0.33185317  0.16760889  1
  Te2-  Te171  1  0.00331233  0.33887943  0.49185180  1
  Te2-  Te172  1  -0.00032033  0.33546841  0.83960058  1
  Te2-  Te173  1  -0.00009689  0.66827130  0.17169263  1
  Te2-  Te174  1  0.00954649  0.65951588  0.49583847  1
  Te2-  Te175  1  -0.01428310  0.66854883  0.83280589  1
  Te2-  Te176  1  0.34229408  -0.01176593  0.17171149  1
  Te2-  Te177  1  0.33358216  0.00509658  0.50151170  1
  Te2-  Te178  1  0.33936341  0.00272632  0.83882294  1
  Te2-  Te179  1  0.33332582  0.32701460  0.16873450  1
  Te2-  Te180  1  0.34000730  0.33864876  0.51061951  1
  Te2-  Te181  1  0.33609941  0.32543992  0.81936480  1
  Te2-  Te182  1  0.33249171  0.68147419  0.16583979  1
  Te2-  Te183  1  0.34261477  0.65731514  0.49893080  1
  Te2-  Te184  1  0.33418123  0.67264840  0.83506009  1
  Te2-  Te185  1  0.66670135  0.00700380  0.17376728  1
  Te2-  Te186  1  0.66774987  -0.01326349  0.49377852  1
  Te2-  Te187  1  0.65820007  -0.00896559  0.83978737  1
  Te2-  Te188  1  0.66328701  0.33272962  0.16074891  1
  Te2-  Te189  1  0.66467899  0.33277136  0.49575465  1
  Te2-  Te190  1  0.66788241  0.33584156  0.84039607  1
  Te2-  Te191  1  0.66716889  0.65560887  0.16558353  1
  Te2-  Te192  1  0.65365216  0.68138426  0.50392738  1
  Te2-  Te193  1  0.67743898  0.66886615  0.83444176  1
  Pb2+  Pb194  1  0.65602966  0.50831519  0.49886489  1
  Pb2+  Pb195  1  0.17335696  0.33491132  0.49752311  1
  Pb2+  Pb196  1  0.49914300  0.66561328  0.16814246  1
  Pb2+  Pb197  1  0.16078733  0.67071371  0.82743480  1
  Pb2+  Pb198  1  0.33305012  0.82830270  0.49977041  1
  Pb2+  Pb199  1  0.66978356  -0.00187533  0.67036747  1
  Pb2+  Pb200  1  0.83477592  -0.00356206  0.50365388  1
  Pb2+  Pb201  1  0.00717498  0.49813946  0.16675985  1
  Pb2+  Pb202  1  -0.00226094  0.33330903  0.66823339  1
  Pb2+  Pb203  1  0.82818953  0.83389874  0.33906056  1
  Pb2+  Pb204  1  0.83595848  0.00281541  0.16261548  1
  Pb2+  Pb205  1  0.83361687  0.83312166  -0.00447242  1
  Pb2+  Pb206  1  0.83446948  0.33805777  0.49458679  1
  Pb2+  Pb207  1  0.16870453  0.00166313  0.49563061  1
  Pb2+  Pb208  1  0.49546540  0.18174497  0.67205366  1
  Pb2+  Pb209  1  0.67036445  0.16427480  0.50726895  1
  Pb2+  Pb210  1  0.50082391  0.00342945  0.49044237  1
  Pb2+  Pb211  1  0.00139617  0.00192232  0.33400371  1
  Pb2+  Pb212  1  0.17143589  0.33250468  0.83631284  1
  Pb2+  Pb213  1  -0.00036274  0.66820597  0.00092450  1
  Pb2+  Pb214  1  0.49683289  0.84701047  0.00093987  1
  Pb2+  Pb215  1  0.16880482  0.50889674  0.32991425  1
