# generated using pymatgen
data_In22Ag21Sn22Bi21(Te54Pb11)2
_symmetry_space_group_name_H-M   'P 1'
_cell_length_a   19.10760001
_cell_length_b   19.12923415
_cell_length_c   19.13458925
_cell_angle_alpha   90.00849817
_cell_angle_beta   89.99622527
_cell_angle_gamma   89.99924561
_symmetry_Int_Tables_number   1
_chemical_formula_structural   In22Ag21Sn22Bi21(Te54Pb11)2
_chemical_formula_sum   'In22 Ag21 Sn22 Bi21 Te108 Pb22'
_cell_volume   6993.95547048
_cell_formula_units_Z   1
loop_
 _symmetry_equiv_pos_site_id
 _symmetry_equiv_pos_as_xyz
  1  'x, y, z'
loop_
 _atom_type_symbol
 _atom_type_oxidation_number
  In3+  3.0
  Ag+  1.0
  Sn2+  2.0
  Bi3+  3.0
  Te2-  -2.0
  Pb2+  2.0
loop_
 _atom_site_type_symbol
 _atom_site_label
 _atom_site_symmetry_multiplicity
 _atom_site_fract_x
 _atom_site_fract_y
 _atom_site_fract_z
 _atom_site_occupancy
  In3+  In0  1  0.67972457  0.00161229  0.33254054  1
  In3+  In1  1  0.83650615  0.51863004  0.32783487  1
  In3+  In2  1  0.67749043  0.18923854  0.16456468  1
  In3+  In3  1  -0.00413245  0.82105117  0.49902333  1
  In3+  In4  1  0.82528488  0.49706932  -0.00993229  1
  In3+  In5  1  0.34146778  0.33834972  0.64624660  1
  In3+  In6  1  0.83387114  0.35074454  0.83325507  1
  In3+  In7  1  0.36069137  0.34453532  -0.00221819  1
  In3+  In8  1  0.52452648  0.33443441  0.16748482  1
  In3+  In9  1  0.84123019  0.00328719  0.50270736  1
  In3+  In10  1  0.33201865  0.64307013  0.66647762  1
  In3+  In11  1  0.17300471  0.82089711  0.67022760  1
  In3+  In12  1  -0.00592327  0.00131814  -0.01962332  1
  In3+  In13  1  0.83277833  0.63825939  0.15761323  1
  In3+  In14  1  -0.00355372  -0.00622055  0.66388753  1
  In3+  In15  1  0.50116199  0.02115956  0.49959839  1
  In3+  In16  1  -0.00836352  0.16541141  0.83443042  1
  In3+  In17  1  0.67476238  0.80724920  0.16840882  1
  In3+  In18  1  -0.00522029  0.33799573  0.67282036  1
  In3+  In19  1  -0.01391768  0.50154307  0.50993417  1
  In3+  In20  1  0.52571516  0.50075638  0.35439796  1
  In3+  In21  1  0.16157758  0.83867327  0.33788622  1
  Ag+  Ag22  1  0.84941846  0.51563268  0.68918936  1
  Ag+  Ag23  1  0.82914320  0.65689820  0.81364353  1
  Ag+  Ag24  1  0.69574568  0.66936521  0.68957365  1
  Ag+  Ag25  1  0.82624094  0.33359152  0.18870225  1
  Ag+  Ag26  1  0.35440476  0.50828248  0.83920749  1
  Ag+  Ag27  1  0.66827446  0.64499291  0.32600420  1
  Ag+  Ag28  1  0.00715313  -0.00571284  0.31661388  1
  Ag+  Ag29  1  0.29817770  0.20572810  0.80995676  1
  Ag+  Ag30  1  0.33276889  0.52320081  0.47558689  1
  Ag+  Ag31  1  0.52720755  0.51766251  0.02436011  1
  Ag+  Ag32  1  0.14631507  0.13856980  0.36056100  1
  Ag+  Ag33  1  0.64596476  0.50084417  0.13905001  1
  Ag+  Ag34  1  -0.00411966  0.80462495  0.80272439  1
  Ag+  Ag35  1  0.66700782  0.64367105  0.02392824  1
  Ag+  Ag36  1  0.81134901  0.19584186  -0.00353325  1
  Ag+  Ag37  1  0.53108698  0.80100969  0.64560678  1
  Ag+  Ag38  1  -0.01155705  0.69208326  0.67483977  1
  Ag+  Ag39  1  -0.00585782  0.50763061  0.85727172  1
  Ag+  Ag40  1  0.35370941  0.17371360  0.47477656  1
  Ag+  Ag41  1  0.67083332  0.34752842  -0.01212826  1
  Ag+  Ag42  1  0.48165649  0.34376370  0.47168639  1
  Sn2+  Sn43  1  0.17587112  0.33475136  0.49961212  1
  Sn2+  Sn44  1  -0.00054597  0.32723303  0.33567133  1
  Sn2+  Sn45  1  0.17040429  0.16723940  0.66443582  1
  Sn2+  Sn46  1  0.34465026  0.65848181  -0.00614142  1
  Sn2+  Sn47  1  0.83003241  0.33384167  0.50318341  1
  Sn2+  Sn48  1  0.50277033  0.33274927  0.83497553  1
  Sn2+  Sn49  1  0.83036808  0.01068240  0.16944914  1
  Sn2+  Sn50  1  0.16346562  0.82736939  -0.00407594  1
  Sn2+  Sn51  1  0.16986507  0.34050198  0.83165775  1
  Sn2+  Sn52  1  0.32696155  0.33546978  0.32745628  1
  Sn2+  Sn53  1  0.17340380  0.00226290  0.83195492  1
  Sn2+  Sn54  1  -0.01054296  0.67189044  -0.01618916  1
  Sn2+  Sn55  1  0.66384757  0.82376207  0.49743147  1
  Sn2+  Sn56  1  0.67393053  0.82350188  0.84076686  1
  Sn2+  Sn57  1  0.83112967  0.82013123  0.67869729  1
  Sn2+  Sn58  1  0.32947721  0.00473791  0.33671690  1
  Sn2+  Sn59  1  0.84265263  0.16468841  0.32075482  1
  Sn2+  Sn60  1  -0.00590960  0.83865743  0.16943140  1
  Sn2+  Sn61  1  0.34192705  0.49509912  0.16055121  1
  Sn2+  Sn62  1  0.66779444  0.50860133  0.82973128  1
  Sn2+  Sn63  1  0.65747073  0.50119283  0.50588005  1
  Sn2+  Sn64  1  -0.00745922  0.33513018  -0.00340116  1
  Bi3+  Bi65  1  0.83239663  0.83792364  0.33616997  1
  Bi3+  Bi66  1  0.50528199  0.49741603  0.67012043  1
  Bi3+  Bi67  1  0.33042120  0.16932229  0.16485690  1
  Bi3+  Bi68  1  0.66810618  0.34085883  0.66985882  1
  Bi3+  Bi69  1  0.49825522  0.16539135  0.67306681  1
  Bi3+  Bi70  1  -0.00053241  0.17450564  0.50620830  1
  Bi3+  Bi71  1  0.50173148  -0.00210212  0.83140411  1
  Bi3+  Bi72  1  0.33082010  0.00544743  0.66885919  1
  Bi3+  Bi73  1  0.50263272  0.17093067  -0.00006443  1
  Bi3+  Bi74  1  0.16221890  0.49698940  0.33684798  1
  Bi3+  Bi75  1  0.16075586  0.33463414  0.16469030  1
  Bi3+  Bi76  1  0.00037278  0.49908551  0.16729213  1
  Bi3+  Bi77  1  0.33209062  0.00313788  -0.00014928  1
  Bi3+  Bi78  1  0.83498176  0.82929313  0.00266926  1
  Bi3+  Bi79  1  0.16703533  0.16511695  -0.00240874  1
  Bi3+  Bi80  1  0.83381700  0.16919345  0.67215780  1
  Bi3+  Bi81  1  0.15739485  0.66569914  0.83384825  1
  Bi3+  Bi82  1  0.50188563  0.82657096  -0.00083988  1
  Bi3+  Bi83  1  0.49910761  0.66010542  0.50027729  1
  Bi3+  Bi84  1  0.16139141  0.49524591  0.66509864  1
  Bi3+  Bi85  1  0.33531453  0.83238301  0.16794423  1
  Te2-  Te86  1  0.16648027  0.17087805  0.16423324  1
  Te2-  Te87  1  0.16132825  0.17209452  0.50297918  1
  Te2-  Te88  1  0.15995778  0.16980694  0.83582148  1
  Te2-  Te89  1  0.16670142  0.49808039  0.16732697  1
  Te2-  Te90  1  0.18383125  0.49443320  0.50167168  1
  Te2-  Te91  1  0.14628190  0.50124335  0.82655296  1
  Te2-  Te92  1  0.16902370  0.83348006  0.17287685  1
  Te2-  Te93  1  0.15685147  0.83263007  0.49973762  1
  Te2-  Te94  1  0.14829444  0.82944436  0.82939293  1
  Te2-  Te95  1  0.49675531  0.17553075  0.16451496  1
  Te2-  Te96  1  0.49892978  0.17541902  0.50598670  1
  Te2-  Te97  1  0.49955762  0.16380633  0.83735864  1
  Te2-  Te98  1  0.49972342  0.48955644  0.16550481  1
  Te2-  Te99  1  0.48206729  0.49273180  0.50450966  1
  Te2-  Te100  1  0.50221005  0.49588967  0.82962944  1
  Te2-  Te101  1  0.50196390  0.83303078  0.16460990  1
  Te2-  Te102  1  0.50212336  0.82594436  0.50444507  1
  Te2-  Te103  1  0.50082020  0.83371804  0.83808651  1
  Te2-  Te104  1  0.82963568  0.18160357  0.15087412  1
  Te2-  Te105  1  0.83590753  0.16407678  0.50457440  1
  Te2-  Te106  1  0.83680259  0.16403512  0.83852354  1
  Te2-  Te107  1  0.83763684  0.48648623  0.17530992  1
  Te2-  Te108  1  0.83377761  0.49690369  0.48460564  1
  Te2-  Te109  1  0.84283870  0.50606373  0.83607517  1
  Te2-  Te110  1  0.82843666  0.83822397  0.17015890  1
  Te2-  Te111  1  0.83523522  0.84142719  0.50105928  1
  Te2-  Te112  1  0.84573641  0.82460457  0.83928745  1
  Te2-  Te113  1  0.16809897  -0.00160896  -0.00230086  1
  Te2-  Te114  1  0.15863460  -0.00564148  0.33536264  1
  Te2-  Te115  1  0.16549607  0.00067719  0.67108013  1
  Te2-  Te116  1  0.15886335  0.32740767  0.00009973  1
  Te2-  Te117  1  0.16174107  0.33525981  0.32866119  1
  Te2-  Te118  1  0.16768724  0.33455952  0.66874369  1
  Te2-  Te119  1  0.16480268  0.66706517  -0.00414224  1
  Te2-  Te120  1  0.16314390  0.66360227  0.33475168  1
  Te2-  Te121  1  0.16461097  0.66259584  0.67076880  1
  Te2-  Te122  1  0.49762668  -0.00048869  -0.00088819  1
  Te2-  Te123  1  0.49353546  0.00261687  0.34266331  1
  Te2-  Te124  1  0.49647048  0.00090633  0.66512174  1
  Te2-  Te125  1  0.51596198  0.33196741  0.00397090  1
  Te2-  Te126  1  0.49888962  0.34498489  0.32601464  1
  Te2-  Te127  1  0.50268061  0.33154690  0.67121772  1
  Te2-  Te128  1  0.51298088  0.66291825  -0.00168783  1
  Te2-  Te129  1  0.51073369  0.65581748  0.33442479  1
  Te2-  Te130  1  0.49270319  0.66073059  0.66498127  1
  Te2-  Te131  1  0.84077808  -0.00659880  0.00240047  1
  Te2-  Te132  1  0.83781755  0.00026619  0.34193845  1
  Te2-  Te133  1  0.83397339  0.00495428  0.66261252  1
  Te2-  Te134  1  0.82605460  0.34126371  -0.01189058  1
  Te2-  Te135  1  0.83848996  0.32130208  0.33610776  1
  Te2-  Te136  1  0.83134758  0.33259373  0.66921842  1
  Te2-  Te137  1  0.82160178  0.66726530  0.00866528  1
  Te2-  Te138  1  0.82329427  0.67496032  0.33046730  1
  Te2-  Te139  1  0.84157097  0.66145898  0.66520169  1
  Te2-  Te140  1  0.00471749  0.16089244  -0.00690285  1
  Te2-  Te141  1  0.00102866  0.15753555  0.34067505  1
  Te2-  Te142  1  -0.00318468  0.17392451  0.67162738  1
  Te2-  Te143  1  -0.00898357  0.50381889  0.00574433  1
  Te2-  Te144  1  -0.00231471  0.50076347  0.33281984  1
  Te2-  Te145  1  -0.00655487  0.49083685  0.66028667  1
  Te2-  Te146  1  -0.00082585  0.83846124  0.00781394  1
  Te2-  Te147  1  -0.00115921  0.84272438  0.34132138  1
  Te2-  Te148  1  -0.00059254  0.83832241  0.65800833  1
  Te2-  Te149  1  0.33577831  0.16545416  0.00167574  1
  Te2-  Te150  1  0.32688948  0.16473362  0.32836757  1
  Te2-  Te151  1  0.33638082  0.17006212  0.67304164  1
  Te2-  Te152  1  0.33506233  0.49889676  -0.00883842  1
  Te2-  Te153  1  0.32460082  0.49737734  0.32926738  1
  Te2-  Te154  1  0.33154872  0.48841789  0.68252074  1
  Te2-  Te155  1  0.33523873  0.83347568  0.00396416  1
  Te2-  Te156  1  0.33081583  0.83335143  0.33101777  1
  Te2-  Te157  1  0.32475864  0.84240682  0.66928011  1
  Te2-  Te158  1  0.66658474  0.16756268  0.00907198  1
  Te2-  Te159  1  0.66774419  0.16339912  0.32327092  1
  Te2-  Te160  1  0.66768796  0.16982572  0.66644461  1
  Te2-  Te161  1  0.67224468  0.49719778  -0.00644297  1
  Te2-  Te162  1  0.67771141  0.49815702  0.33612395  1
  Te2-  Te163  1  0.67031239  0.50414475  0.66501128  1
  Te2-  Te164  1  0.66575509  0.83129997  0.00998232  1
  Te2-  Te165  1  0.66974321  0.84215530  0.32763088  1
  Te2-  Te166  1  0.67347635  0.81966048  0.66877728  1
  Te2-  Te167  1  -0.00680984  -0.00040866  0.17041292  1
  Te2-  Te168  1  -0.00414370  0.00863797  0.51045393  1
  Te2-  Te169  1  0.00382308  0.00302758  0.82679146  1
  Te2-  Te170  1  -0.00329678  0.33615829  0.16426727  1
  Te2-  Te171  1  0.00015037  0.33762272  0.50323822  1
  Te2-  Te172  1  -0.00787246  0.32966559  0.83001919  1
  Te2-  Te173  1  -0.01151682  0.66574287  0.16541054  1
  Te2-  Te174  1  -0.00426517  0.66412085  0.50891706  1
  Te2-  Te175  1  -0.00662857  0.65874154  0.82716342  1
  Te2-  Te176  1  0.33473514  -0.00156808  0.16536266  1
  Te2-  Te177  1  0.33857324  0.01208694  0.50356437  1
  Te2-  Te178  1  0.33719884  0.00060261  0.83597528  1
  Te2-  Te179  1  0.32601604  0.33209875  0.15717486  1
  Te2-  Te180  1  0.33822489  0.32120134  0.49703688  1
  Te2-  Te181  1  0.33398414  0.34101691  0.84767100  1
  Te2-  Te182  1  0.33255055  0.66790560  0.16268866  1
  Te2-  Te183  1  0.33547711  0.66907204  0.50471967  1
  Te2-  Te184  1  0.32722311  0.65949522  0.83307476  1
  Te2-  Te185  1  0.67062976  0.00604552  0.17718669  1
  Te2-  Te186  1  0.65914245  -0.00320152  0.49273526  1
  Te2-  Te187  1  0.66483523  -0.00510113  0.83285583  1
  Te2-  Te188  1  0.67642703  0.34481682  0.16048054  1
  Te2-  Te189  1  0.66335985  0.33761168  0.50598205  1
  Te2-  Te190  1  0.67529021  0.33747296  0.83361927  1
  Te2-  Te191  1  0.67520837  0.65083464  0.17253564  1
  Te2-  Te192  1  0.65902885  0.66318689  0.49141611  1
  Te2-  Te193  1  0.67914167  0.66880873  0.83417871  1
  Pb2+  Pb194  1  0.49529033  0.17203152  0.33403292  1
  Pb2+  Pb195  1  0.67060395  0.33252416  0.33448763  1
  Pb2+  Pb196  1  0.16694993  0.00259012  0.50362754  1
  Pb2+  Pb197  1  0.66866101  0.17020151  0.83680722  1
  Pb2+  Pb198  1  0.67116715  -0.00048269  0.00577252  1
  Pb2+  Pb199  1  0.33641900  0.66259520  0.33268112  1
  Pb2+  Pb200  1  0.50172193  0.66236445  0.16503474  1
  Pb2+  Pb201  1  0.50562918  0.00343672  0.17192570  1
  Pb2+  Pb202  1  0.16144247  0.00190304  0.16622569  1
  Pb2+  Pb203  1  0.82529252  0.66745498  0.50094516  1
  Pb2+  Pb204  1  0.32483559  0.82856099  0.83469680  1
  Pb2+  Pb205  1  0.83494478  -0.00835766  0.83262453  1
  Pb2+  Pb206  1  0.15877106  0.66779490  0.16473983  1
  Pb2+  Pb207  1  0.50288451  0.83134154  0.33905758  1
  Pb2+  Pb208  1  -0.00437621  0.16824318  0.16677846  1
  Pb2+  Pb209  1  0.50773202  0.66520603  0.83104587  1
  Pb2+  Pb210  1  -0.00588060  0.67066753  0.33449741  1
  Pb2+  Pb211  1  0.66845392  0.16712917  0.49582569  1
  Pb2+  Pb212  1  0.66413153  -0.01016503  0.66189770  1
  Pb2+  Pb213  1  0.16702887  0.49541244  -0.00645170  1
  Pb2+  Pb214  1  0.16414125  0.66088938  0.50307380  1
  Pb2+  Pb215  1  0.33203852  0.84146702  0.50326376  1
