# generated using pymatgen
data_In22Ag21Sn22Bi21(Te54Pb11)2
_symmetry_space_group_name_H-M   'P 1'
_cell_length_a   19.12740670
_cell_length_b   19.14325439
_cell_length_c   19.13716830
_cell_angle_alpha   90.00114402
_cell_angle_beta   90.01081228
_cell_angle_gamma   89.98044722
_symmetry_Int_Tables_number   1
_chemical_formula_structural   In22Ag21Sn22Bi21(Te54Pb11)2
_chemical_formula_sum   'In22 Ag21 Sn22 Bi21 Te108 Pb22'
_cell_volume   7007.28055242
_cell_formula_units_Z   1
loop_
 _symmetry_equiv_pos_site_id
 _symmetry_equiv_pos_as_xyz
  1  'x, y, z'
loop_
 _atom_type_symbol
 _atom_type_oxidation_number
  In3+  3.0
  Ag+  1.0
  Sn2+  2.0
  Bi3+  3.0
  Te2-  -2.0
  Pb2+  2.0
loop_
 _atom_site_type_symbol
 _atom_site_label
 _atom_site_symmetry_multiplicity
 _atom_site_fract_x
 _atom_site_fract_y
 _atom_site_fract_z
 _atom_site_occupancy
  In3+  In0  1  0.49636857  0.18667838  -0.00692723  1
  In3+  In1  1  0.65317304  0.82242637  0.50445834  1
  In3+  In2  1  0.84353594  0.34905351  0.83067381  1
  In3+  In3  1  -0.00461875  0.66554982  0.34562538  1
  In3+  In4  1  0.01305457  0.33548573  0.33112850  1
  In3+  In5  1  0.17423399  0.17805326  0.67503387  1
  In3+  In6  1  0.49962512  0.48451870  0.66409001  1
  In3+  In7  1  0.49205345  0.65611362  0.52168060  1
  In3+  In8  1  0.18313610  0.33528611  0.51350897  1
  In3+  In9  1  0.49919415  0.33641154  0.84317751  1
  In3+  In10  1  0.83553894  0.82927377  0.32840468  1
  In3+  In11  1  0.17823533  0.81096327  -0.00280184  1
  In3+  In12  1  -0.00145356  0.81145939  0.14620335  1
  In3+  In13  1  0.84279288  0.65759732  0.84505129  1
  In3+  In14  1  0.66471699  0.19523080  0.49975710  1
  In3+  In15  1  0.00468884  0.17888774  0.51218303  1
  In3+  In16  1  0.67229281  0.48898918  0.16618744  1
  In3+  In17  1  0.17395927  0.33618558  0.14357416  1
  In3+  In18  1  0.66004957  0.34220279  0.33036340  1
  In3+  In19  1  0.51976869  0.83407396  -0.00341554  1
  In3+  In20  1  0.50018091  -0.02287336  0.50691484  1
  In3+  In21  1  0.49255001  0.50431558  -0.00917278  1
  Ag+  Ag22  1  0.30988741  0.49805213  0.48355209  1
  Ag+  Ag23  1  0.13749477  0.49156261  -0.00744940  1
  Ag+  Ag24  1  0.47255948  0.83652719  0.64750506  1
  Ag+  Ag25  1  0.85887837  0.52202508  0.66802973  1
  Ag+  Ag26  1  0.31441743  0.33456662  0.36467139  1
  Ag+  Ag27  1  0.00966046  0.48570273  0.85280690  1
  Ag+  Ag28  1  0.14364245  0.33663660  0.84305630  1
  Ag+  Ag29  1  0.66691472  0.51008996  0.52575862  1
  Ag+  Ag30  1  0.82033939  0.65254598  0.17174382  1
  Ag+  Ag31  1  0.33607634  0.19408083  0.81294835  1
  Ag+  Ag32  1  0.32049523  0.85946351  0.48533383  1
  Ag+  Ag33  1  0.33270136  0.35003218  -0.02236746  1
  Ag+  Ag34  1  0.01891840  0.03065928  0.63366993  1
  Ag+  Ag35  1  0.00301904  0.63256625  -0.00068309  1
  Ag+  Ag36  1  0.68364598  0.36211425  -0.02663031  1
  Ag+  Ag37  1  0.03230065  0.33249819  -0.02231942  1
  Ag+  Ag38  1  0.35498181  0.35568811  0.67778629  1
  Ag+  Ag39  1  0.64769030  0.83279210  0.80706868  1
  Ag+  Ag40  1  0.64074917  0.81024713  0.16866139  1
  Ag+  Ag41  1  0.02487345  0.35319660  0.68552694  1
  Ag+  Ag42  1  0.34845556  -0.03263909  0.36617383  1
  Sn2+  Sn43  1  0.51074388  0.66015719  0.16685515  1
  Sn2+  Sn44  1  0.33565710  0.83105155  0.82282712  1
  Sn2+  Sn45  1  0.31810430  0.49344800  0.83294401  1
  Sn2+  Sn46  1  0.83515945  0.82900241  -0.00359135  1
  Sn2+  Sn47  1  0.83439115  0.49739330  -0.00373466  1
  Sn2+  Sn48  1  0.50265828  -0.00444516  0.16987433  1
  Sn2+  Sn49  1  0.66541814  -0.00105802  0.00023963  1
  Sn2+  Sn50  1  0.00146750  0.01523304  0.00516429  1
  Sn2+  Sn51  1  0.83508568  0.49582613  0.34456341  1
  Sn2+  Sn52  1  0.82508107  -0.00272761  0.50561744  1
  Sn2+  Sn53  1  0.33309412  0.00404909  0.00319101  1
  Sn2+  Sn54  1  0.83334427  -0.01085784  0.17214010  1
  Sn2+  Sn55  1  0.32695860  0.65852896  -0.00120437  1
  Sn2+  Sn56  1  -0.00586929  0.50147549  0.15812394  1
  Sn2+  Sn57  1  0.16586198  0.01133743  0.83563687  1
  Sn2+  Sn58  1  0.67815874  -0.00422655  0.66641947  1
  Sn2+  Sn59  1  0.01112136  -0.00384762  0.33349012  1
  Sn2+  Sn60  1  0.33832808  0.65985506  0.66945516  1
  Sn2+  Sn61  1  0.49036477  0.33405000  0.16462268  1
  Sn2+  Sn62  1  0.17675167  0.65689454  0.49876550  1
  Sn2+  Sn63  1  0.17741696  0.17441013  -0.00958911  1
  Sn2+  Sn64  1  -0.01048964  0.49501266  0.50574540  1
  Bi3+  Bi65  1  0.66417752  0.16919169  0.16724654  1
  Bi3+  Bi66  1  0.67257237  0.66770222  0.00067873  1
  Bi3+  Bi67  1  0.67087122  0.66976047  0.33098781  1
  Bi3+  Bi68  1  0.83259308  0.16275337  0.66560892  1
  Bi3+  Bi69  1  -0.00170473  0.17113609  0.16709170  1
  Bi3+  Bi70  1  0.33169419  0.16870401  0.16478321  1
  Bi3+  Bi71  1  0.49952765  0.66761823  0.83723462  1
  Bi3+  Bi72  1  0.83336692  -0.00446457  0.83723501  1
  Bi3+  Bi73  1  0.83160975  0.33288288  0.50554096  1
  Bi3+  Bi74  1  0.32944159  -0.00482287  0.67177393  1
  Bi3+  Bi75  1  0.83805118  0.83154910  0.66333883  1
  Bi3+  Bi76  1  0.16699222  0.00354684  0.16438731  1
  Bi3+  Bi77  1  0.16671040  0.83489530  0.66848424  1
  Bi3+  Bi78  1  0.16409761  0.66207199  0.83537739  1
  Bi3+  Bi79  1  0.66475162  -0.00270666  0.33328289  1
  Bi3+  Bi80  1  0.16490889  0.83481225  0.33271130  1
  Bi3+  Bi81  1  0.16701238  0.66178618  0.16302752  1
  Bi3+  Bi82  1  0.83249023  0.16899892  0.33514903  1
  Bi3+  Bi83  1  0.16270230  0.50068643  0.32845524  1
  Bi3+  Bi84  1  -0.00304759  0.83303555  0.83626558  1
  Bi3+  Bi85  1  0.50169281  0.33814156  0.49968742  1
  Te2-  Te86  1  0.16409278  0.17000878  0.16225429  1
  Te2-  Te87  1  0.16127737  0.17289990  0.50348312  1
  Te2-  Te88  1  0.17902293  0.18290772  0.83085718  1
  Te2-  Te89  1  0.16398418  0.49635696  0.16324146  1
  Te2-  Te90  1  0.16116535  0.49631334  0.49592254  1
  Te2-  Te91  1  0.15802440  0.49846740  0.84167774  1
  Te2-  Te92  1  0.15824979  0.83396235  0.16532271  1
  Te2-  Te93  1  0.17392247  0.82805358  0.49905563  1
  Te2-  Te94  1  0.16319651  0.82845719  0.83525429  1
  Te2-  Te95  1  0.50038623  0.16655524  0.15737258  1
  Te2-  Te96  1  0.50618165  0.17613686  0.49870096  1
  Te2-  Te97  1  0.48699447  0.16808078  0.83900197  1
  Te2-  Te98  1  0.50559665  0.50050664  0.16253658  1
  Te2-  Te99  1  0.51136385  0.50383636  0.50752961  1
  Te2-  Te100  1  0.49721900  0.50631465  0.83364484  1
  Te2-  Te101  1  0.49440057  0.83489576  0.16261449  1
  Te2-  Te102  1  0.49507015  0.82127798  0.50059718  1
  Te2-  Te103  1  0.50374465  0.82887196  0.84291885  1
  Te2-  Te104  1  0.83164079  0.16733863  0.16968129  1
  Te2-  Te105  1  0.82867225  0.16616484  0.49983604  1
  Te2-  Te106  1  0.83010008  0.15878920  0.83102548  1
  Te2-  Te107  1  0.83020602  0.50334077  0.16900390  1
  Te2-  Te108  1  0.82463501  0.49594531  0.51440398  1
  Te2-  Te109  1  0.83637824  0.50203768  0.81966386  1
  Te2-  Te110  1  0.84985105  0.83140197  0.17175577  1
  Te2-  Te111  1  0.83307214  0.83190656  0.49669584  1
  Te2-  Te112  1  0.83570135  0.83158500  0.82962908  1
  Te2-  Te113  1  0.16625968  0.00680080  0.00246938  1
  Te2-  Te114  1  0.17924116  -0.00326462  0.32981287  1
  Te2-  Te115  1  0.15975046  -0.00337789  0.66869607  1
  Te2-  Te116  1  0.17913429  0.34200035  -0.00831643  1
  Te2-  Te117  1  0.16631888  0.33957250  0.34494070  1
  Te2-  Te118  1  0.16832469  0.32953024  0.66558213  1
  Te2-  Te119  1  0.15670068  0.65499731  -0.00061853  1
  Te2-  Te120  1  0.15859932  0.66688999  0.32807616  1
  Te2-  Te121  1  0.16900223  0.66894874  0.66973082  1
  Te2-  Te122  1  0.49963401  -0.01219848  0.00375539  1
  Te2-  Te123  1  0.49447475  -0.00149003  0.34124229  1
  Te2-  Te124  1  0.50050292  -0.01344855  0.66297872  1
  Te2-  Te125  1  0.49454109  0.34080830  -0.00084745  1
  Te2-  Te126  1  0.50565181  0.33543606  0.33402920  1
  Te2-  Te127  1  0.49978347  0.32840301  0.66226369  1
  Te2-  Te128  1  0.50135628  0.66603584  0.00007227  1
  Te2-  Te129  1  0.50574400  0.66619230  0.32641484  1
  Te2-  Te130  1  0.49910981  0.68644910  0.67261264  1
  Te2-  Te131  1  0.83136907  -0.00045400  0.00188429  1
  Te2-  Te132  1  0.83149398  0.00254177  0.33635446  1
  Te2-  Te133  1  0.84235104  -0.00167414  0.67080976  1
  Te2-  Te134  1  0.82577721  0.33598294  -0.01260277  1
  Te2-  Te135  1  0.82553878  0.33195438  0.33729940  1
  Te2-  Te136  1  0.83446102  0.32376291  0.67165981  1
  Te2-  Te137  1  0.83522965  0.66210593  0.00148708  1
  Te2-  Te138  1  0.83802625  0.66719154  0.32094891  1
  Te2-  Te139  1  0.83248588  0.66888690  0.66924386  1
  Te2-  Te140  1  0.00268117  0.18313175  0.00355444  1
  Te2-  Te141  1  -0.00523012  0.16959051  0.33231913  1
  Te2-  Te142  1  -0.00088101  0.17124195  0.66495908  1
  Te2-  Te143  1  -0.00914799  0.48244606  -0.00131944  1
  Te2-  Te144  1  -0.00050753  0.50350913  0.33187246  1
  Te2-  Te145  1  0.00296850  0.49668137  0.66151873  1
  Te2-  Te146  1  0.00019083  0.84189353  -0.00224337  1
  Te2-  Te147  1  0.00093649  0.82844930  0.33242504  1
  Te2-  Te148  1  0.00264807  0.83300113  0.67091590  1
  Te2-  Te149  1  0.34112316  0.16620061  0.00352780  1
  Te2-  Te150  1  0.33132365  0.18579480  0.32926108  1
  Te2-  Te151  1  0.32616053  0.15711798  0.66903428  1
  Te2-  Te152  1  0.33987202  0.49750789  -0.00122893  1
  Te2-  Te153  1  0.32763558  0.48800018  0.33644075  1
  Te2-  Te154  1  0.34310959  0.50174073  0.66890817  1
  Te2-  Te155  1  0.32656014  0.83051415  -0.00472912  1
  Te2-  Te156  1  0.32794532  0.82516897  0.34056253  1
  Te2-  Te157  1  0.32568829  0.83204887  0.65892362  1
  Te2-  Te158  1  0.65428095  0.16471416  0.00433015  1
  Te2-  Te159  1  0.66931117  0.16267499  0.33420576  1
  Te2-  Te160  1  0.66677508  0.15885033  0.66396641  1
  Te2-  Te161  1  0.66432741  0.50356098  0.00840101  1
  Te2-  Te162  1  0.67136937  0.50392578  0.32342601  1
  Te2-  Te163  1  0.65297982  0.50145276  0.67331237  1
  Te2-  Te164  1  0.67130246  0.83013745  0.02109922  1
  Te2-  Te165  1  0.67795563  0.83387867  0.31556458  1
  Te2-  Te166  1  0.67532861  0.83639337  0.66103871  1
  Te2-  Te167  1  0.00434062  0.00824912  0.16989872  1
  Te2-  Te168  1  -0.00131924  0.00334133  0.49218395  1
  Te2-  Te169  1  -0.00072427  -0.00118517  0.84109139  1
  Te2-  Te170  1  0.00514678  0.33222535  0.17607715  1
  Te2-  Te171  1  -0.00861642  0.33079642  0.49156899  1
  Te2-  Te172  1  -0.00385738  0.33768566  0.82996476  1
  Te2-  Te173  1  0.00643743  0.66184358  0.14822864  1
  Te2-  Te174  1  0.00246515  0.66400321  0.49944872  1
  Te2-  Te175  1  -0.00141262  0.66632843  0.84882518  1
  Te2-  Te176  1  0.32998456  0.00605912  0.16710345  1
  Te2-  Te177  1  0.34156030  0.00470760  0.50757976  1
  Te2-  Te178  1  0.32671428  -0.00699583  0.83297074  1
  Te2-  Te179  1  0.32835809  0.33017306  0.15781728  1
  Te2-  Te180  1  0.33657061  0.34616353  0.51278895  1
  Te2-  Te181  1  0.34630955  0.33914482  0.82897242  1
  Te2-  Te182  1  0.32963406  0.66758674  0.16409468  1
  Te2-  Te183  1  0.33857175  0.64737963  0.50207289  1
  Te2-  Te184  1  0.32983443  0.66546636  0.83747350  1
  Te2-  Te185  1  0.66528202  0.00656931  0.17147928  1
  Te2-  Te186  1  0.65748348  -0.01376932  0.49374516  1
  Te2-  Te187  1  0.66876357  -0.01504787  0.83561404  1
  Te2-  Te188  1  0.66394351  0.33161578  0.16822021  1
  Te2-  Te189  1  0.66705103  0.35429874  0.49356538  1
  Te2-  Te190  1  0.65121785  0.33002547  0.83520765  1
  Te2-  Te191  1  0.67330721  0.66530134  0.16595540  1
  Te2-  Te192  1  0.66252731  0.66148047  0.49135955  1
  Te2-  Te193  1  0.66558584  0.68142055  0.84054791  1
  Pb2+  Pb194  1  0.50115467  0.50070859  0.33508899  1
  Pb2+  Pb195  1  0.49663313  0.16573069  0.32780072  1
  Pb2+  Pb196  1  0.83062438  0.16847965  -0.00056354  1
  Pb2+  Pb197  1  0.33384981  0.49807236  0.16673967  1
  Pb2+  Pb198  1  0.00299161  0.83468238  0.50087127  1
  Pb2+  Pb199  1  0.67031843  0.33292213  0.66756862  1
  Pb2+  Pb200  1  0.83633923  0.33823635  0.16197743  1
  Pb2+  Pb201  1  0.66561018  0.66752915  0.66889441  1
  Pb2+  Pb202  1  0.33556725  0.17783508  0.49608400  1
  Pb2+  Pb203  1  0.00019971  0.66309224  0.67756497  1
  Pb2+  Pb204  1  0.83159598  0.66320715  0.49506788  1
  Pb2+  Pb205  1  0.49607690  -0.00132308  0.83587061  1
  Pb2+  Pb206  1  0.49538178  0.15620751  0.66578046  1
  Pb2+  Pb207  1  0.50617540  0.83296706  0.33238167  1
  Pb2+  Pb208  1  0.16826949  0.00029681  0.50016793  1
  Pb2+  Pb209  1  0.00559022  0.16726528  0.83393668  1
  Pb2+  Pb210  1  0.66165783  0.15989904  0.83633123  1
  Pb2+  Pb211  1  0.17163462  0.49769941  0.67213553  1
  Pb2+  Pb212  1  0.32724446  0.83781502  0.16659895  1
  Pb2+  Pb213  1  0.16628039  0.16913038  0.33120657  1
  Pb2+  Pb214  1  0.66821626  0.50453019  0.83880318  1
  Pb2+  Pb215  1  0.33161084  0.65739268  0.33568311  1
