# generated using pymatgen
data_In22Ag21Sn22Bi21(Te54Pb11)2
_symmetry_space_group_name_H-M   'P 1'
_cell_length_a   19.14246165
_cell_length_b   19.14039373
_cell_length_c   19.15809382
_cell_angle_alpha   89.98395306
_cell_angle_beta   90.00721572
_cell_angle_gamma   89.99464850
_symmetry_Int_Tables_number   1
_chemical_formula_structural   In22Ag21Sn22Bi21(Te54Pb11)2
_chemical_formula_sum   'In22 Ag21 Sn22 Bi21 Te108 Pb22'
_cell_volume   7019.41510890
_cell_formula_units_Z   1
loop_
 _symmetry_equiv_pos_site_id
 _symmetry_equiv_pos_as_xyz
  1  'x, y, z'
loop_
 _atom_type_symbol
 _atom_type_oxidation_number
  In3+  3.0
  Ag+  1.0
  Sn2+  2.0
  Bi3+  3.0
  Te2-  -2.0
  Pb2+  2.0
loop_
 _atom_site_type_symbol
 _atom_site_label
 _atom_site_symmetry_multiplicity
 _atom_site_fract_x
 _atom_site_fract_y
 _atom_site_fract_z
 _atom_site_occupancy
  In3+  In0  1  0.83579778  0.50755723  0.31606822  1
  In3+  In1  1  0.50125546  0.66370784  0.16573939  1
  In3+  In2  1  0.50288717  0.35092278  0.50321831  1
  In3+  In3  1  0.32043891  0.66880666  0.01109458  1
  In3+  In4  1  -0.01155247  0.83603371  0.49462555  1
  In3+  In5  1  0.15998178  0.49648162  0.65956782  1
  In3+  In6  1  -0.01205973  0.81725014  0.17096958  1
  In3+  In7  1  0.50013360  0.69504321  0.83046333  1
  In3+  In8  1  0.17428393  0.83470284  0.32210905  1
  In3+  In9  1  -0.00984939  -0.00690442  0.00184537  1
  In3+  In10  1  0.33475273  -0.01580503  0.66455216  1
  In3+  In11  1  0.83193601  0.14756885  0.33260292  1
  In3+  In12  1  0.34044728  0.67320792  0.66527752  1
  In3+  In13  1  0.33395210  0.49228021  0.50897576  1
  In3+  In14  1  0.16753858  0.13807759  -0.00208244  1
  In3+  In15  1  0.33766806  0.83389643  0.83382944  1
  In3+  In16  1  0.82391619  -0.00545897  0.49646827  1
  In3+  In17  1  0.36430101  0.16437521  0.50244023  1
  In3+  In18  1  0.49867029  0.34231089  0.84670917  1
  In3+  In19  1  0.16293988  0.49720947  -0.00113875  1
  In3+  In20  1  -0.00569362  0.83538163  0.85598853  1
  In3+  In21  1  0.67310534  0.49553519  0.50498276  1
  Ag+  Ag22  1  0.86619398  0.36273269  0.86949753  1
  Ag+  Ag23  1  -0.02692937  0.47555460  0.50058342  1
  Ag+  Ag24  1  0.81196448  0.83458272  -0.02893472  1
  Ag+  Ag25  1  0.52028294  -0.00344447  0.51819825  1
  Ag+  Ag26  1  0.48032796  -0.00050094  0.81604942  1
  Ag+  Ag27  1  0.84499592  0.81746237  0.31641891  1
  Ag+  Ag28  1  0.86247980  0.47149663  -0.02211732  1
  Ag+  Ag29  1  0.32900856  0.31062246  -0.01858487  1
  Ag+  Ag30  1  0.69168597  0.30862370  -0.02893556  1
  Ag+  Ag31  1  0.18875063  0.83423077  -0.02843598  1
  Ag+  Ag32  1  0.66719783  0.14418158  0.48146635  1
  Ag+  Ag33  1  0.47915906  0.50218933  0.65867695  1
  Ag+  Ag34  1  0.69374829  0.83341891  0.85996153  1
  Ag+  Ag35  1  0.83447384  0.85657211  0.67345278  1
  Ag+  Ag36  1  0.85773640  -0.00775393  0.19320076  1
  Ag+  Ag37  1  0.18308981  -0.00965110  0.84513837  1
  Ag+  Ag38  1  -0.03338244  0.47766721  0.13574718  1
  Ag+  Ag39  1  0.51095396  0.30700057  0.14160108  1
  Ag+  Ag40  1  0.33646461  0.85271247  0.19200991  1
  Ag+  Ag41  1  0.35287091  0.14501755  0.13647144  1
  Ag+  Ag42  1  0.65712028  0.68284539  0.35416107  1
  Sn2+  Sn43  1  0.17030094  0.16860555  0.66649807  1
  Sn2+  Sn44  1  0.50432990  0.83658271  0.00311863  1
  Sn2+  Sn45  1  0.00684677  -0.00349075  0.67127835  1
  Sn2+  Sn46  1  0.66338153  0.83512287  0.16962729  1
  Sn2+  Sn47  1  0.32850802  0.83995348  0.49638260  1
  Sn2+  Sn48  1  0.49423147  0.17337945  -0.00889576  1
  Sn2+  Sn49  1  -0.01163895  0.66616768  0.33267197  1
  Sn2+  Sn50  1  0.15008693  0.83367604  0.67028523  1
  Sn2+  Sn51  1  0.33321534  0.50276562  0.83583428  1
  Sn2+  Sn52  1  0.50222320  0.17419902  0.66712055  1
  Sn2+  Sn53  1  -0.00633569  0.33206289  0.66124695  1
  Sn2+  Sn54  1  0.67097015  0.67110858  0.66692523  1
  Sn2+  Sn55  1  0.82656863  0.16328476  0.66216745  1
  Sn2+  Sn56  1  0.82957168  0.33028956  0.50346274  1
  Sn2+  Sn57  1  0.33719277  0.00612054  0.33767695  1
  Sn2+  Sn58  1  0.66059525  -0.00424544  0.67206625  1
  Sn2+  Sn59  1  0.17134705  0.32400964  0.83875559  1
  Sn2+  Sn60  1  0.66334658  0.33589424  0.67114217  1
  Sn2+  Sn61  1  0.50586667  0.50108131  0.33640239  1
  Sn2+  Sn62  1  0.33877503  0.33939349  0.67226318  1
  Sn2+  Sn63  1  -0.00714316  0.34359601  0.32960115  1
  Sn2+  Sn64  1  0.51321053  0.83206584  0.33140115  1
  Bi3+  Bi65  1  0.83208543  0.00639926  0.82937096  1
  Bi3+  Bi66  1  0.49702875  0.50178481  -0.00249149  1
  Bi3+  Bi67  1  0.66711765  -0.00023334  -0.00223115  1
  Bi3+  Bi68  1  0.33219900  0.49928099  0.16864488  1
  Bi3+  Bi69  1  0.49792149  -0.00368579  0.16703996  1
  Bi3+  Bi70  1  0.66690533  0.83061535  0.49986051  1
  Bi3+  Bi71  1  -0.00166557  0.16245498  0.83453264  1
  Bi3+  Bi72  1  0.66434917  0.66307225  -0.00028855  1
  Bi3+  Bi73  1  0.17028008  0.67209542  0.50304570  1
  Bi3+  Bi74  1  0.66596632  0.34113095  0.33524536  1
  Bi3+  Bi75  1  0.17524448  0.33732433  0.16741351  1
  Bi3+  Bi76  1  0.33372542  0.33647208  0.33390786  1
  Bi3+  Bi77  1  0.16507044  0.00023160  0.50724277  1
  Bi3+  Bi78  1  -0.00334038  0.67246849  0.00426927  1
  Bi3+  Bi79  1  0.16630124  0.67011977  0.16924402  1
  Bi3+  Bi80  1  0.83183297  0.49464836  0.66798936  1
  Bi3+  Bi81  1  0.82948824  0.67756528  0.16274695  1
  Bi3+  Bi82  1  0.66142493  0.50066706  0.16778262  1
  Bi3+  Bi83  1  0.82833874  0.66985222  0.83486888  1
  Bi3+  Bi84  1  0.66424802  0.15795269  0.83062543  1
  Bi3+  Bi85  1  0.00005991  0.17242257  0.16881917  1
  Te2-  Te86  1  0.16244089  0.17392486  0.16209931  1
  Te2-  Te87  1  0.15733752  0.16358202  0.50142746  1
  Te2-  Te88  1  0.16080300  0.15654403  0.83789052  1
  Te2-  Te89  1  0.16866932  0.50618946  0.16243456  1
  Te2-  Te90  1  0.17528304  0.50559463  0.50388427  1
  Te2-  Te91  1  0.16949162  0.50035882  0.83906071  1
  Te2-  Te92  1  0.18560856  0.82984547  0.17260638  1
  Te2-  Te93  1  0.16536185  0.83438032  0.50754496  1
  Te2-  Te94  1  0.16228422  0.84077248  0.82541011  1
  Te2-  Te95  1  0.49481685  0.16350615  0.16492746  1
  Te2-  Te96  1  0.51374337  0.14936900  0.50377217  1
  Te2-  Te97  1  0.50217775  0.15058548  0.83339559  1
  Te2-  Te98  1  0.49663445  0.50623739  0.16580665  1
  Te2-  Te99  1  0.49514793  0.50552854  0.50856236  1
  Te2-  Te100  1  0.49543340  0.49495993  0.83264235  1
  Te2-  Te101  1  0.48817336  0.83132096  0.16740149  1
  Te2-  Te102  1  0.50189170  0.84501770  0.49851193  1
  Te2-  Te103  1  0.49415584  0.84773709  0.83167294  1
  Te2-  Te104  1  0.83742137  0.15692538  0.17435625  1
  Te2-  Te105  1  0.81970347  0.16097493  0.49385456  1
  Te2-  Te106  1  0.83143593  0.16915602  0.83281940  1
  Te2-  Te107  1  0.82672264  0.50931805  0.16313910  1
  Te2-  Te108  1  0.82795496  0.50142093  0.50733244  1
  Te2-  Te109  1  0.82966322  0.50259439  0.83368099  1
  Te2-  Te110  1  0.83509910  0.84236630  0.17088356  1
  Te2-  Te111  1  0.83244503  0.83796821  0.50399870  1
  Te2-  Te112  1  0.83921756  0.83477652  0.82287379  1
  Te2-  Te113  1  0.16541540  -0.01519913  -0.00836636  1
  Te2-  Te114  1  0.16930318  -0.00662849  0.33823165  1
  Te2-  Te115  1  0.17402482  0.00234288  0.66753263  1
  Te2-  Te116  1  0.18085983  0.34529566  0.00280879  1
  Te2-  Te117  1  0.16568726  0.33563402  0.33352447  1
  Te2-  Te118  1  0.16624154  0.33971975  0.67356736  1
  Te2-  Te119  1  0.16330652  0.68603896  0.00411908  1
  Te2-  Te120  1  0.16484992  0.67340893  0.33536937  1
  Te2-  Te121  1  0.17584526  0.65962823  0.66599468  1
  Te2-  Te122  1  0.50410117  0.00183755  0.00435205  1
  Te2-  Te123  1  0.49608489  -0.00053720  0.32991700  1
  Te2-  Te124  1  0.49007081  0.00159243  0.66467018  1
  Te2-  Te125  1  0.48261193  0.33572097  0.00039719  1
  Te2-  Te126  1  0.50053759  0.33825016  0.34575460  1
  Te2-  Te127  1  0.49982556  0.34455011  0.65801866  1
  Te2-  Te128  1  0.50208298  0.66674352  -0.01047566  1
  Te2-  Te129  1  0.50961114  0.66943908  0.32818284  1
  Te2-  Te130  1  0.49788855  0.65679112  0.67563546  1
  Te2-  Te131  1  0.83226873  -0.01395981  -0.00687567  1
  Te2-  Te132  1  0.83281117  -0.00665813  0.33907414  1
  Te2-  Te133  1  0.83304707  0.00482773  0.66348374  1
  Te2-  Te134  1  0.83067458  0.32986840  0.00792395  1
  Te2-  Te135  1  0.83021295  0.34753587  0.33810028  1
  Te2-  Te136  1  0.83252466  0.33261993  0.66451314  1
  Te2-  Te137  1  0.83149672  0.67993344  -0.00083684  1
  Te2-  Te138  1  0.82726822  0.67006035  0.32649713  1
  Te2-  Te139  1  0.83454404  0.65962800  0.67222238  1
  Te2-  Te140  1  0.00572937  0.16393569  -0.00005945  1
  Te2-  Te141  1  -0.00917511  0.17044149  0.33173257  1
  Te2-  Te142  1  0.00068659  0.16575280  0.67371389  1
  Te2-  Te143  1  0.00423308  0.50667743  -0.00325755  1
  Te2-  Te144  1  -0.00937897  0.50423480  0.35124810  1
  Te2-  Te145  1  0.00290765  0.50050890  0.65348756  1
  Te2-  Te146  1  0.00093141  0.83470951  0.01080211  1
  Te2-  Te147  1  -0.00728496  0.83094035  0.33053695  1
  Te2-  Te148  1  -0.01104736  0.83991574  0.66387519  1
  Te2-  Te149  1  0.32276130  0.16366394  -0.00473348  1
  Te2-  Te150  1  0.33213090  0.17219210  0.34765665  1
  Te2-  Te151  1  0.33230147  0.17376949  0.65684618  1
  Te2-  Te152  1  0.33431604  0.51406903  0.00311659  1
  Te2-  Te153  1  0.33606507  0.50096450  0.33612518  1
  Te2-  Te154  1  0.33088984  0.49901568  0.66657713  1
  Te2-  Te155  1  0.33673955  0.82326557  -0.01149660  1
  Te2-  Te156  1  0.33369594  0.83539400  0.33902470  1
  Te2-  Te157  1  0.33433701  0.82896598  0.66473478  1
  Te2-  Te158  1  0.66360585  0.16568231  -0.00400290  1
  Te2-  Te159  1  0.67490979  0.17375142  0.33620710  1
  Te2-  Te160  1  0.66459873  0.16468311  0.67224411  1
  Te2-  Te161  1  0.65888702  0.50101296  0.00270774  1
  Te2-  Te162  1  0.67099693  0.50297836  0.33478561  1
  Te2-  Te163  1  0.66872348  0.50212100  0.66344998  1
  Te2-  Te164  1  0.66634719  0.83117840  0.00420017  1
  Te2-  Te165  1  0.67187486  0.82898342  0.33471304  1
  Te2-  Te166  1  0.67813571  0.83204610  0.65973636  1
  Te2-  Te167  1  -0.00000985  0.00717438  0.15847981  1
  Te2-  Te168  1  0.00088051  -0.00733344  0.50154940  1
  Te2-  Te169  1  -0.00561646  -0.00289025  0.83981952  1
  Te2-  Te170  1  0.00229626  0.33876256  0.16918913  1
  Te2-  Te171  1  -0.00047611  0.33101128  0.50061042  1
  Te2-  Te172  1  0.00382261  0.32826372  0.83280147  1
  Te2-  Te173  1  0.00042099  0.66046059  0.16699331  1
  Te2-  Te174  1  0.00717540  0.68067201  0.49999486  1
  Te2-  Te175  1  -0.00258006  0.67260288  0.83898191  1
  Te2-  Te176  1  0.33304926  0.00304813  0.16901872  1
  Te2-  Te177  1  0.32638431  0.00623000  0.50678711  1
  Te2-  Te178  1  0.33072740  -0.00809054  0.82370247  1
  Te2-  Te179  1  0.33488730  0.33848482  0.17527723  1
  Te2-  Te180  1  0.33992276  0.33403889  0.49876955  1
  Te2-  Te181  1  0.33954097  0.33057557  0.83379307  1
  Te2-  Te182  1  0.33400421  0.66576578  0.16466451  1
  Te2-  Te183  1  0.33266708  0.66651068  0.50585579  1
  Te2-  Te184  1  0.34044472  0.67413703  0.82478610  1
  Te2-  Te185  1  0.66323534  -0.00050468  0.16079387  1
  Te2-  Te186  1  0.66897011  -0.00365647  0.50261481  1
  Te2-  Te187  1  0.67133792  -0.01081669  0.83475742  1
  Te2-  Te188  1  0.65304779  0.33873069  0.17257818  1
  Te2-  Te189  1  0.66080589  0.34054267  0.49915338  1
  Te2-  Te190  1  0.65262320  0.32684013  0.83313424  1
  Te2-  Te191  1  0.66448508  0.66648263  0.16254230  1
  Te2-  Te192  1  0.66666114  0.66396816  0.49965774  1
  Te2-  Te193  1  0.66434842  0.68292071  0.83536954  1
  Pb2+  Pb194  1  0.17192734  0.67189830  0.83624213  1
  Pb2+  Pb195  1  0.16617610  0.16503873  0.33145972  1
  Pb2+  Pb196  1  0.66295328  0.16917855  0.16787728  1
  Pb2+  Pb197  1  0.66339137  -0.00273685  0.32918487  1
  Pb2+  Pb198  1  0.66098614  0.50339144  0.83414576  1
  Pb2+  Pb199  1  0.16625950  -0.00231360  0.16058551  1
  Pb2+  Pb200  1  0.00479151  0.67303423  0.66744223  1
  Pb2+  Pb201  1  0.15985039  0.50383201  0.33261346  1
  Pb2+  Pb202  1  0.33862117  0.66805050  0.33273196  1
  Pb2+  Pb203  1  0.33298978  0.16197757  0.82358889  1
  Pb2+  Pb204  1  0.50060584  0.16966906  0.33524198  1
  Pb2+  Pb205  1  0.33691721  -0.00798409  -0.00110891  1
  Pb2+  Pb206  1  0.00179021  -0.00149145  0.33029162  1
  Pb2+  Pb207  1  0.50035578  0.67563173  0.50182300  1
  Pb2+  Pb208  1  0.83563902  0.66909700  0.49877956  1
  Pb2+  Pb209  1  0.83531006  0.15641433  0.00083706  1
  Pb2+  Pb210  1  0.00314840  0.49887688  0.82221312  1
  Pb2+  Pb211  1  0.01039830  0.33182268  0.00099043  1
  Pb2+  Pb212  1  0.82387876  0.33275354  0.17267111  1
  Pb2+  Pb213  1  -0.01300746  0.16254747  0.50488807  1
  Pb2+  Pb214  1  0.17057737  0.33178960  0.50625283  1
  Pb2+  Pb215  1  0.50907432  0.83329368  0.66567021  1
