# generated using pymatgen
data_In22Ag21Sn22Bi21(Te54Pb11)2
_symmetry_space_group_name_H-M   'P 1'
_cell_length_a   19.13607829
_cell_length_b   19.15344040
_cell_length_c   19.12695061
_cell_angle_alpha   89.99303533
_cell_angle_beta   90.01347222
_cell_angle_gamma   90.00756699
_symmetry_Int_Tables_number   1
_chemical_formula_structural   In22Ag21Sn22Bi21(Te54Pb11)2
_chemical_formula_sum   'In22 Ag21 Sn22 Bi21 Te108 Pb22'
_cell_volume   7010.44281580
_cell_formula_units_Z   1
loop_
 _symmetry_equiv_pos_site_id
 _symmetry_equiv_pos_as_xyz
  1  'x, y, z'
loop_
 _atom_type_symbol
 _atom_type_oxidation_number
  In3+  3.0
  Ag+  1.0
  Sn2+  2.0
  Bi3+  3.0
  Te2-  -2.0
  Pb2+  2.0
loop_
 _atom_site_type_symbol
 _atom_site_label
 _atom_site_symmetry_multiplicity
 _atom_site_fract_x
 _atom_site_fract_y
 _atom_site_fract_z
 _atom_site_occupancy
  In3+  In0  1  0.13413341  0.83833743  0.67019368  1
  In3+  In1  1  -0.01445455  0.83040458  0.16720263  1
  In3+  In2  1  0.83135719  0.49864516  0.64811702  1
  In3+  In3  1  0.33079773  0.32777349  0.65670470  1
  In3+  In4  1  0.64874404  0.81696734  0.17098927  1
  In3+  In5  1  0.52158696  0.00790802  0.50197354  1
  In3+  In6  1  0.33606441  0.48405946  0.17340137  1
  In3+  In7  1  0.82334881  0.67022677  0.50305280  1
  In3+  In8  1  0.33980820  0.83507435  0.51402077  1
  In3+  In9  1  -0.02153211  0.66751661  -0.00613997  1
  In3+  In10  1  0.17146062  0.80604346  0.33180373  1
  In3+  In11  1  0.66715699  0.67872108  0.66110669  1
  In3+  In12  1  0.33961976  0.49838033  0.48365552  1
  In3+  In13  1  0.83142376  0.00525218  0.16166002  1
  In3+  In14  1  0.82822324  0.32290939  0.49907526  1
  In3+  In15  1  0.83198873  0.32448610  0.17552352  1
  In3+  In16  1  0.34573471  0.18619509  0.83201473  1
  In3+  In17  1  0.33916701  0.82729625  0.16764434  1
  In3+  In18  1  0.34844615  0.67281495  0.33062609  1
  In3+  In19  1  0.49824630  0.36436536  0.83013339  1
  In3+  In20  1  0.68247423  0.33332096  0.64940882  1
  In3+  In21  1  0.80692030  0.66841757  0.17109847  1
  Ag+  Ag22  1  -0.01990041  0.33553513  0.69555333  1
  Ag+  Ag23  1  -0.02488287  0.46719472  0.82180888  1
  Ag+  Ag24  1  0.52768742  0.52261731  0.34619571  1
  Ag+  Ag25  1  -0.00527399  0.02179840  -0.02093212  1
  Ag+  Ag26  1  0.46777521  0.19389723  -0.00701127  1
  Ag+  Ag27  1  0.68937977  0.51796625  0.52516483  1
  Ag+  Ag28  1  0.64891802  0.65505683  0.34054769  1
  Ag+  Ag29  1  0.85436809  -0.03285283  0.53608102  1
  Ag+  Ag30  1  0.52014793  0.66840677  0.80922459  1
  Ag+  Ag31  1  0.18949637  0.50196235  0.35004762  1
  Ag+  Ag32  1  0.83067498  0.86174662  0.64294375  1
  Ag+  Ag33  1  0.66459824  -0.02159511  0.68258367  1
  Ag+  Ag34  1  0.35154332  0.13207445  0.52731186  1
  Ag+  Ag35  1  0.49774889  0.64214479  0.16940994  1
  Ag+  Ag36  1  -0.02392650  0.83192281  0.81349954  1
  Ag+  Ag37  1  0.82890077  0.15758235  0.67814935  1
  Ag+  Ag38  1  0.63215963  0.36894179  0.35685594  1
  Ag+  Ag39  1  0.52627799  0.81597866  0.35113470  1
  Ag+  Ag40  1  0.65459994  0.68133543  -0.02664294  1
  Ag+  Ag41  1  0.35062006  0.14626445  0.13008129  1
  Ag+  Ag42  1  0.36118138  0.34273235  0.01490032  1
  Sn2+  Sn43  1  0.15704668  0.16583266  0.66605256  1
  Sn2+  Sn44  1  0.32830815  0.50502342  0.83421291  1
  Sn2+  Sn45  1  0.67130044  0.49912859  0.83653802  1
  Sn2+  Sn46  1  0.34134651  0.00366570  0.66804540  1
  Sn2+  Sn47  1  0.33404132  0.32904158  0.32890766  1
  Sn2+  Sn48  1  0.00329788  0.33916151  -0.00350606  1
  Sn2+  Sn49  1  0.83417369  -0.00100330  0.83005803  1
  Sn2+  Sn50  1  0.83226709  0.16593612  -0.01506256  1
  Sn2+  Sn51  1  0.00184750  0.15387200  0.82664132  1
  Sn2+  Sn52  1  0.66255509  0.49602338  0.17067101  1
  Sn2+  Sn53  1  -0.00713577  -0.00013966  0.32860195  1
  Sn2+  Sn54  1  0.49981977  -0.00864988  0.83467042  1
  Sn2+  Sn55  1  0.17059797  0.33748860  0.83405695  1
  Sn2+  Sn56  1  0.66105871  0.00436481  0.33369357  1
  Sn2+  Sn57  1  0.16046734  0.00284190  0.49523386  1
  Sn2+  Sn58  1  0.66163636  0.16649845  0.82828414  1
  Sn2+  Sn59  1  0.66601837  0.16408920  0.49891966  1
  Sn2+  Sn60  1  0.00754489  0.83702058  0.49728412  1
  Sn2+  Sn61  1  0.35254119  0.66050831  0.00451285  1
  Sn2+  Sn62  1  0.16544801  0.83232103  -0.00147990  1
  Sn2+  Sn63  1  0.82358575  0.32929809  0.83487925  1
  Sn2+  Sn64  1  0.33864555  0.82795860  0.83496500  1
  Bi3+  Bi65  1  0.50230095  0.00423807  0.16886347  1
  Bi3+  Bi66  1  0.16883243  0.50092815  -0.00298276  1
  Bi3+  Bi67  1  0.16831458  0.67116145  0.83601101  1
  Bi3+  Bi68  1  0.16645926  0.33481226  0.49916128  1
  Bi3+  Bi69  1  0.16702597  -0.00063798  0.83076316  1
  Bi3+  Bi70  1  0.16750294  0.33310243  0.16744916  1
  Bi3+  Bi71  1  0.83098753  0.16631295  0.33443272  1
  Bi3+  Bi72  1  0.16750613  0.49845015  0.66718789  1
  Bi3+  Bi73  1  0.49965484  0.83063290  0.00448300  1
  Bi3+  Bi74  1  0.16811867  0.17579503  0.33572938  1
  Bi3+  Bi75  1  0.16072389  0.66987604  0.50051452  1
  Bi3+  Bi76  1  0.83227684  0.49990791  0.32713603  1
  Bi3+  Bi77  1  0.83483830  0.49918339  0.00031305  1
  Bi3+  Bi78  1  -0.00448815  0.66570860  0.32854974  1
  Bi3+  Bi79  1  0.83411976  0.83252832  0.00301587  1
  Bi3+  Bi80  1  0.50260869  0.33080253  0.16666160  1
  Bi3+  Bi81  1  0.66508336  0.16601064  0.16588865  1
  Bi3+  Bi82  1  -0.00051090  0.33602729  0.33239073  1
  Bi3+  Bi83  1  0.67166641  0.33621968  0.00150448  1
  Bi3+  Bi84  1  0.16101940  0.16740445  -0.00467439  1
  Bi3+  Bi85  1  0.16728313  0.00212700  0.16696388  1
  Te2-  Te86  1  0.17229573  0.16859275  0.16573206  1
  Te2-  Te87  1  0.16997451  0.17304539  0.49982578  1
  Te2-  Te88  1  0.16807768  0.16371450  0.83173874  1
  Te2-  Te89  1  0.17532111  0.49664916  0.15999838  1
  Te2-  Te90  1  0.17521649  0.50284758  0.50031621  1
  Te2-  Te91  1  0.16376108  0.50470743  0.83250989  1
  Te2-  Te92  1  0.17996698  0.84011893  0.16954533  1
  Te2-  Te93  1  0.16626653  0.83126046  0.49924143  1
  Te2-  Te94  1  0.17323836  0.83574803  0.82998685  1
  Te2-  Te95  1  0.49617907  0.16623952  0.14971581  1
  Te2-  Te96  1  0.49419435  0.15997386  0.50413205  1
  Te2-  Te97  1  0.49363905  0.15421218  0.84600858  1
  Te2-  Te98  1  0.49302272  0.49201231  0.17929426  1
  Te2-  Te99  1  0.49194967  0.49790326  0.48830626  1
  Te2-  Te100  1  0.49864728  0.51625341  0.83367148  1
  Te2-  Te101  1  0.49663395  0.84349147  0.17087794  1
  Te2-  Te102  1  0.49192682  0.84050624  0.49299463  1
  Te2-  Te103  1  0.50065308  0.81985204  0.83914688  1
  Te2-  Te104  1  0.83255529  0.16293693  0.16609562  1
  Te2-  Te105  1  0.83143193  0.17074706  0.49535921  1
  Te2-  Te106  1  0.83167413  0.16909429  0.82750524  1
  Te2-  Te107  1  0.83402383  0.50912090  0.16248679  1
  Te2-  Te108  1  0.83173580  0.49921525  0.49507898  1
  Te2-  Te109  1  0.83273978  0.49693195  0.83888623  1
  Te2-  Te110  1  0.83012389  0.83171739  0.16459374  1
  Te2-  Te111  1  0.83433336  0.82416836  0.49850096  1
  Te2-  Te112  1  0.83224882  0.83428412  0.84334723  1
  Te2-  Te113  1  0.15894728  0.00208365  0.00038459  1
  Te2-  Te114  1  0.16007401  0.01064670  0.33102081  1
  Te2-  Te115  1  0.16393421  -0.00047243  0.66713886  1
  Te2-  Te116  1  0.16533047  0.33472091  0.00205463  1
  Te2-  Te117  1  0.16513102  0.34548651  0.33211471  1
  Te2-  Te118  1  0.17290310  0.33511019  0.66552170  1
  Te2-  Te119  1  0.18073581  0.66435419  -0.00158728  1
  Te2-  Te120  1  0.15952982  0.65119524  0.33603163  1
  Te2-  Te121  1  0.16488677  0.66879940  0.66602156  1
  Te2-  Te122  1  0.50210706  -0.00796329  0.00241266  1
  Te2-  Te123  1  0.49867266  -0.00188837  0.33478319  1
  Te2-  Te124  1  0.51365016  0.00081448  0.66108817  1
  Te2-  Te125  1  0.50664259  0.33631795  -0.00273073  1
  Te2-  Te126  1  0.49433730  0.32963574  0.32928639  1
  Te2-  Te127  1  0.49007939  0.33212104  0.67609281  1
  Te2-  Te128  1  0.51103562  0.67002377  0.01854049  1
  Te2-  Te129  1  0.49959535  0.67201341  0.32441784  1
  Te2-  Te130  1  0.50938566  0.66630088  0.66168443  1
  Te2-  Te131  1  0.84643408  -0.00308672  0.00212707  1
  Te2-  Te132  1  0.83293871  0.00481961  0.32486356  1
  Te2-  Te133  1  0.82047244  0.00986271  0.67397569  1
  Te2-  Te134  1  0.83470277  0.33609055  0.00339390  1
  Te2-  Te135  1  0.83514718  0.33330020  0.33655489  1
  Te2-  Te136  1  0.83635013  0.34507072  0.66576989  1
  Te2-  Te137  1  0.81979218  0.66541294  0.00982691  1
  Te2-  Te138  1  0.83475315  0.66520783  0.33003024  1
  Te2-  Te139  1  0.82766520  0.65363588  0.66285107  1
  Te2-  Te140  1  -0.00047830  0.16865761  -0.00248180  1
  Te2-  Te141  1  -0.00042156  0.17089475  0.33242889  1
  Te2-  Te142  1  -0.01094645  0.17943995  0.67100533  1
  Te2-  Te143  1  0.00086649  0.51003606  -0.01077999  1
  Te2-  Te144  1  -0.00579095  0.50023192  0.32942498  1
  Te2-  Te145  1  0.00466749  0.48874367  0.67753702  1
  Te2-  Te146  1  0.00036639  0.82152147  0.01340871  1
  Te2-  Te147  1  0.01049830  0.82927052  0.32750263  1
  Te2-  Te148  1  -0.01749976  0.83174821  0.66526644  1
  Te2-  Te149  1  0.32238289  0.17371927  -0.01249725  1
  Te2-  Te150  1  0.32710738  0.16929834  0.34019019  1
  Te2-  Te151  1  0.33126764  0.16862792  0.66975526  1
  Te2-  Te152  1  0.33115278  0.49174764  0.00286997  1
  Te2-  Te153  1  0.33413568  0.50388749  0.32990496  1
  Te2-  Te154  1  0.32949102  0.49782179  0.67010504  1
  Te2-  Te155  1  0.33634314  0.83021646  0.00604782  1
  Te2-  Te156  1  0.32422813  0.82793367  0.32757931  1
  Te2-  Te157  1  0.33898266  0.83408200  0.66602464  1
  Te2-  Te158  1  0.67388658  0.17006381  0.00147422  1
  Te2-  Te159  1  0.66942662  0.16887372  0.32833778  1
  Te2-  Te160  1  0.67736982  0.18329308  0.66500183  1
  Te2-  Te161  1  0.67128352  0.49932294  0.00537494  1
  Te2-  Te162  1  0.67237539  0.50460742  0.32866141  1
  Te2-  Te163  1  0.66951794  0.48500801  0.66683583  1
  Te2-  Te164  1  0.66734726  0.82419683  0.01186705  1
  Te2-  Te165  1  0.66842384  0.84071874  0.32440832  1
  Te2-  Te166  1  0.68160769  0.83103728  0.66457711  1
  Te2-  Te167  1  0.00389386  -0.01039595  0.16861445  1
  Te2-  Te168  1  -0.00676611  -0.00310023  0.50008846  1
  Te2-  Te169  1  0.00486729  -0.01521260  0.83787086  1
  Te2-  Te170  1  0.00128297  0.33414134  0.16787540  1
  Te2-  Te171  1  0.00303999  0.33658200  0.49609262  1
  Te2-  Te172  1  0.00094755  0.32449861  0.83998007  1
  Te2-  Te173  1  0.00700278  0.67360220  0.16560701  1
  Te2-  Te174  1  -0.00110933  0.66831224  0.49745437  1
  Te2-  Te175  1  0.00598702  0.68349345  0.84023567  1
  Te2-  Te176  1  0.33321155  0.00434839  0.16567377  1
  Te2-  Te177  1  0.32237542  -0.00950859  0.50392422  1
  Te2-  Te178  1  0.33224914  -0.00621139  0.82887901  1
  Te2-  Te179  1  0.33379266  0.32957561  0.16041382  1
  Te2-  Te180  1  0.32929260  0.33966806  0.50134062  1
  Te2-  Te181  1  0.33994130  0.33653243  0.83338056  1
  Te2-  Te182  1  0.34433531  0.66945636  0.17323058  1
  Te2-  Te183  1  0.32529728  0.67248109  0.49114139  1
  Te2-  Te184  1  0.33039039  0.66708937  0.83492213  1
  Te2-  Te185  1  0.66892074  0.00437580  0.16445080  1
  Te2-  Te186  1  0.67256385  0.00459048  0.49840586  1
  Te2-  Te187  1  0.66326982  0.00417309  0.82901337  1
  Te2-  Te188  1  0.66697443  0.32833383  0.16617975  1
  Te2-  Te189  1  0.66997140  0.33507260  0.49533356  1
  Te2-  Te190  1  0.65431113  0.33249649  0.84014090  1
  Te2-  Te191  1  0.65562776  0.66514643  0.18482871  1
  Te2-  Te192  1  0.66971859  0.66084405  0.49284473  1
  Te2-  Te193  1  0.66659094  0.66090313  0.82791283  1
  Pb2+  Pb194  1  0.00081131  0.16868942  0.50404562  1
  Pb2+  Pb195  1  0.50035825  0.49822771  0.65845048  1
  Pb2+  Pb196  1  0.17565781  0.67025075  0.16559657  1
  Pb2+  Pb197  1  0.50707136  0.83589777  0.66754289  1
  Pb2+  Pb198  1  0.49788835  0.66608695  0.49221011  1
  Pb2+  Pb199  1  0.00413378  0.50064418  0.50497098  1
  Pb2+  Pb200  1  0.33263465  0.00166042  -0.00346672  1
  Pb2+  Pb201  1  0.66684771  0.83203877  0.83781908  1
  Pb2+  Pb202  1  0.50806497  0.16642332  0.67694839  1
  Pb2+  Pb203  1  0.83738433  0.83588430  0.33341302  1
  Pb2+  Pb204  1  0.66289541  0.83519371  0.49499927  1
  Pb2+  Pb205  1  0.33313107  0.66665940  0.66545738  1
  Pb2+  Pb206  1  0.32922935  0.00026651  0.33559276  1
  Pb2+  Pb207  1  0.83492879  0.66572217  0.83619483  1
  Pb2+  Pb208  1  0.49954127  0.32869057  0.50135164  1
  Pb2+  Pb209  1  -0.00346437  0.65633165  0.67258351  1
  Pb2+  Pb210  1  0.49685465  0.16395496  0.32727766  1
  Pb2+  Pb211  1  0.00321025  0.50438407  0.15735300  1
  Pb2+  Pb212  1  0.50113250  0.50592935  0.00831401  1
  Pb2+  Pb213  1  0.67269853  -0.00024766  -0.00348335  1
  Pb2+  Pb214  1  -0.00866099  0.00741603  0.67244651  1
  Pb2+  Pb215  1  0.00446699  0.16194872  0.16443316  1
