# generated using pymatgen
data_In22Ag21Sn22Bi21(Te54Pb11)2
_symmetry_space_group_name_H-M   'P 1'
_cell_length_a   19.13235859
_cell_length_b   19.11341722
_cell_length_c   19.14355391
_cell_angle_alpha   90.00279237
_cell_angle_beta   90.00259546
_cell_angle_gamma   89.99711367
_symmetry_Int_Tables_number   1
_chemical_formula_structural   In22Ag21Sn22Bi21(Te54Pb11)2
_chemical_formula_sum   'In22 Ag21 Sn22 Bi21 Te108 Pb22'
_cell_volume   7000.50574344
_cell_formula_units_Z   1
loop_
 _symmetry_equiv_pos_site_id
 _symmetry_equiv_pos_as_xyz
  1  'x, y, z'
loop_
 _atom_type_symbol
 _atom_type_oxidation_number
  In3+  3.0
  Ag+  1.0
  Sn2+  2.0
  Bi3+  3.0
  Te2-  -2.0
  Pb2+  2.0
loop_
 _atom_site_type_symbol
 _atom_site_label
 _atom_site_symmetry_multiplicity
 _atom_site_fract_x
 _atom_site_fract_y
 _atom_site_fract_z
 _atom_site_occupancy
  In3+  In0  1  0.49849149  0.33496499  0.49336063  1
  In3+  In1  1  0.17428353  0.66325822  0.49865753  1
  In3+  In2  1  0.00275385  0.83455026  0.84822609  1
  In3+  In3  1  0.81406178  -0.00304132  0.84290928  1
  In3+  In4  1  0.16411671  0.82405393  0.32803792  1
  In3+  In5  1  -0.00092791  0.18626006  0.16784394  1
  In3+  In6  1  0.00315099  0.01138159  0.00423878  1
  In3+  In7  1  0.16629029  0.84455261  0.66087144  1
  In3+  In8  1  0.81498395  0.48415879  0.34194585  1
  In3+  In9  1  0.16240891  0.00436006  0.49969216  1
  In3+  In10  1  0.32943564  0.83798553  0.49552101  1
  In3+  In11  1  0.50553783  0.64929948  0.49986155  1
  In3+  In12  1  0.49973154  0.17442465  -0.01513647  1
  In3+  In13  1  0.00153087  0.82798726  0.49435899  1
  In3+  In14  1  0.01139120  0.66802051  0.66204256  1
  In3+  In15  1  0.48140814  0.83419327  0.00712537  1
  In3+  In16  1  0.32852420  0.00128433  0.32998225  1
  In3+  In17  1  0.64703282  0.83133386  0.83808955  1
  In3+  In18  1  0.49490563  0.65332154  0.15122134  1
  In3+  In19  1  0.83805378  -0.00463345  0.15945407  1
  In3+  In20  1  0.16576904  0.83319277  0.02021180  1
  In3+  In21  1  0.17303517  0.34523635  0.51239377  1
  Ag+  Ag22  1  0.35489938  0.31356925  0.00234151  1
  Ag+  Ag23  1  0.80273689  0.34171031  0.52388549  1
  Ag+  Ag24  1  0.63033985  0.50652858  0.47923827  1
  Ag+  Ag25  1  0.13739698  0.35307418  0.85983828  1
  Ag+  Ag26  1  0.00336941  0.66384391  0.31514890  1
  Ag+  Ag27  1  0.64487546  -0.02586904  0.00134628  1
  Ag+  Ag28  1  0.50408250  0.52419349  0.35361210  1
  Ag+  Ag29  1  0.63970479  0.50094116  0.18437484  1
  Ag+  Ag30  1  0.52709344  0.47982722  -0.00464320  1
  Ag+  Ag31  1  0.14570598  0.67034459  0.14669624  1
  Ag+  Ag32  1  0.35893232  0.83244156  0.18465982  1
  Ag+  Ag33  1  0.02466465  0.35340473  -0.02686710  1
  Ag+  Ag34  1  0.30278743  0.20353981  0.51883853  1
  Ag+  Ag35  1  0.32785138  0.50455935  0.47481430  1
  Ag+  Ag36  1  0.47709119  0.00308531  0.85813416  1
  Ag+  Ag37  1  0.63928375  0.52918788  0.83234765  1
  Ag+  Ag38  1  0.31319362  0.17046446  0.85564161  1
  Ag+  Ag39  1  0.18053067  0.17861852  0.68861661  1
  Ag+  Ag40  1  0.83119241  0.36351464  0.14366082  1
  Ag+  Ag41  1  0.52668644  0.49151895  0.64516234  1
  Ag+  Ag42  1  0.01383286  0.84109222  0.14952192  1
  Sn2+  Sn43  1  0.33048047  0.00589641  -0.00075877  1
  Sn2+  Sn44  1  -0.00139845  0.66155036  0.00464001  1
  Sn2+  Sn45  1  0.16699416  0.16440298  0.33200279  1
  Sn2+  Sn46  1  -0.00247119  0.49942110  0.49517157  1
  Sn2+  Sn47  1  0.33550950  0.65957287  0.66043881  1
  Sn2+  Sn48  1  0.82718447  0.49762601  0.00840493  1
  Sn2+  Sn49  1  0.84129522  0.83348849  0.66212176  1
  Sn2+  Sn50  1  0.67209697  0.82832041  0.16075231  1
  Sn2+  Sn51  1  0.17488363  0.50054687  0.33298615  1
  Sn2+  Sn52  1  0.67276371  0.17542254  0.16244585  1
  Sn2+  Sn53  1  0.84717713  0.16632827  0.66291946  1
  Sn2+  Sn54  1  0.00675191  0.16295325  0.83457791  1
  Sn2+  Sn55  1  0.83695843  0.01444502  0.50074148  1
  Sn2+  Sn56  1  0.83340375  0.66615218  0.17394340  1
  Sn2+  Sn57  1  0.49489970  0.66080488  0.82692133  1
  Sn2+  Sn58  1  0.49387876  0.82706488  0.33432053  1
  Sn2+  Sn59  1  -0.00305892  0.50352873  0.83354612  1
  Sn2+  Sn60  1  0.66630438  0.65750915  0.00783404  1
  Sn2+  Sn61  1  0.83505167  0.83027447  -0.00118423  1
  Sn2+  Sn62  1  0.16675599  0.17289017  -0.00610865  1
  Sn2+  Sn63  1  0.83122983  0.33012063  0.83923420  1
  Sn2+  Sn64  1  0.00230618  0.16655316  0.50030829  1
  Bi3+  Bi65  1  0.16395365  0.50259103  0.00220907  1
  Bi3+  Bi66  1  0.83180969  0.50038501  0.66711851  1
  Bi3+  Bi67  1  -0.00051654  0.50536997  0.17013947  1
  Bi3+  Bi68  1  0.50263644  -0.00218903  0.16502558  1
  Bi3+  Bi69  1  0.33339537  0.50443666  0.16407857  1
  Bi3+  Bi70  1  0.33486894  0.49036536  0.83907220  1
  Bi3+  Bi71  1  0.83770972  0.83008051  0.33495961  1
  Bi3+  Bi72  1  0.49887510  0.32923192  0.82940620  1
  Bi3+  Bi73  1  0.49984086  0.16038618  0.33263671  1
  Bi3+  Bi74  1  0.33418187  0.66705486  0.00039567  1
  Bi3+  Bi75  1  0.49740746  0.82680967  0.66705048  1
  Bi3+  Bi76  1  0.50076946  -0.00429268  0.49845383  1
  Bi3+  Bi77  1  0.83635952  0.16720287  0.33303918  1
  Bi3+  Bi78  1  0.16967534  0.00021005  0.83274296  1
  Bi3+  Bi79  1  0.00377125  0.34295604  0.33299903  1
  Bi3+  Bi80  1  0.33350933  0.33262305  0.67688677  1
  Bi3+  Bi81  1  0.67196207  0.33201889  0.00091188  1
  Bi3+  Bi82  1  0.66485341  0.16789022  0.50012317  1
  Bi3+  Bi83  1  0.66992856  0.16416338  0.83482396  1
  Bi3+  Bi84  1  0.83381956  0.16513338  -0.00020762  1
  Bi3+  Bi85  1  0.66729961  0.66511733  0.66762497  1
  Te2-  Te86  1  0.15967322  0.16420720  0.16422339  1
  Te2-  Te87  1  0.16792732  0.15658956  0.48858315  1
  Te2-  Te88  1  0.16657410  0.16254839  0.83501029  1
  Te2-  Te89  1  0.16784903  0.51720753  0.16609592  1
  Te2-  Te90  1  0.17484427  0.50220506  0.49698267  1
  Te2-  Te91  1  0.16560619  0.49620489  0.83681331  1
  Te2-  Te92  1  0.15810003  0.82003568  0.17297374  1
  Te2-  Te93  1  0.17110710  0.83459631  0.50599993  1
  Te2-  Te94  1  0.16171882  0.83654671  0.81904719  1
  Te2-  Te95  1  0.50416076  0.16156071  0.16822027  1
  Te2-  Te96  1  0.50254825  0.16168472  0.49560066  1
  Te2-  Te97  1  0.50660575  0.15573248  0.83289074  1
  Te2-  Te98  1  0.49714858  0.50232236  0.14628186  1
  Te2-  Te99  1  0.48518243  0.49733517  0.50213732  1
  Te2-  Te100  1  0.49486857  0.49558712  0.84590857  1
  Te2-  Te101  1  0.50747518  0.83422539  0.16343583  1
  Te2-  Te102  1  0.49351251  0.83135226  0.50225483  1
  Te2-  Te103  1  0.49605380  0.84636324  0.83042504  1
  Te2-  Te104  1  0.83769694  0.15753558  0.16795864  1
  Te2-  Te105  1  0.82929273  0.18018124  0.49650697  1
  Te2-  Te106  1  0.83550643  0.15646317  0.83290877  1
  Te2-  Te107  1  0.83868100  0.50631615  0.17833224  1
  Te2-  Te108  1  0.83624644  0.48754150  0.50081789  1
  Te2-  Te109  1  0.84248481  0.49841214  0.83110713  1
  Te2-  Te110  1  0.83062419  0.83737943  0.17268118  1
  Te2-  Te111  1  0.83571697  0.83652961  0.50022177  1
  Te2-  Te112  1  0.84886792  0.84417713  0.82899444  1
  Te2-  Te113  1  0.16296412  -0.00566969  -0.00155424  1
  Te2-  Te114  1  0.16975393  -0.00802999  0.33858880  1
  Te2-  Te115  1  0.16724225  0.00131689  0.66312461  1
  Te2-  Te116  1  0.16678804  0.33413628  0.00150543  1
  Te2-  Te117  1  0.16570676  0.33274311  0.33231682  1
  Te2-  Te118  1  0.17161192  0.32416405  0.66478652  1
  Te2-  Te119  1  0.16830870  0.67168192  -0.00095823  1
  Te2-  Te120  1  0.15662771  0.67118406  0.34568941  1
  Te2-  Te121  1  0.16704497  0.67002705  0.65990690  1
  Te2-  Te122  1  0.49805909  -0.01039150  0.00309263  1
  Te2-  Te123  1  0.49828532  -0.00530048  0.33213713  1
  Te2-  Te124  1  0.50030674  -0.00697042  0.66087093  1
  Te2-  Te125  1  0.50392838  0.33082030  -0.00336764  1
  Te2-  Te126  1  0.50053241  0.32351350  0.33656540  1
  Te2-  Te127  1  0.49680061  0.34357685  0.66496495  1
  Te2-  Te128  1  0.49815871  0.68039030  -0.00536113  1
  Te2-  Te129  1  0.50067888  0.67087851  0.34363130  1
  Te2-  Te130  1  0.50347766  0.66364946  0.66167864  1
  Te2-  Te131  1  0.84352317  0.00114872  -0.00047980  1
  Te2-  Te132  1  0.83539202  0.00029213  0.33560010  1
  Te2-  Te133  1  0.83386343  0.00096384  0.66315332  1
  Te2-  Te134  1  0.83556315  0.32759100  0.00042934  1
  Te2-  Te135  1  0.84239814  0.33209780  0.33405441  1
  Te2-  Te136  1  0.83703701  0.33584815  0.66725786  1
  Te2-  Te137  1  0.83380390  0.66431376  0.00412687  1
  Te2-  Te138  1  0.84973687  0.66960871  0.33603532  1
  Te2-  Te139  1  0.83353477  0.66599464  0.66765284  1
  Te2-  Te140  1  -0.00366405  0.16560630  0.00689127  1
  Te2-  Te141  1  -0.00158839  0.16799352  0.32915420  1
  Te2-  Te142  1  0.00652054  0.16599659  0.66170888  1
  Te2-  Te143  1  0.00037625  0.49742794  0.00279137  1
  Te2-  Te144  1  0.01033229  0.50843417  0.33408401  1
  Te2-  Te145  1  0.00043025  0.50904714  0.66552436  1
  Te2-  Te146  1  0.00364015  0.82750036  0.00233833  1
  Te2-  Te147  1  0.00429627  0.82507541  0.34034034  1
  Te2-  Te148  1  0.00557174  0.82817650  0.65568360  1
  Te2-  Te149  1  0.33908465  0.16556727  0.00134550  1
  Te2-  Te150  1  0.33615992  0.15852638  0.33390658  1
  Te2-  Te151  1  0.32752021  0.17105990  0.65938601  1
  Te2-  Te152  1  0.32572814  0.50490437  0.00153702  1
  Te2-  Te153  1  0.34785928  0.49910325  0.32503216  1
  Te2-  Te154  1  0.33591348  0.49818406  0.67899973  1
  Te2-  Te155  1  0.32556747  0.83311706  0.00309242  1
  Te2-  Te156  1  0.32494592  0.83373098  0.33068845  1
  Te2-  Te157  1  0.33403834  0.82829881  0.66078570  1
  Te2-  Te158  1  0.66968384  0.16562795  -0.00005531  1
  Te2-  Te159  1  0.66922830  0.16341500  0.33317889  1
  Te2-  Te160  1  0.67015587  0.16737710  0.66588737  1
  Te2-  Te161  1  0.67303929  0.49688458  -0.01978091  1
  Te2-  Te162  1  0.65758164  0.49800538  0.33388515  1
  Te2-  Te163  1  0.66791753  0.50492571  0.68202359  1
  Te2-  Te164  1  0.67771148  0.83022228  -0.00804791  1
  Te2-  Te165  1  0.67132832  0.82900033  0.33447715  1
  Te2-  Te166  1  0.66597827  0.83000413  0.67255475  1
  Te2-  Te167  1  -0.00366355  -0.01195137  0.15991836  1
  Te2-  Te168  1  0.00495378  -0.00374573  0.50077746  1
  Te2-  Te169  1  0.00788737  -0.00500445  0.84333809  1
  Te2-  Te170  1  -0.01304961  0.33996284  0.17063245  1
  Te2-  Te171  1  0.01609441  0.33324541  0.49456566  1
  Te2-  Te172  1  -0.00401430  0.32706604  0.83274911  1
  Te2-  Te173  1  -0.00143767  0.66790095  0.16569093  1
  Te2-  Te174  1  0.00788729  0.66892930  0.50814160  1
  Te2-  Te175  1  -0.00077951  0.67605524  0.82972253  1
  Te2-  Te176  1  0.33672240  -0.01483786  0.17022220  1
  Te2-  Te177  1  0.33486329  -0.00836032  0.49057603  1
  Te2-  Te178  1  0.33146672  0.01384441  0.83566393  1
  Te2-  Te179  1  0.33359417  0.33532045  0.15539352  1
  Te2-  Te180  1  0.32904080  0.34671131  0.50207385  1
  Te2-  Te181  1  0.33913541  0.32331881  0.84286062  1
  Te2-  Te182  1  0.34366997  0.67953139  0.16385528  1
  Te2-  Te183  1  0.32973543  0.65697185  0.50069035  1
  Te2-  Te184  1  0.33464990  0.66695188  0.83519566  1
  Te2-  Te185  1  0.66752315  -0.00034483  0.15230823  1
  Te2-  Te186  1  0.66647219  0.00146340  0.49920142  1
  Te2-  Te187  1  0.66397712  -0.00187386  0.84810204  1
  Te2-  Te188  1  0.67772578  0.34645945  0.16161686  1
  Te2-  Te189  1  0.65652715  0.33480709  0.50060125  1
  Te2-  Te190  1  0.66395075  0.32624179  0.83745962  1
  Te2-  Te191  1  0.65748345  0.65342008  0.16416972  1
  Te2-  Te192  1  0.66417899  0.65197226  0.50320311  1
  Te2-  Te193  1  0.66386956  0.67521032  0.83317554  1
  Pb2+  Pb194  1  0.33133380  0.16174400  0.16797578  1
  Pb2+  Pb195  1  0.32742947  0.66435015  0.33108698  1
  Pb2+  Pb196  1  0.16279616  0.34139822  0.16482908  1
  Pb2+  Pb197  1  0.50493745  0.33500934  0.16810301  1
  Pb2+  Pb198  1  0.66567737  0.00032318  0.67559740  1
  Pb2+  Pb199  1  0.33394215  0.00272791  0.66068763  1
  Pb2+  Pb200  1  0.16673215  -0.00625160  0.16828805  1
  Pb2+  Pb201  1  0.16553608  0.66514572  0.83107899  1
  Pb2+  Pb202  1  0.49371707  0.17187426  0.66394783  1
  Pb2+  Pb203  1  0.67235914  0.33117135  0.33080044  1
  Pb2+  Pb204  1  0.33322908  0.33126580  0.33064538  1
  Pb2+  Pb205  1  0.83175194  0.66949671  0.83696472  1
  Pb2+  Pb206  1  0.00391466  0.33740944  0.66583025  1
  Pb2+  Pb207  1  0.00136319  -0.00557524  0.33038638  1
  Pb2+  Pb208  1  0.66870036  -0.00486409  0.31951056  1
  Pb2+  Pb209  1  0.17266280  0.49790174  0.66630249  1
  Pb2+  Pb210  1  0.66750148  0.33825164  0.66826438  1
  Pb2+  Pb211  1  -0.00035099  -0.00095130  0.67342726  1
  Pb2+  Pb212  1  0.83874051  0.65880153  0.50012869  1
  Pb2+  Pb213  1  0.67734938  0.66272882  0.32988492  1
  Pb2+  Pb214  1  0.66261245  0.82593407  0.50314358  1
  Pb2+  Pb215  1  0.32971204  0.84105643  0.83390764  1
