# generated using pymatgen
data_In22Ag21Sn22Bi21(Te54Pb11)2
_symmetry_space_group_name_H-M   'P 1'
_cell_length_a   19.14228857
_cell_length_b   19.13398048
_cell_length_c   19.15186345
_cell_angle_alpha   89.99152170
_cell_angle_beta   90.00269591
_cell_angle_gamma   89.98930113
_symmetry_Int_Tables_number   1
_chemical_formula_structural   In22Ag21Sn22Bi21(Te54Pb11)2
_chemical_formula_sum   'In22 Ag21 Sn22 Bi21 Te108 Pb22'
_cell_volume   7014.71788252
_cell_formula_units_Z   1
loop_
 _symmetry_equiv_pos_site_id
 _symmetry_equiv_pos_as_xyz
  1  'x, y, z'
loop_
 _atom_type_symbol
 _atom_type_oxidation_number
  In3+  3.0
  Ag+  1.0
  Sn2+  2.0
  Bi3+  3.0
  Te2-  -2.0
  Pb2+  2.0
loop_
 _atom_site_type_symbol
 _atom_site_label
 _atom_site_symmetry_multiplicity
 _atom_site_fract_x
 _atom_site_fract_y
 _atom_site_fract_z
 _atom_site_occupancy
  In3+  In0  1  0.32517576  0.31967592  0.65958245  1
  In3+  In1  1  0.83100464  0.83992511  0.34441563  1
  In3+  In2  1  0.15778375  0.83184001  0.01735920  1
  In3+  In3  1  0.49355097  0.13445532  0.66625594  1
  In3+  In4  1  0.35243009  0.66158598  0.00068028  1
  In3+  In5  1  0.82812812  -0.00603998  0.17605271  1
  In3+  In6  1  0.66149104  0.32311375  0.66272292  1
  In3+  In7  1  0.49077941  0.49303732  0.00331825  1
  In3+  In8  1  0.00814919  0.34071976  0.33960472  1
  In3+  In9  1  0.00678782  0.35749548  -0.01831919  1
  In3+  In10  1  0.67770823  0.50860682  0.83443442  1
  In3+  In11  1  0.49802185  0.33186191  0.81165426  1
  In3+  In12  1  0.66622080  0.00123844  -0.01703356  1
  In3+  In13  1  0.67015225  0.66517557  0.34002439  1
  In3+  In14  1  0.01043690  0.67085983  0.33306612  1
  In3+  In15  1  0.85472065  0.65979418  0.16754813  1
  In3+  In16  1  0.34425783  0.67443632  0.65597560  1
  In3+  In17  1  0.49837050  0.66403154  0.19165359  1
  In3+  In18  1  -0.00211574  0.50151907  0.48012797  1
  In3+  In19  1  0.66311613  0.33373007  0.33389559  1
  In3+  In20  1  0.33374136  0.50625509  0.81926174  1
  In3+  In21  1  0.00087503  0.17910944  0.16728325  1
  Ag+  Ag22  1  0.47040951  0.68385957  0.49870819  1
  Ag+  Ag23  1  0.30564045  0.19531717  0.83128879  1
  Ag+  Ag24  1  0.52391024  0.83262860  0.64670256  1
  Ag+  Ag25  1  0.03154950  0.49708663  0.81156449  1
  Ag+  Ag26  1  0.16496988  0.35106708  0.47439375  1
  Ag+  Ag27  1  -0.00363052  0.48293902  0.17026568  1
  Ag+  Ag28  1  0.66664347  0.02571932  0.33180868  1
  Ag+  Ag29  1  0.33093145  -0.02485358  0.65747609  1
  Ag+  Ag30  1  0.36177045  0.48921419  0.52224169  1
  Ag+  Ag31  1  -0.01556127  0.83761787  0.19102780  1
  Ag+  Ag32  1  0.84775112  0.49987710  -0.01973374  1
  Ag+  Ag33  1  0.81552877  0.64466431  0.81170629  1
  Ag+  Ag34  1  0.62201339  -0.03372675  0.62512322  1
  Ag+  Ag35  1  0.19592458  0.35089829  0.83942995  1
  Ag+  Ag36  1  0.83589896  0.68641879  0.47067175  1
  Ag+  Ag37  1  0.36452710  0.66570765  0.36266548  1
  Ag+  Ag38  1  0.80458698  0.34326035  0.47724883  1
  Ag+  Ag39  1  0.19419594  0.83372382  0.35789315  1
  Ag+  Ag40  1  0.20433144  0.02869062  0.80176306  1
  Ag+  Ag41  1  0.47127396  0.30795176  0.16960180  1
  Ag+  Ag42  1  0.51399932  -0.02259973  0.48276808  1
  Sn2+  Sn43  1  0.17141685  0.51177972  0.33249471  1
  Sn2+  Sn44  1  0.67442915  0.50798773  0.50324247  1
  Sn2+  Sn45  1  0.66966489  0.66302674  0.65733126  1
  Sn2+  Sn46  1  0.49189145  0.33564162  0.49066867  1
  Sn2+  Sn47  1  0.83376905  0.33529335  0.16687112  1
  Sn2+  Sn48  1  0.82684311  0.83201626  0.67267148  1
  Sn2+  Sn49  1  0.66070566  0.83618399  0.49894312  1
  Sn2+  Sn50  1  0.66715536  0.83578846  0.83369216  1
  Sn2+  Sn51  1  0.67393363  0.83457633  0.16762860  1
  Sn2+  Sn52  1  0.33717122  0.16598653  0.15469703  1
  Sn2+  Sn53  1  0.67075967  0.66430381  0.00764212  1
  Sn2+  Sn54  1  0.67546943  0.50530254  0.16021004  1
  Sn2+  Sn55  1  0.16153297  0.33429697  0.16061051  1
  Sn2+  Sn56  1  0.00190258  0.17124608  0.49731371  1
  Sn2+  Sn57  1  0.15552413  0.66985376  0.83047629  1
  Sn2+  Sn58  1  0.32830459  0.50139540  0.17675472  1
  Sn2+  Sn59  1  0.16708465  0.17150666  0.67062873  1
  Sn2+  Sn60  1  -0.00286014  0.00000771  0.00449359  1
  Sn2+  Sn61  1  0.49418779  0.16402825  0.34268722  1
  Sn2+  Sn62  1  0.00372622  0.82112735  0.83313276  1
  Sn2+  Sn63  1  0.16159396  0.66425619  0.49659396  1
  Sn2+  Sn64  1  0.17763478  0.00623403  0.50286891  1
  Bi3+  Bi65  1  0.83253467  0.82963963  0.00152818  1
  Bi3+  Bi66  1  -0.00007932  0.66565126  0.00039082  1
  Bi3+  Bi67  1  0.82441654  0.33453045  0.83587517  1
  Bi3+  Bi68  1  0.83599730  -0.00664257  0.83769142  1
  Bi3+  Bi69  1  0.50393845  -0.00297117  0.83466762  1
  Bi3+  Bi70  1  0.66893520  0.33958756  0.00578306  1
  Bi3+  Bi71  1  0.66348583  0.16806721  0.50499664  1
  Bi3+  Bi72  1  0.33001364  0.83263450  0.16948225  1
  Bi3+  Bi73  1  0.32966178  0.82756963  0.83556413  1
  Bi3+  Bi74  1  0.50051322  0.83090594  -0.00349849  1
  Bi3+  Bi75  1  0.16920965  0.66653003  0.16807214  1
  Bi3+  Bi76  1  0.83175847  0.50043566  0.33541527  1
  Bi3+  Bi77  1  0.33176320  -0.00337402  -0.00469768  1
  Bi3+  Bi78  1  0.82831670  0.16685579  0.66815217  1
  Bi3+  Bi79  1  0.16175515  -0.00293014  0.16758133  1
  Bi3+  Bi80  1  0.33395769  0.17140161  0.50620582  1
  Bi3+  Bi81  1  -0.00065029  0.83300708  0.50133492  1
  Bi3+  Bi82  1  0.66545125  0.17151121  0.83315299  1
  Bi3+  Bi83  1  0.83129737  0.49768563  0.66467934  1
  Bi3+  Bi84  1  0.16309599  0.83025843  0.66924327  1
  Bi3+  Bi85  1  0.49996152  0.49610078  0.33080645  1
  Te2-  Te86  1  0.16356079  0.16205369  0.16912883  1
  Te2-  Te87  1  0.17240853  0.16852882  0.50800761  1
  Te2-  Te88  1  0.16281436  0.16419645  0.82933515  1
  Te2-  Te89  1  0.15717853  0.50444662  0.17164441  1
  Te2-  Te90  1  0.15205919  0.49747169  0.49140404  1
  Te2-  Te91  1  0.17790233  0.50024538  0.83473699  1
  Te2-  Te92  1  0.16851748  0.83291205  0.17090681  1
  Te2-  Te93  1  0.16184658  0.83248615  0.50316603  1
  Te2-  Te94  1  0.16673998  0.83164466  0.83131407  1
  Te2-  Te95  1  0.49566095  0.16258409  0.16799018  1
  Te2-  Te96  1  0.49733948  0.17346803  0.50939354  1
  Te2-  Te97  1  0.50514784  0.16733662  0.82400408  1
  Te2-  Te98  1  0.49939390  0.51292412  0.16695081  1
  Te2-  Te99  1  0.50574382  0.49454087  0.49378321  1
  Te2-  Te100  1  0.48949064  0.49572475  0.84249955  1
  Te2-  Te101  1  0.49714429  0.82445387  0.15993723  1
  Te2-  Te102  1  0.50156657  0.83160156  0.50066770  1
  Te2-  Te103  1  0.49818090  0.83145832  0.83513234  1
  Te2-  Te104  1  0.84079441  0.15886705  0.17005612  1
  Te2-  Te105  1  0.82976505  0.17459212  0.50626199  1
  Te2-  Te106  1  0.82973967  0.16723603  0.83431393  1
  Te2-  Te107  1  0.84030744  0.50604302  0.17468208  1
  Te2-  Te108  1  0.84284120  0.48502050  0.50207401  1
  Te2-  Te109  1  0.83018633  0.49888530  0.83332133  1
  Te2-  Te110  1  0.83556741  0.83454999  0.16315873  1
  Te2-  Te111  1  0.83416856  0.83230872  0.50099683  1
  Te2-  Te112  1  0.83430643  0.83146850  0.83998260  1
  Te2-  Te113  1  0.16838166  -0.01015901  0.00228326  1
  Te2-  Te114  1  0.16919051  -0.01428718  0.33301248  1
  Te2-  Te115  1  0.17527637  -0.00484780  0.66321752  1
  Te2-  Te116  1  0.16068822  0.33356597  -0.01127648  1
  Te2-  Te117  1  0.16251404  0.33599083  0.32736153  1
  Te2-  Te118  1  0.17415878  0.33188253  0.68797005  1
  Te2-  Te119  1  0.16203226  0.67169674  0.00162750  1
  Te2-  Te120  1  0.16188072  0.68050953  0.33129103  1
  Te2-  Te121  1  0.16567275  0.66696229  0.66588033  1
  Te2-  Te122  1  0.50048259  -0.00245373  0.00050187  1
  Te2-  Te123  1  0.50585610  0.00254610  0.33712496  1
  Te2-  Te124  1  0.48563537  -0.01559147  0.67321865  1
  Te2-  Te125  1  0.50370251  0.34155159  0.02361519  1
  Te2-  Te126  1  0.50375826  0.33418164  0.31839742  1
  Te2-  Te127  1  0.49477572  0.34015161  0.66190055  1
  Te2-  Te128  1  0.50316401  0.66636497  -0.00656946  1
  Te2-  Te129  1  0.51160441  0.66041603  0.35167996  1
  Te2-  Te130  1  0.49809108  0.67773216  0.65139874  1
  Te2-  Te131  1  0.82733170  -0.00396288  0.00214591  1
  Te2-  Te132  1  0.82207885  -0.00453230  0.33296007  1
  Te2-  Te133  1  0.83264433  0.00152731  0.67527387  1
  Te2-  Te134  1  0.83414804  0.34743168  -0.00029054  1
  Te2-  Te135  1  0.83570080  0.33662713  0.33360439  1
  Te2-  Te136  1  0.82530151  0.33200398  0.67353938  1
  Te2-  Te137  1  0.83470133  0.66480366  0.01166143  1
  Te2-  Te138  1  0.83012144  0.66356248  0.32428159  1
  Te2-  Te139  1  0.82965194  0.66161953  0.66762535  1
  Te2-  Te140  1  -0.00090286  0.16858021  0.01053302  1
  Te2-  Te141  1  0.00124753  0.16850485  0.32965648  1
  Te2-  Te142  1  -0.00614958  0.16730230  0.66522340  1
  Te2-  Te143  1  -0.00971588  0.50138704  0.01943908  1
  Te2-  Te144  1  -0.00339760  0.50201296  0.32366167  1
  Te2-  Te145  1  -0.00356334  0.49831841  0.66769324  1
  Te2-  Te146  1  -0.00279469  0.82964888  -0.00626405  1
  Te2-  Te147  1  -0.01321545  0.82797296  0.33999662  1
  Te2-  Te148  1  -0.00261582  0.83242864  0.66604284  1
  Te2-  Te149  1  0.33388553  0.16203488  -0.01555618  1
  Te2-  Te150  1  0.33448699  0.16965338  0.34018684  1
  Te2-  Te151  1  0.33914908  0.17133124  0.67582293  1
  Te2-  Te152  1  0.33552717  0.50291128  0.00897797  1
  Te2-  Te153  1  0.33836463  0.51547636  0.33227131  1
  Te2-  Te154  1  0.33477292  0.51302715  0.66493022  1
  Te2-  Te155  1  0.33490838  0.83032058  0.00101400  1
  Te2-  Te156  1  0.33894346  0.82002779  0.33189750  1
  Te2-  Te157  1  0.32659929  0.82836622  0.67127746  1
  Te2-  Te158  1  0.66663181  0.17049285  -0.00067932  1
  Te2-  Te159  1  0.66330031  0.17524465  0.33880139  1
  Te2-  Te160  1  0.66357952  0.16306121  0.66799616  1
  Te2-  Te161  1  0.66803655  0.50050684  -0.00339765  1
  Te2-  Te162  1  0.66868928  0.49493497  0.33350951  1
  Te2-  Te163  1  0.66886564  0.49645276  0.67166678  1
  Te2-  Te164  1  0.66550841  0.83508475  0.00069131  1
  Te2-  Te165  1  0.67680869  0.82225381  0.33379022  1
  Te2-  Te166  1  0.67029713  0.83312498  0.66808668  1
  Te2-  Te167  1  -0.00049460  -0.01386471  0.16384965  1
  Te2-  Te168  1  0.00052973  -0.00037172  0.49891611  1
  Te2-  Te169  1  -0.00353634  -0.00203555  0.84137067  1
  Te2-  Te170  1  0.00011582  0.33292216  0.17355243  1
  Te2-  Te171  1  0.01380735  0.32846186  0.49244053  1
  Te2-  Te172  1  -0.01040972  0.34743220  0.83395519  1
  Te2-  Te173  1  0.00567536  0.68774620  0.16906758  1
  Te2-  Te174  1  -0.01121474  0.66593808  0.49045461  1
  Te2-  Te175  1  -0.00096788  0.64904696  0.84017392  1
  Te2-  Te176  1  0.32938384  -0.00078306  0.16428520  1
  Te2-  Te177  1  0.33704442  0.00796139  0.50866584  1
  Te2-  Te178  1  0.34139842  -0.00815943  0.83566991  1
  Te2-  Te179  1  0.32398572  0.33023789  0.16829443  1
  Te2-  Te180  1  0.32067276  0.34324385  0.50716859  1
  Te2-  Te181  1  0.34454813  0.33807895  0.83227395  1
  Te2-  Te182  1  0.33164537  0.66981967  0.16009317  1
  Te2-  Te183  1  0.32316003  0.65652822  0.50344867  1
  Te2-  Te184  1  0.33011029  0.66354080  0.84164628  1
  Te2-  Te185  1  0.67341982  -0.00221842  0.18157627  1
  Te2-  Te186  1  0.65974167  0.00555838  0.48903594  1
  Te2-  Te187  1  0.66786280  0.00517092  0.82453988  1
  Te2-  Te188  1  0.67451503  0.33646396  0.16822096  1
  Te2-  Te189  1  0.66027314  0.33152839  0.49874322  1
  Te2-  Te190  1  0.65769224  0.33632961  0.84151268  1
  Te2-  Te191  1  0.65272878  0.66788934  0.17225563  1
  Te2-  Te192  1  0.68650015  0.66558871  0.49658309  1
  Te2-  Te193  1  0.67101140  0.66346789  0.83239883  1
  Pb2+  Pb194  1  0.50407361  -0.00566905  0.16983236  1
  Pb2+  Pb195  1  0.66758406  0.16760793  0.16943474  1
  Pb2+  Pb196  1  0.83498042  0.17445624  0.00445966  1
  Pb2+  Pb197  1  0.00144195  0.33361717  0.66213553  1
  Pb2+  Pb198  1  -0.00074290  -0.00151432  0.33116222  1
  Pb2+  Pb199  1  0.16668077  0.15941661  -0.00040202  1
  Pb2+  Pb200  1  0.83337047  0.16783109  0.33879662  1
  Pb2+  Pb201  1  0.00063438  0.17121229  0.83708421  1
  Pb2+  Pb202  1  0.33104768  0.83215565  0.50138927  1
  Pb2+  Pb203  1  0.33366564  0.34319483  0.33929737  1
  Pb2+  Pb204  1  0.82772832  0.00154965  0.50899854  1
  Pb2+  Pb205  1  0.49915553  0.17496850  -0.00699216  1
  Pb2+  Pb206  1  0.33657899  -0.00266088  0.34054839  1
  Pb2+  Pb207  1  0.33365944  0.33344609  0.00054754  1
  Pb2+  Pb208  1  0.50669609  0.83252934  0.33175210  1
  Pb2+  Pb209  1  0.50157589  0.50668304  0.66474208  1
  Pb2+  Pb210  1  -0.00374221  0.66421026  0.66629850  1
  Pb2+  Pb211  1  0.16154001  0.50266394  0.00301578  1
  Pb2+  Pb212  1  0.16710649  0.49622169  0.66032635  1
  Pb2+  Pb213  1  0.50322011  0.66314550  0.82198873  1
  Pb2+  Pb214  1  0.00634997  0.00004818  0.67222147  1
  Pb2+  Pb215  1  0.16740485  0.16037637  0.33935333  1
