# generated using pymatgen
data_In22Ag21Sn22Bi21(Te54Pb11)2
_symmetry_space_group_name_H-M   'P 1'
_cell_length_a   19.10778901
_cell_length_b   19.12811014
_cell_length_c   19.11349425
_cell_angle_alpha   89.99566722
_cell_angle_beta   90.01093533
_cell_angle_gamma   90.01040674
_symmetry_Int_Tables_number   1
_chemical_formula_structural   In22Ag21Sn22Bi21(Te54Pb11)2
_chemical_formula_sum   'In22 Ag21 Sn22 Bi21 Te108 Pb22'
_cell_volume   6985.90337815
_cell_formula_units_Z   1
loop_
 _symmetry_equiv_pos_site_id
 _symmetry_equiv_pos_as_xyz
  1  'x, y, z'
loop_
 _atom_type_symbol
 _atom_type_oxidation_number
  In3+  3.0
  Ag+  1.0
  Sn2+  2.0
  Bi3+  3.0
  Te2-  -2.0
  Pb2+  2.0
loop_
 _atom_site_type_symbol
 _atom_site_label
 _atom_site_symmetry_multiplicity
 _atom_site_fract_x
 _atom_site_fract_y
 _atom_site_fract_z
 _atom_site_occupancy
  In3+  In0  1  0.66940098  0.33065536  0.33072376  1
  In3+  In1  1  0.82614204  0.82633060  0.34625481  1
  In3+  In2  1  0.49915501  0.00345680  0.18617663  1
  In3+  In3  1  0.83452062  0.33817751  0.17358237  1
  In3+  In4  1  0.15347341  0.32734370  0.83396647  1
  In3+  In5  1  0.66417922  0.00105087  0.64769568  1
  In3+  In6  1  -0.00859676  0.16542394  0.83826481  1
  In3+  In7  1  -0.02597240  0.17031021  0.16623739  1
  In3+  In8  1  0.68354145  0.32485080  0.00752423  1
  In3+  In9  1  0.13806874  0.49867727  0.66927314  1
  In3+  In10  1  0.49773684  0.64770316  0.16674964  1
  In3+  In11  1  0.52421781  0.33688181  0.48814952  1
  In3+  In12  1  -0.00824827  0.01988498  0.66851857  1
  In3+  In13  1  -0.00292383  0.47219282  0.50283070  1
  In3+  In14  1  0.35476837  -0.00276170  -0.00326528  1
  In3+  In15  1  0.83141578  0.83196715  0.69091836  1
  In3+  In16  1  0.17170930  0.50014057  -0.00625150  1
  In3+  In17  1  0.14245719  0.83551211  0.66487222  1
  In3+  In18  1  0.17544416  0.01049600  0.49854158  1
  In3+  In19  1  0.67268127  0.84823611  0.16446078  1
  In3+  In20  1  0.01133405  0.49594006  0.16379770  1
  In3+  In21  1  0.67647454  -0.00930977  -0.00610910  1
  Ag+  Ag22  1  -0.00604140  0.16066826  0.47529708  1
  Ag+  Ag23  1  0.66284268  0.68560924  0.33581346  1
  Ag+  Ag24  1  0.32277542  0.18774010  0.81667173  1
  Ag+  Ag25  1  0.33373555  0.69389142  -0.01916017  1
  Ag+  Ag26  1  0.66937314  -0.01386836  0.31986613  1
  Ag+  Ag27  1  0.52371077  -0.01228114  0.49301576  1
  Ag+  Ag28  1  -0.01549407  0.33759210  -0.01904278  1
  Ag+  Ag29  1  0.82886309  0.02447930  0.81250435  1
  Ag+  Ag30  1  0.66865833  0.82004701  0.52182055  1
  Ag+  Ag31  1  0.66552940  0.15219059  0.17285305  1
  Ag+  Ag32  1  0.49342524  0.48027377  0.33243028  1
  Ag+  Ag33  1  0.82238620  0.35993932  0.50743284  1
  Ag+  Ag34  1  0.51731288  0.85943792  0.02595393  1
  Ag+  Ag35  1  0.36204833  0.48511600  0.51988900  1
  Ag+  Ag36  1  0.86606260  0.69586129  0.85656533  1
  Ag+  Ag37  1  0.83362959  0.47161186  0.68812155  1
  Ag+  Ag38  1  0.31290249  0.50203162  0.14727886  1
  Ag+  Ag39  1  0.85606560  0.81657811  -0.00592299  1
  Ag+  Ag40  1  -0.02971386  0.80638705  0.83605630  1
  Ag+  Ag41  1  0.01889620  0.32306777  0.64685620  1
  Ag+  Ag42  1  0.49253271  0.14649854  0.36088777  1
  Sn2+  Sn43  1  0.49703740  0.50438314  0.00787099  1
  Sn2+  Sn44  1  0.16125202  0.16467747  0.66678862  1
  Sn2+  Sn45  1  0.67371887  0.66924466  0.66326637  1
  Sn2+  Sn46  1  0.34693965  0.17353982  0.16558580  1
  Sn2+  Sn47  1  0.82940990  0.66940684  0.49765357  1
  Sn2+  Sn48  1  0.66676596  0.83106667  0.83870678  1
  Sn2+  Sn49  1  0.33637035  0.17506650  0.50136522  1
  Sn2+  Sn50  1  0.16147085  0.83081955  -0.00813830  1
  Sn2+  Sn51  1  0.82695146  -0.00124970  0.16706994  1
  Sn2+  Sn52  1  0.83468428  0.16020717  -0.00078108  1
  Sn2+  Sn53  1  0.83382154  0.33883132  0.82445994  1
  Sn2+  Sn54  1  0.50977712  0.49673704  0.66161656  1
  Sn2+  Sn55  1  -0.00556698  0.49266777  0.83641663  1
  Sn2+  Sn56  1  0.82360256  0.67169428  0.15787039  1
  Sn2+  Sn57  1  0.15559107  0.83116152  0.33764909  1
  Sn2+  Sn58  1  0.33401384  0.00161414  0.67289925  1
  Sn2+  Sn59  1  0.16627782  0.32735251  0.16263762  1
  Sn2+  Sn60  1  0.33823016  0.34474080  0.33766722  1
  Sn2+  Sn61  1  0.83469901  0.16917680  0.65882620  1
  Sn2+  Sn62  1  0.32983869  0.33401824  0.65960239  1
  Sn2+  Sn63  1  0.49510344  0.32682974  0.83115273  1
  Sn2+  Sn64  1  0.16703668  0.66870609  0.83560312  1
  Bi3+  Bi65  1  0.34164776  0.66362104  0.33439160  1
  Bi3+  Bi66  1  0.50326515  0.83561031  0.33394875  1
  Bi3+  Bi67  1  0.66639756  0.49960196  0.83012977  1
  Bi3+  Bi68  1  -0.00344704  0.33319186  0.33437122  1
  Bi3+  Bi69  1  0.33543284  0.32721335  0.00269497  1
  Bi3+  Bi70  1  0.50276337  0.83356590  0.66532995  1
  Bi3+  Bi71  1  0.49944823  0.33008462  0.16631139  1
  Bi3+  Bi72  1  0.33644496  0.66342060  0.66518592  1
  Bi3+  Bi73  1  0.66909293  0.50016207  0.16416710  1
  Bi3+  Bi74  1  0.16819214  0.16917421  0.00038830  1
  Bi3+  Bi75  1  0.83406463  0.00193992  0.50058153  1
  Bi3+  Bi76  1  0.50037694  0.66259753  0.83872131  1
  Bi3+  Bi77  1  0.83047798  0.50112369  0.32960250  1
  Bi3+  Bi78  1  0.16866375  0.66601058  0.16705450  1
  Bi3+  Bi79  1  0.66458854  0.33125473  0.67280162  1
  Bi3+  Bi80  1  0.16503465  0.66988504  0.50219584  1
  Bi3+  Bi81  1  0.49594131  0.16712876  0.66757580  1
  Bi3+  Bi82  1  0.33270544  0.83387471  0.83175790  1
  Bi3+  Bi83  1  -0.00495215  0.01074650  -0.00187090  1
  Bi3+  Bi84  1  0.50106755  0.16827595  0.00096115  1
  Bi3+  Bi85  1  0.82493679  0.16575879  0.33244055  1
  Te2-  Te86  1  0.17750737  0.16706194  0.16423459  1
  Te2-  Te87  1  0.16127011  0.16337282  0.50361932  1
  Te2-  Te88  1  0.17492327  0.17134665  0.83647011  1
  Te2-  Te89  1  0.16639312  0.50008983  0.16896558  1
  Te2-  Te90  1  0.15279131  0.50528855  0.50875045  1
  Te2-  Te91  1  0.15942046  0.49615294  0.83043346  1
  Te2-  Te92  1  0.16486957  0.83000476  0.16610582  1
  Te2-  Te93  1  0.16327794  0.83280097  0.50398433  1
  Te2-  Te94  1  0.17014471  0.83267626  0.82440232  1
  Te2-  Te95  1  0.50815539  0.16669714  0.16381160  1
  Te2-  Te96  1  0.49674751  0.17667356  0.50546888  1
  Te2-  Te97  1  0.49248268  0.16266138  0.83280356  1
  Te2-  Te98  1  0.50477542  0.49332914  0.17663579  1
  Te2-  Te99  1  0.50616128  0.49182803  0.49162672  1
  Te2-  Te100  1  0.50357166  0.49889920  0.83287624  1
  Te2-  Te101  1  0.50396713  0.84681397  0.17047913  1
  Te2-  Te102  1  0.51173195  0.83998091  0.49970069  1
  Te2-  Te103  1  0.49823721  0.82580426  0.83077559  1
  Te2-  Te104  1  0.81967255  0.17055536  0.16972463  1
  Te2-  Te105  1  0.84340721  0.16139394  0.49678324  1
  Te2-  Te106  1  0.83510257  0.17281355  0.83456991  1
  Te2-  Te107  1  0.83505328  0.50069777  0.16695850  1
  Te2-  Te108  1  0.84408840  0.50549452  0.49176402  1
  Te2-  Te109  1  0.83144713  0.50011784  0.83248315  1
  Te2-  Te110  1  0.82766974  0.83047218  0.14895135  1
  Te2-  Te111  1  0.82112104  0.83796101  0.49811213  1
  Te2-  Te112  1  0.82462464  0.83591861  0.84278467  1
  Te2-  Te113  1  0.15674698  0.00383530  -0.00233025  1
  Te2-  Te114  1  0.16461705  -0.00351651  0.33948679  1
  Te2-  Te115  1  0.16294923  -0.00542405  0.66152572  1
  Te2-  Te116  1  0.17266563  0.33478813  -0.00418188  1
  Te2-  Te117  1  0.16334103  0.33422779  0.33207009  1
  Te2-  Te118  1  0.16318730  0.33968359  0.67576257  1
  Te2-  Te119  1  0.18114745  0.66069737  0.00440364  1
  Te2-  Te120  1  0.16810114  0.67003478  0.33435356  1
  Te2-  Te121  1  0.17142082  0.66129711  0.66566474  1
  Te2-  Te122  1  0.50989654  0.00420115  -0.00442568  1
  Te2-  Te123  1  0.51414649  0.00198956  0.33986000  1
  Te2-  Te124  1  0.50324066  0.00036567  0.65418375  1
  Te2-  Te125  1  0.49841097  0.33140835  0.00029802  1
  Te2-  Te126  1  0.50717206  0.33475647  0.33404235  1
  Te2-  Te127  1  0.50150003  0.33186177  0.66340020  1
  Te2-  Te128  1  0.48289625  0.66279699  0.00330782  1
  Te2-  Te129  1  0.50783351  0.67555044  0.32671852  1
  Te2-  Te130  1  0.50175996  0.66609154  0.66595108  1
  Te2-  Te131  1  0.83351873  -0.00011498  0.00671402  1
  Te2-  Te132  1  0.82191331  0.00268364  0.33238849  1
  Te2-  Te133  1  0.83161531  -0.00216763  0.66690751  1
  Te2-  Te134  1  0.83780745  0.32802294  0.00109617  1
  Te2-  Te135  1  0.83113842  0.33227909  0.34115662  1
  Te2-  Te136  1  0.82553620  0.32722709  0.65841804  1
  Te2-  Te137  1  0.83471136  0.66963826  -0.00083444  1
  Te2-  Te138  1  0.81838235  0.66911267  0.32723109  1
  Te2-  Te139  1  0.82931228  0.67978506  0.66457978  1
  Te2-  Te140  1  0.00535593  0.17815033  0.00327310  1
  Te2-  Te141  1  -0.00187120  0.16886341  0.32456497  1
  Te2-  Te142  1  0.00323836  0.17470609  0.67956940  1
  Te2-  Te143  1  0.00904453  0.48680028  0.00541945  1
  Te2-  Te144  1  -0.00346517  0.49580420  0.33057028  1
  Te2-  Te145  1  -0.01406979  0.48595532  0.66152064  1
  Te2-  Te146  1  0.00403701  0.83889267  -0.01484994  1
  Te2-  Te147  1  -0.01435249  0.83459645  0.33020060  1
  Te2-  Te148  1  -0.01010328  0.83428711  0.68356102  1
  Te2-  Te149  1  0.33444890  0.16111643  -0.00018691  1
  Te2-  Te150  1  0.34710396  0.17115133  0.33538087  1
  Te2-  Te151  1  0.33303592  0.16494983  0.67142072  1
  Te2-  Te152  1  0.32887461  0.49039373  0.00118333  1
  Te2-  Te153  1  0.34402340  0.50302417  0.33993774  1
  Te2-  Te154  1  0.34226428  0.50185592  0.66428876  1
  Te2-  Te155  1  0.33015386  0.84122736  -0.00303484  1
  Te2-  Te156  1  0.33430352  0.83260187  0.33263055  1
  Te2-  Te157  1  0.33938424  0.82937461  0.66572172  1
  Te2-  Te158  1  0.66516050  0.16988063  0.01027357  1
  Te2-  Te159  1  0.66408725  0.17722144  0.32578807  1
  Te2-  Te160  1  0.66188886  0.16299604  0.66827760  1
  Te2-  Te161  1  0.66420720  0.49463243  -0.00192048  1
  Te2-  Te162  1  0.67028826  0.48917695  0.32875719  1
  Te2-  Te163  1  0.67974771  0.49768257  0.66755170  1
  Te2-  Te164  1  0.66030289  0.83634528  0.00839593  1
  Te2-  Te165  1  0.67183446  0.83496471  0.31948520  1
  Te2-  Te166  1  0.66465298  0.84022049  0.66878455  1
  Te2-  Te167  1  -0.00228354  0.00840727  0.16240532  1
  Te2-  Te168  1  -0.00092161  0.01117371  0.51129052  1
  Te2-  Te169  1  -0.01398225  0.01157171  0.83065964  1
  Te2-  Te170  1  -0.00177121  0.33260266  0.17131996  1
  Te2-  Te171  1  -0.00586371  0.31849997  0.49987294  1
  Te2-  Te172  1  0.00007101  0.32993471  0.83444785  1
  Te2-  Te173  1  0.00220794  0.66220344  0.16533952  1
  Te2-  Te174  1  0.00020503  0.67732046  0.49969013  1
  Te2-  Te175  1  0.00686174  0.65991750  0.83159128  1
  Te2-  Te176  1  0.34289362  0.00102035  0.16213388  1
  Te2-  Te177  1  0.32672120  0.00377814  0.50376842  1
  Te2-  Te178  1  0.33295572  -0.00540278  0.83809640  1
  Te2-  Te179  1  0.33739978  0.34391903  0.16759854  1
  Te2-  Te180  1  0.32870800  0.34102488  0.50171024  1
  Te2-  Te181  1  0.33527666  0.33235962  0.83498917  1
  Te2-  Te182  1  0.33404310  0.65190387  0.17401766  1
  Te2-  Te183  1  0.33058349  0.65965182  0.50046010  1
  Te2-  Te184  1  0.33461784  0.66727807  0.83383444  1
  Te2-  Te185  1  0.66245758  0.00292438  0.16968818  1
  Te2-  Te186  1  0.67087886  -0.00090063  0.49536941  1
  Te2-  Te187  1  0.67989671  -0.00083867  0.84240269  1
  Te2-  Te188  1  0.66597510  0.33781586  0.16187466  1
  Te2-  Te189  1  0.67771417  0.33288453  0.50769740  1
  Te2-  Te190  1  0.66555033  0.33555837  0.83700200  1
  Te2-  Te191  1  0.65597506  0.66114904  0.16809416  1
  Te2-  Te192  1  0.66899379  0.67490866  0.49100145  1
  Te2-  Te193  1  0.66158900  0.66247396  0.83230555  1
  Pb2+  Pb194  1  0.17031116  -0.00040214  0.16435674  1
  Pb2+  Pb195  1  -0.00999935  0.00141246  0.33627655  1
  Pb2+  Pb196  1  0.16145531  0.33331859  0.50330480  1
  Pb2+  Pb197  1  -0.00891886  0.84303177  0.50864472  1
  Pb2+  Pb198  1  0.66356746  0.16611052  0.84089171  1
  Pb2+  Pb199  1  -0.01088770  0.66373275  0.33393000  1
  Pb2+  Pb200  1  0.00827380  0.66113024  -0.00100928  1
  Pb2+  Pb201  1  0.17837526  0.50088829  0.34024651  1
  Pb2+  Pb202  1  -0.00478082  0.66068047  0.66396151  1
  Pb2+  Pb203  1  0.34080722  0.00418391  0.33685757  1
  Pb2+  Pb204  1  0.33759973  0.82245574  0.16394492  1
  Pb2+  Pb205  1  0.50111499  0.66799635  0.49455291  1
  Pb2+  Pb206  1  0.15764386  0.00239646  0.82946991  1
  Pb2+  Pb207  1  0.66909599  0.16385126  0.49351958  1
  Pb2+  Pb208  1  0.83578846  0.49945177  -0.00096783  1
  Pb2+  Pb209  1  0.33726065  0.83173676  0.49902280  1
  Pb2+  Pb210  1  0.32963026  0.49800144  0.83170194  1
  Pb2+  Pb211  1  0.65786266  0.66611159  0.00126357  1
  Pb2+  Pb212  1  0.67307267  0.50809377  0.49736976  1
  Pb2+  Pb213  1  -0.00615499  0.83496029  0.15451837  1
  Pb2+  Pb214  1  0.50808313  -0.00595909  0.82479101  1
  Pb2+  Pb215  1  0.17723643  0.16781988  0.33447126  1
