# generated using pymatgen
data_In22Ag21Sn22Bi21(Te54Pb11)2
_symmetry_space_group_name_H-M   'P 1'
_cell_length_a   19.12422487
_cell_length_b   19.13066409
_cell_length_c   19.11912691
_cell_angle_alpha   90.02978464
_cell_angle_beta   90.01070347
_cell_angle_gamma   89.98243180
_symmetry_Int_Tables_number   1
_chemical_formula_structural   In22Ag21Sn22Bi21(Te54Pb11)2
_chemical_formula_sum   'In22 Ag21 Sn22 Bi21 Te108 Pb22'
_cell_volume   6994.90559092
_cell_formula_units_Z   1
loop_
 _symmetry_equiv_pos_site_id
 _symmetry_equiv_pos_as_xyz
  1  'x, y, z'
loop_
 _atom_type_symbol
 _atom_type_oxidation_number
  In3+  3.0
  Ag+  1.0
  Sn2+  2.0
  Bi3+  3.0
  Te2-  -2.0
  Pb2+  2.0
loop_
 _atom_site_type_symbol
 _atom_site_label
 _atom_site_symmetry_multiplicity
 _atom_site_fract_x
 _atom_site_fract_y
 _atom_site_fract_z
 _atom_site_occupancy
  In3+  In0  1  0.51093451  0.49744484  0.32530613  1
  In3+  In1  1  0.64823154  0.34056166  -0.00406666  1
  In3+  In2  1  -0.00371633  0.49900351  0.52093231  1
  In3+  In3  1  0.83205657  0.32986542  0.17164419  1
  In3+  In4  1  0.00621183  -0.01457383  0.00073707  1
  In3+  In5  1  0.33688197  0.00960148  0.31964886  1
  In3+  In6  1  0.85079020  0.33993319  0.84926485  1
  In3+  In7  1  0.33530791  0.67040968  0.00387774  1
  In3+  In8  1  0.17522312  0.16618682  0.66144628  1
  In3+  In9  1  0.66222504  0.00037139  0.68171850  1
  In3+  In10  1  0.33614081  0.49992854  0.84665852  1
  In3+  In11  1  0.83765160  0.16754058  0.67700667  1
  In3+  In12  1  0.84274193  0.50627219  0.32797777  1
  In3+  In13  1  0.15855626  0.68156435  0.83107651  1
  In3+  In14  1  0.49498299  0.33441918  0.51175901  1
  In3+  In15  1  0.01163842  0.33477467  0.32041221  1
  In3+  In16  1  0.66357464  0.84429351  0.18073132  1
  In3+  In17  1  0.51552181  0.68487147  0.83180117  1
  In3+  In18  1  0.17406988  0.64786625  0.16671886  1
  In3+  In19  1  0.82618207  0.83967906  -0.02027410  1
  In3+  In20  1  0.65062678  0.49784046  0.17068267  1
  In3+  In21  1  0.01696325  0.32814403  0.66802662  1
  Ag+  Ag22  1  0.18190457  0.34366275  0.16136737  1
  Ag+  Ag23  1  0.64434708  0.83625486  0.83136437  1
  Ag+  Ag24  1  0.69941189  -0.02865991  0.35724500  1
  Ag+  Ag25  1  0.48255851  0.32546118  0.16741121  1
  Ag+  Ag26  1  -0.02141944  -0.02614691  0.64589865  1
  Ag+  Ag27  1  0.63956355  0.68278588  0.33023045  1
  Ag+  Ag28  1  0.81468837  -0.03127979  0.16591007  1
  Ag+  Ag29  1  0.14288880  0.64372013  0.53139330  1
  Ag+  Ag30  1  0.31692189  0.48807959  0.14859692  1
  Ag+  Ag31  1  0.18959253  0.18569763  0.32430359  1
  Ag+  Ag32  1  0.02627248  0.49801868  0.83403773  1
  Ag+  Ag33  1  0.51979799  0.86438368  0.33393714  1
  Ag+  Ag34  1  -0.00214350  0.85835395  0.47648733  1
  Ag+  Ag35  1  0.35216866  0.18841671  0.16713814  1
  Ag+  Ag36  1  0.00312355  0.85852787  0.83293534  1
  Ag+  Ag37  1  0.52070503  0.33246374  0.81089359  1
  Ag+  Ag38  1  -0.01661609  0.31351229  0.02157323  1
  Ag+  Ag39  1  0.80809258  0.86593014  0.30939441  1
  Ag+  Ag40  1  0.16274664  0.02434047  0.81105529  1
  Ag+  Ag41  1  0.34932925  0.32053235  0.69503103  1
  Ag+  Ag42  1  0.47696506  0.16032864  0.67079693  1
  Sn2+  Sn43  1  0.49234094  0.67103527  0.49919662  1
  Sn2+  Sn44  1  -0.00279848  0.67724057  0.66796324  1
  Sn2+  Sn45  1  0.16045280  0.49306174  -0.00337988  1
  Sn2+  Sn46  1  0.83975450  0.50037186  0.00128204  1
  Sn2+  Sn47  1  0.49706559  0.49144089  0.66972673  1
  Sn2+  Sn48  1  0.16971890  0.50048588  0.33481363  1
  Sn2+  Sn49  1  0.50099650  0.17762613  0.33794433  1
  Sn2+  Sn50  1  0.66562910  0.67257118  0.65579437  1
  Sn2+  Sn51  1  0.49961872  0.16874663  -0.00391679  1
  Sn2+  Sn52  1  0.00023225  0.16842352  0.83724918  1
  Sn2+  Sn53  1  0.65796856  0.16603520  0.82895016  1
  Sn2+  Sn54  1  -0.00151795  0.00499758  0.33224902  1
  Sn2+  Sn55  1  0.65525865  0.50538178  0.83329817  1
  Sn2+  Sn56  1  0.01057287  0.16369418  0.16865552  1
  Sn2+  Sn57  1  0.83561004  0.48847364  0.67081251  1
  Sn2+  Sn58  1  0.33744439  0.16824801  0.84089850  1
  Sn2+  Sn59  1  0.50257752  0.01309938  0.17095998  1
  Sn2+  Sn60  1  0.00015293  0.66588446  0.33640712  1
  Sn2+  Sn61  1  0.83466258  0.16603862  0.00417039  1
  Sn2+  Sn62  1  0.66239021  0.16307481  0.49948456  1
  Sn2+  Sn63  1  0.50499095  0.00456475  0.49485795  1
  Sn2+  Sn64  1  0.16262602  0.84009326  0.66104024  1
  Bi3+  Bi65  1  0.00330717  0.66208668  -0.00185559  1
  Bi3+  Bi66  1  0.33348872  0.50125815  0.49553417  1
  Bi3+  Bi67  1  0.16861223  -0.00119169  0.49926065  1
  Bi3+  Bi68  1  0.32761628  0.83199041  0.49930048  1
  Bi3+  Bi69  1  0.32956409  0.66471826  0.33498549  1
  Bi3+  Bi70  1  0.33623010  0.65603664  0.66688662  1
  Bi3+  Bi71  1  0.33248747  0.00191238  -0.00113141  1
  Bi3+  Bi72  1  0.32770514  0.33072010  0.00153194  1
  Bi3+  Bi73  1  0.67144692  0.00260261  -0.00243043  1
  Bi3+  Bi74  1  0.00034344  0.17230952  0.50156129  1
  Bi3+  Bi75  1  0.16432233  0.83427843  0.33348832  1
  Bi3+  Bi76  1  0.83517874  0.65991250  0.17108802  1
  Bi3+  Bi77  1  0.16616727  0.32838167  0.83995099  1
  Bi3+  Bi78  1  0.33600219  0.33541189  0.32871869  1
  Bi3+  Bi79  1  0.16553763  0.82773406  0.00085267  1
  Bi3+  Bi80  1  0.16510972  0.00118362  0.17116866  1
  Bi3+  Bi81  1  0.83268767  0.17172633  0.33169312  1
  Bi3+  Bi82  1  0.83577288  0.66675622  0.50029494  1
  Bi3+  Bi83  1  0.83784718  0.83384354  0.66569426  1
  Bi3+  Bi84  1  0.82904165  0.33111092  0.50040265  1
  Bi3+  Bi85  1  0.66844872  0.32958334  0.33113161  1
  Te2-  Te86  1  0.16521177  0.16135076  0.17755652  1
  Te2-  Te87  1  0.16381857  0.16502882  0.48973964  1
  Te2-  Te88  1  0.16913047  0.17058405  0.83020523  1
  Te2-  Te89  1  0.17031430  0.49328459  0.16566671  1
  Te2-  Te90  1  0.16424561  0.50114998  0.49644052  1
  Te2-  Te91  1  0.17751606  0.48887065  0.83451135  1
  Te2-  Te92  1  0.16560369  0.83554763  0.16558552  1
  Te2-  Te93  1  0.15671227  0.83639494  0.49845941  1
  Te2-  Te94  1  0.15660317  0.83267726  0.83645854  1
  Te2-  Te95  1  0.49817218  0.17175065  0.16491749  1
  Te2-  Te96  1  0.50157579  0.17244287  0.50942253  1
  Te2-  Te97  1  0.49767262  0.17858929  0.82536834  1
  Te2-  Te98  1  0.49802908  0.49310289  0.16949575  1
  Te2-  Te99  1  0.49678496  0.49570125  0.49939577  1
  Te2-  Te100  1  0.49185136  0.48265062  0.83037505  1
  Te2-  Te101  1  0.50841729  0.83512552  0.18063558  1
  Te2-  Te102  1  0.49694673  0.83302697  0.48753865  1
  Te2-  Te103  1  0.49591538  0.83576416  0.83053106  1
  Te2-  Te104  1  0.83623443  0.17475736  0.16755474  1
  Te2-  Te105  1  0.83418207  0.16852066  0.49806154  1
  Te2-  Te106  1  0.83302974  0.17806508  0.83204857  1
  Te2-  Te107  1  0.83564326  0.49770514  0.16892430  1
  Te2-  Te108  1  0.83790382  0.49808755  0.49972082  1
  Te2-  Te109  1  0.82194732  0.49106029  0.83201460  1
  Te2-  Te110  1  0.81937923  0.82100630  0.16971668  1
  Te2-  Te111  1  0.84895044  0.82984096  0.50408691  1
  Te2-  Te112  1  0.85080062  0.83395571  0.82880774  1
  Te2-  Te113  1  0.16715527  -0.00733215  0.00530227  1
  Te2-  Te114  1  0.16647534  -0.00245629  0.33516928  1
  Te2-  Te115  1  0.16332593  0.00885441  0.66426135  1
  Te2-  Te116  1  0.16428491  0.33115917  0.00830543  1
  Te2-  Te117  1  0.16700182  0.33163110  0.31879140  1
  Te2-  Te118  1  0.17022297  0.32654152  0.66685204  1
  Te2-  Te119  1  0.16906549  0.66516301  0.00457574  1
  Te2-  Te120  1  0.16783291  0.66869262  0.32532292  1
  Te2-  Te121  1  0.17051878  0.66735654  0.67293663  1
  Te2-  Te122  1  0.49907005  0.00189633  0.00014764  1
  Te2-  Te123  1  0.49194615  0.00787006  0.33267869  1
  Te2-  Te124  1  0.50567221  0.00985931  0.66610577  1
  Te2-  Te125  1  0.49581677  0.32900594  0.01340062  1
  Te2-  Te126  1  0.50309189  0.33762907  0.31887608  1
  Te2-  Te127  1  0.49340967  0.32341326  0.66505976  1
  Te2-  Te128  1  0.49901169  0.66717044  -0.00918804  1
  Te2-  Te129  1  0.49452239  0.65475134  0.33664228  1
  Te2-  Te130  1  0.49965255  0.66676301  0.67183248  1
  Te2-  Te131  1  0.83512481  -0.00683531  0.01252051  1
  Te2-  Te132  1  0.83752421  0.00857089  0.31887318  1
  Te2-  Te133  1  0.83595481  0.00213955  0.66952253  1
  Te2-  Te134  1  0.83893425  0.33648402  -0.00075083  1
  Te2-  Te135  1  0.83356485  0.33814912  0.33728439  1
  Te2-  Te136  1  0.82813403  0.32782393  0.66175025  1
  Te2-  Te137  1  0.83729151  0.67001378  0.00381359  1
  Te2-  Te138  1  0.84033564  0.66090935  0.33720330  1
  Te2-  Te139  1  0.82881602  0.66493167  0.66328870  1
  Te2-  Te140  1  -0.00505779  0.16989000  -0.00259670  1
  Te2-  Te141  1  -0.00530262  0.17439777  0.33900193  1
  Te2-  Te142  1  -0.00205812  0.17409428  0.66489801  1
  Te2-  Te143  1  -0.00008459  0.50132848  -0.01453809  1
  Te2-  Te144  1  0.00086492  0.49070261  0.33068665  1
  Te2-  Te145  1  -0.00277908  0.49921450  0.67393145  1
  Te2-  Te146  1  0.00076749  0.82773230  -0.00753532  1
  Te2-  Te147  1  0.00248466  0.83551101  0.33176357  1
  Te2-  Te148  1  0.00224921  0.83359719  0.67989041  1
  Te2-  Te149  1  0.33244898  0.16432789  0.01064743  1
  Te2-  Te150  1  0.33619910  0.16849641  0.32184874  1
  Te2-  Te151  1  0.32978200  0.17471980  0.66830940  1
  Te2-  Te152  1  0.33079264  0.49911454  0.00223314  1
  Te2-  Te153  1  0.33523666  0.50000638  0.33367955  1
  Te2-  Te154  1  0.33558684  0.49452323  0.65711885  1
  Te2-  Te155  1  0.33331364  0.83358711  0.00058328  1
  Te2-  Te156  1  0.32953739  0.82835695  0.33824008  1
  Te2-  Te157  1  0.33232132  0.82714461  0.66220189  1
  Te2-  Te158  1  0.66728823  0.16528976  -0.00532835  1
  Te2-  Te159  1  0.66684241  0.16760703  0.33170211  1
  Te2-  Te160  1  0.67719653  0.15895012  0.66919631  1
  Te2-  Te161  1  0.66929384  0.49597755  0.00434135  1
  Te2-  Te162  1  0.66964079  0.49094110  0.32911113  1
  Te2-  Te163  1  0.66221139  0.50290938  0.67075998  1
  Te2-  Te164  1  0.67167426  0.83637743  -0.01639084  1
  Te2-  Te165  1  0.66455472  0.82927141  0.33247516  1
  Te2-  Te166  1  0.67126311  0.83999260  0.67725909  1
  Te2-  Te167  1  0.00150783  0.00172839  0.15973719  1
  Te2-  Te168  1  0.00276600  0.00562411  0.50347161  1
  Te2-  Te169  1  0.01188400  0.00861335  0.84649939  1
  Te2-  Te170  1  -0.00913144  0.33107802  0.16618483  1
  Te2-  Te171  1  -0.00516057  0.33800881  0.50642782  1
  Te2-  Te172  1  0.00151818  0.34345129  0.82570819  1
  Te2-  Te173  1  0.00107094  0.66519454  0.16415987  1
  Te2-  Te174  1  -0.00026168  0.65531704  0.50314341  1
  Te2-  Te175  1  0.00690157  0.64946408  0.83505316  1
  Te2-  Te176  1  0.33322904  -0.00269058  0.16398053  1
  Te2-  Te177  1  0.33380756  -0.00402247  0.49872272  1
  Te2-  Te178  1  0.32068437  0.00180888  0.83637272  1
  Te2-  Te179  1  0.33087290  0.33642750  0.16605432  1
  Te2-  Te180  1  0.33591103  0.33532818  0.48954899  1
  Te2-  Te181  1  0.33028406  0.33464331  0.84077052  1
  Te2-  Te182  1  0.33211790  0.65661065  0.16766112  1
  Te2-  Te183  1  0.32776614  0.66672174  0.50153394  1
  Te2-  Te184  1  0.32592849  0.65503627  0.82832083  1
  Te2-  Te185  1  0.66782369  -0.00316619  0.15934961  1
  Te2-  Te186  1  0.66470971  -0.00086498  0.49669702  1
  Te2-  Te187  1  0.67088345  -0.00557701  0.83613864  1
  Te2-  Te188  1  0.67562321  0.34023748  0.16428827  1
  Te2-  Te189  1  0.66268890  0.33169563  0.49799317  1
  Te2-  Te190  1  0.66448706  0.33407499  0.84488436  1
  Te2-  Te191  1  0.67005971  0.65211801  0.18004494  1
  Te2-  Te192  1  0.66774926  0.66647931  0.48778217  1
  Te2-  Te193  1  0.66644331  0.67381416  0.83231267  1
  Pb2+  Pb194  1  0.66130238  0.33108381  0.67431881  1
  Pb2+  Pb195  1  0.66594858  0.17041721  0.16316626  1
  Pb2+  Pb196  1  0.33442445  0.16527041  0.49459659  1
  Pb2+  Pb197  1  0.16265855  0.16373736  0.00795851  1
  Pb2+  Pb198  1  0.49946834  0.49733130  -0.00187960  1
  Pb2+  Pb199  1  0.84465057  0.00534805  0.83832232  1
  Pb2+  Pb200  1  0.32448085  0.82541677  0.83191118  1
  Pb2+  Pb201  1  0.83852213  0.66214976  0.83360746  1
  Pb2+  Pb202  1  0.50636990  0.83508839  0.00982598  1
  Pb2+  Pb203  1  0.50215516  0.83744432  0.65509500  1
  Pb2+  Pb204  1  0.67520733  0.83140715  0.50534802  1
  Pb2+  Pb205  1  0.50135543  0.66425281  0.16780485  1
  Pb2+  Pb206  1  0.49454991  0.01110610  0.83323515  1
  Pb2+  Pb207  1  0.66693801  0.50097015  0.50107452  1
  Pb2+  Pb208  1  0.66993789  0.66659821  0.00881576  1
  Pb2+  Pb209  1  0.16808984  0.49726320  0.66769031  1
  Pb2+  Pb210  1  0.16530775  0.33330735  0.49184188  1
  Pb2+  Pb211  1  0.00395455  0.49773897  0.15880566  1
  Pb2+  Pb212  1  0.83408055  -0.00295935  0.49653891  1
  Pb2+  Pb213  1  0.33054449  0.00359989  0.66746317  1
  Pb2+  Pb214  1  0.33524077  0.82821518  0.17158413  1
  Pb2+  Pb215  1  -0.00633045  0.83446209  0.16605311  1
