# generated using pymatgen
data_In22Ag21Sn22Bi21(Te54Pb11)2
_symmetry_space_group_name_H-M   'P 1'
_cell_length_a   19.16729477
_cell_length_b   19.15227516
_cell_length_c   19.19659425
_cell_angle_alpha   90.00547259
_cell_angle_beta   89.99692064
_cell_angle_gamma   89.99627281
_symmetry_Int_Tables_number   1
_chemical_formula_structural   In22Ag21Sn22Bi21(Te54Pb11)2
_chemical_formula_sum   'In22 Ag21 Sn22 Bi21 Te108 Pb22'
_cell_volume   7047.01792903
_cell_formula_units_Z   1
loop_
 _symmetry_equiv_pos_site_id
 _symmetry_equiv_pos_as_xyz
  1  'x, y, z'
loop_
 _atom_type_symbol
 _atom_type_oxidation_number
  In3+  3.0
  Ag+  1.0
  Sn2+  2.0
  Bi3+  3.0
  Te2-  -2.0
  Pb2+  2.0
loop_
 _atom_site_type_symbol
 _atom_site_label
 _atom_site_symmetry_multiplicity
 _atom_site_fract_x
 _atom_site_fract_y
 _atom_site_fract_z
 _atom_site_occupancy
  In3+  In0  1  0.49819855  0.85129929  0.33739965  1
  In3+  In1  1  0.84303057  0.33758836  0.48710452  1
  In3+  In2  1  0.17747421  0.64268500  0.49997075  1
  In3+  In3  1  0.16565485  0.33879341  0.48667357  1
  In3+  In4  1  0.18217293  0.16641031  0.68449245  1
  In3+  In5  1  0.02180859  0.16471569  0.15267178  1
  In3+  In6  1  0.32814496  0.82542438  0.14949994  1
  In3+  In7  1  0.00644138  0.66750289  0.67286050  1
  In3+  In8  1  0.49125982  0.00988215  0.16189849  1
  In3+  In9  1  0.00080794  0.32289708  0.00310126  1
  In3+  In10  1  0.64632823  0.50281079  0.16281528  1
  In3+  In11  1  0.17999347  0.16439921  0.00944302  1
  In3+  In12  1  0.32663830  0.80283410  0.49627807  1
  In3+  In13  1  0.86947242  0.50073272  0.00960434  1
  In3+  In14  1  0.65534111  0.31981361  0.00672671  1
  In3+  In15  1  0.84642008  0.00400844  0.15382751  1
  In3+  In16  1  0.65654458  0.00105355  0.69663430  1
  In3+  In17  1  0.48037947  0.33076880  0.49385628  1
  In3+  In18  1  0.31500991  0.15235295  0.50368802  1
  In3+  In19  1  0.65635541  0.33244584  0.65248543  1
  In3+  In20  1  0.33097582  0.47340764  0.16926479  1
  In3+  In21  1  0.17699898  0.33945604  0.83774111  1
  Ag+  Ag22  1  0.33990507  0.16585116  0.14771527  1
  Ag+  Ag23  1  0.29756382  0.64344370  0.02454227  1
  Ag+  Ag24  1  0.16711638  0.69234590  0.84595293  1
  Ag+  Ag25  1  0.47147102  0.52607964  0.64792999  1
  Ag+  Ag26  1  0.17711878  0.50299249  0.32111254  1
  Ag+  Ag27  1  0.00228089  0.02318827  0.31526818  1
  Ag+  Ag28  1  0.17198022  0.63913514  0.13680662  1
  Ag+  Ag29  1  0.64341436  -0.00823207  0.00469300  1
  Ag+  Ag30  1  0.36438178  0.49709614  0.46815987  1
  Ag+  Ag31  1  0.16860481  0.34334216  0.13833901  1
  Ag+  Ag32  1  0.48223856  0.16956492  0.64253611  1
  Ag+  Ag33  1  0.86049709  0.17768286  0.30549939  1
  Ag+  Ag34  1  0.02197275  0.52557337  0.47398442  1
  Ag+  Ag35  1  0.17616141  0.53211023  0.02500763  1
  Ag+  Ag36  1  0.00426521  -0.01811317  -0.03004695  1
  Ag+  Ag37  1  0.02977871  0.86377634  0.86933151  1
  Ag+  Ag38  1  0.32315359  0.17193784  0.85110387  1
  Ag+  Ag39  1  0.47517422  0.49824040  0.36283883  1
  Ag+  Ag40  1  0.47630210  0.03506424  0.80865049  1
  Ag+  Ag41  1  0.47748961  0.13642100  -0.01399306  1
  Ag+  Ag42  1  0.15317115  0.82487235  -0.01291187  1
  Sn2+  Sn43  1  -0.00851888  -0.00406164  0.66503593  1
  Sn2+  Sn44  1  0.66768063  0.33169442  0.33033230  1
  Sn2+  Sn45  1  0.83571836  0.85036620  0.33405886  1
  Sn2+  Sn46  1  0.47910418  0.66773271  0.83543037  1
  Sn2+  Sn47  1  0.16754136  0.82438853  0.32485332  1
  Sn2+  Sn48  1  0.00493129  0.67265036  0.00008439  1
  Sn2+  Sn49  1  0.17395969  -0.00192602  0.84171805  1
  Sn2+  Sn50  1  0.33591892  0.83955213  0.83571443  1
  Sn2+  Sn51  1  0.83959887  0.83657134  0.66264877  1
  Sn2+  Sn52  1  0.00315334  0.33190288  0.33233108  1
  Sn2+  Sn53  1  0.48182308  0.66872552  0.17148261  1
  Sn2+  Sn54  1  0.66835448  0.49728023  0.49606024  1
  Sn2+  Sn55  1  0.32373068  -0.00279028  0.00350550  1
  Sn2+  Sn56  1  0.50271858  0.17943165  0.32976412  1
  Sn2+  Sn57  1  0.65693446  0.16001017  0.16666880  1
  Sn2+  Sn58  1  0.83170286  -0.00818462  0.84053004  1
  Sn2+  Sn59  1  0.00290212  0.66367161  0.33412456  1
  Sn2+  Sn60  1  0.01163880  0.82453012  0.49587363  1
  Sn2+  Sn61  1  0.83594166  0.32912522  0.82997075  1
  Sn2+  Sn62  1  0.49987558  0.66283480  0.48705452  1
  Sn2+  Sn63  1  0.66156259  0.66917343  0.00216172  1
  Sn2+  Sn64  1  0.83390395  0.49744422  0.33533560  1
  Bi3+  Bi65  1  0.50442206  0.33291060  0.83438240  1
  Bi3+  Bi66  1  0.83269715  0.00160049  0.50008885  1
  Bi3+  Bi67  1  0.66454954  0.50047212  0.83974189  1
  Bi3+  Bi68  1  0.83300204  0.66122741  0.49780089  1
  Bi3+  Bi69  1  0.83218460  0.16656026  0.66605823  1
  Bi3+  Bi70  1  -0.00333352  0.16462987  0.50231690  1
  Bi3+  Bi71  1  0.49580675  0.83066502  0.00275114  1
  Bi3+  Bi72  1  0.49744718  0.50550717  -0.00559057  1
  Bi3+  Bi73  1  0.66497550  0.16665440  0.83752515  1
  Bi3+  Bi74  1  0.33208600  0.66922203  0.66998271  1
  Bi3+  Bi75  1  0.33343871  0.50092737  0.83623909  1
  Bi3+  Bi76  1  0.84217856  0.66320727  0.83485322  1
  Bi3+  Bi77  1  0.33161749  -0.00019170  0.67091974  1
  Bi3+  Bi78  1  0.00314205  0.50273566  0.83475585  1
  Bi3+  Bi79  1  0.00454972  0.83298707  0.17178974  1
  Bi3+  Bi80  1  0.83170095  0.49853328  0.67272968  1
  Bi3+  Bi81  1  0.16796396  -0.00187142  0.16725363  1
  Bi3+  Bi82  1  0.66883808  0.16787247  0.50004946  1
  Bi3+  Bi83  1  0.66876824  0.83278516  0.83670974  1
  Bi3+  Bi84  1  0.82945545  0.17025125  0.00144752  1
  Bi3+  Bi85  1  0.16339777  0.49620544  0.67568052  1
  Te2-  Te86  1  0.17436588  0.16270014  0.16673694  1
  Te2-  Te87  1  0.16194251  0.17679234  0.50687310  1
  Te2-  Te88  1  0.17605003  0.16899081  0.83594957  1
  Te2-  Te89  1  0.17817858  0.49048905  0.16929670  1
  Te2-  Te90  1  0.15777445  0.49164163  0.51429718  1
  Te2-  Te91  1  0.16872612  0.49488072  0.83587933  1
  Te2-  Te92  1  0.17303390  0.83945712  0.16394058  1
  Te2-  Te93  1  0.17204395  0.83139760  0.49463471  1
  Te2-  Te94  1  0.17031681  0.83854739  0.83891907  1
  Te2-  Te95  1  0.49108455  0.16448765  0.16818365  1
  Te2-  Te96  1  0.50627091  0.17816576  0.49755438  1
  Te2-  Te97  1  0.50796364  0.17149924  0.84646301  1
  Te2-  Te98  1  0.49118438  0.50159141  0.15740176  1
  Te2-  Te99  1  0.51111475  0.49122007  0.51225849  1
  Te2-  Te100  1  0.49968756  0.49889970  0.83039437  1
  Te2-  Te101  1  0.48830631  0.83215185  0.17061065  1
  Te2-  Te102  1  0.49550154  0.83007882  0.49188114  1
  Te2-  Te103  1  0.50378832  0.83097873  0.83915526  1
  Te2-  Te104  1  0.82662510  0.15975952  0.16451839  1
  Te2-  Te105  1  0.83180704  0.16782922  0.50303486  1
  Te2-  Te106  1  0.83203504  0.16395705  0.83343002  1
  Te2-  Te107  1  0.84459138  0.49918258  0.16063174  1
  Te2-  Te108  1  0.83138336  0.49817395  0.50774482  1
  Te2-  Te109  1  0.83337996  0.50038677  0.83822754  1
  Te2-  Te110  1  0.83675751  0.84049200  0.16844208  1
  Te2-  Te111  1  0.83534439  0.83275506  0.49767316  1
  Te2-  Te112  1  0.83353736  0.82518075  0.83054990  1
  Te2-  Te113  1  0.15388558  0.01292123  0.00307832  1
  Te2-  Te114  1  0.15631932  -0.00227025  0.33171077  1
  Te2-  Te115  1  0.16844779  0.00756595  0.66920989  1
  Te2-  Te116  1  0.15987019  0.31973008  -0.00615168  1
  Te2-  Te117  1  0.16182654  0.34885382  0.33790215  1
  Te2-  Te118  1  0.16693398  0.32786008  0.67949583  1
  Te2-  Te119  1  0.16003601  0.67757124  -0.00819877  1
  Te2-  Te120  1  0.16182615  0.65403798  0.34805335  1
  Te2-  Te121  1  0.16735175  0.66375159  0.65748004  1
  Te2-  Te122  1  0.49488634  -0.00739686  0.00940006  1
  Te2-  Te123  1  0.50039258  0.00433094  0.32691647  1
  Te2-  Te124  1  0.49958927  0.00991570  0.66713748  1
  Te2-  Te125  1  0.50210024  0.34010971  0.00203442  1
  Te2-  Te126  1  0.50170170  0.35005284  0.34077558  1
  Te2-  Te127  1  0.50660898  0.31824008  0.67190799  1
  Te2-  Te128  1  0.49645690  0.66856643  0.00268003  1
  Te2-  Te129  1  0.49967056  0.64452099  0.33332918  1
  Te2-  Te130  1  0.49660759  0.66971286  0.66457114  1
  Te2-  Te131  1  0.85045061  0.00447212  0.00019345  1
  Te2-  Te132  1  0.84697591  0.00501119  0.33813470  1
  Te2-  Te133  1  0.82420337  0.00207761  0.66621163  1
  Te2-  Te134  1  0.84495579  0.33695132  0.00043956  1
  Te2-  Te135  1  0.83542216  0.32289622  0.33310940  1
  Te2-  Te136  1  0.82764139  0.33276581  0.66979848  1
  Te2-  Te137  1  0.83650360  0.66013062  -0.00198644  1
  Te2-  Te138  1  0.83467344  0.67011928  0.33704025  1
  Te2-  Te139  1  0.83377429  0.66291220  0.66687882  1
  Te2-  Te140  1  -0.00803357  0.16650109  0.00263136  1
  Te2-  Te141  1  0.00154875  0.17019543  0.34044235  1
  Te2-  Te142  1  -0.00521138  0.16541816  0.66643316  1
  Te2-  Te143  1  0.02165583  0.50217563  -0.00287671  1
  Te2-  Te144  1  -0.01104736  0.49593988  0.33620517  1
  Te2-  Te145  1  -0.00278221  0.50202695  0.67211248  1
  Te2-  Te146  1  0.00622171  0.83794590  0.01106379  1
  Te2-  Te147  1  0.00345466  0.82794402  0.33078831  1
  Te2-  Te148  1  -0.00072393  0.82585324  0.66489443  1
  Te2-  Te149  1  0.33394601  0.16353698  -0.00209073  1
  Te2-  Te150  1  0.33450436  0.16578944  0.35259938  1
  Te2-  Te151  1  0.33630591  0.16483094  0.65784584  1
  Te2-  Te152  1  0.32839682  0.50210611  -0.00231418  1
  Te2-  Te153  1  0.32687535  0.50021883  0.32171624  1
  Te2-  Te154  1  0.32843761  0.50464168  0.67547671  1
  Te2-  Te155  1  0.33506330  0.83468636  -0.00356787  1
  Te2-  Te156  1  0.33859490  0.83262528  0.34039901  1
  Te2-  Te157  1  0.33139433  0.83425339  0.66397117  1
  Te2-  Te158  1  0.66958398  0.16585148  0.00087956  1
  Te2-  Te159  1  0.66250032  0.17008985  0.33483671  1
  Te2-  Te160  1  0.67120318  0.16249193  0.67126432  1
  Te2-  Te161  1  0.66071164  0.50200715  0.00141276  1
  Te2-  Te162  1  0.67724204  0.49291750  0.32156631  1
  Te2-  Te163  1  0.67023345  0.48976078  0.67516617  1
  Te2-  Te164  1  0.66596558  0.83994135  -0.00164384  1
  Te2-  Te165  1  0.65665812  0.83318719  0.33003784  1
  Te2-  Te166  1  0.66685492  0.83946178  0.67229801  1
  Te2-  Te167  1  0.00020111  0.00596707  0.17072859  1
  Te2-  Te168  1  -0.00576035  -0.00105138  0.50471489  1
  Te2-  Te169  1  -0.00015693  -0.00051084  0.82363325  1
  Te2-  Te170  1  0.01636736  0.32178172  0.16068241  1
  Te2-  Te171  1  -0.00307652  0.32800333  0.50167606  1
  Te2-  Te172  1  0.00077006  0.33687043  0.84316963  1
  Te2-  Te173  1  0.01766510  0.67056077  0.16624259  1
  Te2-  Te174  1  -0.00730043  0.66632895  0.50552688  1
  Te2-  Te175  1  0.00473646  0.66467948  0.83028616  1
  Te2-  Te176  1  0.33286228  0.01162228  0.16598130  1
  Te2-  Te177  1  0.33329556  0.00059925  0.50560261  1
  Te2-  Te178  1  0.33392951  0.00940940  0.83138775  1
  Te2-  Te179  1  0.32214177  0.31901539  0.16631281  1
  Te2-  Te180  1  0.33076425  0.35335098  0.50227898  1
  Te2-  Te181  1  0.33709228  0.32569485  0.83386574  1
  Te2-  Te182  1  0.31833784  0.67477782  0.16501135  1
  Te2-  Te183  1  0.33504709  0.64330309  0.50434154  1
  Te2-  Te184  1  0.32073920  0.66749917  0.83037085  1
  Te2-  Te185  1  0.65867822  0.00278661  0.15575953  1
  Te2-  Te186  1  0.66921120  0.00407622  0.49254973  1
  Te2-  Te187  1  0.66575127  -0.00151268  0.85027146  1
  Te2-  Te188  1  0.66821263  0.33864875  0.16029155  1
  Te2-  Te189  1  0.67642151  0.32935666  0.49943748  1
  Te2-  Te190  1  0.66928369  0.33547936  0.84616256  1
  Te2-  Te191  1  0.67165489  0.65886376  0.16253617  1
  Te2-  Te192  1  0.66858566  0.66661979  0.50178236  1
  Te2-  Te193  1  0.67024538  0.66494728  0.83644718  1
  Pb2+  Pb194  1  0.01196060  0.49861749  0.17025362  1
  Pb2+  Pb195  1  -0.00209247  0.33426131  0.66981493  1
  Pb2+  Pb196  1  0.33013989  0.66716934  0.33032462  1
  Pb2+  Pb197  1  0.33166768  0.33557544  0.00118612  1
  Pb2+  Pb198  1  0.33852340  0.33739133  0.66758436  1
  Pb2+  Pb199  1  0.16392603  0.83572895  0.66777677  1
  Pb2+  Pb200  1  0.84116818  0.33082540  0.16732114  1
  Pb2+  Pb201  1  0.32532113  -0.00176968  0.33156642  1
  Pb2+  Pb202  1  0.50071612  0.00525256  0.49792412  1
  Pb2+  Pb203  1  0.66493259  0.66112855  0.66995722  1
  Pb2+  Pb204  1  0.00781728  0.16595988  0.83521147  1
  Pb2+  Pb205  1  0.66543067  0.66005358  0.33156265  1
  Pb2+  Pb206  1  0.33134501  0.33124696  0.33411578  1
  Pb2+  Pb207  1  0.83725546  0.83308803  -0.00255270  1
  Pb2+  Pb208  1  0.16206548  0.00083377  0.50026338  1
  Pb2+  Pb209  1  0.66792941  0.83685016  0.49975607  1
  Pb2+  Pb210  1  0.49818632  0.83900135  0.67001986  1
  Pb2+  Pb211  1  0.16664335  0.17207290  0.33507606  1
  Pb2+  Pb212  1  0.65999214  0.83253959  0.16436089  1
  Pb2+  Pb213  1  0.67767302  0.00279146  0.32120052  1
  Pb2+  Pb214  1  0.84532380  0.66716923  0.16905264  1
  Pb2+  Pb215  1  0.49835517  0.33087946  0.17100719  1
