# generated using pymatgen
data_In22Ag21Sn22Bi21(Te54Pb11)2
_symmetry_space_group_name_H-M   'P 1'
_cell_length_a   19.15898817
_cell_length_b   19.14800170
_cell_length_c   19.16272624
_cell_angle_alpha   90.01613917
_cell_angle_beta   90.01337536
_cell_angle_gamma   89.99569968
_symmetry_Int_Tables_number   1
_chemical_formula_structural   In22Ag21Sn22Bi21(Te54Pb11)2
_chemical_formula_sum   'In22 Ag21 Sn22 Bi21 Te108 Pb22'
_cell_volume   7029.96708705
_cell_formula_units_Z   1
loop_
 _symmetry_equiv_pos_site_id
 _symmetry_equiv_pos_as_xyz
  1  'x, y, z'
loop_
 _atom_type_symbol
 _atom_type_oxidation_number
  In3+  3.0
  Ag+  1.0
  Sn2+  2.0
  Bi3+  3.0
  Te2-  -2.0
  Pb2+  2.0
loop_
 _atom_site_type_symbol
 _atom_site_label
 _atom_site_symmetry_multiplicity
 _atom_site_fract_x
 _atom_site_fract_y
 _atom_site_fract_z
 _atom_site_occupancy
  In3+  In0  1  0.01719110  0.33684029  0.67761072  1
  In3+  In1  1  0.49735537  0.67351560  0.49953835  1
  In3+  In2  1  0.83557273  0.34830332  0.16662366  1
  In3+  In3  1  0.17619570  0.16332622  -0.01031885  1
  In3+  In4  1  0.67046935  0.65902210  0.66603664  1
  In3+  In5  1  0.84167251  -0.01589411  0.82639432  1
  In3+  In6  1  0.01211469  0.67821783  0.33426434  1
  In3+  In7  1  0.49706784  0.34029045  0.18269579  1
  In3+  In8  1  0.66696281  0.84006914  0.51033210  1
  In3+  In9  1  0.66498026  0.67488516  0.33420925  1
  In3+  In10  1  0.32924170  0.33450331  -0.00823280  1
  In3+  In11  1  0.17942257  0.85553188  -0.00112562  1
  In3+  In12  1  0.50353120  0.84575974  0.67138386  1
  In3+  In13  1  0.49906701  0.65883533  0.15254023  1
  In3+  In14  1  0.82580996  0.49891422  0.34026766  1
  In3+  In15  1  0.19564845  -0.00374943  0.16971544  1
  In3+  In16  1  0.18263483  0.00241330  0.82621474  1
  In3+  In17  1  -0.00189200  0.13822767  0.50817135  1
  In3+  In18  1  0.49776280  0.50365791  0.65876424  1
  In3+  In19  1  0.48467251  0.83239015  0.33775079  1
  In3+  In20  1  0.48584295  0.66627326  0.84488613  1
  In3+  In21  1  0.64086140  0.32775471  0.33245277  1
  Ag+  Ag22  1  0.86170289  0.47545616  0.67044238  1
  Ag+  Ag23  1  0.35036484  0.16219766  0.81761475  1
  Ag+  Ag24  1  0.33351645  0.69390112  -0.01688695  1
  Ag+  Ag25  1  0.18026759  0.17118278  0.69431901  1
  Ag+  Ag26  1  0.52555101  0.13392205  0.64748574  1
  Ag+  Ag27  1  0.85931201  0.83493018  0.64229962  1
  Ag+  Ag28  1  0.49587483  0.03368593  0.18422957  1
  Ag+  Ag29  1  0.68811768  -0.00173054  0.68873817  1
  Ag+  Ag30  1  0.36078838  0.02854232  0.35217927  1
  Ag+  Ag31  1  0.49628976  0.48017219  -0.02232091  1
  Ag+  Ag32  1  0.50407027  0.03047250  0.53318448  1
  Ag+  Ag33  1  0.32840277  0.00770581  0.68407694  1
  Ag+  Ag34  1  0.19083352  0.35633670  0.83258777  1
  Ag+  Ag35  1  0.01205954  0.85183646  0.81185495  1
  Ag+  Ag36  1  0.52131772  0.52420516  0.33594001  1
  Ag+  Ag37  1  0.50969591  0.13124650  0.29935482  1
  Ag+  Ag38  1  -0.02519792  0.52513969  0.16457704  1
  Ag+  Ag39  1  0.35057117  0.01555368  0.00151695  1
  Ag+  Ag40  1  0.14893227  0.85131576  0.29748767  1
  Ag+  Ag41  1  0.85372207  -0.00691074  0.19324158  1
  Ag+  Ag42  1  0.02491289  0.83443485  0.51590421  1
  Sn2+  Sn43  1  0.19152960  -0.00210760  0.49760132  1
  Sn2+  Sn44  1  0.81679379  -0.00198600  0.50224841  1
  Sn2+  Sn45  1  0.49702264  0.83547953  0.00051756  1
  Sn2+  Sn46  1  0.33943123  0.49674316  0.50225801  1
  Sn2+  Sn47  1  -0.00317956  0.16012095  0.83351252  1
  Sn2+  Sn48  1  0.34270917  0.67631187  0.66805916  1
  Sn2+  Sn49  1  0.17398878  0.50016781  0.00337981  1
  Sn2+  Sn50  1  0.01179443  0.67018458  0.00318474  1
  Sn2+  Sn51  1  0.00174543  0.34240076  -0.00185166  1
  Sn2+  Sn52  1  0.33486207  0.31120956  0.66746639  1
  Sn2+  Sn53  1  0.66457705  0.50022072  0.83529962  1
  Sn2+  Sn54  1  0.17116165  0.66580349  0.16486004  1
  Sn2+  Sn55  1  0.49363121  0.32918938  0.83431111  1
  Sn2+  Sn56  1  0.82809700  0.17392214  0.32782141  1
  Sn2+  Sn57  1  0.65554506  0.33781299  0.00482676  1
  Sn2+  Sn58  1  0.33281392  0.15912999  0.16814528  1
  Sn2+  Sn59  1  0.67654615  0.83409248  0.82735388  1
  Sn2+  Sn60  1  0.65983347  0.83666160  0.16852860  1
  Sn2+  Sn61  1  0.49494699  0.00306500  0.83159086  1
  Sn2+  Sn62  1  -0.00698132  -0.00127667  0.00257424  1
  Sn2+  Sn63  1  0.34187815  0.83538545  0.17128995  1
  Sn2+  Sn64  1  -0.00189660  0.83683714  0.16463763  1
  Bi3+  Bi65  1  0.82859706  0.66748566  0.50209816  1
  Bi3+  Bi66  1  0.16610442  0.15745338  0.33143259  1
  Bi3+  Bi67  1  0.82935167  0.33542432  0.83232229  1
  Bi3+  Bi68  1  0.17158748  0.83662021  0.67184881  1
  Bi3+  Bi69  1  0.83305907  0.83361454  0.00148178  1
  Bi3+  Bi70  1  0.66107753  -0.00587346  0.33021796  1
  Bi3+  Bi71  1  0.33218757  0.49754664  0.16791423  1
  Bi3+  Bi72  1  0.83240142  0.66813057  0.83280402  1
  Bi3+  Bi73  1  0.33512873  0.66393546  0.32933171  1
  Bi3+  Bi74  1  0.49685163  0.33694402  0.50458840  1
  Bi3+  Bi75  1  0.00196539  -0.00097458  0.33348697  1
  Bi3+  Bi76  1  0.83531823  0.16430659  0.00139455  1
  Bi3+  Bi77  1  0.83309710  0.33480273  0.49844486  1
  Bi3+  Bi78  1  0.33605527  0.83235210  0.49930351  1
  Bi3+  Bi79  1  0.66008033  -0.00197786  -0.00092926  1
  Bi3+  Bi80  1  0.16364851  0.66934790  0.83899695  1
  Bi3+  Bi81  1  0.66315107  0.49694072  0.16839007  1
  Bi3+  Bi82  1  -0.00086544  0.16379548  0.16637051  1
  Bi3+  Bi83  1  0.16215509  0.50027458  0.32940598  1
  Bi3+  Bi84  1  0.32547929  0.33246156  0.33142506  1
  Bi3+  Bi85  1  -0.00289478  0.33593434  0.33165886  1
  Te2-  Te86  1  0.16264438  0.15821078  0.16594630  1
  Te2-  Te87  1  0.15565487  0.15926875  0.49342258  1
  Te2-  Te88  1  0.15561949  0.15312278  0.83700725  1
  Te2-  Te89  1  0.16882239  0.49673263  0.16524620  1
  Te2-  Te90  1  0.16489896  0.49998161  0.49545134  1
  Te2-  Te91  1  0.16848897  0.50362455  0.83607764  1
  Te2-  Te92  1  0.16946443  0.83649376  0.15378186  1
  Te2-  Te93  1  0.17188864  0.83779031  0.50661725  1
  Te2-  Te94  1  0.15881176  0.83429580  0.83834621  1
  Te2-  Te95  1  0.49857298  0.18398096  0.16233049  1
  Te2-  Te96  1  0.49743167  0.17784527  0.50869657  1
  Te2-  Te97  1  0.49657969  0.17306146  0.82830967  1
  Te2-  Te98  1  0.49886240  0.49907747  0.18502709  1
  Te2-  Te99  1  0.49880174  0.49930593  0.48737146  1
  Te2-  Te100  1  0.50340063  0.51125814  0.83374008  1
  Te2-  Te101  1  0.49979061  0.81854223  0.16724834  1
  Te2-  Te102  1  0.49889147  0.82664128  0.49825701  1
  Te2-  Te103  1  0.50076292  0.81968993  0.82688011  1
  Te2-  Te104  1  0.83731067  0.14427042  0.16487505  1
  Te2-  Te105  1  0.83937452  0.16864449  0.49623876  1
  Te2-  Te106  1  0.83287811  0.17068832  0.83727951  1
  Te2-  Te107  1  0.82783643  0.50351261  0.16424117  1
  Te2-  Te108  1  0.83265347  0.50367150  0.52079289  1
  Te2-  Te109  1  0.83135105  0.50200868  0.82105262  1
  Te2-  Te110  1  0.82869083  0.84513611  0.16481394  1
  Te2-  Te111  1  0.82116843  0.83203361  0.50105621  1
  Te2-  Te112  1  0.84232232  0.82989313  0.83975779  1
  Te2-  Te113  1  0.15644581  0.00432127  0.00330178  1
  Te2-  Te114  1  0.16754966  -0.00431580  0.32758971  1
  Te2-  Te115  1  0.17683207  0.00097055  0.67058979  1
  Te2-  Te116  1  0.17080892  0.32762253  -0.01568099  1
  Te2-  Te117  1  0.16256423  0.33009563  0.33078113  1
  Te2-  Te118  1  0.16893128  0.32282443  0.68175030  1
  Te2-  Te119  1  0.17741324  0.66205439  -0.00058248  1
  Te2-  Te120  1  0.16857467  0.66429417  0.33263612  1
  Te2-  Te121  1  0.16910859  0.67032790  0.67303579  1
  Te2-  Te122  1  0.49932598  -0.00505930  -0.00634598  1
  Te2-  Te123  1  0.49832933  -0.01378821  0.32731587  1
  Te2-  Te124  1  0.47865296  -0.00306054  0.67601282  1
  Te2-  Te125  1  0.49673463  0.33391136  -0.00317908  1
  Te2-  Te126  1  0.48741228  0.32786597  0.33867675  1
  Te2-  Te127  1  0.49585245  0.34583724  0.66617802  1
  Te2-  Te128  1  0.48486513  0.66971798  0.00056497  1
  Te2-  Te129  1  0.49862173  0.67030528  0.34130078  1
  Te2-  Te130  1  0.50123506  0.66444624  0.65670606  1
  Te2-  Te131  1  0.82377553  -0.00044739  -0.01441287  1
  Te2-  Te132  1  0.82874771  0.00211283  0.34012347  1
  Te2-  Te133  1  0.83544980  -0.01469837  0.66954905  1
  Te2-  Te134  1  0.82890057  0.32998900  -0.00109255  1
  Te2-  Te135  1  0.83588504  0.33467913  0.33358386  1
  Te2-  Te136  1  0.82574718  0.33170777  0.66510268  1
  Te2-  Te137  1  0.83171195  0.66614567  -0.00146843  1
  Te2-  Te138  1  0.82585670  0.66110851  0.33890214  1
  Te2-  Te139  1  0.82374263  0.68569737  0.66721033  1
  Te2-  Te140  1  -0.00406048  0.17032413  0.00290302  1
  Te2-  Te141  1  -0.00173534  0.16513982  0.33214296  1
  Te2-  Te142  1  0.00291890  0.17119290  0.65921669  1
  Te2-  Te143  1  0.00011226  0.49932414  0.01480626  1
  Te2-  Te144  1  0.00080792  0.49811374  0.31624457  1
  Te2-  Te145  1  0.00704254  0.49264354  0.66480473  1
  Te2-  Te146  1  -0.00630192  0.82958648  0.00591590  1
  Te2-  Te147  1  0.00683560  0.83336078  0.33098196  1
  Te2-  Te148  1  0.00692310  0.83255657  0.66573855  1
  Te2-  Te149  1  0.32506328  0.16403759  0.00491129  1
  Te2-  Te150  1  0.32793825  0.16908769  0.33109904  1
  Te2-  Te151  1  0.32512412  0.15879418  0.67189126  1
  Te2-  Te152  1  0.34424572  0.48790076  0.00451339  1
  Te2-  Te153  1  0.32618195  0.49737669  0.33317900  1
  Te2-  Te154  1  0.34151798  0.50447330  0.66625726  1
  Te2-  Te155  1  0.32849029  0.83966332  0.00081080  1
  Te2-  Te156  1  0.33079432  0.82507682  0.33367674  1
  Te2-  Te157  1  0.33419983  0.83891496  0.66499074  1
  Te2-  Te158  1  0.66986017  0.16612033  0.00047627  1
  Te2-  Te159  1  0.65338560  0.16091090  0.33223520  1
  Te2-  Te160  1  0.66969787  0.14915066  0.66652843  1
  Te2-  Te161  1  0.65060652  0.49944337  0.00440600  1
  Te2-  Te162  1  0.66684386  0.49575890  0.32937032  1
  Te2-  Te163  1  0.65480776  0.50585194  0.66696951  1
  Te2-  Te164  1  0.66697977  0.83266751  -0.00057708  1
  Te2-  Te165  1  0.66425270  0.82980393  0.33429500  1
  Te2-  Te166  1  0.65299047  0.85304094  0.66278640  1
  Te2-  Te167  1  -0.00040576  0.00048614  0.17167477  1
  Te2-  Te168  1  -0.00600790  -0.01451297  0.49398776  1
  Te2-  Te169  1  -0.00545766  -0.00433018  0.83614738  1
  Te2-  Te170  1  -0.00332257  0.32626575  0.16673042  1
  Te2-  Te171  1  -0.00676595  0.33876922  0.49421385  1
  Te2-  Te172  1  -0.00900194  0.33031615  0.83063312  1
  Te2-  Te173  1  0.00086315  0.66968259  0.17458108  1
  Te2-  Te174  1  -0.00675564  0.68071067  0.49324708  1
  Te2-  Te175  1  -0.00158461  0.66426236  0.83614259  1
  Te2-  Te176  1  0.34609168  0.00040676  0.15468086  1
  Te2-  Te177  1  0.34905278  -0.00685965  0.49380091  1
  Te2-  Te178  1  0.33063101  0.01145283  0.84633334  1
  Te2-  Te179  1  0.33572328  0.33384553  0.16560516  1
  Te2-  Te180  1  0.32852540  0.33243589  0.49943711  1
  Te2-  Te181  1  0.33284388  0.31868779  0.83718959  1
  Te2-  Te182  1  0.33898180  0.66030240  0.16812389  1
  Te2-  Te183  1  0.33678217  0.66541564  0.49734587  1
  Te2-  Te184  1  0.33140048  0.66694524  0.83852807  1
  Te2-  Te185  1  0.64516001  -0.00402124  0.16384783  1
  Te2-  Te186  1  0.64652938  -0.00750924  0.49140630  1
  Te2-  Te187  1  0.66072488  -0.00746605  0.83545046  1
  Te2-  Te188  1  0.66971945  0.33479794  0.17238864  1
  Te2-  Te189  1  0.66922086  0.33358309  0.49390886  1
  Te2-  Te190  1  0.66632791  0.33760038  0.83452771  1
  Te2-  Te191  1  0.65990916  0.66243864  0.16959876  1
  Te2-  Te192  1  0.66365828  0.67400102  0.50279830  1
  Te2-  Te193  1  0.66974064  0.66818420  0.82639424  1
  Pb2+  Pb194  1  0.33367009  0.84102765  0.83411933  1
  Pb2+  Pb195  1  0.66648817  0.50422391  0.49830366  1
  Pb2+  Pb196  1  0.49448071  0.16483260  -0.00550555  1
  Pb2+  Pb197  1  0.33779263  0.49282871  0.83604565  1
  Pb2+  Pb198  1  0.66394897  0.16051426  0.49997810  1
  Pb2+  Pb199  1  0.82658558  0.49708694  -0.00658275  1
  Pb2+  Pb200  1  -0.00735688  0.66524590  0.66743149  1
  Pb2+  Pb201  1  0.33247386  0.16009906  0.50655448  1
  Pb2+  Pb202  1  0.83201470  0.67640975  0.16833665  1
  Pb2+  Pb203  1  0.65823662  0.66596201  -0.00469760  1
  Pb2+  Pb204  1  0.83753236  0.15925469  0.66775274  1
  Pb2+  Pb205  1  0.16533750  0.67139440  0.50279878  1
  Pb2+  Pb206  1  0.16718929  0.32722366  0.15458458  1
  Pb2+  Pb207  1  -0.00509563  0.50742181  0.48574162  1
  Pb2+  Pb208  1  0.67146761  0.16218534  0.16745559  1
  Pb2+  Pb209  1  -0.00069357  0.49762986  0.84303887  1
  Pb2+  Pb210  1  0.00885640  0.00098255  0.66718969  1
  Pb2+  Pb211  1  0.17466243  0.49580890  0.66507432  1
  Pb2+  Pb212  1  0.15952331  0.32711301  0.50478500  1
  Pb2+  Pb213  1  0.66094546  0.32788977  0.66574601  1
  Pb2+  Pb214  1  0.66272610  0.16301242  0.83153858  1
  Pb2+  Pb215  1  0.83537977  0.83160034  0.33539233  1
