# generated using pymatgen
data_In22Ag21Sn22Bi21(Te54Pb11)2
_symmetry_space_group_name_H-M   'P 1'
_cell_length_a   19.14738887
_cell_length_b   19.15959523
_cell_length_c   19.16858373
_cell_angle_alpha   90.01627070
_cell_angle_beta   89.99559666
_cell_angle_gamma   90.00503430
_symmetry_Int_Tables_number   1
_chemical_formula_structural   In22Ag21Sn22Bi21(Te54Pb11)2
_chemical_formula_sum   'In22 Ag21 Sn22 Bi21 Te108 Pb22'
_cell_volume   7032.11384992
_cell_formula_units_Z   1
loop_
 _symmetry_equiv_pos_site_id
 _symmetry_equiv_pos_as_xyz
  1  'x, y, z'
loop_
 _atom_type_symbol
 _atom_type_oxidation_number
  In3+  3.0
  Ag+  1.0
  Sn2+  2.0
  Bi3+  3.0
  Te2-  -2.0
  Pb2+  2.0
loop_
 _atom_site_type_symbol
 _atom_site_label
 _atom_site_symmetry_multiplicity
 _atom_site_fract_x
 _atom_site_fract_y
 _atom_site_fract_z
 _atom_site_occupancy
  In3+  In0  1  0.83844201  0.00039099  0.18521871  1
  In3+  In1  1  0.84251311  0.83507994  0.66061733  1
  In3+  In2  1  0.33454565  0.83147476  0.49722220  1
  In3+  In3  1  0.52481851  0.83408063  0.33104016  1
  In3+  In4  1  0.66625678  0.14641696  0.17200774  1
  In3+  In5  1  -0.00690622  0.66780517  0.01510678  1
  In3+  In6  1  0.48478958  0.17078784  0.33879508  1
  In3+  In7  1  0.80079723  0.49765505  0.66649023  1
  In3+  In8  1  0.66937435  0.31670382  0.31447402  1
  In3+  In9  1  0.32342573  0.66271642  0.00372024  1
  In3+  In10  1  0.84483438  0.16349765  -0.00303994  1
  In3+  In11  1  0.66348606  0.67765074  0.66697425  1
  In3+  In12  1  0.35287646  0.83436307  0.15111628  1
  In3+  In13  1  0.14089239  0.34151013  0.16496276  1
  In3+  In14  1  0.16659372  0.13475809  0.68237293  1
  In3+  In15  1  0.65720446  0.33029737  0.66782147  1
  In3+  In16  1  0.03463504  0.51752364  0.50095882  1
  In3+  In17  1  0.67396192  0.00206046  0.33868780  1
  In3+  In18  1  0.16514298  -0.01726858  0.84447482  1
  In3+  In19  1  -0.01386282  0.66592845  0.66739085  1
  In3+  In20  1  0.17347270  0.18853118  0.00339784  1
  In3+  In21  1  0.16642924  0.68441394  0.50365086  1
  Ag+  Ag22  1  0.30844816  0.19496981  0.17145201  1
  Ag+  Ag23  1  0.84832645  0.16766519  0.30449736  1
  Ag+  Ag24  1  0.32666744  0.52558192  0.83569138  1
  Ag+  Ag25  1  0.69738072  0.80904873  0.19569569  1
  Ag+  Ag26  1  0.68594332  0.86367646  0.83281471  1
  Ag+  Ag27  1  -0.02006692  0.49813070  0.13864137  1
  Ag+  Ag28  1  0.81778085  0.80666130  0.29267325  1
  Ag+  Ag29  1  0.49233504  0.52136073  0.64355360  1
  Ag+  Ag30  1  0.86376616  -0.02512643  0.82855249  1
  Ag+  Ag31  1  0.52362534  -0.00104928  0.47634618  1
  Ag+  Ag32  1  0.83762932  0.35587945  0.20056994  1
  Ag+  Ag33  1  0.52437312  0.36212118  0.47507655  1
  Ag+  Ag34  1  0.86342108  0.32171915  0.85873060  1
  Ag+  Ag35  1  0.33580629  0.52519555  0.47621066  1
  Ag+  Ag36  1  0.52615267  -0.03242705  0.80956490  1
  Ag+  Ag37  1  0.82598225  0.64804975  0.19357192  1
  Ag+  Ag38  1  0.50623723  0.81170410  -0.02562912  1
  Ag+  Ag39  1  -0.01109995  0.64420187  0.31361626  1
  Ag+  Ag40  1  0.14055808  0.51788716  0.02576372  1
  Ag+  Ag41  1  0.14202349  0.83484898  0.67620881  1
  Ag+  Ag42  1  -0.02382974  0.81175172  0.48625393  1
  Sn2+  Sn43  1  0.51462183  0.66714140  0.16619880  1
  Sn2+  Sn44  1  0.33259319  0.16509975  0.84411045  1
  Sn2+  Sn45  1  -0.00717226  -0.00030781  0.65996116  1
  Sn2+  Sn46  1  0.33888478  -0.00760688  0.66603736  1
  Sn2+  Sn47  1  -0.00757982  -0.01149696  0.33597933  1
  Sn2+  Sn48  1  0.66186779  0.16979743  0.49631942  1
  Sn2+  Sn49  1  0.50243927  0.66079826  0.83473906  1
  Sn2+  Sn50  1  0.16012026  0.16652110  0.33809738  1
  Sn2+  Sn51  1  0.32326935  0.67278554  0.33301561  1
  Sn2+  Sn52  1  0.33151674  0.65883026  0.67094626  1
  Sn2+  Sn53  1  0.83534068  0.16735867  0.67635976  1
  Sn2+  Sn54  1  0.49842338  0.50514836  0.34167596  1
  Sn2+  Sn55  1  -0.00803531  0.16585526  0.49471354  1
  Sn2+  Sn56  1  -0.00763909  0.83303838  0.83251223  1
  Sn2+  Sn57  1  0.51239534  0.33275916  0.16491584  1
  Sn2+  Sn58  1  0.33477917  0.33900279  0.01021465  1
  Sn2+  Sn59  1  0.33728947  0.00106241  -0.00248315  1
  Sn2+  Sn60  1  0.16947080  0.65992957  0.82776942  1
  Sn2+  Sn61  1  -0.00683965  0.33406323  0.66255771  1
  Sn2+  Sn62  1  0.83475625  0.65998875  0.83714904  1
  Sn2+  Sn63  1  0.66821761  -0.00096799  0.67148851  1
  Sn2+  Sn64  1  0.83502192  0.00128660  0.50892772  1
  Bi3+  Bi65  1  0.18123118  0.50479799  0.66869830  1
  Bi3+  Bi66  1  0.49761139  0.83354758  0.66409191  1
  Bi3+  Bi67  1  0.82458851  0.84046928  -0.00914779  1
  Bi3+  Bi68  1  0.49816185  0.33069153  0.83030365  1
  Bi3+  Bi69  1  0.17154842  0.33071279  0.49926155  1
  Bi3+  Bi70  1  0.50302944  -0.00193763  0.16331964  1
  Bi3+  Bi71  1  0.49823225  0.50421881  0.00214577  1
  Bi3+  Bi72  1  0.33306416  0.83825907  0.83126593  1
  Bi3+  Bi73  1  0.15930966  0.83453179  0.33705039  1
  Bi3+  Bi74  1  0.49505032  0.16579025  0.00711317  1
  Bi3+  Bi75  1  0.32953456  0.16421043  0.49699667  1
  Bi3+  Bi76  1  0.16523027  0.66659797  0.17032422  1
  Bi3+  Bi77  1  0.66409414  0.00175646  -0.00114911  1
  Bi3+  Bi78  1  0.16287749  0.00014749  0.49902636  1
  Bi3+  Bi79  1  0.66175282  0.49821481  0.83248408  1
  Bi3+  Bi80  1  0.83120267  0.33009010  0.50742854  1
  Bi3+  Bi81  1  0.66859047  0.33235170  -0.00243996  1
  Bi3+  Bi82  1  0.33199385  0.33266228  0.66978735  1
  Bi3+  Bi83  1  0.17137163  0.33600357  0.83076258  1
  Bi3+  Bi84  1  0.67135705  0.50026938  0.16849025  1
  Bi3+  Bi85  1  0.66208601  0.17142226  0.83260678  1
  Te2-  Te86  1  0.16364206  0.17649902  0.16269259  1
  Te2-  Te87  1  0.16461271  0.16659754  0.50149009  1
  Te2-  Te88  1  0.16829740  0.17345906  0.83992776  1
  Te2-  Te89  1  0.16513129  0.49600689  0.16790485  1
  Te2-  Te90  1  0.18778872  0.49324684  0.50342795  1
  Te2-  Te91  1  0.17795659  0.49933518  0.83101600  1
  Te2-  Te92  1  0.16289435  0.82898531  0.17014290  1
  Te2-  Te93  1  0.17301880  0.83737748  0.50223945  1
  Te2-  Te94  1  0.16729050  0.83022217  0.82463787  1
  Te2-  Te95  1  0.50742645  0.16375108  0.17139387  1
  Te2-  Te96  1  0.49245591  0.14873413  0.49026755  1
  Te2-  Te97  1  0.49652696  0.16698217  0.84066047  1
  Te2-  Te98  1  0.50692467  0.50144463  0.16720594  1
  Te2-  Te99  1  0.48530213  0.50101885  0.49775691  1
  Te2-  Te100  1  0.49846320  0.49570371  0.84112940  1
  Te2-  Te101  1  0.50439099  0.83398325  0.17565374  1
  Te2-  Te102  1  0.49441026  0.84876487  0.49794654  1
  Te2-  Te103  1  0.49280766  0.82816210  0.82963658  1
  Te2-  Te104  1  0.82564617  0.15380733  0.15772976  1
  Te2-  Te105  1  0.83169615  0.16932043  0.51440760  1
  Te2-  Te106  1  0.82658112  0.17971425  0.83504114  1
  Te2-  Te107  1  0.83444296  0.50259434  0.16686413  1
  Te2-  Te108  1  0.82720583  0.49398974  0.51160976  1
  Te2-  Te109  1  0.82768947  0.49519423  0.82104353  1
  Te2-  Te110  1  0.83249712  0.84939144  0.15252917  1
  Te2-  Te111  1  0.83358251  0.83872445  0.51020732  1
  Te2-  Te112  1  0.83119931  0.82854270  0.82926494  1
  Te2-  Te113  1  0.16639139  -0.00585364  -0.00257055  1
  Te2-  Te114  1  0.16294973  0.00144545  0.33323409  1
  Te2-  Te115  1  0.16563055  -0.01459925  0.66242636  1
  Te2-  Te116  1  0.16752400  0.34178130  0.00191722  1
  Te2-  Te117  1  0.16853139  0.33109505  0.33258141  1
  Te2-  Te118  1  0.16725297  0.33968825  0.66528904  1
  Te2-  Te119  1  0.16646050  0.66125063  0.00274697  1
  Te2-  Te120  1  0.15626181  0.67107571  0.33782526  1
  Te2-  Te121  1  0.17174416  0.66927203  0.65943957  1
  Te2-  Te122  1  0.49904084  0.00488707  0.00198466  1
  Te2-  Te123  1  0.50999188  -0.00930112  0.32793858  1
  Te2-  Te124  1  0.50017778  -0.00360931  0.66860822  1
  Te2-  Te125  1  0.50289065  0.33346978  -0.00187397  1
  Te2-  Te126  1  0.51149354  0.32695042  0.33407755  1
  Te2-  Te127  1  0.49688939  0.32907913  0.66918510  1
  Te2-  Te128  1  0.49885163  0.66740342  0.00660183  1
  Te2-  Te129  1  0.50015607  0.67927382  0.33052927  1
  Te2-  Te130  1  0.50234416  0.66795948  0.66686014  1
  Te2-  Te131  1  0.82832595  0.00487074  -0.02432165  1
  Te2-  Te132  1  0.82783314  0.01730687  0.33698757  1
  Te2-  Te133  1  0.83116038  -0.00685977  0.68118244  1
  Te2-  Te134  1  0.82982069  0.32402740  0.00047302  1
  Te2-  Te135  1  0.82345171  0.31769287  0.34249675  1
  Te2-  Te136  1  0.82781110  0.33914443  0.66593669  1
  Te2-  Te137  1  0.83826010  0.67428712  -0.00374911  1
  Te2-  Te138  1  0.84284313  0.66878087  0.33643404  1
  Te2-  Te139  1  0.83119067  0.66184913  0.66842524  1
  Te2-  Te140  1  0.00361005  0.16643925  -0.00110478  1
  Te2-  Te141  1  -0.00521173  0.16357350  0.33438207  1
  Te2-  Te142  1  0.00743742  0.16614444  0.66473683  1
  Te2-  Te143  1  -0.00204631  0.51018839  -0.00817351  1
  Te2-  Te144  1  -0.00102603  0.50290860  0.35230715  1
  Te2-  Te145  1  0.01346160  0.50793981  0.65475465  1
  Te2-  Te146  1  -0.00373341  0.82495686  -0.00059090  1
  Te2-  Te147  1  -0.00205602  0.83545357  0.34263520  1
  Te2-  Te148  1  -0.00369921  0.82816096  0.66397925  1
  Te2-  Te149  1  0.33141580  0.16789639  0.01737132  1
  Te2-  Te150  1  0.33147936  0.16493794  0.32293553  1
  Te2-  Te151  1  0.32436533  0.16544149  0.66598799  1
  Te2-  Te152  1  0.33755062  0.50809487  -0.01102403  1
  Te2-  Te153  1  0.34127780  0.50452921  0.32960643  1
  Te2-  Te154  1  0.34273276  0.49784281  0.68275396  1
  Te2-  Te155  1  0.34417146  0.83067027  -0.00186324  1
  Te2-  Te156  1  0.32284916  0.83118658  0.34068408  1
  Te2-  Te157  1  0.33732870  0.82962321  0.66539178  1
  Te2-  Te158  1  0.65929558  0.16921348  0.00219883  1
  Te2-  Te159  1  0.66654205  0.16289107  0.32817227  1
  Te2-  Te160  1  0.66528737  0.16835642  0.67008622  1
  Te2-  Te161  1  0.66446644  0.50004358  -0.00000684  1
  Te2-  Te162  1  0.66476797  0.49768662  0.33142945  1
  Te2-  Te163  1  0.64506307  0.49562622  0.66979359  1
  Te2-  Te164  1  0.65874811  0.84048612  -0.01727735  1
  Te2-  Te165  1  0.67991541  0.84083925  0.33896602  1
  Te2-  Te166  1  0.66319275  0.83038625  0.68345791  1
  Te2-  Te167  1  -0.00374279  0.00078752  0.16671040  1
  Te2-  Te168  1  0.00130551  0.00042145  0.50180556  1
  Te2-  Te169  1  0.01083488  -0.00148263  0.82842255  1
  Te2-  Te170  1  -0.01183140  0.34694986  0.16974888  1
  Te2-  Te171  1  0.00299934  0.33336153  0.50435429  1
  Te2-  Te172  1  0.00652285  0.33636382  0.82875696  1
  Te2-  Te173  1  0.00409397  0.65237428  0.16782484  1
  Te2-  Te174  1  0.00805640  0.67196338  0.51104107  1
  Te2-  Te175  1  0.00244665  0.67005301  0.82184999  1
  Te2-  Te176  1  0.33764302  -0.01140795  0.16599096  1
  Te2-  Te177  1  0.32509507  0.00311102  0.50195813  1
  Te2-  Te178  1  0.32281156  0.00034352  0.83301011  1
  Te2-  Te179  1  0.34575758  0.33658073  0.16746776  1
  Te2-  Te180  1  0.33394738  0.32448860  0.50510371  1
  Te2-  Te181  1  0.33288250  0.32752807  0.83596708  1
  Te2-  Te182  1  0.32832492  0.67514875  0.16537216  1
  Te2-  Te183  1  0.32733968  0.67159202  0.49991452  1
  Te2-  Te184  1  0.33336470  0.67489950  0.84010528  1
  Te2-  Te185  1  0.66885796  -0.00604136  0.16352463  1
  Te2-  Te186  1  0.66997582  0.00625780  0.49931228  1
  Te2-  Te187  1  0.66380559  0.01044314  0.83401281  1
  Te2-  Te188  1  0.68463206  0.33711206  0.16233946  1
  Te2-  Te189  1  0.66353033  0.32911633  0.50886624  1
  Te2-  Te190  1  0.66431581  0.33499512  0.83175057  1
  Te2-  Te191  1  0.68067507  0.66580716  0.16559212  1
  Te2-  Te192  1  0.66492892  0.66829274  0.50653482  1
  Te2-  Te193  1  0.66797910  0.65867820  0.82436996  1
  Pb2+  Pb194  1  0.83253221  0.49732344  -0.00581031  1
  Pb2+  Pb195  1  0.17132279  0.82737614  -0.00063757  1
  Pb2+  Pb196  1  0.33855189  -0.00385753  0.33443854  1
  Pb2+  Pb197  1  0.66767172  0.67635590  -0.00620283  1
  Pb2+  Pb198  1  0.33880020  0.33548876  0.33796362  1
  Pb2+  Pb199  1  -0.00215651  0.33581201  0.00033202  1
  Pb2+  Pb200  1  0.00483548  0.50386813  0.82188827  1
  Pb2+  Pb201  1  -0.00567324  0.17284683  0.16758651  1
  Pb2+  Pb202  1  0.65869186  0.49656893  0.50069304  1
  Pb2+  Pb203  1  0.66534901  0.83909613  0.51362120  1
  Pb2+  Pb204  1  0.33164696  0.50318837  0.15779896  1
  Pb2+  Pb205  1  0.16697820  0.50344746  0.33451336  1
  Pb2+  Pb206  1  0.83317651  0.49410048  0.33838391  1
  Pb2+  Pb207  1  -0.00451017  0.82472528  0.17652605  1
  Pb2+  Pb208  1  0.67027487  0.66478190  0.33364021  1
  Pb2+  Pb209  1  -0.00638912  -0.00459995  -0.00022876  1
  Pb2+  Pb210  1  0.16891654  0.00256619  0.16476945  1
  Pb2+  Pb211  1  0.49555351  0.67483100  0.49842545  1
  Pb2+  Pb212  1  0.49461556  0.16450513  0.66257278  1
  Pb2+  Pb213  1  0.83642053  0.66573260  0.50065297  1
  Pb2+  Pb214  1  -0.00483845  0.16593401  0.82983606  1
  Pb2+  Pb215  1  -0.00151305  0.33360899  0.33850266  1
