# generated using pymatgen
data_In22Ag21Sn22Bi21(Te54Pb11)2
_symmetry_space_group_name_H-M   'P 1'
_cell_length_a   19.12952891
_cell_length_b   19.13940477
_cell_length_c   19.15047240
_cell_angle_alpha   89.99806163
_cell_angle_beta   90.00325958
_cell_angle_gamma   89.99317859
_symmetry_Int_Tables_number   1
_chemical_formula_structural   In22Ag21Sn22Bi21(Te54Pb11)2
_chemical_formula_sum   'In22 Ag21 Sn22 Bi21 Te108 Pb22'
_cell_volume   7011.52020178
_cell_formula_units_Z   1
loop_
 _symmetry_equiv_pos_site_id
 _symmetry_equiv_pos_as_xyz
  1  'x, y, z'
loop_
 _atom_type_symbol
 _atom_type_oxidation_number
  In3+  3.0
  Ag+  1.0
  Sn2+  2.0
  Bi3+  3.0
  Te2-  -2.0
  Pb2+  2.0
loop_
 _atom_site_type_symbol
 _atom_site_label
 _atom_site_symmetry_multiplicity
 _atom_site_fract_x
 _atom_site_fract_y
 _atom_site_fract_z
 _atom_site_occupancy
  In3+  In0  1  0.16984640  0.49879015  0.00226793  1
  In3+  In1  1  0.84271372  0.82061998  0.35422558  1
  In3+  In2  1  0.65849411  0.19755043  0.16887916  1
  In3+  In3  1  0.17699162  0.66168458  0.49805495  1
  In3+  In4  1  0.66750934  -0.01043853  0.33013409  1
  In3+  In5  1  0.83507920  0.83815612  0.67221326  1
  In3+  In6  1  0.00538640  0.17703664  0.80696486  1
  In3+  In7  1  0.65381143  0.33383517  -0.01344506  1
  In3+  In8  1  0.00254901  0.49788527  0.16630003  1
  In3+  In9  1  0.84372979  0.65599200  0.84915547  1
  In3+  In10  1  -0.00154180  0.50078839  0.50424420  1
  In3+  In11  1  0.65638975  0.50485649  0.49544797  1
  In3+  In12  1  -0.00695400  0.83125077  0.13633328  1
  In3+  In13  1  0.83483993  0.65553206  0.50911930  1
  In3+  In14  1  0.00377399  0.66187984  0.33447752  1
  In3+  In15  1  0.67520374  0.33725468  0.33784047  1
  In3+  In16  1  0.35019821  0.49007860  0.50069607  1
  In3+  In17  1  0.17639175  0.66557570  0.15064424  1
  In3+  In18  1  0.35740356  0.82040487  0.49932288  1
  In3+  In19  1  0.49788350  0.33992009  0.15146349  1
  In3+  In20  1  0.32608513  -0.00115283  0.32853038  1
  In3+  In21  1  0.67279302  0.80491262  0.16944443  1
  Ag+  Ag22  1  0.48243541  0.66082124  0.50307015  1
  Ag+  Ag23  1  -0.02246824  0.02935688  0.66097764  1
  Ag+  Ag24  1  0.80874139  0.36117075  0.53226406  1
  Ag+  Ag25  1  0.34027275  0.19173058  0.14198003  1
  Ag+  Ag26  1  0.16754801  0.51120332  0.35432791  1
  Ag+  Ag27  1  0.16617855  0.85981200  0.02236869  1
  Ag+  Ag28  1  0.33611883  0.63731632  0.02143621  1
  Ag+  Ag29  1  0.34774469  0.31809668  0.68943912  1
  Ag+  Ag30  1  0.53119390  0.52299492  0.00818266  1
  Ag+  Ag31  1  0.63878291  0.49597906  0.14090367  1
  Ag+  Ag32  1  -0.02812284  0.12639634  0.15392689  1
  Ag+  Ag33  1  0.82266052  0.19387213  0.69228993  1
  Ag+  Ag34  1  0.02274236  0.49395250  0.86025867  1
  Ag+  Ag35  1  0.49790198  0.48649438  0.64661911  1
  Ag+  Ag36  1  0.82056218  0.50880249  0.00537771  1
  Ag+  Ag37  1  0.67259836  0.85352541  0.47599142  1
  Ag+  Ag38  1  0.47967079  0.16366106  -0.01639838  1
  Ag+  Ag39  1  -0.02068463  0.86134004  0.83096554  1
  Ag+  Ag40  1  0.19511776  0.19267193  0.69832459  1
  Ag+  Ag41  1  0.16407118  0.35018032  0.80424972  1
  Ag+  Ag42  1  0.30971403  0.48285632  0.13757782  1
  Sn2+  Sn43  1  0.66053370  0.00357150  0.01029565  1
  Sn2+  Sn44  1  0.50783143  0.01237197  0.17056630  1
  Sn2+  Sn45  1  0.82886914  0.00056668  0.16189123  1
  Sn2+  Sn46  1  0.82544410  0.50105932  0.67310520  1
  Sn2+  Sn47  1  0.15853330  0.33095882  0.50035313  1
  Sn2+  Sn48  1  0.33421161  0.33331243  -0.00271739  1
  Sn2+  Sn49  1  0.00434677  0.33777141  0.66595160  1
  Sn2+  Sn50  1  0.49981438  0.17108847  0.32424241  1
  Sn2+  Sn51  1  0.50004791  0.32837715  0.50455820  1
  Sn2+  Sn52  1  0.49707692  -0.01191539  0.50032201  1
  Sn2+  Sn53  1  0.32490876  0.17394977  0.83943307  1
  Sn2+  Sn54  1  0.16488259  0.17502760  0.00683984  1
  Sn2+  Sn55  1  0.66285301  0.49910800  0.82949080  1
  Sn2+  Sn56  1  -0.00008962  0.66324803  0.67163425  1
  Sn2+  Sn57  1  0.83664709  0.33721532  0.16174066  1
  Sn2+  Sn58  1  0.33558101  -0.00780496  0.00206939  1
  Sn2+  Sn59  1  0.67259304  0.17159980  0.49859711  1
  Sn2+  Sn60  1  0.66277003  0.66135968  0.33639805  1
  Sn2+  Sn61  1  0.32173672  0.00323181  0.66126345  1
  Sn2+  Sn62  1  0.65747573  0.33514459  0.66580177  1
  Sn2+  Sn63  1  0.49180155  0.49549194  0.32000466  1
  Sn2+  Sn64  1  0.48963332  0.33479181  0.83345057  1
  Bi3+  Bi65  1  -0.00261011  0.17162336  0.49166673  1
  Bi3+  Bi66  1  0.33359581  0.83157603  0.16603853  1
  Bi3+  Bi67  1  0.33314549  0.83556874  0.83270129  1
  Bi3+  Bi68  1  0.33535130  0.16881140  0.50199718  1
  Bi3+  Bi69  1  0.33619726  0.49795983  0.82901886  1
  Bi3+  Bi70  1  0.16919076  0.17265063  0.33668190  1
  Bi3+  Bi71  1  0.17240867  0.33562395  0.16880888  1
  Bi3+  Bi72  1  0.50322306  0.83001192  0.66511845  1
  Bi3+  Bi73  1  0.83607527  0.17152379  0.00160184  1
  Bi3+  Bi74  1  0.16616566  -0.00132315  0.82838744  1
  Bi3+  Bi75  1  0.16526589  0.83634137  0.66512133  1
  Bi3+  Bi76  1  0.33542313  0.66541667  0.66835641  1
  Bi3+  Bi77  1  0.00169917  0.33587494  0.33226080  1
  Bi3+  Bi78  1  0.67076118  0.83195938  0.83707056  1
  Bi3+  Bi79  1  0.00178930  0.33327558  0.00245408  1
  Bi3+  Bi80  1  0.83934514  0.66633976  0.16742869  1
  Bi3+  Bi81  1  0.33789818  0.33242614  0.33668186  1
  Bi3+  Bi82  1  0.50193653  0.66111121  0.17079089  1
  Bi3+  Bi83  1  0.16807744  -0.00370441  0.50115767  1
  Bi3+  Bi84  1  0.84410521  0.34059089  0.83581441  1
  Bi3+  Bi85  1  0.83275011  0.16625927  0.32945701  1
  Te2-  Te86  1  0.18707195  0.17224684  0.17310605  1
  Te2-  Te87  1  0.16445451  0.16177296  0.49929015  1
  Te2-  Te88  1  0.15505959  0.16202156  0.83495842  1
  Te2-  Te89  1  0.16697618  0.50707962  0.16298449  1
  Te2-  Te90  1  0.15272193  0.50510457  0.50053893  1
  Te2-  Te91  1  0.17124081  0.49603288  0.83539466  1
  Te2-  Te92  1  0.16957817  0.82338494  0.16512473  1
  Te2-  Te93  1  0.16613464  0.83062489  0.50292570  1
  Te2-  Te94  1  0.17241679  0.83550451  0.82641115  1
  Te2-  Te95  1  0.49069678  0.17816516  0.16878115  1
  Te2-  Te96  1  0.49931669  0.16580956  0.49882824  1
  Te2-  Te97  1  0.49895620  0.17216054  0.83555474  1
  Te2-  Te98  1  0.49257502  0.49639549  0.15603683  1
  Te2-  Te99  1  0.50275184  0.50684953  0.49704743  1
  Te2-  Te100  1  0.49667733  0.49198939  0.85703082  1
  Te2-  Te101  1  0.50059879  0.82680797  0.16810991  1
  Te2-  Te102  1  0.51757187  0.82156881  0.50354625  1
  Te2-  Te103  1  0.50052535  0.83029671  0.83161966  1
  Te2-  Te104  1  0.82815987  0.16971780  0.16658624  1
  Te2-  Te105  1  0.83537164  0.16853354  0.48911452  1
  Te2-  Te106  1  0.84083608  0.17348668  0.83848758  1
  Te2-  Te107  1  0.84627528  0.50494748  0.15981945  1
  Te2-  Te108  1  0.83589178  0.49990785  0.49978701  1
  Te2-  Te109  1  0.82548289  0.50086873  0.84227750  1
  Te2-  Te110  1  0.83546415  0.82936024  0.16421621  1
  Te2-  Te111  1  0.81997770  0.82707268  0.50373443  1
  Te2-  Te112  1  0.83532052  0.82093382  0.83063034  1
  Te2-  Te113  1  0.16731484  0.00455865  -0.00397223  1
  Te2-  Te114  1  0.16617931  0.00238193  0.33504020  1
  Te2-  Te115  1  0.16356446  -0.00081025  0.66329503  1
  Te2-  Te116  1  0.16590690  0.33695836  0.00716618  1
  Te2-  Te117  1  0.16778581  0.33699107  0.33171365  1
  Te2-  Te118  1  0.16684767  0.33043422  0.65859455  1
  Te2-  Te119  1  0.18083447  0.65615126  -0.00041025  1
  Te2-  Te120  1  0.16103789  0.65999625  0.34340211  1
  Te2-  Te121  1  0.16922168  0.66939410  0.65711988  1
  Te2-  Te122  1  0.50170659  0.01291204  0.00375948  1
  Te2-  Te123  1  0.51144283  0.00187843  0.33444778  1
  Te2-  Te124  1  0.49698049  -0.00433178  0.66203545  1
  Te2-  Te125  1  0.50286765  0.31453060  0.00234342  1
  Te2-  Te126  1  0.50032895  0.33764286  0.34057144  1
  Te2-  Te127  1  0.49184851  0.34089256  0.66786749  1
  Te2-  Te128  1  0.49076935  0.66611023  0.00709076  1
  Te2-  Te129  1  0.50210922  0.66163946  0.33590847  1
  Te2-  Te130  1  0.49750712  0.66861642  0.65477432  1
  Te2-  Te131  1  0.83219421  0.00336517  0.00028627  1
  Te2-  Te132  1  0.82654074  0.00067206  0.32710760  1
  Te2-  Te133  1  0.83551869  -0.00903251  0.66465992  1
  Te2-  Te134  1  0.83783843  0.33622734  -0.00176415  1
  Te2-  Te135  1  0.83567905  0.33123247  0.32912962  1
  Te2-  Te136  1  0.83052324  0.33949815  0.67431564  1
  Te2-  Te137  1  0.83456593  0.65877399  0.00382145  1
  Te2-  Te138  1  0.83347667  0.66846120  0.32849784  1
  Te2-  Te139  1  0.83467391  0.66105283  0.66298174  1
  Te2-  Te140  1  -0.00121513  0.17079792  0.01823036  1
  Te2-  Te141  1  0.00327928  0.17026523  0.32647569  1
  Te2-  Te142  1  -0.01684820  0.17597323  0.65666613  1
  Te2-  Te143  1  0.00562552  0.49554329  0.00765423  1
  Te2-  Te144  1  0.00982742  0.50220826  0.33038287  1
  Te2-  Te145  1  -0.00258533  0.49744297  0.65827976  1
  Te2-  Te146  1  0.01175341  0.83228956  -0.01608085  1
  Te2-  Te147  1  -0.00629431  0.82932952  0.34346482  1
  Te2-  Te148  1  -0.00043053  0.82320356  0.68152016  1
  Te2-  Te149  1  0.33099987  0.16275132  -0.00266605  1
  Te2-  Te150  1  0.33229784  0.16652324  0.34066011  1
  Te2-  Te151  1  0.33631911  0.17236651  0.66422379  1
  Te2-  Te152  1  0.32778177  0.49320060  -0.00792067  1
  Te2-  Te153  1  0.32310775  0.49390503  0.34778550  1
  Te2-  Te154  1  0.34478806  0.50266644  0.66341864  1
  Te2-  Te155  1  0.32007044  0.83650972  -0.00099024  1
  Te2-  Te156  1  0.33456696  0.83596000  0.33502061  1
  Te2-  Te157  1  0.33618298  0.83311697  0.66496662  1
  Te2-  Te158  1  0.67462231  0.17354028  0.01317239  1
  Te2-  Te159  1  0.66901774  0.17647928  0.32441964  1
  Te2-  Te160  1  0.67834045  0.16663749  0.66655856  1
  Te2-  Te161  1  0.67400299  0.48500866  -0.00256903  1
  Te2-  Te162  1  0.66695215  0.49254126  0.34192567  1
  Te2-  Te163  1  0.65163000  0.49361159  0.66426070  1
  Te2-  Te164  1  0.66514009  0.83402890  0.00046777  1
  Te2-  Te165  1  0.67594632  0.83331308  0.32934982  1
  Te2-  Te166  1  0.67086687  0.83065921  0.67515213  1
  Te2-  Te167  1  0.00182908  -0.01601806  0.16685562  1
  Te2-  Te168  1  0.00310888  0.00237230  0.50878303  1
  Te2-  Te169  1  0.00268438  0.00716621  0.81860207  1
  Te2-  Te170  1  0.00821277  0.33690708  0.16913096  1
  Te2-  Te171  1  -0.00525941  0.33598929  0.49288971  1
  Te2-  Te172  1  0.00877396  0.34160903  0.83684340  1
  Te2-  Te173  1  0.00364229  0.67664363  0.17446478  1
  Te2-  Te174  1  -0.01229939  0.66163274  0.49487158  1
  Te2-  Te175  1  -0.00490008  0.64245584  0.83435237  1
  Te2-  Te176  1  0.33954117  -0.00785761  0.17219245  1
  Te2-  Te177  1  0.33252272  0.00436885  0.49462133  1
  Te2-  Te178  1  0.33033404  0.00067298  0.83012773  1
  Te2-  Te179  1  0.33867867  0.33837596  0.17111185  1
  Te2-  Te180  1  0.33014542  0.33521627  0.49848212  1
  Te2-  Te181  1  0.31785602  0.33409577  0.83243630  1
  Te2-  Te182  1  0.33402790  0.66732803  0.16651116  1
  Te2-  Te183  1  0.33428975  0.65822072  0.50235429  1
  Te2-  Te184  1  0.33410005  0.66934124  0.83072261  1
  Te2-  Te185  1  0.66672170  -0.00077220  0.17109053  1
  Te2-  Te186  1  0.66388948  0.00103066  0.48913726  1
  Te2-  Te187  1  0.66736562  -0.00386907  0.83575931  1
  Te2-  Te188  1  0.66450907  0.34748096  0.17407546  1
  Te2-  Te189  1  0.66895493  0.33194745  0.49751577  1
  Te2-  Te190  1  0.67108651  0.33263707  0.83431220  1
  Te2-  Te191  1  0.66727008  0.64597592  0.16885691  1
  Te2-  Te192  1  0.67938389  0.65592742  0.49638714  1
  Te2-  Te193  1  0.67002882  0.66809705  0.83543272  1
  Pb2+  Pb194  1  0.66596877  0.66135065  0.66389147  1
  Pb2+  Pb195  1  0.00065710  0.00469212  -0.01004064  1
  Pb2+  Pb196  1  0.16261963  0.66771785  0.82964432  1
  Pb2+  Pb197  1  0.16397198  0.82879430  0.33260863  1
  Pb2+  Pb198  1  0.83589816  -0.00123006  0.83023977  1
  Pb2+  Pb199  1  0.50038063  0.65551001  0.82710922  1
  Pb2+  Pb200  1  0.33308868  0.66163179  0.33217651  1
  Pb2+  Pb201  1  0.66633602  -0.00205251  0.66001792  1
  Pb2+  Pb202  1  0.65837377  0.66096162  0.00146150  1
  Pb2+  Pb203  1  0.83321836  0.00226331  0.49718403  1
  Pb2+  Pb204  1  0.00917222  0.66361990  0.00260239  1
  Pb2+  Pb205  1  0.17178488  0.00531875  0.16320682  1
  Pb2+  Pb206  1  0.83457758  0.83096599  -0.00188951  1
  Pb2+  Pb207  1  -0.00436462  0.82981237  0.51525065  1
  Pb2+  Pb208  1  0.49780127  0.00189985  0.83413314  1
  Pb2+  Pb209  1  0.50441746  0.83313319  0.33449495  1
  Pb2+  Pb210  1  0.50779185  0.17223881  0.66597510  1
  Pb2+  Pb211  1  -0.00493871  0.00018951  0.33798609  1
  Pb2+  Pb212  1  0.49115412  0.83589950  0.00327843  1
  Pb2+  Pb213  1  0.17094758  0.49667273  0.66627099  1
  Pb2+  Pb214  1  0.83782412  0.49942240  0.33025796  1
  Pb2+  Pb215  1  0.66705143  0.16540660  0.84030990  1
