# generated using pymatgen
data_In22Ag21Sn22Bi21(Te54Pb11)2
_symmetry_space_group_name_H-M   'P 1'
_cell_length_a   19.16560175
_cell_length_b   19.16284311
_cell_length_c   19.15798255
_cell_angle_alpha   89.98386512
_cell_angle_beta   89.97832847
_cell_angle_gamma   90.00293819
_symmetry_Int_Tables_number   1
_chemical_formula_structural   In22Ag21Sn22Bi21(Te54Pb11)2
_chemical_formula_sum   'In22 Ag21 Sn22 Bi21 Te108 Pb22'
_cell_volume   7036.10202230
_cell_formula_units_Z   1
loop_
 _symmetry_equiv_pos_site_id
 _symmetry_equiv_pos_as_xyz
  1  'x, y, z'
loop_
 _atom_type_symbol
 _atom_type_oxidation_number
  In3+  3.0
  Ag+  1.0
  Sn2+  2.0
  Bi3+  3.0
  Te2-  -2.0
  Pb2+  2.0
loop_
 _atom_site_type_symbol
 _atom_site_label
 _atom_site_symmetry_multiplicity
 _atom_site_fract_x
 _atom_site_fract_y
 _atom_site_fract_z
 _atom_site_occupancy
  In3+  In0  1  0.16129648  0.66583478  0.49687989  1
  In3+  In1  1  0.32792963  0.32191583  0.33621260  1
  In3+  In2  1  0.66635454  0.49492730  0.16448148  1
  In3+  In3  1  0.32954190  0.31432646  0.65880476  1
  In3+  In4  1  0.00274936  0.33580297  0.65598050  1
  In3+  In5  1  0.53210237  0.15049796  0.33773544  1
  In3+  In6  1  0.32417101  0.49582253  0.85174496  1
  In3+  In7  1  0.00060561  0.32353675  0.33510573  1
  In3+  In8  1  0.66089840  0.01210198  0.00453304  1
  In3+  In9  1  0.67957053  0.66680277  0.34462104  1
  In3+  In10  1  0.83678543  0.33299101  0.50532925  1
  In3+  In11  1  0.83077737  0.84679887  -0.01665587  1
  In3+  In12  1  0.85833331  0.49587957  0.35495199  1
  In3+  In13  1  0.82387688  0.50380237  0.00255018  1
  In3+  In14  1  0.01149713  0.49521617  0.83297151  1
  In3+  In15  1  0.52186021  0.31590788  0.49687214  1
  In3+  In16  1  0.47991982  -0.00017049  0.80422149  1
  In3+  In17  1  0.68228312  0.83170854  0.83630910  1
  In3+  In18  1  0.16031784  0.49578766  0.32685455  1
  In3+  In19  1  0.17076140  0.84795790  0.66843730  1
  In3+  In20  1  0.66784995  0.14351754  0.83081937  1
  In3+  In21  1  0.50351202  0.65619531  0.16519782  1
  Ag+  Ag22  1  0.47444887  0.02239595  0.49722880  1
  Ag+  Ag23  1  0.80692581  0.86168335  0.64730741  1
  Ag+  Ag24  1  0.85583433  0.13395044  0.63504798  1
  Ag+  Ag25  1  0.13880090  0.14760135  0.66856424  1
  Ag+  Ag26  1  -0.01915137  0.66683252  0.31149372  1
  Ag+  Ag27  1  -0.00444965  0.02395093  0.36350991  1
  Ag+  Ag28  1  0.14404001  0.33100228  0.14334335  1
  Ag+  Ag29  1  0.14531553  0.64877011  0.85640527  1
  Ag+  Ag30  1  0.30904307  0.16926904  0.49230974  1
  Ag+  Ag31  1  0.13938110  0.46474921  0.03171538  1
  Ag+  Ag32  1  0.30470736  0.02269581  0.64727453  1
  Ag+  Ag33  1  0.83935055  0.13215210  0.36088084  1
  Ag+  Ag34  1  0.31084120  0.49201522  0.18992999  1
  Ag+  Ag35  1  0.66742879  0.19067967  0.19000063  1
  Ag+  Ag36  1  0.02165812  0.49983290  0.49709928  1
  Ag+  Ag37  1  0.84136278  0.03234856  0.47456328  1
  Ag+  Ag38  1  0.81301617  0.03099956  0.82864255  1
  Ag+  Ag39  1  0.69050504  0.67374168  0.01240631  1
  Ag+  Ag40  1  0.37119457  0.03219630  0.03823155  1
  Ag+  Ag41  1  0.67714171  0.13843807  0.48353555  1
  Ag+  Ag42  1  0.67626509  0.48131427  0.46396474  1
  Sn2+  Sn43  1  0.83894572  0.83181229  0.34478808  1
  Sn2+  Sn44  1  0.34162856  0.49146454  0.49998781  1
  Sn2+  Sn45  1  0.17018877  0.01892180  0.16433217  1
  Sn2+  Sn46  1  0.33101789  0.66330517  0.66409065  1
  Sn2+  Sn47  1  0.67096328  0.83946920  0.50409170  1
  Sn2+  Sn48  1  -0.00946663  -0.00405966  0.66321541  1
  Sn2+  Sn49  1  0.17397555  0.15747393  -0.00591816  1
  Sn2+  Sn50  1  0.83623713  0.16437723  0.00525507  1
  Sn2+  Sn51  1  0.49546474  0.83895121  0.66256116  1
  Sn2+  Sn52  1  0.00216342  0.33639999  0.00285752  1
  Sn2+  Sn53  1  0.82572595  0.66843966  0.16719859  1
  Sn2+  Sn54  1  0.50211339  0.16433175  0.01198036  1
  Sn2+  Sn55  1  0.49823138  0.66875577  0.83680564  1
  Sn2+  Sn56  1  0.33106446  0.17619763  0.17463227  1
  Sn2+  Sn57  1  0.32078000  0.00883168  0.34578758  1
  Sn2+  Sn58  1  -0.00118694  0.82523416  0.49999652  1
  Sn2+  Sn59  1  0.49231562  0.33094216  0.17499307  1
  Sn2+  Sn60  1  -0.00228710  0.17079766  0.50082047  1
  Sn2+  Sn61  1  0.00659185  0.83115056  0.82903180  1
  Sn2+  Sn62  1  0.82985595  0.49979875  0.66530744  1
  Sn2+  Sn63  1  0.15696135  0.00130201  0.49284437  1
  Sn2+  Sn64  1  0.83243292  0.32768680  0.16793420  1
  Bi3+  Bi65  1  0.33432975  0.66916303  -0.00156943  1
  Bi3+  Bi66  1  0.16558485  0.83355114  0.33683540  1
  Bi3+  Bi67  1  0.50023313  0.83481404  0.33513220  1
  Bi3+  Bi68  1  0.66733690  0.83005547  0.16388203  1
  Bi3+  Bi69  1  0.50830662  0.16762115  0.66554160  1
  Bi3+  Bi70  1  0.83354183  0.66338681  0.83317216  1
  Bi3+  Bi71  1  0.33582297  0.82802018  0.83114367  1
  Bi3+  Bi72  1  0.67384418  0.00243498  0.66450401  1
  Bi3+  Bi73  1  0.00217595  0.00279499  -0.00363523  1
  Bi3+  Bi74  1  0.16866924  0.50114364  0.66202946  1
  Bi3+  Bi75  1  0.33383227  0.66750003  0.33242485  1
  Bi3+  Bi76  1  0.16479882  -0.00008384  0.83255393  1
  Bi3+  Bi77  1  0.49863079  0.49819719  -0.00137532  1
  Bi3+  Bi78  1  0.49472915  0.50011987  0.33341789  1
  Bi3+  Bi79  1  0.83379960  0.33801556  0.83308653  1
  Bi3+  Bi80  1  0.49633639  0.50407700  0.66278223  1
  Bi3+  Bi81  1  0.00387864  0.66138768  0.66246617  1
  Bi3+  Bi82  1  0.16556325  0.83357070  -0.00353937  1
  Bi3+  Bi83  1  0.16488089  0.33315359  0.49984845  1
  Bi3+  Bi84  1  0.66360531  0.50789488  0.83431856  1
  Bi3+  Bi85  1  0.83693364  0.66651515  0.50432911  1
  Te2-  Te86  1  0.17167046  0.17945668  0.16728093  1
  Te2-  Te87  1  0.15920160  0.16954932  0.51034136  1
  Te2-  Te88  1  0.16537756  0.16406214  0.81861761  1
  Te2-  Te89  1  0.16475785  0.48691853  0.17276106  1
  Te2-  Te90  1  0.17191248  0.49659377  0.49854600  1
  Te2-  Te91  1  0.16891686  0.50643496  0.82781756  1
  Te2-  Te92  1  0.16643490  0.83557147  0.16565014  1
  Te2-  Te93  1  0.16617604  0.83511751  0.49997512  1
  Te2-  Te94  1  0.17157121  0.83394784  0.83040370  1
  Te2-  Te95  1  0.51170761  0.17122425  0.18099551  1
  Te2-  Te96  1  0.52398512  0.16186422  0.49443735  1
  Te2-  Te97  1  0.50444656  0.15788010  0.83142900  1
  Te2-  Te98  1  0.50569683  0.49800089  0.16565972  1
  Te2-  Te99  1  0.50378587  0.50011508  0.49859765  1
  Te2-  Te100  1  0.49884556  0.50056963  0.83218926  1
  Te2-  Te101  1  0.50212702  0.83514009  0.17016612  1
  Te2-  Te102  1  0.50515242  0.83418678  0.49607117  1
  Te2-  Te103  1  0.49706769  0.84064343  0.82881595  1
  Te2-  Te104  1  0.81777982  0.17174075  0.16007546  1
  Te2-  Te105  1  0.82793155  0.18213642  0.50092533  1
  Te2-  Te106  1  0.82257380  0.17795637  0.83917116  1
  Te2-  Te107  1  0.82343691  0.50086165  0.15702346  1
  Te2-  Te108  1  0.81988236  0.50223027  0.50011665  1
  Te2-  Te109  1  0.82954698  0.50064139  0.83508235  1
  Te2-  Te110  1  0.82890695  0.82778790  0.17387725  1
  Te2-  Te111  1  0.83655179  0.82550280  0.50848909  1
  Te2-  Te112  1  0.83720630  0.82514311  0.83134281  1
  Te2-  Te113  1  0.16787526  -0.00302241  -0.00354196  1
  Te2-  Te114  1  0.14883921  -0.00312338  0.33358332  1
  Te2-  Te115  1  0.16081126  0.00274831  0.66571435  1
  Te2-  Te116  1  0.16743845  0.32571127  -0.00192276  1
  Te2-  Te117  1  0.16385339  0.33780661  0.33845444  1
  Te2-  Te118  1  0.16963174  0.33756115  0.66262335  1
  Te2-  Te119  1  0.17163947  0.67056297  -0.00116285  1
  Te2-  Te120  1  0.17267951  0.66854378  0.33873353  1
  Te2-  Te121  1  0.16724198  0.66229898  0.65575687  1
  Te2-  Te122  1  0.50652732  0.00142148  -0.00249205  1
  Te2-  Te123  1  0.50080132  -0.00021601  0.34708615  1
  Te2-  Te124  1  0.51044374  0.00207410  0.65353565  1
  Te2-  Te125  1  0.50099373  0.33298927  0.00086806  1
  Te2-  Te126  1  0.49698029  0.33874844  0.34404985  1
  Te2-  Te127  1  0.49441688  0.33548366  0.65610210  1
  Te2-  Te128  1  0.49594680  0.66258156  0.00323367  1
  Te2-  Te129  1  0.49659193  0.66861306  0.32740279  1
  Te2-  Te130  1  0.49879289  0.66747219  0.66773861  1
  Te2-  Te131  1  0.83519747  -0.00126293  -0.01188048  1
  Te2-  Te132  1  0.84976702  -0.01344393  0.33018098  1
  Te2-  Te133  1  0.83414962  -0.00007772  0.68422245  1
  Te2-  Te134  1  0.83899689  0.34015441  -0.00071223  1
  Te2-  Te135  1  0.83791884  0.34848640  0.33307721  1
  Te2-  Te136  1  0.84057069  0.33956788  0.66675286  1
  Te2-  Te137  1  0.83571271  0.66093096  -0.00290768  1
  Te2-  Te138  1  0.83401590  0.65716179  0.33801092  1
  Te2-  Te139  1  0.83907755  0.66660870  0.66947992  1
  Te2-  Te140  1  0.00306712  0.16738753  -0.00194500  1
  Te2-  Te141  1  -0.01487998  0.16984538  0.33670876  1
  Te2-  Te142  1  -0.00644537  0.18179204  0.66242193  1
  Te2-  Te143  1  0.00265732  0.49464506  -0.00745125  1
  Te2-  Te144  1  0.00653804  0.51625091  0.34271683  1
  Te2-  Te145  1  0.00278829  0.49580482  0.66004023  1
  Te2-  Te146  1  -0.00056502  0.83695607  -0.00150680  1
  Te2-  Te147  1  0.00611855  0.81411706  0.33981998  1
  Te2-  Te148  1  0.01445753  0.82510464  0.66787901  1
  Te2-  Te149  1  0.33428945  0.16709458  -0.00007999  1
  Te2-  Te150  1  0.33114491  0.16806139  0.34168735  1
  Te2-  Te151  1  0.34842859  0.16195586  0.65676289  1
  Te2-  Te152  1  0.33642151  0.50299310  0.00232326  1
  Te2-  Te153  1  0.33387180  0.50280614  0.33500665  1
  Te2-  Te154  1  0.33508615  0.50088146  0.66354976  1
  Te2-  Te155  1  0.33093121  0.83363920  -0.00322784  1
  Te2-  Te156  1  0.33379637  0.83646143  0.33227697  1
  Te2-  Te157  1  0.33004220  0.83337367  0.66836208  1
  Te2-  Te158  1  0.66277411  0.16409290  -0.00773682  1
  Te2-  Te159  1  0.68297896  0.16403736  0.33507143  1
  Te2-  Te160  1  0.66837653  0.16559325  0.67660317  1
  Te2-  Te161  1  0.66231938  0.50992780  -0.00001139  1
  Te2-  Te162  1  0.65744292  0.51154127  0.32222168  1
  Te2-  Te163  1  0.65874272  0.50189658  0.67046815  1
  Te2-  Te164  1  0.67426997  0.82327269  -0.00048954  1
  Te2-  Te165  1  0.66415075  0.82571624  0.33011679  1
  Te2-  Te166  1  0.66458270  0.83710426  0.67546880  1
  Te2-  Te167  1  0.00194914  0.00265917  0.15769619  1
  Te2-  Te168  1  -0.01045412  -0.00025166  0.50743670  1
  Te2-  Te169  1  0.00304655  -0.00212752  0.83387861  1
  Te2-  Te170  1  -0.00074474  0.33336181  0.17633152  1
  Te2-  Te171  1  -0.00355261  0.34734358  0.49358227  1
  Te2-  Te172  1  -0.00333325  0.33887320  0.83112635  1
  Te2-  Te173  1  -0.00175741  0.66375051  0.16555438  1
  Te2-  Te174  1  0.00206761  0.65324614  0.50316865  1
  Te2-  Te175  1  0.00032985  0.65803653  0.82775824  1
  Te2-  Te176  1  0.32860803  0.00693415  0.17462508  1
  Te2-  Te177  1  0.32702189  0.01197378  0.50201737  1
  Te2-  Te178  1  0.32999124  -0.00601890  0.82923292  1
  Te2-  Te179  1  0.33529367  0.34107084  0.18124188  1
  Te2-  Te180  1  0.32776172  0.32142767  0.49840460  1
  Te2-  Te181  1  0.33507155  0.33700817  0.82798605  1
  Te2-  Te182  1  0.33555134  0.65520744  0.16720237  1
  Te2-  Te183  1  0.32617741  0.66748982  0.49580063  1
  Te2-  Te184  1  0.33729335  0.66377584  0.83377377  1
  Te2-  Te185  1  0.66637468  -0.00544120  0.15881545  1
  Te2-  Te186  1  0.69356406  -0.00562796  0.50323142  1
  Te2-  Te187  1  0.67196256  -0.01175961  0.83994435  1
  Te2-  Te188  1  0.66399334  0.33683026  0.16707053  1
  Te2-  Te189  1  0.67345594  0.33962960  0.49957683  1
  Te2-  Te190  1  0.66875478  0.34487696  0.83468566  1
  Te2-  Te191  1  0.66316846  0.66820055  0.15930648  1
  Te2-  Te192  1  0.67147048  0.66882832  0.49776867  1
  Te2-  Te193  1  0.66833343  0.67114911  0.84004689  1
  Pb2+  Pb194  1  0.66828202  0.33649471  0.33347323  1
  Pb2+  Pb195  1  -0.00703078  0.16502379  0.82951965  1
  Pb2+  Pb196  1  0.33286397  0.82672580  0.16381993  1
  Pb2+  Pb197  1  0.33211835  0.16239811  0.82421078  1
  Pb2+  Pb198  1  0.67066761  0.33352206  0.66687967  1
  Pb2+  Pb199  1  0.50420445  0.83185160  -0.00275102  1
  Pb2+  Pb200  1  0.16058924  0.16636390  0.33853421  1
  Pb2+  Pb201  1  0.49806090  0.00471199  0.17307851  1
  Pb2+  Pb202  1  0.33426752  0.33384024  0.00732102  1
  Pb2+  Pb203  1  0.66995127  0.66858511  0.66883650  1
  Pb2+  Pb204  1  0.67691289  -0.00677931  0.33499955  1
  Pb2+  Pb205  1  0.83312319  0.00009423  0.15934909  1
  Pb2+  Pb206  1  0.49662774  0.66691043  0.49743649  1
  Pb2+  Pb207  1  0.67113003  0.33509651  0.00084389  1
  Pb2+  Pb208  1  0.33490548  0.84234226  0.50119501  1
  Pb2+  Pb209  1  -0.00845295  0.49885156  0.17001966  1
  Pb2+  Pb210  1  0.00319613  0.66620370  -0.00173184  1
  Pb2+  Pb211  1  -0.00725727  0.16663230  0.16605923  1
  Pb2+  Pb212  1  0.16681987  0.33561280  0.83094712  1
  Pb2+  Pb213  1  0.16788459  0.66141836  0.16837842  1
  Pb2+  Pb214  1  0.50123426  0.32907173  0.82688459  1
  Pb2+  Pb215  1  -0.00165196  0.83587236  0.17317360  1
