# generated using pymatgen
data_In22Ag21Sn22Bi21(Te54Pb11)2
_symmetry_space_group_name_H-M   'P 1'
_cell_length_a   19.18893091
_cell_length_b   19.16091721
_cell_length_c   19.21718048
_cell_angle_alpha   90.01411994
_cell_angle_beta   89.99693821
_cell_angle_gamma   90.00452509
_symmetry_Int_Tables_number   1
_chemical_formula_structural   In22Ag21Sn22Bi21(Te54Pb11)2
_chemical_formula_sum   'In22 Ag21 Sn22 Bi21 Te108 Pb22'
_cell_volume   7065.72494443
_cell_formula_units_Z   1
loop_
 _symmetry_equiv_pos_site_id
 _symmetry_equiv_pos_as_xyz
  1  'x, y, z'
loop_
 _atom_type_symbol
 _atom_type_oxidation_number
  In3+  3.0
  Ag+  1.0
  Sn2+  2.0
  Bi3+  3.0
  Te2-  -2.0
  Pb2+  2.0
loop_
 _atom_site_type_symbol
 _atom_site_label
 _atom_site_symmetry_multiplicity
 _atom_site_fract_x
 _atom_site_fract_y
 _atom_site_fract_z
 _atom_site_occupancy
  In3+  In0  1  0.49614396  0.50256416  0.01610480  1
  In3+  In1  1  0.47658461  -0.00992847  0.84427727  1
  In3+  In2  1  0.00029625  0.17109137  0.81878407  1
  In3+  In3  1  0.16393665  0.66657532  0.47275373  1
  In3+  In4  1  0.66805646  0.51646770  0.83055919  1
  In3+  In5  1  0.00498848  0.18350614  0.17071686  1
  In3+  In6  1  -0.00315497  0.01980483  0.32666928  1
  In3+  In7  1  0.33627709  0.85440705  0.15829662  1
  In3+  In8  1  0.00290398  0.33420024  0.01428661  1
  In3+  In9  1  0.50078427  0.35256901  0.83369969  1
  In3+  In10  1  0.48247550  0.83094709  0.67659242  1
  In3+  In11  1  0.64742728  0.18306631  0.82885288  1
  In3+  In12  1  0.16981562  0.33268767  0.18727919  1
  In3+  In13  1  0.50831093  0.49474164  0.33871582  1
  In3+  In14  1  0.33234847  0.50467315  0.17217857  1
  In3+  In15  1  0.84612842  0.32690420  0.83081938  1
  In3+  In16  1  0.33039915  0.14836129  0.48304655  1
  In3+  In17  1  0.68091412  0.49591277  0.46768516  1
  In3+  In18  1  0.00399753  0.00204947  0.02483675  1
  In3+  In19  1  0.16174066  0.82860532  0.66201954  1
  In3+  In20  1  0.82856958  0.35311948  0.18843458  1
  In3+  In21  1  0.33629205  0.01412902  0.68450883  1
  Ag+  Ag22  1  0.85221291  0.50202845  0.31324597  1
  Ag+  Ag23  1  0.14198309  0.16624434  0.35896894  1
  Ag+  Ag24  1  0.36554424  0.48973859  0.46955437  1
  Ag+  Ag25  1  0.35734403  -0.01029509  0.35102448  1
  Ag+  Ag26  1  0.47303387  0.33378595  0.13384807  1
  Ag+  Ag27  1  0.46656243  0.64430938  0.85499125  1
  Ag+  Ag28  1  0.86102413  0.66557697  0.51799083  1
  Ag+  Ag29  1  -0.01250783  0.68915126  0.69744968  1
  Ag+  Ag30  1  0.82899781  0.63960821  0.80827375  1
  Ag+  Ag31  1  0.36106634  0.00153241  0.01982843  1
  Ag+  Ag32  1  0.35978004  0.19282793  0.80263677  1
  Ag+  Ag33  1  0.63907962  0.33390113  0.30456635  1
  Ag+  Ag34  1  0.30619383  0.83532903  0.81456134  1
  Ag+  Ag35  1  -0.01393295  0.35189289  0.31393931  1
  Ag+  Ag36  1  0.63812833  0.51925848  0.16234139  1
  Ag+  Ag37  1  0.50016456  -0.02315798  0.18825349  1
  Ag+  Ag38  1  -0.03406247  0.13591948  0.52419052  1
  Ag+  Ag39  1  0.02375014  0.49557931  0.19175517  1
  Ag+  Ag40  1  0.83599163  0.18754170  0.63799851  1
  Ag+  Ag41  1  0.20887412  0.29474819  0.85646433  1
  Ag+  Ag42  1  0.18880333  0.69784502  0.16238986  1
  Sn2+  Sn43  1  0.67251057  0.33790804  0.00664284  1
  Sn2+  Sn44  1  0.16810136  0.49738823  0.00455153  1
  Sn2+  Sn45  1  0.32967379  0.33623802  0.65941507  1
  Sn2+  Sn46  1  0.17617181  0.00721619  0.16961446  1
  Sn2+  Sn47  1  0.66861527  0.83241292  0.16876422  1
  Sn2+  Sn48  1  0.00649485  0.65707448  0.00173774  1
  Sn2+  Sn49  1  0.82526885  0.00606713  0.16825644  1
  Sn2+  Sn50  1  0.00160353  0.81757437  0.16681516  1
  Sn2+  Sn51  1  0.83373741  0.82941941  0.66818360  1
  Sn2+  Sn52  1  0.16924117  0.83140231  -0.00045236  1
  Sn2+  Sn53  1  -0.00389949  0.83016303  0.49586216  1
  Sn2+  Sn54  1  -0.00082465  0.83444614  0.83789385  1
  Sn2+  Sn55  1  0.66468979  -0.00064810  0.67215357  1
  Sn2+  Sn56  1  0.49203245  0.82963403  0.33484390  1
  Sn2+  Sn57  1  0.83960533  0.82397950  0.00111414  1
  Sn2+  Sn58  1  0.83380422  0.49939820  0.66377515  1
  Sn2+  Sn59  1  0.84075569  0.34086330  0.49806039  1
  Sn2+  Sn60  1  0.16572139  0.84489422  0.33222247  1
  Sn2+  Sn61  1  0.83482800  0.81779952  0.33544868  1
  Sn2+  Sn62  1  0.50390996  0.33503171  0.50552841  1
  Sn2+  Sn63  1  0.50092562  0.00175041  0.49330354  1
  Sn2+  Sn64  1  0.15973084  0.66006308  0.83795308  1
  Bi3+  Bi65  1  0.83624013  0.00167845  0.83137934  1
  Bi3+  Bi66  1  -0.00407840  0.49996616  0.82909705  1
  Bi3+  Bi67  1  0.49849564  0.17113571  0.33072887  1
  Bi3+  Bi68  1  -0.00069333  0.33764582  0.66198765  1
  Bi3+  Bi69  1  -0.00103090  0.66356495  0.32768586  1
  Bi3+  Bi70  1  0.33061409  0.67235529  0.33524165  1
  Bi3+  Bi71  1  0.67567730  0.83717120  0.83112922  1
  Bi3+  Bi72  1  0.16514104  0.50519360  0.67041347  1
  Bi3+  Bi73  1  0.16743345  0.33923662  0.50640233  1
  Bi3+  Bi74  1  0.83479448  0.16375591  -0.00110392  1
  Bi3+  Bi75  1  0.15983006  -0.00365549  0.83270796  1
  Bi3+  Bi76  1  0.66701952  0.16602163  0.16360695  1
  Bi3+  Bi77  1  0.16566162  0.16162865  0.00072789  1
  Bi3+  Bi78  1  0.83649739  0.66586902  0.16696691  1
  Bi3+  Bi79  1  -0.00177867  0.49715402  0.50276987  1
  Bi3+  Bi80  1  0.67352374  0.00179891  -0.00179469  1
  Bi3+  Bi81  1  0.66600460  0.33238866  0.67085175  1
  Bi3+  Bi82  1  0.33432180  0.16675767  0.16451572  1
  Bi3+  Bi83  1  0.66769845  0.82966988  0.49755791  1
  Bi3+  Bi84  1  0.32637252  0.66752191  0.66931168  1
  Bi3+  Bi85  1  0.49641875  0.66934483  0.50372381  1
  Te2-  Te86  1  0.16547444  0.17427008  0.16089725  1
  Te2-  Te87  1  0.17825619  0.17372924  0.50117451  1
  Te2-  Te88  1  0.15942558  0.15950598  0.83409320  1
  Te2-  Te89  1  0.16914506  0.48623310  0.16346226  1
  Te2-  Te90  1  0.16332858  0.50473265  0.50610733  1
  Te2-  Te91  1  0.16221542  0.50087626  0.83485113  1
  Te2-  Te92  1  0.17289601  0.84397870  0.16701852  1
  Te2-  Te93  1  0.16280105  0.82702300  0.49978041  1
  Te2-  Te94  1  0.15786803  0.83279866  0.83307297  1
  Te2-  Te95  1  0.50179933  0.18612712  0.16798160  1
  Te2-  Te96  1  0.49174717  0.16944231  0.49690385  1
  Te2-  Te97  1  0.49443735  0.14495101  0.83204578  1
  Te2-  Te98  1  0.49481039  0.48324347  0.16743545  1
  Te2-  Te99  1  0.50884213  0.50432321  0.49640363  1
  Te2-  Te100  1  0.50939974  0.50780700  0.83114724  1
  Te2-  Te101  1  0.49626596  0.83150495  0.16905815  1
  Te2-  Te102  1  0.50452526  0.83180001  0.49763567  1
  Te2-  Te103  1  0.51292599  0.83894876  0.82710362  1
  Te2-  Te104  1  0.83591238  0.16592216  0.16106585  1
  Te2-  Te105  1  0.82816144  0.16800589  0.49336094  1
  Te2-  Te106  1  0.84303752  0.16717190  0.83778404  1
  Te2-  Te107  1  0.83207377  0.50023776  0.16693266  1
  Te2-  Te108  1  0.83083926  0.51367693  0.50556607  1
  Te2-  Te109  1  0.82927344  0.49498967  0.83465947  1
  Te2-  Te110  1  0.83001796  0.83251342  0.16959712  1
  Te2-  Te111  1  0.82899269  0.81672486  0.49678777  1
  Te2-  Te112  1  0.83746491  0.83807125  0.83391613  1
  Te2-  Te113  1  0.15720016  0.00018944  -0.00173194  1
  Te2-  Te114  1  0.15216198  0.01434396  0.32790765  1
  Te2-  Te115  1  0.17329826  -0.00542713  0.66779252  1
  Te2-  Te116  1  0.15592569  0.32707888  -0.01020407  1
  Te2-  Te117  1  0.16432082  0.32145377  0.33930368  1
  Te2-  Te118  1  0.16472397  0.33946654  0.67102844  1
  Te2-  Te119  1  0.16488033  0.66633584  0.01349735  1
  Te2-  Te120  1  0.16912178  0.67005025  0.31485000  1
  Te2-  Te121  1  0.16552721  0.66984800  0.67488317  1
  Te2-  Te122  1  0.50787858  -0.00008338  -0.00576934  1
  Te2-  Te123  1  0.50226435  0.00356118  0.33280479  1
  Te2-  Te124  1  0.49338420  -0.00861737  0.66011059  1
  Te2-  Te125  1  0.50057630  0.33897311  -0.01275335  1
  Te2-  Te126  1  0.49753793  0.33678040  0.34521996  1
  Te2-  Te127  1  0.50303137  0.33048450  0.67299654  1
  Te2-  Te128  1  0.49907228  0.65896592  -0.00258239  1
  Te2-  Te129  1  0.49375221  0.66113624  0.33776399  1
  Te2-  Te130  1  0.49459346  0.67477196  0.66573023  1
  Te2-  Te131  1  0.83808948  -0.00131898  0.00000940  1
  Te2-  Te132  1  0.83961010  -0.00247667  0.33053174  1
  Te2-  Te133  1  0.83388449  -0.00623935  0.66906025  1
  Te2-  Te134  1  0.84176030  0.32505745  -0.01127690  1
  Te2-  Te135  1  0.83999796  0.34913163  0.33755350  1
  Te2-  Te136  1  0.83197692  0.33211847  0.67056739  1
  Te2-  Te137  1  0.83686359  0.66519094  0.00618909  1
  Te2-  Te138  1  0.83475047  0.65458538  0.32898674  1
  Te2-  Te139  1  0.84485929  0.66919512  0.66501344  1
  Te2-  Te140  1  -0.00018716  0.16400013  0.01235027  1
  Te2-  Te141  1  0.00048781  0.17161594  0.32191501  1
  Te2-  Te142  1  -0.01092429  0.17130045  0.66383489  1
  Te2-  Te143  1  0.00127486  0.48832424  -0.01088336  1
  Te2-  Te144  1  0.00070019  0.49819631  0.33900214  1
  Te2-  Te145  1  0.00124588  0.50350192  0.66597610  1
  Te2-  Te146  1  0.00142390  0.83514585  0.00717456  1
  Te2-  Te147  1  0.00146149  0.82462514  0.33175370  1
  Te2-  Te148  1  0.00548177  0.82944135  0.66196413  1
  Te2-  Te149  1  0.32941854  0.15474278  0.00232322  1
  Te2-  Te150  1  0.33828660  0.15163353  0.32907424  1
  Te2-  Te151  1  0.33523092  0.16376933  0.66303738  1
  Te2-  Te152  1  0.33725367  0.49750941  0.00483400  1
  Te2-  Te153  1  0.33420502  0.50376626  0.32802999  1
  Te2-  Te154  1  0.32914761  0.50549812  0.67263659  1
  Te2-  Te155  1  0.33394311  0.84809923  0.00839396  1
  Te2-  Te156  1  0.33187628  0.83909605  0.32913942  1
  Te2-  Te157  1  0.32662629  0.83111690  0.66795482  1
  Te2-  Te158  1  0.66940377  0.16594158  -0.00301095  1
  Te2-  Te159  1  0.66305131  0.18121072  0.32934779  1
  Te2-  Te160  1  0.68031886  0.16952247  0.66995504  1
  Te2-  Te161  1  0.65592073  0.49512448  0.01309758  1
  Te2-  Te162  1  0.65900631  0.48669264  0.31763647  1
  Te2-  Te163  1  0.66789463  0.49718100  0.67813073  1
  Te2-  Te164  1  0.67012135  0.83818321  -0.00070864  1
  Te2-  Te165  1  0.66504289  0.83567299  0.33420969  1
  Te2-  Te166  1  0.66981799  0.83492900  0.66320496  1
  Te2-  Te167  1  -0.00310465  -0.00970450  0.17340232  1
  Te2-  Te168  1  -0.00026396  -0.00211311  0.49227485  1
  Te2-  Te169  1  -0.00225604  0.00443552  0.83314696  1
  Te2-  Te170  1  0.00037186  0.34363045  0.16820023  1
  Te2-  Te171  1  0.00350291  0.33425542  0.50183854  1
  Te2-  Te172  1  -0.00044958  0.33311794  0.82356719  1
  Te2-  Te173  1  -0.00291951  0.64778349  0.16779669  1
  Te2-  Te174  1  0.00710057  0.66241314  0.49139511  1
  Te2-  Te175  1  -0.00875139  0.66195330  0.84048719  1
  Te2-  Te176  1  0.34682231  0.00575674  0.16620531  1
  Te2-  Te177  1  0.33245637  -0.00376711  0.49546706  1
  Te2-  Te178  1  0.32450975  -0.01558738  0.83213866  1
  Te2-  Te179  1  0.32890882  0.33110978  0.16779953  1
  Te2-  Te180  1  0.33238296  0.34942146  0.50432098  1
  Te2-  Te181  1  0.34508640  0.33503653  0.82982069  1
  Te2-  Te182  1  0.33080506  0.65838064  0.17201481  1
  Te2-  Te183  1  0.33087688  0.65875642  0.49874529  1
  Te2-  Te184  1  0.32841128  0.68320640  0.83332041  1
  Te2-  Te185  1  0.65501732  0.00234643  0.16198328  1
  Te2-  Te186  1  0.66573098  -0.00231879  0.50146089  1
  Te2-  Te187  1  0.67446262  -0.00075820  0.83414849  1
  Te2-  Te188  1  0.68154462  0.32595737  0.16391356  1
  Te2-  Te189  1  0.67119502  0.34589643  0.50931653  1
  Te2-  Te190  1  0.65865501  0.33372508  0.83498130  1
  Te2-  Te191  1  0.66623621  0.66571614  0.16771368  1
  Te2-  Te192  1  0.65966993  0.66264199  0.49912875  1
  Te2-  Te193  1  0.68238207  0.67077626  0.83090278  1
  Pb2+  Pb194  1  0.33133726  0.51033624  0.83830425  1
  Pb2+  Pb195  1  0.83096149  0.49520616  0.00359860  1
  Pb2+  Pb196  1  0.50906776  0.15931702  0.66707767  1
  Pb2+  Pb197  1  0.16810227  0.49663001  0.33595867  1
  Pb2+  Pb198  1  0.66956181  0.66522850  -0.00286418  1
  Pb2+  Pb199  1  0.67125402  0.00679339  0.33166772  1
  Pb2+  Pb200  1  0.32913547  0.67476263  0.00277565  1
  Pb2+  Pb201  1  0.32980993  0.32391030  0.33906730  1
  Pb2+  Pb202  1  0.32383283  0.32526345  0.00059913  1
  Pb2+  Pb203  1  0.49811997  0.66009407  0.16783201  1
  Pb2+  Pb204  1  0.33262087  0.82595572  0.50119523  1
  Pb2+  Pb205  1  0.66268308  0.17501759  0.49953499  1
  Pb2+  Pb206  1  0.83343301  0.17716509  0.32860329  1
  Pb2+  Pb207  1  0.83317471  -0.01011370  0.50063584  1
  Pb2+  Pb208  1  0.66809939  0.66172201  0.33420833  1
  Pb2+  Pb209  1  0.49625378  0.16806008  0.00268325  1
  Pb2+  Pb210  1  0.16427541  0.16896549  0.66654167  1
  Pb2+  Pb211  1  0.16541172  0.00160559  0.49294020  1
  Pb2+  Pb212  1  0.67430004  0.66652131  0.66384238  1
  Pb2+  Pb213  1  0.00135287  -0.00402972  0.66608712  1
  Pb2+  Pb214  1  0.49964905  0.83204217  -0.00302386  1
  Pb2+  Pb215  1  0.49854024  0.50237235  0.66255887  1
