# generated using pymatgen
data_In22Ag21Sn22Bi21(Te54Pb11)2
_symmetry_space_group_name_H-M   'P 1'
_cell_length_a   19.10580782
_cell_length_b   19.11625071
_cell_length_c   19.12269437
_cell_angle_alpha   89.99316741
_cell_angle_beta   90.00961748
_cell_angle_gamma   89.96986201
_symmetry_Int_Tables_number   1
_chemical_formula_structural   In22Ag21Sn22Bi21(Te54Pb11)2
_chemical_formula_sum   'In22 Ag21 Sn22 Bi21 Te108 Pb22'
_cell_volume   6984.20755827
_cell_formula_units_Z   1
loop_
 _symmetry_equiv_pos_site_id
 _symmetry_equiv_pos_as_xyz
  1  'x, y, z'
loop_
 _atom_type_symbol
 _atom_type_oxidation_number
  In3+  3.0
  Ag+  1.0
  Sn2+  2.0
  Bi3+  3.0
  Te2-  -2.0
  Pb2+  2.0
loop_
 _atom_site_type_symbol
 _atom_site_label
 _atom_site_symmetry_multiplicity
 _atom_site_fract_x
 _atom_site_fract_y
 _atom_site_fract_z
 _atom_site_occupancy
  In3+  In0  1  0.82044377  0.50076987  0.67315104  1
  In3+  In1  1  0.65994229  0.16488455  0.17307092  1
  In3+  In2  1  0.00110636  0.51354688  0.49502890  1
  In3+  In3  1  0.66733664  -0.02040605  0.00078979  1
  In3+  In4  1  0.83443805  0.33034837  0.85545308  1
  In3+  In5  1  0.17095353  0.16080536  0.33266132  1
  In3+  In6  1  -0.00307077  0.32824694  0.33513650  1
  In3+  In7  1  0.00605546  0.32319705  0.01585617  1
  In3+  In8  1  0.82710179  0.50062513  0.01425730  1
  In3+  In9  1  -0.00047818  0.65500392  0.00070420  1
  In3+  In10  1  0.14712820  0.32354875  0.83487720  1
  In3+  In11  1  0.83200752  0.82058223  0.33735639  1
  In3+  In12  1  0.83276691  0.01215325  0.17490823  1
  In3+  In13  1  0.30946393  -0.00466393  0.00714888  1
  In3+  In14  1  0.00445340  0.01381544  0.00616285  1
  In3+  In15  1  0.51971084  0.51628033  0.33138956  1
  In3+  In16  1  0.14894766  0.50570686  0.00038573  1
  In3+  In17  1  0.85922955  0.83839898  0.00509146  1
  In3+  In18  1  0.50317067  0.00340941  0.48396121  1
  In3+  In19  1  0.33217248  0.51236041  0.17212008  1
  In3+  In20  1  0.83700129  0.16790459  0.31763968  1
  In3+  In21  1  0.51516782  0.83323945  0.65615212  1
  Ag+  Ag22  1  0.64534687  0.82098050  0.47680234  1
  Ag+  Ag23  1  0.01345475  0.17495624  0.46765747  1
  Ag+  Ag24  1  0.35340942  0.84077398  0.50222821  1
  Ag+  Ag25  1  0.14209333  -0.02318470  0.82901999  1
  Ag+  Ag26  1  0.68714011  -0.00392523  0.64387311  1
  Ag+  Ag27  1  0.69661130  0.52065238  0.79863455  1
  Ag+  Ag28  1  0.00480931  0.64159494  0.64947331  1
  Ag+  Ag29  1  -0.00117620  0.64034601  0.35279407  1
  Ag+  Ag30  1  0.48181834  0.64529281  0.16797223  1
  Ag+  Ag31  1  0.16548801  0.82977523  0.64117020  1
  Ag+  Ag32  1  0.15388674  0.47491687  0.64387891  1
  Ag+  Ag33  1  0.16578472  0.15915570  -0.01185282  1
  Ag+  Ag34  1  0.30481328  0.16392607  0.17286487  1
  Ag+  Ag35  1  0.16952250  0.81478562  0.00104136  1
  Ag+  Ag36  1  0.47650225  0.16865996  0.33248894  1
  Ag+  Ag37  1  0.02586632  0.18995113  0.81561125  1
  Ag+  Ag38  1  0.84849290  0.52253102  0.35671489  1
  Ag+  Ag39  1  0.83232783  0.35071555  0.17957231  1
  Ag+  Ag40  1  0.69292301  0.52424285  0.17098548  1
  Ag+  Ag41  1  0.00318521  0.18780368  0.16580291  1
  Ag+  Ag42  1  0.68100150  0.00071297  0.34934286  1
  Sn2+  Sn43  1  0.32728310  0.51090871  0.49843704  1
  Sn2+  Sn44  1  0.82545286  0.66784388  0.16687855  1
  Sn2+  Sn45  1  0.32207405  0.84025181  0.82030393  1
  Sn2+  Sn46  1  0.16878420  0.32334161  0.16537939  1
  Sn2+  Sn47  1  0.34208331  -0.00646561  0.33099365  1
  Sn2+  Sn48  1  0.66968414  0.66689277  0.00433844  1
  Sn2+  Sn49  1  0.15993472  0.00738845  0.16131682  1
  Sn2+  Sn50  1  0.67328326  0.15902479  0.49322758  1
  Sn2+  Sn51  1  0.50578067  0.15343216  0.66146182  1
  Sn2+  Sn52  1  0.00108430  0.00193516  0.33574146  1
  Sn2+  Sn53  1  0.50379658  0.83948532  0.32907794  1
  Sn2+  Sn54  1  0.32156394  0.66967526  0.33490422  1
  Sn2+  Sn55  1  0.66748448  0.83450532  0.17238842  1
  Sn2+  Sn56  1  0.67100189  0.50326585  0.48198317  1
  Sn2+  Sn57  1  -0.00095568  0.49901449  0.16674386  1
  Sn2+  Sn58  1  0.00528649  0.50143676  0.82151175  1
  Sn2+  Sn59  1  0.16653347  0.66934143  0.50878075  1
  Sn2+  Sn60  1  0.50952144  0.50220206  0.00369759  1
  Sn2+  Sn61  1  0.49285914  0.82880071  0.00342017  1
  Sn2+  Sn62  1  0.65904963  0.83507741  0.82713934  1
  Sn2+  Sn63  1  0.83650560  0.17187126  0.66283190  1
  Sn2+  Sn64  1  -0.00290316  0.33247612  0.65985164  1
  Bi3+  Bi65  1  0.50360652  0.33501524  0.83483552  1
  Bi3+  Bi66  1  0.83354419  0.32943995  0.49461800  1
  Bi3+  Bi67  1  0.33083938  -0.00268128  0.67012600  1
  Bi3+  Bi68  1  0.33426335  0.50138958  0.83969424  1
  Bi3+  Bi69  1  0.32707747  0.33033787  0.00386576  1
  Bi3+  Bi70  1  -0.00155645  0.84131340  0.50152355  1
  Bi3+  Bi71  1  0.50092870  -0.00107598  0.83621762  1
  Bi3+  Bi72  1  0.83676851  0.16441563  0.00049098  1
  Bi3+  Bi73  1  0.66901421  0.33311106  0.00490257  1
  Bi3+  Bi74  1  0.32244159  0.67118463  0.66617110  1
  Bi3+  Bi75  1  -0.00151670  0.83750891  0.83441134  1
  Bi3+  Bi76  1  0.83319539  0.00145270  0.83772217  1
  Bi3+  Bi77  1  -0.00023602  0.00074079  0.67133240  1
  Bi3+  Bi78  1  0.50354297  0.00008686  0.16631999  1
  Bi3+  Bi79  1  0.67016502  0.32429152  0.33296535  1
  Bi3+  Bi80  1  -0.00297157  0.83102518  0.16760799  1
  Bi3+  Bi81  1  0.83553924  0.66387572  0.83476729  1
  Bi3+  Bi82  1  0.16423118  0.66843728  0.83152400  1
  Bi3+  Bi83  1  0.16219452  0.83662817  0.32682569  1
  Bi3+  Bi84  1  0.66711065  0.16868010  0.83424643  1
  Bi3+  Bi85  1  0.33333145  0.16842674  0.84035561  1
  Te2-  Te86  1  0.15735933  0.16434717  0.17525369  1
  Te2-  Te87  1  0.15952282  0.16495063  0.49125419  1
  Te2-  Te88  1  0.17005214  0.17219692  0.84006569  1
  Te2-  Te89  1  0.17209193  0.49713082  0.15664922  1
  Te2-  Te90  1  0.16000576  0.50145402  0.49896954  1
  Te2-  Te91  1  0.17248129  0.50499515  0.84405929  1
  Te2-  Te92  1  0.16323840  0.83958419  0.16222307  1
  Te2-  Te93  1  0.15828759  0.83395105  0.49043032  1
  Te2-  Te94  1  0.16334357  0.83235909  0.84949485  1
  Te2-  Te95  1  0.50614959  0.16115594  0.17636210  1
  Te2-  Te96  1  0.50083166  0.15743893  0.49198847  1
  Te2-  Te97  1  0.50151091  0.16833049  0.83390876  1
  Te2-  Te98  1  0.48899533  0.49810196  0.17789920  1
  Te2-  Te99  1  0.50028929  0.50106482  0.49000497  1
  Te2-  Te100  1  0.49739043  0.49803393  0.83321846  1
  Te2-  Te101  1  0.50184329  0.83927455  0.16967301  1
  Te2-  Te102  1  0.50194710  0.84140175  0.50042110  1
  Te2-  Te103  1  0.49618241  0.83630319  0.83821214  1
  Te2-  Te104  1  0.84970150  0.16308764  0.16165188  1
  Te2-  Te105  1  0.83641316  0.16811049  0.50388327  1
  Te2-  Te106  1  0.82914064  0.16824950  0.83597421  1
  Te2-  Te107  1  0.83880991  0.49859473  0.16499806  1
  Te2-  Te108  1  0.83858873  0.49455707  0.50117876  1
  Te2-  Te109  1  0.83706950  0.49728318  0.82967644  1
  Te2-  Te110  1  0.83355938  0.83435284  0.16585447  1
  Te2-  Te111  1  0.83656824  0.83495593  0.49650148  1
  Te2-  Te112  1  0.83176997  0.83247880  0.84096573  1
  Te2-  Te113  1  0.15942127  0.01150716  -0.00714772  1
  Te2-  Te114  1  0.16942912  -0.00008490  0.33099152  1
  Te2-  Te115  1  0.16748002  -0.00689007  0.68070180  1
  Te2-  Te116  1  0.16160078  0.33720100  -0.00401009  1
  Te2-  Te117  1  0.15761117  0.32704950  0.32921332  1
  Te2-  Te118  1  0.16492047  0.33261048  0.67792043  1
  Te2-  Te119  1  0.16326699  0.66397619  -0.00167665  1
  Te2-  Te120  1  0.15208158  0.67092246  0.33524250  1
  Te2-  Te121  1  0.15782642  0.67682680  0.67138642  1
  Te2-  Te122  1  0.50684376  -0.00213702  0.00038375  1
  Te2-  Te123  1  0.50417742  0.00350603  0.32888621  1
  Te2-  Te124  1  0.49301393  -0.01034262  0.67492365  1
  Te2-  Te125  1  0.50109577  0.33288767  -0.00054538  1
  Te2-  Te126  1  0.50714352  0.31546102  0.33343748  1
  Te2-  Te127  1  0.50265275  0.33264399  0.66948186  1
  Te2-  Te128  1  0.50098668  0.66443797  0.01532021  1
  Te2-  Te129  1  0.49795001  0.66815525  0.32284817  1
  Te2-  Te130  1  0.49612394  0.67724147  0.66783230  1
  Te2-  Te131  1  0.83061763  0.00012048  0.00005802  1
  Te2-  Te132  1  0.82859835  0.00907734  0.32794353  1
  Te2-  Te133  1  0.83397038  0.00011162  0.67394060  1
  Te2-  Te134  1  0.83631614  0.33138277  0.00899492  1
  Te2-  Te135  1  0.83660980  0.32582042  0.32884278  1
  Te2-  Te136  1  0.83616404  0.34150526  0.66090504  1
  Te2-  Te137  1  0.83827208  0.65986706  -0.00363908  1
  Te2-  Te138  1  0.84595273  0.66652794  0.33040994  1
  Te2-  Te139  1  0.84958452  0.65806722  0.67285493  1
  Te2-  Te140  1  0.00348966  0.16997998  0.01094612  1
  Te2-  Te141  1  -0.00622238  0.16186692  0.32215043  1
  Te2-  Te142  1  -0.00253485  0.16361736  0.67373543  1
  Te2-  Te143  1  -0.00398602  0.49330065  -0.00488093  1
  Te2-  Te144  1  -0.00704319  0.49280116  0.33856472  1
  Te2-  Te145  1  0.00884476  0.49636584  0.66280658  1
  Te2-  Te146  1  0.01048138  0.84077403  0.00083252  1
  Te2-  Te147  1  -0.00570844  0.83900398  0.33214367  1
  Te2-  Te148  1  0.00993627  0.83841436  0.66939221  1
  Te2-  Te149  1  0.32139357  0.16719260  0.00151011  1
  Te2-  Te150  1  0.32680544  0.16283403  0.32744046  1
  Te2-  Te151  1  0.33494218  0.16346405  0.66910953  1
  Te2-  Te152  1  0.33993471  0.49505502  0.00591630  1
  Te2-  Te153  1  0.32828730  0.50425118  0.33214869  1
  Te2-  Te154  1  0.32465445  0.50783715  0.66814433  1
  Te2-  Te155  1  0.32299703  0.84109229  0.00017557  1
  Te2-  Te156  1  0.32871676  0.83350178  0.34321048  1
  Te2-  Te157  1  0.31807602  0.83328113  0.65927836  1
  Te2-  Te158  1  0.67055541  0.17136128  0.00075080  1
  Te2-  Te159  1  0.67917757  0.15824636  0.33187019  1
  Te2-  Te160  1  0.66519405  0.15323634  0.66887515  1
  Te2-  Te161  1  0.67163906  0.49461585  0.01706003  1
  Te2-  Te162  1  0.67099247  0.49379408  0.32301244  1
  Te2-  Te163  1  0.66646655  0.50312022  0.65636317  1
  Te2-  Te164  1  0.66124167  0.82753613  -0.00098982  1
  Te2-  Te165  1  0.67551649  0.84657170  0.33488686  1
  Te2-  Te166  1  0.66855416  0.84452704  0.66850738  1
  Te2-  Te167  1  -0.00933530  -0.00814413  0.16312884  1
  Te2-  Te168  1  -0.00122593  0.00388726  0.50496336  1
  Te2-  Te169  1  -0.00498228  0.00160523  0.84018736  1
  Te2-  Te170  1  -0.00690993  0.33808775  0.16908416  1
  Te2-  Te171  1  -0.00432197  0.32171097  0.49161335  1
  Te2-  Te172  1  -0.00667071  0.33221046  0.83540781  1
  Te2-  Te173  1  -0.00395721  0.66896611  0.15500952  1
  Te2-  Te174  1  0.00003109  0.66955657  0.50095430  1
  Te2-  Te175  1  -0.00124021  0.67255320  0.84344994  1
  Te2-  Te176  1  0.33603243  0.01285138  0.16069468  1
  Te2-  Te177  1  0.34190689  -0.00752798  0.50376732  1
  Te2-  Te178  1  0.33851664  0.00605552  0.83937573  1
  Te2-  Te179  1  0.33110959  0.31534387  0.16275452  1
  Te2-  Te180  1  0.33096089  0.33613180  0.49844479  1
  Te2-  Te181  1  0.33853828  0.33616051  0.83903272  1
  Te2-  Te182  1  0.33413699  0.66909750  0.17047629  1
  Te2-  Te183  1  0.33006494  0.67183911  0.50172525  1
  Te2-  Te184  1  0.33232110  0.66681440  0.83219106  1
  Te2-  Te185  1  0.67145508  0.00348550  0.15869183  1
  Te2-  Te186  1  0.65744118  0.00082493  0.50004275  1
  Te2-  Te187  1  0.66730534  0.00335036  0.84004388  1
  Te2-  Te188  1  0.68138388  0.32000958  0.16936200  1
  Te2-  Te189  1  0.67051230  0.33239087  0.49698850  1
  Te2-  Te190  1  0.66950779  0.33494899  0.83867141  1
  Te2-  Te191  1  0.66693263  0.66863666  0.16720700  1
  Te2-  Te192  1  0.66601802  0.67488062  0.49919827  1
  Te2-  Te193  1  0.67105825  0.66199300  0.83472100  1
  Pb2+  Pb194  1  0.16051958  0.49941879  0.32684727  1
  Pb2+  Pb195  1  0.33429257  0.66731308  0.00146566  1
  Pb2+  Pb196  1  0.49692207  0.66954216  0.49345853  1
  Pb2+  Pb197  1  0.50080574  0.32865889  0.49824178  1
  Pb2+  Pb198  1  0.83316123  0.66482112  0.50161858  1
  Pb2+  Pb199  1  0.67288777  0.67387860  0.66766570  1
  Pb2+  Pb200  1  0.33278708  0.33764846  0.66824943  1
  Pb2+  Pb201  1  0.33257750  0.16253885  0.49685737  1
  Pb2+  Pb202  1  0.84259623  0.83114919  0.66913048  1
  Pb2+  Pb203  1  0.33469297  0.33558218  0.32795954  1
  Pb2+  Pb204  1  0.67101291  0.67191489  0.33236128  1
  Pb2+  Pb205  1  0.16290609  0.66849350  0.17102150  1
  Pb2+  Pb206  1  0.16836576  -0.00177468  0.50593368  1
  Pb2+  Pb207  1  0.49404592  0.16383943  0.00673401  1
  Pb2+  Pb208  1  0.67078840  0.32509251  0.66946130  1
  Pb2+  Pb209  1  0.33360348  0.84464519  0.17095772  1
  Pb2+  Pb210  1  0.50774469  0.33294584  0.16969262  1
  Pb2+  Pb211  1  0.49266387  0.50531702  0.66397268  1
  Pb2+  Pb212  1  0.16422590  0.15959503  0.66874241  1
  Pb2+  Pb213  1  0.83000608  0.00208516  0.49853887  1
  Pb2+  Pb214  1  0.50334369  0.66793484  0.84295359  1
  Pb2+  Pb215  1  0.16315078  0.33306893  0.50140266  1
