# generated using pymatgen
data_In22Ag21Sn22Bi21(Te54Pb11)2
_symmetry_space_group_name_H-M   'P 1'
_cell_length_a   19.11147055
_cell_length_b   19.11220837
_cell_length_c   19.09212551
_cell_angle_alpha   90.00326518
_cell_angle_beta   90.00017497
_cell_angle_gamma   90.01209169
_symmetry_Int_Tables_number   1
_chemical_formula_structural   In22Ag21Sn22Bi21(Te54Pb11)2
_chemical_formula_sum   'In22 Ag21 Sn22 Bi21 Te108 Pb22'
_cell_volume   6973.63556223
_cell_formula_units_Z   1
loop_
 _symmetry_equiv_pos_site_id
 _symmetry_equiv_pos_as_xyz
  1  'x, y, z'
loop_
 _atom_type_symbol
 _atom_type_oxidation_number
  In3+  3.0
  Ag+  1.0
  Sn2+  2.0
  Bi3+  3.0
  Te2-  -2.0
  Pb2+  2.0
loop_
 _atom_site_type_symbol
 _atom_site_label
 _atom_site_symmetry_multiplicity
 _atom_site_fract_x
 _atom_site_fract_y
 _atom_site_fract_z
 _atom_site_occupancy
  In3+  In0  1  -0.00530094  0.18039726  0.16993915  1
  In3+  In1  1  0.82603261  0.49919185  -0.00137555  1
  In3+  In2  1  -0.00369633  0.50856642  0.16323284  1
  In3+  In3  1  0.34412198  0.66786083  0.34958042  1
  In3+  In4  1  0.82505137  0.66521083  0.49938276  1
  In3+  In5  1  0.34074161  -0.02027375  -0.00062222  1
  In3+  In6  1  0.82987245  0.16125141  0.34337235  1
  In3+  In7  1  0.83159056  0.33679536  0.17830503  1
  In3+  In8  1  0.16249665  0.16959985  0.34204971  1
  In3+  In9  1  0.66259867  0.00105952  0.00143783  1
  In3+  In10  1  0.13922704  0.81848598  0.33998453  1
  In3+  In11  1  0.34547378  0.50507174  0.83919408  1
  In3+  In12  1  0.83287938  0.50723349  0.34376155  1
  In3+  In13  1  0.83047694  -0.00399956  0.19169332  1
  In3+  In14  1  0.67339525  0.50448301  0.16200609  1
  In3+  In15  1  0.35392726  0.50285627  0.16927314  1
  In3+  In16  1  0.68058764  0.49851819  0.83148354  1
  In3+  In17  1  0.82523749  0.33179180  0.83456765  1
  In3+  In18  1  0.15799432  0.50204970  0.33304540  1
  In3+  In19  1  0.16212870  0.50912442  0.67493950  1
  In3+  In20  1  0.50397746  0.65721724  0.83287127  1
  In3+  In21  1  0.51535004  0.17278433  -0.00022646  1
  Ag+  Ag22  1  0.64734313  0.49755304  0.47390999  1
  Ag+  Ag23  1  0.33674281  0.66427376  0.02062889  1
  Ag+  Ag24  1  0.81286909  -0.02761064  0.49791867  1
  Ag+  Ag25  1  0.83221526  0.80731409  0.63852526  1
  Ag+  Ag26  1  0.85434283  0.33694767  0.48031995  1
  Ag+  Ag27  1  -0.02245844  0.66202679  -0.01810683  1
  Ag+  Ag28  1  0.68806250  0.80806192  0.16890872  1
  Ag+  Ag29  1  -0.01943370  0.33426499  0.32867502  1
  Ag+  Ag30  1  0.82664417  0.80899624  0.33541524  1
  Ag+  Ag31  1  0.16580197  0.64595653  0.51462642  1
  Ag+  Ag32  1  0.68370302  0.67229772  0.33623009  1
  Ag+  Ag33  1  0.68045685  0.35066356  0.01365593  1
  Ag+  Ag34  1  0.67009051  0.14794252  0.81939788  1
  Ag+  Ag35  1  0.53073408  -0.00335158  0.18553033  1
  Ag+  Ag36  1  0.48252583  0.52272705  0.00165605  1
  Ag+  Ag37  1  0.52720715  0.16076445  0.63905877  1
  Ag+  Ag38  1  0.14491542  -0.01504999  0.50935419  1
  Ag+  Ag39  1  0.51988620  0.36013098  0.46645480  1
  Ag+  Ag40  1  0.52484569  0.65337318  0.50427733  1
  Ag+  Ag41  1  0.63848895  0.69825890  0.62824061  1
  Ag+  Ag42  1  0.00740841  0.49538396  0.86007496  1
  Sn2+  Sn43  1  0.83307279  0.66862059  0.16534399  1
  Sn2+  Sn44  1  0.83231011  0.16801605  0.00217647  1
  Sn2+  Sn45  1  -0.00667576  0.66907175  0.66729978  1
  Sn2+  Sn46  1  -0.00211014  0.33900874  0.65733550  1
  Sn2+  Sn47  1  0.16788530  0.50757539  0.00059782  1
  Sn2+  Sn48  1  0.16338866  0.33483017  0.50149223  1
  Sn2+  Sn49  1  0.83195443  0.83515952  0.00736097  1
  Sn2+  Sn50  1  -0.00329080  0.16088011  0.49641933  1
  Sn2+  Sn51  1  0.50272198  0.49003008  0.66699016  1
  Sn2+  Sn52  1  0.33548006  0.83453794  0.49688162  1
  Sn2+  Sn53  1  0.33491374  0.82875310  0.83352523  1
  Sn2+  Sn54  1  0.33328365  -0.00943457  0.32955270  1
  Sn2+  Sn55  1  0.32574152  0.33792172  0.34357857  1
  Sn2+  Sn56  1  0.51611608  0.82780243  0.33011752  1
  Sn2+  Sn57  1  0.00567997  0.00861547  0.33245693  1
  Sn2+  Sn58  1  0.67234926  0.34241226  0.34351661  1
  Sn2+  Sn59  1  -0.00808202  -0.01152750  -0.00321799  1
  Sn2+  Sn60  1  -0.00276271  0.82854958  0.49919027  1
  Sn2+  Sn61  1  0.33595373  0.16327998  0.50131510  1
  Sn2+  Sn62  1  -0.00413043  0.81882451  0.83036005  1
  Sn2+  Sn63  1  0.49960737  -0.00280698  0.50056937  1
  Sn2+  Sn64  1  0.33117782  0.16766999  0.16912619  1
  Bi3+  Bi65  1  0.50263058  0.33506453  0.83366883  1
  Bi3+  Bi66  1  0.33508094  0.33423032  0.66564550  1
  Bi3+  Bi67  1  -0.00442059  0.83292961  0.16518488  1
  Bi3+  Bi68  1  0.16505796  0.16899835  0.00285418  1
  Bi3+  Bi69  1  0.16544822  0.16969563  0.66090605  1
  Bi3+  Bi70  1  0.16329155  -0.00064474  0.17009360  1
  Bi3+  Bi71  1  0.33558098  0.83201985  0.16878321  1
  Bi3+  Bi72  1  0.50401628  0.32843329  0.16186190  1
  Bi3+  Bi73  1  0.83487393  0.17136705  0.66371595  1
  Bi3+  Bi74  1  0.33761937  0.33774089  0.00324975  1
  Bi3+  Bi75  1  0.50052703  0.00209923  0.83793978  1
  Bi3+  Bi76  1  0.66830388  -0.00188289  0.66316846  1
  Bi3+  Bi77  1  0.66259674  0.33756263  0.66948152  1
  Bi3+  Bi78  1  0.83223100  0.50107420  0.66514027  1
  Bi3+  Bi79  1  0.33916494  0.66603588  0.66207924  1
  Bi3+  Bi80  1  0.83074756  0.66463923  0.83188938  1
  Bi3+  Bi81  1  0.16003778  0.33382964  0.83441078  1
  Bi3+  Bi82  1  0.50141837  0.83474818  0.00199722  1
  Bi3+  Bi83  1  -0.00113456  0.50208464  0.49776052  1
  Bi3+  Bi84  1  0.67095954  0.17211974  0.16466994  1
  Bi3+  Bi85  1  0.16646729  0.66515502  0.16720269  1
  Te2-  Te86  1  0.15889039  0.16411241  0.16683036  1
  Te2-  Te87  1  0.16576183  0.16842671  0.49876944  1
  Te2-  Te88  1  0.16496077  0.17009245  0.83457121  1
  Te2-  Te89  1  0.15570794  0.50252124  0.17155624  1
  Te2-  Te90  1  0.16419417  0.49827997  0.49200386  1
  Te2-  Te91  1  0.15481833  0.49649232  0.82988494  1
  Te2-  Te92  1  0.16654780  0.83294380  0.17603495  1
  Te2-  Te93  1  0.16594989  0.84127766  0.48817134  1
  Te2-  Te94  1  0.16579975  0.83283830  0.83176210  1
  Te2-  Te95  1  0.50389013  0.15983507  0.15914838  1
  Te2-  Te96  1  0.49600655  0.16292916  0.49713134  1
  Te2-  Te97  1  0.51406260  0.16777798  0.84418353  1
  Te2-  Te98  1  0.50664356  0.49999230  0.15320009  1
  Te2-  Te99  1  0.50243042  0.50191237  0.50367020  1
  Te2-  Te100  1  0.50132618  0.49936096  0.84531032  1
  Te2-  Te101  1  0.49576454  0.84734405  0.16400114  1
  Te2-  Te102  1  0.49749532  0.83695409  0.49917800  1
  Te2-  Te103  1  0.49963565  0.83427202  0.83566444  1
  Te2-  Te104  1  0.83700611  0.17053770  0.17069598  1
  Te2-  Te105  1  0.83548358  0.18680378  0.49807587  1
  Te2-  Te106  1  0.82320539  0.17302775  0.83147659  1
  Te2-  Te107  1  0.83500021  0.49797604  0.16681428  1
  Te2-  Te108  1  0.83665541  0.49152854  0.49918708  1
  Te2-  Te109  1  0.84005633  0.50166866  0.83418709  1
  Te2-  Te110  1  0.83314555  0.83911731  0.17358237  1
  Te2-  Te111  1  0.83826520  0.82471855  0.49171666  1
  Te2-  Te112  1  0.83505910  0.82664125  0.84301487  1
  Te2-  Te113  1  0.16348546  0.00464338  0.00445470  1
  Te2-  Te114  1  0.16655486  0.01297689  0.33004267  1
  Te2-  Te115  1  0.16545694  0.00426910  0.65549338  1
  Te2-  Te116  1  0.16845028  0.33543891  -0.00109685  1
  Te2-  Te117  1  0.16894820  0.33194607  0.33232798  1
  Te2-  Te118  1  0.16868226  0.33593155  0.67096055  1
  Te2-  Te119  1  0.18246425  0.66389632  0.00372398  1
  Te2-  Te120  1  0.17023031  0.66366299  0.32908113  1
  Te2-  Te121  1  0.16894791  0.66447564  0.66230204  1
  Te2-  Te122  1  0.50048684  0.00064677  -0.00020671  1
  Te2-  Te123  1  0.49889750  -0.00278825  0.32938463  1
  Te2-  Te124  1  0.50509665  0.01136315  0.67126577  1
  Te2-  Te125  1  0.50175003  0.33139875  -0.00020862  1
  Te2-  Te126  1  0.49861263  0.33392510  0.32337384  1
  Te2-  Te127  1  0.49816442  0.32198312  0.67253865  1
  Te2-  Te128  1  0.49149408  0.67059614  -0.00337428  1
  Te2-  Te129  1  0.49681292  0.66626297  0.34792186  1
  Te2-  Te130  1  0.49970019  0.66274631  0.65891085  1
  Te2-  Te131  1  0.83473298  0.00137754  -0.00402192  1
  Te2-  Te132  1  0.83500179  0.00836571  0.34522591  1
  Te2-  Te133  1  0.82900448  0.01066271  0.64977322  1
  Te2-  Te134  1  0.82641296  0.33986895  -0.00640836  1
  Te2-  Te135  1  0.83160861  0.33627043  0.33254798  1
  Te2-  Te136  1  0.82931398  0.33726090  0.67662353  1
  Te2-  Te137  1  0.82968212  0.65930926  0.00000470  1
  Te2-  Te138  1  0.83219601  0.66192468  0.33614761  1
  Te2-  Te139  1  0.83090994  0.66161511  0.66624682  1
  Te2-  Te140  1  0.00067729  0.16748324  0.00915749  1
  Te2-  Te141  1  -0.00182436  0.17945217  0.32751323  1
  Te2-  Te142  1  0.00059646  0.17212937  0.66875893  1
  Te2-  Te143  1  -0.00286745  0.51029362  0.00766862  1
  Te2-  Te144  1  -0.00529919  0.48880788  0.33214375  1
  Te2-  Te145  1  -0.00027698  0.50117592  0.66035407  1
  Te2-  Te146  1  -0.00194014  0.81778876  0.00278797  1
  Te2-  Te147  1  -0.01518182  0.83540751  0.32787042  1
  Te2-  Te148  1  -0.01546895  0.83002121  0.66754944  1
  Te2-  Te149  1  0.32722260  0.17543060  0.00578378  1
  Te2-  Te150  1  0.32334115  0.16985016  0.32811810  1
  Te2-  Te151  1  0.32667919  0.17150130  0.67092877  1
  Te2-  Te152  1  0.33432508  0.50163012  0.00053663  1
  Te2-  Te153  1  0.32984516  0.50436941  0.32764443  1
  Te2-  Te154  1  0.33208147  0.49844151  0.67365942  1
  Te2-  Te155  1  0.33552253  0.81995297  0.00176167  1
  Te2-  Te156  1  0.33917639  0.82461913  0.32980419  1
  Te2-  Te157  1  0.33215057  0.83200162  0.66786689  1
  Te2-  Te158  1  0.67129432  0.16171301  0.00318772  1
  Te2-  Te159  1  0.67289075  0.17055157  0.32919106  1
  Te2-  Te160  1  0.67105602  0.17029299  0.67185390  1
  Te2-  Te161  1  0.67227965  0.49782623  0.00463701  1
  Te2-  Te162  1  0.67633132  0.50173706  0.32763354  1
  Te2-  Te163  1  0.66839375  0.49842647  0.67698193  1
  Te2-  Te164  1  0.66527951  0.83823279  0.01772027  1
  Te2-  Te165  1  0.67316961  0.82373279  0.32324493  1
  Te2-  Te166  1  0.67993825  0.83556470  0.66617603  1
  Te2-  Te167  1  -0.00379271  -0.00556023  0.16452605  1
  Te2-  Te168  1  0.00024191  0.00164498  0.49133268  1
  Te2-  Te169  1  -0.00135915  -0.00287382  0.83438440  1
  Te2-  Te170  1  -0.00844650  0.33564166  0.17446729  1
  Te2-  Te171  1  0.00328597  0.33601448  0.49426819  1
  Te2-  Te172  1  -0.00204782  0.34427306  0.83366046  1
  Te2-  Te173  1  0.00104508  0.66735118  0.16598297  1
  Te2-  Te174  1  0.01339740  0.66541438  0.50061211  1
  Te2-  Te175  1  -0.00316823  0.65828612  0.83495306  1
  Te2-  Te176  1  0.32564041  -0.00339930  0.16158280  1
  Te2-  Te177  1  0.33757556  0.00118606  0.49247846  1
  Te2-  Te178  1  0.33632461  -0.00028166  0.83734020  1
  Te2-  Te179  1  0.33833039  0.34099640  0.16625902  1
  Te2-  Te180  1  0.33667755  0.33146973  0.50403486  1
  Te2-  Te181  1  0.33142840  0.34140165  0.83648020  1
  Te2-  Te182  1  0.33284667  0.66263739  0.17069416  1
  Te2-  Te183  1  0.31667254  0.66719823  0.50139133  1
  Te2-  Te184  1  0.34095181  0.66116946  0.82495822  1
  Te2-  Te185  1  0.67612905  0.00868278  0.16095698  1
  Te2-  Te186  1  0.66715645  0.00122893  0.50014658  1
  Te2-  Te187  1  0.66469563  -0.00010028  0.83687493  1
  Te2-  Te188  1  0.67078256  0.33544637  0.16361839  1
  Te2-  Te189  1  0.66049434  0.34578375  0.50460786  1
  Te2-  Te190  1  0.66568352  0.34246402  0.83874967  1
  Te2-  Te191  1  0.66781321  0.66013766  0.17732705  1
  Te2-  Te192  1  0.67294490  0.65316575  0.49144208  1
  Te2-  Te193  1  0.66413973  0.65940492  0.83270553  1
  Pb2+  Pb194  1  -0.00513505  -0.00053037  0.65858672  1
  Pb2+  Pb195  1  0.83282922  -0.00048873  0.82396701  1
  Pb2+  Pb196  1  0.15834166  0.83231855  0.65762343  1
  Pb2+  Pb197  1  0.50416810  0.50115341  0.33106851  1
  Pb2+  Pb198  1  0.66558562  0.17819153  0.50060432  1
  Pb2+  Pb199  1  0.33719338  0.49932554  0.49987897  1
  Pb2+  Pb200  1  0.00112168  0.66099979  0.33446817  1
  Pb2+  Pb201  1  0.50457274  0.83542357  0.66519893  1
  Pb2+  Pb202  1  0.49457694  0.16423651  0.33110449  1
  Pb2+  Pb203  1  0.66826201  0.82932590  0.84126723  1
  Pb2+  Pb204  1  0.65999621  0.66661334  0.00307371  1
  Pb2+  Pb205  1  0.16421865  0.83346229  0.00400940  1
  Pb2+  Pb206  1  0.50153931  0.67656005  0.17386822  1
  Pb2+  Pb207  1  0.34583519  0.17093242  0.83939836  1
  Pb2+  Pb208  1  -0.00766609  0.17277959  0.83928761  1
  Pb2+  Pb209  1  0.16619573  0.00042183  0.83086447  1
  Pb2+  Pb210  1  -0.00748271  0.34144179  0.00229609  1
  Pb2+  Pb211  1  0.66686036  0.82580708  0.49459016  1
  Pb2+  Pb212  1  0.33604439  0.00222547  0.65959799  1
  Pb2+  Pb213  1  0.66631211  -0.00692811  0.33159632  1
  Pb2+  Pb214  1  0.16725427  0.66479909  0.83471940  1
  Pb2+  Pb215  1  0.16604053  0.33400719  0.16736271  1
