# generated using pymatgen
data_In22Ag21Sn22Bi21(Te54Pb11)2
_symmetry_space_group_name_H-M   'P 1'
_cell_length_a   19.16047478
_cell_length_b   19.17688250
_cell_length_c   19.14440389
_cell_angle_alpha   89.99660025
_cell_angle_beta   89.99943363
_cell_angle_gamma   90.00470212
_symmetry_Int_Tables_number   1
_chemical_formula_structural   In22Ag21Sn22Bi21(Te54Pb11)2
_chemical_formula_sum   'In22 Ag21 Sn22 Bi21 Te108 Pb22'
_cell_volume   7034.38476292
_cell_formula_units_Z   1
loop_
 _symmetry_equiv_pos_site_id
 _symmetry_equiv_pos_as_xyz
  1  'x, y, z'
loop_
 _atom_type_symbol
 _atom_type_oxidation_number
  In3+  3.0
  Ag+  1.0
  Sn2+  2.0
  Bi3+  3.0
  Te2-  -2.0
  Pb2+  2.0
loop_
 _atom_site_type_symbol
 _atom_site_label
 _atom_site_symmetry_multiplicity
 _atom_site_fract_x
 _atom_site_fract_y
 _atom_site_fract_z
 _atom_site_occupancy
  In3+  In0  1  0.49941226  -0.01554704  0.48216633  1
  In3+  In1  1  0.00932002  0.33017422  0.01793941  1
  In3+  In2  1  0.50868487  0.51070793  0.00224900  1
  In3+  In3  1  0.64834165  0.65929995  0.66612223  1
  In3+  In4  1  0.15521258  0.33192565  0.15880909  1
  In3+  In5  1  0.82283735  0.33996749  0.17124436  1
  In3+  In6  1  0.34074164  0.36245418  -0.01103148  1
  In3+  In7  1  0.16750428  0.67863139  0.16561983  1
  In3+  In8  1  0.33237650  -0.01512519  0.33062757  1
  In3+  In9  1  0.02242904  0.84864238  0.50226384  1
  In3+  In10  1  0.31978697  -0.02879228  0.00049485  1
  In3+  In11  1  0.69304297  0.16616857  0.83035306  1
  In3+  In12  1  0.17707351  0.17472852  0.66430913  1
  In3+  In13  1  0.15187760  0.33551369  0.49891904  1
  In3+  In14  1  0.01218837  0.18199627  0.80407715  1
  In3+  In15  1  0.33384296  0.15311695  0.85288789  1
  In3+  In16  1  0.65196577  0.81619618  0.83351442  1
  In3+  In17  1  -0.00778136  0.50077147  0.50180211  1
  In3+  In18  1  0.33669257  0.81873099  0.50589861  1
  In3+  In19  1  -0.01544715  0.65893806  0.33711668  1
  In3+  In20  1  0.82685543  0.18114756  0.66461348  1
  In3+  In21  1  0.83737887  0.15821607  0.33216914  1
  Ag+  Ag22  1  0.64187592  0.53102622  0.49159854  1
  Ag+  Ag23  1  0.30165644  0.52064798  0.51464845  1
  Ag+  Ag24  1  0.51845857  0.80038542  0.33440371  1
  Ag+  Ag25  1  0.00719585  0.35778387  0.33476918  1
  Ag+  Ag26  1  0.81694870  0.51970064  0.65754168  1
  Ag+  Ag27  1  0.14645508  0.33195215  0.85794660  1
  Ag+  Ag28  1  0.52689718  0.67416808  0.14715193  1
  Ag+  Ag29  1  0.65037808  0.68740080  0.02754062  1
  Ag+  Ag30  1  0.67295859  0.36316147  0.68924208  1
  Ag+  Ag31  1  0.19171662  -0.02181843  0.16753463  1
  Ag+  Ag32  1  0.63559264  -0.03323221  0.31047271  1
  Ag+  Ag33  1  0.80322138  0.66592268  0.80714056  1
  Ag+  Ag34  1  -0.01817662  0.14924041  0.50231528  1
  Ag+  Ag35  1  0.49723880  0.67292459  0.84927858  1
  Ag+  Ag36  1  0.16927967  0.81067909  0.67505075  1
  Ag+  Ag37  1  0.36006571  0.66444129  0.02393282  1
  Ag+  Ag38  1  0.82052684  0.68649937  0.17222868  1
  Ag+  Ag39  1  0.66641985  -0.02863008  0.02146287  1
  Ag+  Ag40  1  0.35588458  0.80078152  0.85106745  1
  Ag+  Ag41  1  0.52367989  0.63863130  0.49822726  1
  Ag+  Ag42  1  0.62896806  0.68575065  0.30846592  1
  Sn2+  Sn43  1  0.33978260  0.33190323  0.66401097  1
  Sn2+  Sn44  1  0.34034303  0.82794673  0.16859392  1
  Sn2+  Sn45  1  0.34038723  0.66625661  0.32765855  1
  Sn2+  Sn46  1  0.67035926  0.49751512  0.83092552  1
  Sn2+  Sn47  1  0.49871246  0.15890396  -0.00204264  1
  Sn2+  Sn48  1  0.82573520  0.66171598  0.49444262  1
  Sn2+  Sn49  1  0.83531713  0.82119965  -0.00445350  1
  Sn2+  Sn50  1  0.82790025  0.49701569  0.33958893  1
  Sn2+  Sn51  1  0.82679999  0.50885704  -0.00694363  1
  Sn2+  Sn52  1  0.49470155  0.83288699  0.66030368  1
  Sn2+  Sn53  1  0.50038436  0.16389784  0.66664756  1
  Sn2+  Sn54  1  0.33432324  0.17224805  0.16649122  1
  Sn2+  Sn55  1  0.17085249  0.83339197  0.33538232  1
  Sn2+  Sn56  1  0.50782804  0.16704971  0.33511230  1
  Sn2+  Sn57  1  0.33204215  -0.00199773  0.66345245  1
  Sn2+  Sn58  1  -0.00454023  0.33626036  0.65834975  1
  Sn2+  Sn59  1  0.67327576  0.33989818  0.34263739  1
  Sn2+  Sn60  1  -0.01136725  0.00722290  0.00605361  1
  Sn2+  Sn61  1  0.33622491  0.50227132  0.17399043  1
  Sn2+  Sn62  1  0.16704408  0.49666786  0.67151889  1
  Sn2+  Sn63  1  0.17225198  0.50393624  0.33177446  1
  Sn2+  Sn64  1  0.66768131  0.50556108  0.17598393  1
  Bi3+  Bi65  1  0.83132708  0.16805134  -0.00012249  1
  Bi3+  Bi66  1  0.50215953  0.49724749  0.33224385  1
  Bi3+  Bi67  1  -0.00036844  0.16563519  0.17367119  1
  Bi3+  Bi68  1  0.50508124  0.33275199  0.50133565  1
  Bi3+  Bi69  1  0.49929327  0.33917943  0.83157455  1
  Bi3+  Bi70  1  0.33659745  0.17314369  0.49715011  1
  Bi3+  Bi71  1  0.00202077  0.66447400  0.66380021  1
  Bi3+  Bi72  1  0.00019883  0.82932944  0.83321379  1
  Bi3+  Bi73  1  0.66381661  0.83718892  0.50705262  1
  Bi3+  Bi74  1  0.16438797  0.83229879  -0.00821009  1
  Bi3+  Bi75  1  -0.00240823  0.50097876  0.83005138  1
  Bi3+  Bi76  1  0.49641191  -0.00286680  0.16324591  1
  Bi3+  Bi77  1  0.33421829  0.66957630  0.66186845  1
  Bi3+  Bi78  1  0.32895100  0.33387452  0.33189381  1
  Bi3+  Bi79  1  0.66464105  0.00200081  0.66457582  1
  Bi3+  Bi80  1  0.83308763  0.33654997  0.49832267  1
  Bi3+  Bi81  1  0.33531835  0.49960350  0.82431962  1
  Bi3+  Bi82  1  -0.00247531  0.66270067  0.00263514  1
  Bi3+  Bi83  1  0.67090224  0.16868834  0.49792949  1
  Bi3+  Bi84  1  0.66883430  0.33719552  -0.00106551  1
  Bi3+  Bi85  1  0.00504038  -0.00276173  0.33222512  1
  Te2-  Te86  1  0.16365621  0.17604191  0.16637560  1
  Te2-  Te87  1  0.17224788  0.17711702  0.50496420  1
  Te2-  Te88  1  0.16634209  0.18265974  0.82754124  1
  Te2-  Te89  1  0.16799105  0.48686221  0.16790975  1
  Te2-  Te90  1  0.15939346  0.49232337  0.49966330  1
  Te2-  Te91  1  0.16721788  0.48692032  0.83290046  1
  Te2-  Te92  1  0.17232531  0.83303872  0.16161743  1
  Te2-  Te93  1  0.17583979  0.83874103  0.50597383  1
  Te2-  Te94  1  0.16336972  0.83507234  0.82620023  1
  Te2-  Te95  1  0.49802380  0.16588462  0.16556640  1
  Te2-  Te96  1  0.50513081  0.17147949  0.49989845  1
  Te2-  Te97  1  0.48510214  0.17344708  0.83099970  1
  Te2-  Te98  1  0.49967027  0.51646803  0.16421579  1
  Te2-  Te99  1  0.50051918  0.49102278  0.49785765  1
  Te2-  Te100  1  0.50058695  0.50302989  0.83939285  1
  Te2-  Te101  1  0.49676532  0.82406718  0.17820921  1
  Te2-  Te102  1  0.49620926  0.83478557  0.48826536  1
  Te2-  Te103  1  0.49801893  0.82537897  0.83034156  1
  Te2-  Te104  1  0.83621648  0.17389666  0.16506735  1
  Te2-  Te105  1  0.83557578  0.17123396  0.50343662  1
  Te2-  Te106  1  0.84890623  0.16718648  0.83477742  1
  Te2-  Te107  1  0.83243434  0.49009271  0.16738554  1
  Te2-  Te108  1  0.83702928  0.49677291  0.50854751  1
  Te2-  Te109  1  0.83429600  0.51332212  0.82597383  1
  Te2-  Te110  1  0.83266219  0.83375279  0.16501098  1
  Te2-  Te111  1  0.82733764  0.83028610  0.50215259  1
  Te2-  Te112  1  0.83813478  0.81465819  0.83578534  1
  Te2-  Te113  1  0.16565720  -0.00489270  0.01262999  1
  Te2-  Te114  1  0.17030725  -0.00302679  0.32151218  1
  Te2-  Te115  1  0.16879048  0.01794677  0.66667538  1
  Te2-  Te116  1  0.17371927  0.33217914  0.00285785  1
  Te2-  Te117  1  0.16374341  0.33696541  0.34345087  1
  Te2-  Te118  1  0.16668172  0.33001405  0.65437257  1
  Te2-  Te119  1  0.16023081  0.66935990  0.00391310  1
  Te2-  Te120  1  0.17146398  0.66922420  0.32380067  1
  Te2-  Te121  1  0.16703525  0.66295783  0.66263675  1
  Te2-  Te122  1  0.51675361  -0.00093839  0.00259091  1
  Te2-  Te123  1  0.49559010  0.00411351  0.32808497  1
  Te2-  Te124  1  0.49821301  -0.00103168  0.66452261  1
  Te2-  Te125  1  0.50104039  0.33305637  -0.00491597  1
  Te2-  Te126  1  0.50139680  0.33290711  0.33047971  1
  Te2-  Te127  1  0.51353865  0.33292375  0.66910589  1
  Te2-  Te128  1  0.50734418  0.66290614  -0.00234218  1
  Te2-  Te129  1  0.49430575  0.65572185  0.35040550  1
  Te2-  Te130  1  0.49514139  0.67239470  0.64626452  1
  Te2-  Te131  1  0.81840980  0.00410515  -0.00050792  1
  Te2-  Te132  1  0.83931162  0.00184174  0.33505341  1
  Te2-  Te133  1  0.83189971  0.00102162  0.66853706  1
  Te2-  Te134  1  0.83122454  0.33362388  0.00480817  1
  Te2-  Te135  1  0.83797500  0.33400583  0.33185651  1
  Te2-  Te136  1  0.82413638  0.33204428  0.66703317  1
  Te2-  Te137  1  0.84069080  0.66324834  0.01892694  1
  Te2-  Te138  1  0.83607938  0.66102167  0.32351444  1
  Te2-  Te139  1  0.84337005  0.66375761  0.66388319  1
  Te2-  Te140  1  -0.00385714  0.16967167  0.00662768  1
  Te2-  Te141  1  -0.00596283  0.15898641  0.34047575  1
  Te2-  Te142  1  -0.00381466  0.17127918  0.65372043  1
  Te2-  Te143  1  -0.00305184  0.49559736  -0.00582757  1
  Te2-  Te144  1  0.00196863  0.50587443  0.33741050  1
  Te2-  Te145  1  0.00296766  0.50069095  0.66761514  1
  Te2-  Te146  1  0.00185076  0.83308025  -0.00085449  1
  Te2-  Te147  1  0.00452036  0.83127859  0.34255166  1
  Te2-  Te148  1  0.01274394  0.82921763  0.66413895  1
  Te2-  Te149  1  0.33500873  0.16635128  0.00180663  1
  Te2-  Te150  1  0.33419598  0.17224359  0.33343679  1
  Te2-  Te151  1  0.33182098  0.16745105  0.66116466  1
  Te2-  Te152  1  0.33876238  0.51378254  -0.00293416  1
  Te2-  Te153  1  0.33667312  0.49357025  0.33831985  1
  Te2-  Te154  1  0.33219876  0.49937715  0.65926721  1
  Te2-  Te155  1  0.32854684  0.81574083  -0.00511409  1
  Te2-  Te156  1  0.33131642  0.83559913  0.33878444  1
  Te2-  Te157  1  0.32408665  0.83670052  0.65980286  1
  Te2-  Te158  1  0.66915001  0.17497795  -0.00951172  1
  Te2-  Te159  1  0.67864307  0.16908635  0.33669021  1
  Te2-  Te160  1  0.67018907  0.16404117  0.66595066  1
  Te2-  Te161  1  0.66592129  0.49789919  -0.00203292  1
  Te2-  Te162  1  0.66465847  0.49945662  0.34608773  1
  Te2-  Te163  1  0.67077850  0.50696744  0.66358255  1
  Te2-  Te164  1  0.66974153  0.82740481  -0.01346154  1
  Te2-  Te165  1  0.66367573  0.82720429  0.34307623  1
  Te2-  Te166  1  0.66351270  0.83890867  0.67343766  1
  Te2-  Te167  1  0.00152985  0.00299346  0.16827645  1
  Te2-  Te168  1  0.00377441  0.00275336  0.49773233  1
  Te2-  Te169  1  -0.00119117  -0.00585171  0.84060314  1
  Te2-  Te170  1  0.00325989  0.32847566  0.18339088  1
  Te2-  Te171  1  -0.00353694  0.34324463  0.48758253  1
  Te2-  Te172  1  0.00171028  0.33441221  0.82604269  1
  Te2-  Te173  1  0.00961058  0.66425889  0.16995404  1
  Te2-  Te174  1  -0.00347539  0.66061653  0.49754932  1
  Te2-  Te175  1  0.00515160  0.66381244  0.83524593  1
  Te2-  Te176  1  0.33732967  0.00019996  0.16550098  1
  Te2-  Te177  1  0.34391726  0.01002864  0.49197879  1
  Te2-  Te178  1  0.33229305  0.00294574  0.83847941  1
  Te2-  Te179  1  0.33184976  0.33673233  0.16895917  1
  Te2-  Te180  1  0.34157385  0.33304687  0.49765809  1
  Te2-  Te181  1  0.33767295  0.33928614  0.83147008  1
  Te2-  Te182  1  0.32430654  0.66315915  0.16601612  1
  Te2-  Te183  1  0.32835566  0.66485604  0.49950912  1
  Te2-  Te184  1  0.34389036  0.65938464  0.82210626  1
  Te2-  Te185  1  0.66016775  0.00037997  0.16979811  1
  Te2-  Te186  1  0.65787095  0.00308900  0.49839092  1
  Te2-  Te187  1  0.66412453  0.01467656  0.82572166  1
  Te2-  Te188  1  0.66631472  0.33699323  0.16554459  1
  Te2-  Te189  1  0.67053906  0.33002044  0.50241606  1
  Te2-  Te190  1  0.66471491  0.32853524  0.83311553  1
  Te2-  Te191  1  0.67321776  0.66134656  0.17013507  1
  Te2-  Te192  1  0.66860937  0.67483789  0.51220599  1
  Te2-  Te193  1  0.65626279  0.66472588  0.82085641  1
  Pb2+  Pb194  1  0.66530344  0.16879319  0.16457591  1
  Pb2+  Pb195  1  -0.00206334  0.49839450  0.16725841  1
  Pb2+  Pb196  1  0.00155541  -0.00024036  0.67264138  1
  Pb2+  Pb197  1  0.17447287  0.66526098  0.83342934  1
  Pb2+  Pb198  1  0.49987941  -0.00069039  0.83263280  1
  Pb2+  Pb199  1  0.66418849  0.83291603  0.16855984  1
  Pb2+  Pb200  1  0.16299350  0.66592622  0.49048951  1
  Pb2+  Pb201  1  0.16772120  0.50167023  0.00094336  1
  Pb2+  Pb202  1  0.83485613  0.82816837  0.66801249  1
  Pb2+  Pb203  1  0.16290783  0.16906308  0.33375019  1
  Pb2+  Pb204  1  0.16619053  0.16364138  -0.00153016  1
  Pb2+  Pb205  1  0.17602156  0.00642221  0.49569687  1
  Pb2+  Pb206  1  0.49768694  0.83345420  0.00584291  1
  Pb2+  Pb207  1  0.83375569  0.00194642  0.16671122  1
  Pb2+  Pb208  1  0.83494141  0.34368065  0.83559879  1
  Pb2+  Pb209  1  0.83189693  0.82857309  0.33532376  1
  Pb2+  Pb210  1  0.50185098  0.50101721  0.66872317  1
  Pb2+  Pb211  1  0.82722096  -0.00110789  0.50043394  1
  Pb2+  Pb212  1  0.00084385  0.82999017  0.17122684  1
  Pb2+  Pb213  1  0.16583232  0.00390059  0.83523049  1
  Pb2+  Pb214  1  0.49774374  0.34546275  0.16166615  1
  Pb2+  Pb215  1  0.82840364  -0.01136389  0.83577543  1
