# generated using pymatgen
data_In22Ag21Sn22Bi21(Te54Pb11)2
_symmetry_space_group_name_H-M   'P 1'
_cell_length_a   19.16313473
_cell_length_b   19.18885773
_cell_length_c   19.17406265
_cell_angle_alpha   89.99491288
_cell_angle_beta   90.00437835
_cell_angle_gamma   90.00790904
_symmetry_Int_Tables_number   1
_chemical_formula_structural   In22Ag21Sn22Bi21(Te54Pb11)2
_chemical_formula_sum   'In22 Ag21 Sn22 Bi21 Te108 Pb22'
_cell_volume   7050.66062162
_cell_formula_units_Z   1
loop_
 _symmetry_equiv_pos_site_id
 _symmetry_equiv_pos_as_xyz
  1  'x, y, z'
loop_
 _atom_type_symbol
 _atom_type_oxidation_number
  In3+  3.0
  Ag+  1.0
  Sn2+  2.0
  Bi3+  3.0
  Te2-  -2.0
  Pb2+  2.0
loop_
 _atom_site_type_symbol
 _atom_site_label
 _atom_site_symmetry_multiplicity
 _atom_site_fract_x
 _atom_site_fract_y
 _atom_site_fract_z
 _atom_site_occupancy
  In3+  In0  1  0.65045394  0.32972203  0.33264734  1
  In3+  In1  1  0.83708232  0.81910169  0.66227135  1
  In3+  In2  1  0.84807048  0.16819319  0.33190325  1
  In3+  In3  1  0.33305197  0.33502555  0.32363897  1
  In3+  In4  1  0.66814388  0.01273429  0.33236017  1
  In3+  In5  1  0.32924844  0.84746331  0.18679219  1
  In3+  In6  1  0.33035235  0.81806515  0.84616851  1
  In3+  In7  1  0.50783158  0.83154722  0.34204116  1
  In3+  In8  1  0.86129284  0.33186344  0.82936696  1
  In3+  In9  1  0.16403630  -0.01223345  0.49903302  1
  In3+  In10  1  0.16622769  0.65011344  0.83193839  1
  In3+  In11  1  0.00744056  0.16273730  0.51248960  1
  In3+  In12  1  0.85420905  0.67915072  0.83411960  1
  In3+  In13  1  0.32049036  0.50582486  0.18362221  1
  In3+  In14  1  0.86078844  0.16946061  0.66053548  1
  In3+  In15  1  0.30536079  0.83755144  0.50282798  1
  In3+  In16  1  0.49412913  0.32291025  0.49461724  1
  In3+  In17  1  0.31829499  0.00066463  0.31884670  1
  In3+  In18  1  0.48946538  0.52398539  -0.00250693  1
  In3+  In19  1  0.02387814  0.15788961  0.17304597  1
  In3+  In20  1  0.00366992  0.65308845  0.64358889  1
  In3+  In21  1  0.85254285  -0.01338221  0.83261846  1
  Ag+  Ag22  1  0.16908359  0.69592973  0.19752351  1
  Ag+  Ag23  1  0.49584116  0.13769792  0.31271633  1
  Ag+  Ag24  1  -0.02429456  0.16953374  0.85863021  1
  Ag+  Ag25  1  -0.00313187  0.80980081  0.46912236  1
  Ag+  Ag26  1  0.17039278  0.35252243  0.18795624  1
  Ag+  Ag27  1  0.16029317  0.14670614  0.68036846  1
  Ag+  Ag28  1  0.02754477  0.47474635  0.47320215  1
  Ag+  Ag29  1  -0.01529616  -0.02326020  0.64671662  1
  Ag+  Ag30  1  0.48620674  0.82698294  0.02908752  1
  Ag+  Ag31  1  0.15221678  -0.01410194  0.14495287  1
  Ag+  Ag32  1  0.31141145  0.51990031  0.85533660  1
  Ag+  Ag33  1  0.14653936  0.47987538  0.68891486  1
  Ag+  Ag34  1  -0.03072153  0.80610753  0.19288303  1
  Ag+  Ag35  1  0.03133173  0.71379156  0.29882902  1
  Ag+  Ag36  1  0.64725369  0.85699783  0.47012582  1
  Ag+  Ag37  1  0.14114121  0.81720584  0.31620167  1
  Ag+  Ag38  1  0.68351290  -0.03257315  -0.02841448  1
  Ag+  Ag39  1  -0.02439203  0.00717470  0.35682857  1
  Ag+  Ag40  1  0.30783865  0.36503411  0.68072797  1
  Ag+  Ag41  1  0.18279709  0.30965697  0.79936721  1
  Ag+  Ag42  1  0.69539155  0.69379873  0.32221691  1
  Sn2+  Sn43  1  0.17424827  0.15901971  0.33680125  1
  Sn2+  Sn44  1  0.83738065  0.50112695  0.33886790  1
  Sn2+  Sn45  1  0.48848125  0.49877121  0.66807080  1
  Sn2+  Sn46  1  0.65443409  0.83348482  0.83478396  1
  Sn2+  Sn47  1  0.34209841  -0.00444244  -0.00209740  1
  Sn2+  Sn48  1  0.84715093  0.00030251  0.16212764  1
  Sn2+  Sn49  1  0.50590437  0.66628227  0.83294871  1
  Sn2+  Sn50  1  0.66233267  0.33032380  0.67038007  1
  Sn2+  Sn51  1  0.32865585  0.17317402  0.17521477  1
  Sn2+  Sn52  1  0.01303025  0.84517185  0.83495496  1
  Sn2+  Sn53  1  0.16891444  0.83051807  0.01509452  1
  Sn2+  Sn54  1  0.16603374  0.49232523  -0.00040229  1
  Sn2+  Sn55  1  0.66105494  0.83681357  0.16478097  1
  Sn2+  Sn56  1  0.66159641  0.33290993  0.00272235  1
  Sn2+  Sn57  1  0.00819292  0.33269864  0.66559798  1
  Sn2+  Sn58  1  0.49700411  -0.00007265  0.49351280  1
  Sn2+  Sn59  1  0.16808074  0.00517912  0.82906571  1
  Sn2+  Sn60  1  0.32942745  0.50125435  0.51021051  1
  Sn2+  Sn61  1  0.67653212  0.16735678  0.83323910  1
  Sn2+  Sn62  1  0.50904418  -0.00348478  0.16354068  1
  Sn2+  Sn63  1  0.84614300  0.32710842  0.16696424  1
  Sn2+  Sn64  1  0.49185273  0.66895818  0.17108584  1
  Bi3+  Bi65  1  0.00131153  0.33362311  0.00233191  1
  Bi3+  Bi66  1  0.50397587  0.66511533  0.49961851  1
  Bi3+  Bi67  1  0.66362636  0.49990674  0.83069400  1
  Bi3+  Bi68  1  0.83377400  0.66764099  0.49563178  1
  Bi3+  Bi69  1  0.33650241  0.16668378  0.82985247  1
  Bi3+  Bi70  1  0.66509035  0.50256982  0.49614287  1
  Bi3+  Bi71  1  0.66300193  0.49947118  0.16592310  1
  Bi3+  Bi72  1  0.49302757  0.33422836  0.82808266  1
  Bi3+  Bi73  1  0.33015178  0.00234633  0.66531935  1
  Bi3+  Bi74  1  0.66238660  0.16586486  0.16816324  1
  Bi3+  Bi75  1  0.00225862  0.67285519  -0.00039756  1
  Bi3+  Bi76  1  0.49863841  0.15954403  0.00189158  1
  Bi3+  Bi77  1  0.33187004  0.67100053  0.66393791  1
  Bi3+  Bi78  1  0.49423759  0.16951484  0.66816957  1
  Bi3+  Bi79  1  0.16460622  0.66852629  0.50641709  1
  Bi3+  Bi80  1  0.17183220  0.33434418  0.49760090  1
  Bi3+  Bi81  1  0.00272662  0.00028830  -0.00304099  1
  Bi3+  Bi82  1  0.82933448  0.49598864  0.00212383  1
  Bi3+  Bi83  1  0.32974814  0.16661173  0.49976935  1
  Bi3+  Bi84  1  0.66565784  0.66658262  0.00784866  1
  Bi3+  Bi85  1  0.49965504  -0.00116217  0.83403547  1
  Te2-  Te86  1  0.17378423  0.15715256  0.16857226  1
  Te2-  Te87  1  0.16594117  0.17339578  0.49891878  1
  Te2-  Te88  1  0.17550692  0.16554866  0.82664704  1
  Te2-  Te89  1  0.17044277  0.49719880  0.16311823  1
  Te2-  Te90  1  0.16821694  0.50424963  0.50252860  1
  Te2-  Te91  1  0.16860616  0.49846652  0.83333790  1
  Te2-  Te92  1  0.17790928  0.84060258  0.17377698  1
  Te2-  Te93  1  0.14761111  0.83235465  0.49515892  1
  Te2-  Te94  1  0.17744247  0.83934426  0.83998744  1
  Te2-  Te95  1  0.49700261  0.16506959  0.16575554  1
  Te2-  Te96  1  0.49568322  0.16895070  0.50416666  1
  Te2-  Te97  1  0.50200996  0.16643198  0.83389123  1
  Te2-  Te98  1  0.50114598  0.50199916  0.15782004  1
  Te2-  Te99  1  0.50074567  0.50352510  0.50075138  1
  Te2-  Te100  1  0.50220980  0.49689687  0.83767406  1
  Te2-  Te101  1  0.48901168  0.83219293  0.17442986  1
  Te2-  Te102  1  0.50600975  0.82828304  0.49738719  1
  Te2-  Te103  1  0.49268525  0.83608221  0.83098203  1
  Te2-  Te104  1  0.82530574  0.16698205  0.17415471  1
  Te2-  Te105  1  0.84059732  0.16669971  0.50334976  1
  Te2-  Te106  1  0.83080800  0.17763432  0.82811708  1
  Te2-  Te107  1  0.82745638  0.49505372  0.16530866  1
  Te2-  Te108  1  0.82774208  0.50330742  0.50214171  1
  Te2-  Te109  1  0.82651575  0.48866532  0.83787998  1
  Te2-  Te110  1  0.82890419  0.83950431  0.16573631  1
  Te2-  Te111  1  0.84846357  0.82960477  0.50892166  1
  Te2-  Te112  1  0.83051302  0.83738531  0.82918401  1
  Te2-  Te113  1  0.16746683  -0.00249246  -0.00122478  1
  Te2-  Te114  1  0.17280586  0.00254866  0.34575037  1
  Te2-  Te115  1  0.16798268  0.00067756  0.65837873  1
  Te2-  Te116  1  0.16117832  0.33513187  -0.00061685  1
  Te2-  Te117  1  0.17575372  0.32849081  0.33428351  1
  Te2-  Te118  1  0.16580550  0.33786852  0.65590438  1
  Te2-  Te119  1  0.16243044  0.66436649  -0.01213041  1
  Te2-  Te120  1  0.16773957  0.67039669  0.34307933  1
  Te2-  Te121  1  0.16635688  0.66834803  0.67034957  1
  Te2-  Te122  1  0.50693158  -0.00174338  -0.00197724  1
  Te2-  Te123  1  0.50755484  -0.00679721  0.33623737  1
  Te2-  Te124  1  0.49878808  0.00410040  0.66469962  1
  Te2-  Te125  1  0.49696771  0.32525584  -0.00520286  1
  Te2-  Te126  1  0.49022121  0.33565591  0.33500389  1
  Te2-  Te127  1  0.49694368  0.33212845  0.66465473  1
  Te2-  Te128  1  0.50235945  0.67937825  0.00252266  1
  Te2-  Te129  1  0.50075582  0.67323305  0.33517987  1
  Te2-  Te130  1  0.49885907  0.66747576  0.66470160  1
  Te2-  Te131  1  0.82707822  -0.00021953  -0.00964453  1
  Te2-  Te132  1  0.82726672  0.01235724  0.33248398  1
  Te2-  Te133  1  0.84590082  0.01836899  0.67783651  1
  Te2-  Te134  1  0.83468327  0.33412636  -0.00128915  1
  Te2-  Te135  1  0.83398030  0.32244109  0.33148761  1
  Te2-  Te136  1  0.83340612  0.32492868  0.67079681  1
  Te2-  Te137  1  0.83199556  0.66121844  -0.00288876  1
  Te2-  Te138  1  0.83862948  0.66666355  0.33384324  1
  Te2-  Te139  1  0.84020190  0.66507112  0.66946793  1
  Te2-  Te140  1  -0.00281447  0.16664257  0.00522801  1
  Te2-  Te141  1  0.00035909  0.15474911  0.32853862  1
  Te2-  Te142  1  0.01311797  0.17282740  0.66389766  1
  Te2-  Te143  1  -0.00707435  0.50054091  0.00102002  1
  Te2-  Te144  1  -0.00567496  0.49794934  0.33349328  1
  Te2-  Te145  1  0.00234258  0.50358787  0.66924954  1
  Te2-  Te146  1  0.00177850  0.83603858  -0.00198085  1
  Te2-  Te147  1  -0.00173810  0.85915561  0.32791158  1
  Te2-  Te148  1  -0.00925688  0.83598598  0.68142416  1
  Te2-  Te149  1  0.33607082  0.16352512  -0.00047340  1
  Te2-  Te150  1  0.34642172  0.16022409  0.33864254  1
  Te2-  Te151  1  0.33032290  0.16500761  0.66332079  1
  Te2-  Te152  1  0.33839058  0.50061076  -0.00240314  1
  Te2-  Te153  1  0.33445554  0.49723105  0.33665631  1
  Te2-  Te154  1  0.33199556  0.50933747  0.66736409  1
  Te2-  Te155  1  0.34064768  0.83555927  -0.00135847  1
  Te2-  Te156  1  0.33761231  0.84568072  0.33888379  1
  Te2-  Te157  1  0.33092944  0.83597435  0.66420299  1
  Te2-  Te158  1  0.66166182  0.16920001  0.00492211  1
  Te2-  Te159  1  0.64456392  0.16971146  0.33168558  1
  Te2-  Te160  1  0.65855250  0.16963698  0.66549594  1
  Te2-  Te161  1  0.66394647  0.50246569  0.00079434  1
  Te2-  Te162  1  0.67060687  0.48848678  0.33047179  1
  Te2-  Te163  1  0.66387908  0.49898168  0.66632438  1
  Te2-  Te164  1  0.65940000  0.82693493  0.00306379  1
  Te2-  Te165  1  0.66257835  0.83584353  0.32809855  1
  Te2-  Te166  1  0.68090183  0.83264913  0.67041374  1
  Te2-  Te167  1  0.00642990  0.00615670  0.15671191  1
  Te2-  Te168  1  0.00979866  0.01052287  0.50594787  1
  Te2-  Te169  1  0.00056478  0.01857020  0.83763826  1
  Te2-  Te170  1  0.01296945  0.32263913  0.16477165  1
  Te2-  Te171  1  0.00202090  0.33227547  0.50092164  1
  Te2-  Te172  1  0.01150341  0.32028730  0.83758947  1
  Te2-  Te173  1  0.01272293  0.66913316  0.15971888  1
  Te2-  Te174  1  -0.00083712  0.66542387  0.49529349  1
  Te2-  Te175  1  0.00864238  0.67109988  0.83729028  1
  Te2-  Te176  1  0.33478609  -0.00085587  0.16820948  1
  Te2-  Te177  1  0.33063942  0.00060951  0.50351235  1
  Te2-  Te178  1  0.33718107  0.00296015  0.82907970  1
  Te2-  Te179  1  0.32233075  0.33938876  0.16933972  1
  Te2-  Te180  1  0.33721719  0.33157536  0.49969353  1
  Te2-  Te181  1  0.33007697  0.33028674  0.82251212  1
  Te2-  Te182  1  0.32091799  0.65817822  0.16787760  1
  Te2-  Te183  1  0.33577374  0.67407275  0.50298906  1
  Te2-  Te184  1  0.33647555  0.66389246  0.82843828  1
  Te2-  Te185  1  0.66978649  0.00428933  0.17426115  1
  Te2-  Te186  1  0.66997897  -0.00149446  0.49568751  1
  Te2-  Te187  1  0.66081703  0.00010415  0.83180734  1
  Te2-  Te188  1  0.66660195  0.33360424  0.17196525  1
  Te2-  Te189  1  0.65894846  0.33835653  0.49556529  1
  Te2-  Te190  1  0.65739934  0.33708787  0.83567223  1
  Te2-  Te191  1  0.66481874  0.66390051  0.17371651  1
  Te2-  Te192  1  0.66911969  0.66390049  0.48899734  1
  Te2-  Te193  1  0.66453565  0.66402191  0.83762467  1
  Pb2+  Pb194  1  0.83573111  0.49391601  0.66903274  1
  Pb2+  Pb195  1  0.16577362  0.16628126  -0.00540203  1
  Pb2+  Pb196  1  0.82953756  0.16469125  0.00250658  1
  Pb2+  Pb197  1  0.67658815  0.00043618  0.66649655  1
  Pb2+  Pb198  1  0.00306922  0.32741875  0.33424852  1
  Pb2+  Pb199  1  0.32802243  0.66837724  0.00322343  1
  Pb2+  Pb200  1  0.49558195  0.33334268  0.16314099  1
  Pb2+  Pb201  1  0.83266628  0.83225456  -0.00119824  1
  Pb2+  Pb202  1  0.32670634  0.33303342  -0.00997462  1
  Pb2+  Pb203  1  0.15924732  0.83544269  0.67040978  1
  Pb2+  Pb204  1  0.00135585  0.49372367  0.83441902  1
  Pb2+  Pb205  1  0.66882774  0.16681058  0.49844309  1
  Pb2+  Pb206  1  0.16236385  0.50166291  0.33486548  1
  Pb2+  Pb207  1  0.50473782  0.50476641  0.33110389  1
  Pb2+  Pb208  1  0.84082306  -0.00266998  0.50401533  1
  Pb2+  Pb209  1  0.00046974  0.49605639  0.16904585  1
  Pb2+  Pb210  1  0.66975528  0.66771026  0.65811006  1
  Pb2+  Pb211  1  0.84028188  0.66644656  0.16933410  1
  Pb2+  Pb212  1  0.83692761  0.83569691  0.33884848  1
  Pb2+  Pb213  1  0.83123487  0.33537098  0.49962239  1
  Pb2+  Pb214  1  0.33429461  0.67569275  0.33320061  1
  Pb2+  Pb215  1  0.50446292  0.83612331  0.66456182  1
