# generated using pymatgen
data_In22Ag21Sn22Bi21(Te54Pb11)2
_symmetry_space_group_name_H-M   'P 1'
_cell_length_a   19.15162344
_cell_length_b   19.14217017
_cell_length_c   19.12952098
_cell_angle_alpha   89.99462140
_cell_angle_beta   90.01095285
_cell_angle_gamma   90.01154980
_symmetry_Int_Tables_number   1
_chemical_formula_structural   In22Ag21Sn22Bi21(Te54Pb11)2
_chemical_formula_sum   'In22 Ag21 Sn22 Bi21 Te108 Pb22'
_cell_volume   7012.95162467
_cell_formula_units_Z   1
loop_
 _symmetry_equiv_pos_site_id
 _symmetry_equiv_pos_as_xyz
  1  'x, y, z'
loop_
 _atom_type_symbol
 _atom_type_oxidation_number
  In3+  3.0
  Ag+  1.0
  Sn2+  2.0
  Bi3+  3.0
  Te2-  -2.0
  Pb2+  2.0
loop_
 _atom_site_type_symbol
 _atom_site_label
 _atom_site_symmetry_multiplicity
 _atom_site_fract_x
 _atom_site_fract_y
 _atom_site_fract_z
 _atom_site_occupancy
  In3+  In0  1  0.83697372  0.65533888  0.50915037  1
  In3+  In1  1  0.50991149  0.81950843  0.66790197  1
  In3+  In2  1  0.32421117  0.33381239  0.34504299  1
  In3+  In3  1  -0.00134120  0.17083696  0.14278844  1
  In3+  In4  1  0.67980535  0.01177579  0.00214100  1
  In3+  In5  1  0.82841143  0.81648730  0.32823866  1
  In3+  In6  1  0.49654838  0.50372572  -0.02093490  1
  In3+  In7  1  0.16186341  0.15921496  0.33809047  1
  In3+  In8  1  0.14330648  0.83677047  0.33017837  1
  In3+  In9  1  0.66784172  0.65890496  0.00020867  1
  In3+  In10  1  0.49992018  -0.01607146  0.84359486  1
  In3+  In11  1  0.14380666  0.66838037  0.83515490  1
  In3+  In12  1  0.66337837  0.50068602  0.82872807  1
  In3+  In13  1  0.84208266  -0.00050005  0.49247678  1
  In3+  In14  1  0.01111169  0.64773387  0.33340129  1
  In3+  In15  1  0.17058576  0.49181393  0.33520867  1
  In3+  In16  1  0.81928945  0.16525417  0.67781592  1
  In3+  In17  1  0.32343008  0.66455020  -0.01510428  1
  In3+  In18  1  0.15665523  0.66392120  0.50513195  1
  In3+  In19  1  0.35796844  0.66841258  0.67412202  1
  In3+  In20  1  0.83473269  0.33870959  0.85466675  1
  In3+  In21  1  0.66408201  0.15801570  0.48464872  1
  Ag+  Ag22  1  0.66750756  0.66892582  0.64129679  1
  Ag+  Ag23  1  -0.00421482  -0.02572534  -0.01704725  1
  Ag+  Ag24  1  0.63801225  0.35533157  0.32685391  1
  Ag+  Ag25  1  0.85659629  0.50837979  -0.02669813  1
  Ag+  Ag26  1  0.65739031  0.84966455  0.15302924  1
  Ag+  Ag27  1  0.52129352  -0.02195818  0.50183186  1
  Ag+  Ag28  1  0.30649564  -0.02985316  0.36423379  1
  Ag+  Ag29  1  0.01291482  0.48099144  0.49981458  1
  Ag+  Ag30  1  0.02647352  0.31442013  0.31271353  1
  Ag+  Ag31  1  0.50698477  0.68380654  0.85875437  1
  Ag+  Ag32  1  0.47229410  0.52585076  0.34174088  1
  Ag+  Ag33  1  0.52753250  0.13494566  -0.02512135  1
  Ag+  Ag34  1  0.14099713  0.31088322  0.49904889  1
  Ag+  Ag35  1  0.31492235  0.52755635  0.83598667  1
  Ag+  Ag36  1  0.14379376  0.02905431  0.85458916  1
  Ag+  Ag37  1  0.68779169  0.13751513  0.83480306  1
  Ag+  Ag38  1  0.02519515  0.34339969  -0.02685256  1
  Ag+  Ag39  1  0.47245295  0.68088037  0.49641105  1
  Ag+  Ag40  1  0.02125060  0.49893701  0.86485313  1
  Ag+  Ag41  1  -0.01592972  0.86292055  0.86763256  1
  Ag+  Ag42  1  0.13855350  0.50090573  -0.03326854  1
  Sn2+  Sn43  1  0.82763996  0.82986826  0.00002848  1
  Sn2+  Sn44  1  -0.00082899  0.17632128  0.83352401  1
  Sn2+  Sn45  1  0.67771985  0.82329648  0.83899559  1
  Sn2+  Sn46  1  0.00107038  0.84197112  0.16492093  1
  Sn2+  Sn47  1  0.34577933  0.83237379  0.16898830  1
  Sn2+  Sn48  1  0.82970103  0.66353414  0.16681155  1
  Sn2+  Sn49  1  0.50268728  0.66142259  0.17604684  1
  Sn2+  Sn50  1  -0.00679033  0.17416227  0.50520908  1
  Sn2+  Sn51  1  0.83732933  0.17350299  0.00367512  1
  Sn2+  Sn52  1  0.33346352  0.50546107  0.51055573  1
  Sn2+  Sn53  1  0.50757766  0.82359308  -0.00146097  1
  Sn2+  Sn54  1  0.00009775  -0.00556659  0.67714564  1
  Sn2+  Sn55  1  0.66783554  0.66009714  0.33338039  1
  Sn2+  Sn56  1  0.66738527  0.49687048  0.50101958  1
  Sn2+  Sn57  1  0.17299849  0.17545458  0.00599063  1
  Sn2+  Sn58  1  0.66660809  0.34019903  0.66283924  1
  Sn2+  Sn59  1  0.83819189  -0.01053909  0.16174213  1
  Sn2+  Sn60  1  0.50432065  0.15479559  0.67737281  1
  Sn2+  Sn61  1  0.16933932  0.83442155  0.66845693  1
  Sn2+  Sn62  1  0.50136626  0.33748454  0.17109099  1
  Sn2+  Sn63  1  0.65938507  -0.00259983  0.32971590  1
  Sn2+  Sn64  1  0.84093891  0.49630440  0.66943342  1
  Bi3+  Bi65  1  0.50422288  0.49899131  0.65601205  1
  Bi3+  Bi66  1  -0.00243003  0.33349578  0.66727673  1
  Bi3+  Bi67  1  0.33408081  -0.00068712  0.66662622  1
  Bi3+  Bi68  1  0.83649349  0.17183491  0.33733704  1
  Bi3+  Bi69  1  0.83436381  0.49844981  0.33629285  1
  Bi3+  Bi70  1  0.50360482  0.33654042  0.83494219  1
  Bi3+  Bi71  1  0.82599328  0.66323660  0.83336535  1
  Bi3+  Bi72  1  0.50286728  0.33507504  0.49919745  1
  Bi3+  Bi73  1  0.66400365  0.50003464  0.17186559  1
  Bi3+  Bi74  1  0.33188455  0.83221496  0.83316520  1
  Bi3+  Bi75  1  0.16790231  0.50220434  0.65658039  1
  Bi3+  Bi76  1  0.82891295  0.33326525  0.49968826  1
  Bi3+  Bi77  1  0.33367192  0.33972319  0.66637501  1
  Bi3+  Bi78  1  0.83417495  0.33203154  0.17169027  1
  Bi3+  Bi79  1  0.33408612  0.16645061  0.16475355  1
  Bi3+  Bi80  1  0.00056152  0.83846747  0.50054229  1
  Bi3+  Bi81  1  0.16604367  0.00162852  0.15938190  1
  Bi3+  Bi82  1  0.33231245  0.33840411  -0.00386434  1
  Bi3+  Bi83  1  0.33628710  0.16790096  0.83286175  1
  Bi3+  Bi84  1  0.50660829  0.83464528  0.33167066  1
  Bi3+  Bi85  1  0.50040542  0.16580325  0.33186358  1
  Te2-  Te86  1  0.16785447  0.16769210  0.17234874  1
  Te2-  Te87  1  0.16700361  0.16644221  0.49318346  1
  Te2-  Te88  1  0.17087289  0.17213506  0.83636374  1
  Te2-  Te89  1  0.16940326  0.50213045  0.18071478  1
  Te2-  Te90  1  0.16126066  0.50889298  0.49385245  1
  Te2-  Te91  1  0.16880399  0.51233177  0.82083496  1
  Te2-  Te92  1  0.16893986  0.83803320  0.16962682  1
  Te2-  Te93  1  0.16309537  0.82797148  0.49316386  1
  Te2-  Te94  1  0.16982934  0.81990396  0.83186076  1
  Te2-  Te95  1  0.49822911  0.16820996  0.16737840  1
  Te2-  Te96  1  0.50927796  0.17258071  0.50123771  1
  Te2-  Te97  1  0.49717783  0.17319215  0.83685707  1
  Te2-  Te98  1  0.50207607  0.50070896  0.19185227  1
  Te2-  Te99  1  0.50162887  0.49713645  0.49202157  1
  Te2-  Te100  1  0.50756527  0.49973004  0.82278760  1
  Te2-  Te101  1  0.51020615  0.83111182  0.16859069  1
  Te2-  Te102  1  0.50148265  0.82972892  0.49827627  1
  Te2-  Te103  1  0.50038946  0.82872982  0.82693832  1
  Te2-  Te104  1  0.83935099  0.16698911  0.17033783  1
  Te2-  Te105  1  0.82411567  0.16578370  0.50206218  1
  Te2-  Te106  1  0.83175149  0.17560302  0.83501716  1
  Te2-  Te107  1  0.82978334  0.49697530  0.17349701  1
  Te2-  Te108  1  0.83729652  0.49965433  0.50066215  1
  Te2-  Te109  1  0.81960379  0.49840485  0.83246104  1
  Te2-  Te110  1  0.83378473  0.83174842  0.16934865  1
  Te2-  Te111  1  0.83674882  0.84410983  0.49416415  1
  Te2-  Te112  1  0.84336512  0.82668953  0.83526782  1
  Te2-  Te113  1  0.15427635  0.00347039  -0.00172416  1
  Te2-  Te114  1  0.16908672  0.00279432  0.32671021  1
  Te2-  Te115  1  0.16951005  -0.00397332  0.67449661  1
  Te2-  Te116  1  0.17154052  0.34886718  -0.00403753  1
  Te2-  Te117  1  0.16744383  0.33712590  0.34835453  1
  Te2-  Te118  1  0.16788477  0.33706034  0.65385627  1
  Te2-  Te119  1  0.16965822  0.65150247  -0.00795555  1
  Te2-  Te120  1  0.16193025  0.67466934  0.33797970  1
  Te2-  Te121  1  0.16628247  0.66538106  0.66218410  1
  Te2-  Te122  1  0.50249709  -0.00739083  -0.00408728  1
  Te2-  Te123  1  0.50166805  0.00146553  0.34512795  1
  Te2-  Te124  1  0.49533969  -0.00267007  0.65347452  1
  Te2-  Te125  1  0.49645263  0.34448632  -0.00012856  1
  Te2-  Te126  1  0.49425802  0.32693645  0.33597703  1
  Te2-  Te127  1  0.49901386  0.33408645  0.66663551  1
  Te2-  Te128  1  0.50366100  0.66031087  0.00517695  1
  Te2-  Te129  1  0.50174675  0.67190076  0.34542704  1
  Te2-  Te130  1  0.50905874  0.66451650  0.64696893  1
  Te2-  Te131  1  0.84334899  0.00255450  0.00194585  1
  Te2-  Te132  1  0.82639954  0.01103308  0.33643594  1
  Te2-  Te133  1  0.83203397  0.00696422  0.66382036  1
  Te2-  Te134  1  0.82885646  0.34138629  0.00655025  1
  Te2-  Te135  1  0.83623561  0.33281909  0.33713861  1
  Te2-  Te136  1  0.83181379  0.32789151  0.66138941  1
  Te2-  Te137  1  0.82613825  0.65481979  -0.00362813  1
  Te2-  Te138  1  0.83941603  0.66386745  0.33637797  1
  Te2-  Te139  1  0.82267237  0.66479807  0.66659755  1
  Te2-  Te140  1  0.00417304  0.18944469  -0.00776998  1
  Te2-  Te141  1  0.00257142  0.17188505  0.34168542  1
  Te2-  Te142  1  -0.00431298  0.16765057  0.66958336  1
  Te2-  Te143  1  -0.00251618  0.48854917  0.01208402  1
  Te2-  Te144  1  -0.00018574  0.49817264  0.34932161  1
  Te2-  Te145  1  0.00273507  0.49633432  0.65338361  1
  Te2-  Te146  1  -0.00164319  0.82518397  0.00690572  1
  Te2-  Te147  1  -0.01317135  0.84083925  0.33388569  1
  Te2-  Te148  1  0.00225259  0.83384780  0.66358502  1
  Te2-  Te149  1  0.33322133  0.17222467  -0.00100305  1
  Te2-  Te150  1  0.33435534  0.17512992  0.32679105  1
  Te2-  Te151  1  0.33321281  0.17087695  0.66891876  1
  Te2-  Te152  1  0.34058290  0.50651842  -0.01461000  1
  Te2-  Te153  1  0.32801165  0.49365442  0.33637086  1
  Te2-  Te154  1  0.33707035  0.50323875  0.67882661  1
  Te2-  Te155  1  0.33684130  0.82501900  -0.00382126  1
  Te2-  Te156  1  0.34351062  0.83395206  0.32754643  1
  Te2-  Te157  1  0.33745650  0.82917971  0.67017247  1
  Te2-  Te158  1  0.67040683  0.16327378  -0.01202876  1
  Te2-  Te159  1  0.66724428  0.16365043  0.32944653  1
  Te2-  Te160  1  0.66755198  0.16897303  0.68598847  1
  Te2-  Te161  1  0.65304386  0.50429302  0.00895442  1
  Te2-  Te162  1  0.67233295  0.49809700  0.33597955  1
  Te2-  Te163  1  0.66577725  0.50938836  0.66372974  1
  Te2-  Te164  1  0.67049058  0.82489805  0.00527000  1
  Te2-  Te165  1  0.67333545  0.83359456  0.32411271  1
  Te2-  Te166  1  0.66309583  0.82292973  0.66876096  1
  Te2-  Te167  1  0.00369785  0.01211438  0.15776565  1
  Te2-  Te168  1  -0.00166601  0.00333189  0.50218208  1
  Te2-  Te169  1  0.00080822  0.00481567  0.83611617  1
  Te2-  Te170  1  -0.00223848  0.32388326  0.16963065  1
  Te2-  Te171  1  -0.00575907  0.33285912  0.50544348  1
  Te2-  Te172  1  -0.01049018  0.35033746  0.82819940  1
  Te2-  Te173  1  -0.00127086  0.67000666  0.17731314  1
  Te2-  Te174  1  -0.00663690  0.67706823  0.49229989  1
  Te2-  Te175  1  -0.00898648  0.64719212  0.83295966  1
  Te2-  Te176  1  0.33058344  0.00204408  0.16153991  1
  Te2-  Te177  1  0.33169409  0.00198632  0.50412320  1
  Te2-  Te178  1  0.33906949  -0.00060859  0.82933639  1
  Te2-  Te179  1  0.33528362  0.33235979  0.15993871  1
  Te2-  Te180  1  0.33718642  0.33818817  0.50446262  1
  Te2-  Te181  1  0.33711486  0.33260638  0.83057829  1
  Te2-  Te182  1  0.33640072  0.66976335  0.16241104  1
  Te2-  Te183  1  0.32679848  0.66314431  0.50615482  1
  Te2-  Te184  1  0.35470868  0.67031916  0.83092391  1
  Te2-  Te185  1  0.66966570  -0.00319831  0.15566944  1
  Te2-  Te186  1  0.66813018  0.00485510  0.50222806  1
  Te2-  Te187  1  0.66087126  -0.00869632  0.84142399  1
  Te2-  Te188  1  0.66859104  0.33488412  0.17948087  1
  Te2-  Te189  1  0.66654915  0.32778834  0.49466189  1
  Te2-  Te190  1  0.66673934  0.34386795  0.83238535  1
  Te2-  Te191  1  0.66958064  0.66214282  0.16587362  1
  Te2-  Te192  1  0.68383429  0.66607308  0.49413798  1
  Te2-  Te193  1  0.65966593  0.66514610  0.84209148  1
  Pb2+  Pb194  1  0.33531475  0.83427734  0.49867927  1
  Pb2+  Pb195  1  0.16538184  -0.00351205  0.50514704  1
  Pb2+  Pb196  1  0.33191650  0.66540657  0.33373940  1
  Pb2+  Pb197  1  0.32734336  0.00088491  -0.00386669  1
  Pb2+  Pb198  1  0.49763525  0.00010184  0.17333868  1
  Pb2+  Pb199  1  -0.00178661  0.66405308  0.66476166  1
  Pb2+  Pb200  1  -0.00050927  0.49567017  0.17848050  1
  Pb2+  Pb201  1  0.34039114  0.16872915  0.49630868  1
  Pb2+  Pb202  1  -0.00466101  0.65402358  0.00188075  1
  Pb2+  Pb203  1  0.16716074  0.83112607  -0.00203144  1
  Pb2+  Pb204  1  0.16715098  0.66864424  0.16659171  1
  Pb2+  Pb205  1  0.33861069  0.50234136  0.15698931  1
  Pb2+  Pb206  1  0.83383890  0.83439720  0.66445460  1
  Pb2+  Pb207  1  0.66089948  -0.00032935  0.67031600  1
  Pb2+  Pb208  1  -0.00377705  0.00701384  0.32474545  1
  Pb2+  Pb209  1  0.66774938  0.83249082  0.49429793  1
  Pb2+  Pb210  1  0.66809149  0.16587763  0.16079605  1
  Pb2+  Pb211  1  0.16487246  0.34044165  0.82741632  1
  Pb2+  Pb212  1  0.16201711  0.16474122  0.66694652  1
  Pb2+  Pb213  1  0.16731963  0.33575742  0.16899682  1
  Pb2+  Pb214  1  0.66391515  0.33682195  0.00395533  1
  Pb2+  Pb215  1  0.83188333  0.00041996  0.83451924  1
