# generated using pymatgen
data_In22Ag21Sn22Bi21(Te54Pb11)2
_symmetry_space_group_name_H-M   'P 1'
_cell_length_a   19.11972444
_cell_length_b   19.12899197
_cell_length_c   19.12722104
_cell_angle_alpha   89.99759044
_cell_angle_beta   89.99589536
_cell_angle_gamma   89.99812118
_symmetry_Int_Tables_number   1
_chemical_formula_structural   In22Ag21Sn22Bi21(Te54Pb11)2
_chemical_formula_sum   'In22 Ag21 Sn22 Bi21 Te108 Pb22'
_cell_volume   6995.60998041
_cell_formula_units_Z   1
loop_
 _symmetry_equiv_pos_site_id
 _symmetry_equiv_pos_as_xyz
  1  'x, y, z'
loop_
 _atom_type_symbol
 _atom_type_oxidation_number
  In3+  3.0
  Ag+  1.0
  Sn2+  2.0
  Bi3+  3.0
  Te2-  -2.0
  Pb2+  2.0
loop_
 _atom_site_type_symbol
 _atom_site_label
 _atom_site_symmetry_multiplicity
 _atom_site_fract_x
 _atom_site_fract_y
 _atom_site_fract_z
 _atom_site_occupancy
  In3+  In0  1  0.33184713  0.51553096  0.47096134  1
  In3+  In1  1  0.17795954  0.16735218  0.34037802  1
  In3+  In2  1  0.32474858  0.16398269  0.50293059  1
  In3+  In3  1  0.49875007  0.33178631  0.48654429  1
  In3+  In4  1  0.00072582  0.82439349  0.81943692  1
  In3+  In5  1  0.80661874  0.32966207  0.17017064  1
  In3+  In6  1  0.67101539  0.66534218  0.68632286  1
  In3+  In7  1  0.33742450  0.32359890  0.01710572  1
  In3+  In8  1  0.64688292  0.83264279  0.17333823  1
  In3+  In9  1  0.16903706  0.50382776  0.68517507  1
  In3+  In10  1  0.16579853  -0.00732989  0.51041377  1
  In3+  In11  1  0.66732234  0.01389775  0.34345422  1
  In3+  In12  1  0.49387226  -0.01450279  0.17021068  1
  In3+  In13  1  0.01502916  0.01044754  0.33492200  1
  In3+  In14  1  0.48221121  0.50288341  0.00630321  1
  In3+  In15  1  0.31748884  0.15485622  0.82731325  1
  In3+  In16  1  0.48679309  0.16977733  0.33134103  1
  In3+  In17  1  0.02176538  0.83026448  0.17337692  1
  In3+  In18  1  0.32220609  -0.00909298  0.33589689  1
  In3+  In19  1  0.17109714  0.51278392  0.01956929  1
  In3+  In20  1  0.17059978  0.66847506  0.82706608  1
  In3+  In21  1  0.48644343  0.32100807  0.83159170  1
  Ag+  Ag22  1  0.18994363  0.52026973  0.32718634  1
  Ag+  Ag23  1  0.33457703  0.68367250  0.64395960  1
  Ag+  Ag24  1  0.19088043  0.35137994  0.85664495  1
  Ag+  Ag25  1  0.34314244  0.47730100  0.16802145  1
  Ag+  Ag26  1  0.33024111  0.82803247  0.19185284  1
  Ag+  Ag27  1  0.33776370  0.69470293  0.30790858  1
  Ag+  Ag28  1  0.33524353  0.35321543  0.34898091  1
  Ag+  Ag29  1  -0.01784760  0.18903324  0.52874432  1
  Ag+  Ag30  1  0.34173599  -0.02075118  0.64369421  1
  Ag+  Ag31  1  0.64882116  0.17183833  0.48805976  1
  Ag+  Ag32  1  0.80364556  0.19708489  0.63459363  1
  Ag+  Ag33  1  0.34808506  0.85400745  0.48955109  1
  Ag+  Ag34  1  0.48002861  0.81227909  0.33510106  1
  Ag+  Ag35  1  0.03140257  0.66541700  0.66399776  1
  Ag+  Ag36  1  0.80889187  0.66809226  0.81485608  1
  Ag+  Ag37  1  0.83680587  0.18894230  0.35167880  1
  Ag+  Ag38  1  0.17146820  -0.02738208  0.81015607  1
  Ag+  Ag39  1  0.18314895  0.81979175  0.33736726  1
  Ag+  Ag40  1  0.33965971  -0.00984689  -0.02022119  1
  Ag+  Ag41  1  0.66502755  0.64019009  -0.00844256  1
  Ag+  Ag42  1  0.49759219  0.33576667  0.18305076  1
  Sn2+  Sn43  1  0.49211572  0.65628531  0.16951129  1
  Sn2+  Sn44  1  0.17246525  0.66711168  0.16886200  1
  Sn2+  Sn45  1  0.49510322  0.50601227  0.33036659  1
  Sn2+  Sn46  1  0.50111068  0.17045787  0.01141644  1
  Sn2+  Sn47  1  0.49225027  0.83274060  0.65662665  1
  Sn2+  Sn48  1  0.66511635  0.50036165  0.49526130  1
  Sn2+  Sn49  1  0.49653649  0.66120048  0.50268463  1
  Sn2+  Sn50  1  0.17304637  -0.00253798  0.16171252  1
  Sn2+  Sn51  1  0.65617364  0.66913958  0.33145501  1
  Sn2+  Sn52  1  0.66253147  0.16369466  0.17621477  1
  Sn2+  Sn53  1  0.66362479  0.51107896  0.16901578  1
  Sn2+  Sn54  1  0.48528610  0.50755254  0.66598013  1
  Sn2+  Sn55  1  0.66901119  0.16980710  0.82101715  1
  Sn2+  Sn56  1  0.66491400  0.49815638  0.83434276  1
  Sn2+  Sn57  1  0.01573995  0.66898320  0.33623037  1
  Sn2+  Sn58  1  0.65142251  0.83534875  0.49288458  1
  Sn2+  Sn59  1  0.83660744  0.50735782  -0.00411285  1
  Sn2+  Sn60  1  0.01672534  0.49881787  0.49745289  1
  Sn2+  Sn61  1  0.33978390  0.67544084  0.00506535  1
  Sn2+  Sn62  1  0.33727620  0.16186275  0.16566676  1
  Sn2+  Sn63  1  0.65844607  0.32265980  0.33459929  1
  Sn2+  Sn64  1  0.82954714  0.00013069  0.17094933  1
  Bi3+  Bi65  1  0.83241239  0.16657684  -0.00173881  1
  Bi3+  Bi66  1  0.17179608  0.32836800  0.49743828  1
  Bi3+  Bi67  1  0.66211668  0.33322059  0.00012482  1
  Bi3+  Bi68  1  0.17151758  0.16643296  0.00194730  1
  Bi3+  Bi69  1  0.00024130  0.16475027  0.16692588  1
  Bi3+  Bi70  1  0.83155644  0.83301468  0.66791660  1
  Bi3+  Bi71  1  0.83303376  0.83374440  0.00446163  1
  Bi3+  Bi72  1  0.33426342  0.83361703  0.83683524  1
  Bi3+  Bi73  1  0.83728543  -0.00153524  0.49908639  1
  Bi3+  Bi74  1  0.33421314  0.33291770  0.65936787  1
  Bi3+  Bi75  1  0.83197021  0.83086350  0.33126377  1
  Bi3+  Bi76  1  0.00023019  0.50203754  0.83280029  1
  Bi3+  Bi77  1  0.83122465  0.66678717  0.16685349  1
  Bi3+  Bi78  1  0.00289807  0.16365003  0.83062890  1
  Bi3+  Bi79  1  -0.00014932  0.82842776  0.49516526  1
  Bi3+  Bi80  1  0.66058548  0.00462645  0.00318846  1
  Bi3+  Bi81  1  0.83006081  0.49913076  0.33008774  1
  Bi3+  Bi82  1  0.16616043  0.17093050  0.66435917  1
  Bi3+  Bi83  1  0.49456453  0.66355705  0.83580170  1
  Bi3+  Bi84  1  0.01069861  -0.00036327  0.00275284  1
  Bi3+  Bi85  1  0.00386301  0.50239775  0.17066797  1
  Te2-  Te86  1  0.16510782  0.16398709  0.16865741  1
  Te2-  Te87  1  0.16074223  0.16147264  0.49736395  1
  Te2-  Te88  1  0.16449141  0.17442723  0.83501574  1
  Te2-  Te89  1  0.16653275  0.50191164  0.17582668  1
  Te2-  Te90  1  0.17526709  0.49315154  0.47816351  1
  Te2-  Te91  1  0.16417920  0.49599224  0.84008434  1
  Te2-  Te92  1  0.17519977  0.83625235  0.18339462  1
  Te2-  Te93  1  0.16281172  0.83888061  0.48944723  1
  Te2-  Te94  1  0.16773325  0.82682073  0.83503831  1
  Te2-  Te95  1  0.50197789  0.17930587  0.17370678  1
  Te2-  Te96  1  0.50223067  0.17198573  0.48930998  1
  Te2-  Te97  1  0.49994283  0.16878457  0.83732610  1
  Te2-  Te98  1  0.49321474  0.49409962  0.16084524  1
  Te2-  Te99  1  0.49744058  0.48960210  0.49933863  1
  Te2-  Te100  1  0.50268849  0.50257280  0.83719379  1
  Te2-  Te101  1  0.49182804  0.83299752  0.18288835  1
  Te2-  Te102  1  0.49466662  0.83228433  0.48874270  1
  Te2-  Te103  1  0.49882153  0.82945051  0.83437459  1
  Te2-  Te104  1  0.83492527  0.16976882  0.16008356  1
  Te2-  Te105  1  0.84167518  0.15762333  0.49874864  1
  Te2-  Te106  1  0.83867118  0.16565561  0.83633388  1
  Te2-  Te107  1  0.83710589  0.49984765  0.16581231  1
  Te2-  Te108  1  0.83477830  0.49643803  0.49463926  1
  Te2-  Te109  1  0.83730038  0.51652049  0.83593042  1
  Te2-  Te110  1  0.83587723  0.83157483  0.16744981  1
  Te2-  Te111  1  0.82946129  0.83480967  0.50003485  1
  Te2-  Te112  1  0.83809544  0.82051731  0.83528073  1
  Te2-  Te113  1  0.17465962  0.00476086  0.00196335  1
  Te2-  Te114  1  0.16768551  0.00697022  0.33161777  1
  Te2-  Te115  1  0.17856463  0.00587930  0.66549562  1
  Te2-  Te116  1  0.17877591  0.33011259  0.00093508  1
  Te2-  Te117  1  0.18448494  0.32065461  0.33706361  1
  Te2-  Te118  1  0.17041072  0.33651246  0.65929526  1
  Te2-  Te119  1  0.16563267  0.66504737  -0.00029644  1
  Te2-  Te120  1  0.17475605  0.66969214  0.32861162  1
  Te2-  Te121  1  0.17996386  0.66067483  0.66961992  1
  Te2-  Te122  1  0.49347359  0.00292183  0.01209011  1
  Te2-  Te123  1  0.51484983  0.01512722  0.32540173  1
  Te2-  Te124  1  0.49157061  -0.00224111  0.66437945  1
  Te2-  Te125  1  0.49621937  0.33865611  -0.01161064  1
  Te2-  Te126  1  0.48935685  0.32714804  0.33281218  1
  Te2-  Te127  1  0.49703244  0.33803225  0.67561672  1
  Te2-  Te128  1  0.51225056  0.65901002  -0.00010407  1
  Te2-  Te129  1  0.48841532  0.66399665  0.32984324  1
  Te2-  Te130  1  0.48560388  0.66604880  0.67248035  1
  Te2-  Te131  1  0.83527173  -0.00050238  0.00129914  1
  Te2-  Te132  1  0.82234469  -0.00812527  0.33343004  1
  Te2-  Te133  1  0.83529642  -0.00678148  0.66803370  1
  Te2-  Te134  1  0.82904407  0.33260644  0.00806114  1
  Te2-  Te135  1  0.83148289  0.33559142  0.32512948  1
  Te2-  Te136  1  0.83166782  0.33645319  0.66700061  1
  Te2-  Te137  1  0.82057325  0.67132516  0.00521846  1
  Te2-  Te138  1  0.83146439  0.66516414  0.32907642  1
  Te2-  Te139  1  0.82446554  0.67083857  0.66738903  1
  Te2-  Te140  1  0.00096066  0.16301646  -0.00014309  1
  Te2-  Te141  1  -0.01451443  0.16020645  0.32524575  1
  Te2-  Te142  1  0.00416748  0.16151047  0.67035145  1
  Te2-  Te143  1  0.00793909  0.50209242  0.00268901  1
  Te2-  Te144  1  -0.00592074  0.50250826  0.33221048  1
  Te2-  Te145  1  0.01097830  0.51176828  0.66718855  1
  Te2-  Te146  1  -0.00090241  0.83829437  0.00978744  1
  Te2-  Te147  1  -0.00497247  0.83571310  0.33091530  1
  Te2-  Te148  1  -0.00188981  0.81994808  0.66106245  1
  Te2-  Te149  1  0.33340781  0.17057519  -0.00254268  1
  Te2-  Te150  1  0.33437682  0.15238576  0.33605513  1
  Te2-  Te151  1  0.32957267  0.16807960  0.66663241  1
  Te2-  Te152  1  0.32817757  0.50044573  0.01370804  1
  Te2-  Te153  1  0.33600167  0.49805099  0.32168400  1
  Te2-  Te154  1  0.32358682  0.49442678  0.66836911  1
  Te2-  Te155  1  0.33498832  0.84313205  -0.00091656  1
  Te2-  Te156  1  0.33273275  0.84054162  0.34239643  1
  Te2-  Te157  1  0.33508602  0.83204803  0.67354503  1
  Te2-  Te158  1  0.66855978  0.16823726  0.00024074  1
  Te2-  Te159  1  0.68365997  0.16784788  0.33840261  1
  Te2-  Te160  1  0.66479127  0.16534157  0.66517762  1
  Te2-  Te161  1  0.67309274  0.49333248  0.00264710  1
  Te2-  Te162  1  0.66625623  0.49645002  0.33374068  1
  Te2-  Te163  1  0.66246355  0.51145140  0.66356020  1
  Te2-  Te164  1  0.66822390  0.84356147  0.00955243  1
  Te2-  Te165  1  0.66754980  0.83408552  0.32839932  1
  Te2-  Te166  1  0.66564967  0.82429073  0.66358241  1
  Te2-  Te167  1  0.00042241  -0.00105140  0.16724115  1
  Te2-  Te168  1  0.00316335  -0.00787881  0.49467564  1
  Te2-  Te169  1  0.01584621  -0.00283034  0.83793787  1
  Te2-  Te170  1  0.00530146  0.33563536  0.16580576  1
  Te2-  Te171  1  0.00529347  0.33160580  0.49693573  1
  Te2-  Te172  1  -0.00047204  0.33676161  0.83315574  1
  Te2-  Te173  1  -0.00174012  0.66706165  0.16558911  1
  Te2-  Te174  1  0.00193755  0.66586604  0.50597773  1
  Te2-  Te175  1  0.01428552  0.66423701  0.82276534  1
  Te2-  Te176  1  0.34043460  -0.00328187  0.18207308  1
  Te2-  Te177  1  0.32501054  -0.00056610  0.49887071  1
  Te2-  Te178  1  0.32244328  0.00146745  0.83457158  1
  Te2-  Te179  1  0.34627219  0.32819917  0.16658951  1
  Te2-  Te180  1  0.33929975  0.32610813  0.49655952  1
  Te2-  Te181  1  0.33258460  0.32793214  0.82447942  1
  Te2-  Te182  1  0.33398103  0.67973032  0.16152472  1
  Te2-  Te183  1  0.33724594  0.66199145  0.49879078  1
  Te2-  Te184  1  0.33071337  0.66540731  0.84375824  1
  Te2-  Te185  1  0.66043774  -0.00095985  0.16383350  1
  Te2-  Te186  1  0.66871377  0.00886007  0.49797592  1
  Te2-  Te187  1  0.66510185  0.00250541  0.83852060  1
  Te2-  Te188  1  0.65147043  0.33757429  0.16303082  1
  Te2-  Te189  1  0.65690501  0.32412547  0.49652216  1
  Te2-  Te190  1  0.66548236  0.33323064  0.83614556  1
  Te2-  Te191  1  0.66730005  0.67178816  0.16587631  1
  Te2-  Te192  1  0.65788845  0.66637869  0.49254369  1
  Te2-  Te193  1  0.66164948  0.66530877  0.84244020  1
  Pb2+  Pb194  1  0.16995482  0.83124519  0.66035665  1
  Pb2+  Pb195  1  0.66233295  -0.00495877  0.66614694  1
  Pb2+  Pb196  1  0.33451368  0.49541539  0.83844713  1
  Pb2+  Pb197  1  0.49070614  0.00122298  0.83673527  1
  Pb2+  Pb198  1  0.82801192  0.66451621  0.49795910  1
  Pb2+  Pb199  1  0.00372552  0.33765312  0.66644886  1
  Pb2+  Pb200  1  0.66309011  0.33993839  0.66490546  1
  Pb2+  Pb201  1  0.17072510  0.83308887  0.00927246  1
  Pb2+  Pb202  1  0.00508612  -0.00693273  0.66656357  1
  Pb2+  Pb203  1  0.17048920  0.66596370  0.49570532  1
  Pb2+  Pb204  1  0.84370653  -0.00570416  0.83485054  1
  Pb2+  Pb205  1  0.49907068  0.82753597  0.00775449  1
  Pb2+  Pb206  1  0.17712254  0.33308457  0.16977737  1
  Pb2+  Pb207  1  0.49713068  0.00060145  0.49333407  1
  Pb2+  Pb208  1  0.82873865  0.32476796  0.49491135  1
  Pb2+  Pb209  1  0.00954129  0.32919926  0.33080174  1
  Pb2+  Pb210  1  0.66999501  0.83426654  0.83700107  1
  Pb2+  Pb211  1  0.83620379  0.50269989  0.66521732  1
  Pb2+  Pb212  1  0.49827897  0.16801467  0.66432680  1
  Pb2+  Pb213  1  0.83266602  0.33830190  0.83899304  1
  Pb2+  Pb214  1  -0.00660143  0.66995737  -0.00731096  1
  Pb2+  Pb215  1  0.00516090  0.33382516  -0.00051558  1
