# generated using pymatgen
data_In22Ag21Sn22Bi21(Te54Pb11)2
_symmetry_space_group_name_H-M   'P 1'
_cell_length_a   19.14094195
_cell_length_b   19.13269544
_cell_length_c   19.11538595
_cell_angle_alpha   90.01265534
_cell_angle_beta   90.00133153
_cell_angle_gamma   89.99557233
_symmetry_Int_Tables_number   1
_chemical_formula_structural   In22Ag21Sn22Bi21(Te54Pb11)2
_chemical_formula_sum   'In22 Ag21 Sn22 Bi21 Te108 Pb22'
_cell_volume   7000.39463804
_cell_formula_units_Z   1
loop_
 _symmetry_equiv_pos_site_id
 _symmetry_equiv_pos_as_xyz
  1  'x, y, z'
loop_
 _atom_type_symbol
 _atom_type_oxidation_number
  In3+  3.0
  Ag+  1.0
  Sn2+  2.0
  Bi3+  3.0
  Te2-  -2.0
  Pb2+  2.0
loop_
 _atom_site_type_symbol
 _atom_site_label
 _atom_site_symmetry_multiplicity
 _atom_site_fract_x
 _atom_site_fract_y
 _atom_site_fract_z
 _atom_site_occupancy
  In3+  In0  1  0.34045841  0.84039163  0.49748151  1
  In3+  In1  1  0.33034898  0.64800131  0.66390183  1
  In3+  In2  1  0.67172211  0.49427670  0.50393033  1
  In3+  In3  1  0.65105549  0.65259996  -0.00027731  1
  In3+  In4  1  0.66192434  0.83464849  0.83909809  1
  In3+  In5  1  0.18326245  0.17233780  0.66863895  1
  In3+  In6  1  0.33614971  -0.00690478  0.34824817  1
  In3+  In7  1  -0.00827566  0.85323313  0.83220775  1
  In3+  In8  1  0.49530831  0.65724865  0.49661912  1
  In3+  In9  1  0.49323414  0.83902934  0.66784204  1
  In3+  In10  1  0.16482343  0.68201704  0.15990507  1
  In3+  In11  1  -0.00937700  0.66694140  0.33548160  1
  In3+  In12  1  0.33698081  0.83998890  0.16282627  1
  In3+  In13  1  0.33666449  0.48226127  0.80932699  1
  In3+  In14  1  0.00364857  0.65783056  -0.00990100  1
  In3+  In15  1  0.82932269  0.17407743  0.00183304  1
  In3+  In16  1  0.49445830  0.48512641  0.33611358  1
  In3+  In17  1  0.80764737  -0.00204574  0.16471986  1
  In3+  In18  1  0.16442912  0.83150685  0.35566332  1
  In3+  In19  1  0.68264541  0.00240192  0.33419807  1
  In3+  In20  1  0.82831446  0.67051647  0.16531418  1
  In3+  In21  1  0.16945021  0.85268028  0.67312591  1
  Ag+  Ag22  1  0.47723039  0.83496921  0.01906128  1
  Ag+  Ag23  1  0.49570444  0.00532884  0.14130560  1
  Ag+  Ag24  1  0.35366772  0.46841837  0.51040978  1
  Ag+  Ag25  1  0.85959123  0.83527025  0.35530545  1
  Ag+  Ag26  1  0.16721548  0.02332839  0.83678188  1
  Ag+  Ag27  1  0.52012703  0.19553579  0.63995369  1
  Ag+  Ag28  1  0.80905743  0.00218052  0.81157967  1
  Ag+  Ag29  1  0.16300556  0.01665337  0.47422566  1
  Ag+  Ag30  1  0.19396928  0.36572039  0.53310250  1
  Ag+  Ag31  1  0.18983512  0.16586904  -0.02686789  1
  Ag+  Ag32  1  -0.02508496  0.49743842  0.83190935  1
  Ag+  Ag33  1  0.83614430  0.47589694  0.65096447  1
  Ag+  Ag34  1  0.35198615  0.35563778  -0.02167861  1
  Ag+  Ag35  1  0.64425975  0.30463413  0.00328724  1
  Ag+  Ag36  1  0.34416385  0.31372112  0.64039056  1
  Ag+  Ag37  1  0.48127375  0.18946641  0.00273888  1
  Ag+  Ag38  1  0.34359453  0.18322734  0.81868920  1
  Ag+  Ag39  1  0.68835576  0.31223332  0.64363835  1
  Ag+  Ag40  1  0.64051297  0.18280773  0.17078232  1
  Ag+  Ag41  1  0.52554346  0.01301685  0.48445610  1
  Ag+  Ag42  1  0.52373979  0.30383533  0.53220753  1
  Sn2+  Sn43  1  0.16968494  0.50258008  0.33544490  1
  Sn2+  Sn44  1  0.83366126  0.50801393  0.33868572  1
  Sn2+  Sn45  1  0.17844369  0.00478500  0.15463383  1
  Sn2+  Sn46  1  -0.00522205  0.49974394  0.15666316  1
  Sn2+  Sn47  1  0.84026142  0.33096250  0.49991639  1
  Sn2+  Sn48  1  0.17024775  0.85158217  -0.00572491  1
  Sn2+  Sn49  1  0.15534449  0.49722183  0.66789156  1
  Sn2+  Sn50  1  0.83841212  0.49948950  -0.00704169  1
  Sn2+  Sn51  1  0.00240561  0.49722964  0.50727699  1
  Sn2+  Sn52  1  0.00177170  0.16257674  0.15996829  1
  Sn2+  Sn53  1  0.00344033  0.00296872  0.66879477  1
  Sn2+  Sn54  1  0.82200776  0.16623532  0.67495217  1
  Sn2+  Sn55  1  0.82550372  0.32576951  0.16228885  1
  Sn2+  Sn56  1  0.65399508  0.83210259  0.50022136  1
  Sn2+  Sn57  1  0.82972331  0.83690705  0.66187767  1
  Sn2+  Sn58  1  0.17141917  0.48911335  0.00230819  1
  Sn2+  Sn59  1  0.00213890  0.66144301  0.66958922  1
  Sn2+  Sn60  1  0.34355135  0.01423120  -0.00063247  1
  Sn2+  Sn61  1  0.16978612  0.66550112  0.49741640  1
  Sn2+  Sn62  1  0.00723131  0.33161129  -0.00074633  1
  Sn2+  Sn63  1  0.84584918  -0.00006788  0.50081868  1
  Sn2+  Sn64  1  0.50333343  0.83769085  0.33261257  1
  Bi3+  Bi65  1  0.16642660  0.33496988  0.83846978  1
  Bi3+  Bi66  1  0.67070350  -0.00097520  0.00180155  1
  Bi3+  Bi67  1  0.33248390  0.16115056  0.16581859  1
  Bi3+  Bi68  1  0.50064603  0.66836729  0.83024459  1
  Bi3+  Bi69  1  0.33068414  0.16089785  0.50630432  1
  Bi3+  Bi70  1  0.83653422  0.83520397  -0.00054243  1
  Bi3+  Bi71  1  0.50185848  0.32658292  0.82986717  1
  Bi3+  Bi72  1  0.00302670  -0.00086923  0.00283549  1
  Bi3+  Bi73  1  0.66491689  0.66744711  0.66958558  1
  Bi3+  Bi74  1  0.66115195  0.16667136  0.84358807  1
  Bi3+  Bi75  1  -0.00144765  0.34331934  0.33248286  1
  Bi3+  Bi76  1  0.32884323  0.33297430  0.33343873  1
  Bi3+  Bi77  1  -0.00162803  0.16362273  0.50307851  1
  Bi3+  Bi78  1  0.49052502  0.00261184  0.83232121  1
  Bi3+  Bi79  1  0.16760745  0.66133538  0.83004193  1
  Bi3+  Bi80  1  0.33240675  0.00088937  0.67072110  1
  Bi3+  Bi81  1  0.66304812  0.83657817  0.16346014  1
  Bi3+  Bi82  1  0.16233600  0.33257218  0.16770573  1
  Bi3+  Bi83  1  0.66460805  0.49800761  0.83141666  1
  Bi3+  Bi84  1  0.33206554  0.83461067  0.83313461  1
  Bi3+  Bi85  1  0.33029849  0.66885204  0.33849056  1
  Te2-  Te86  1  0.16735461  0.16930407  0.17227586  1
  Te2-  Te87  1  0.16338948  0.16127164  0.51232993  1
  Te2-  Te88  1  0.17500336  0.17343073  0.82527613  1
  Te2-  Te89  1  0.16114300  0.49454572  0.16666270  1
  Te2-  Te90  1  0.15846219  0.50379662  0.50392212  1
  Te2-  Te91  1  0.18131409  0.49906919  0.83364644  1
  Te2-  Te92  1  0.17461661  0.83440017  0.15891755  1
  Te2-  Te93  1  0.17130791  0.83038100  0.50943212  1
  Te2-  Te94  1  0.16860948  0.82221310  0.83035633  1
  Te2-  Te95  1  0.49489635  0.15708396  0.15411359  1
  Te2-  Te96  1  0.49530067  0.15824249  0.49908393  1
  Te2-  Te97  1  0.49504675  0.16467589  0.84806754  1
  Te2-  Te98  1  0.50204498  0.50197447  0.17679137  1
  Te2-  Te99  1  0.49598510  0.50458811  0.49267029  1
  Te2-  Te100  1  0.49823400  0.50435075  0.83425968  1
  Te2-  Te101  1  0.49494402  0.83969702  0.16587756  1
  Te2-  Te102  1  0.49449996  0.83747523  0.50749154  1
  Te2-  Te103  1  0.49783028  0.83141732  0.82737951  1
  Te2-  Te104  1  0.83974530  0.15836958  0.16170573  1
  Te2-  Te105  1  0.83284307  0.16319898  0.49939108  1
  Te2-  Te106  1  0.82645581  0.15388499  0.83764257  1
  Te2-  Te107  1  0.83630323  0.51237028  0.16931587  1
  Te2-  Te108  1  0.82842191  0.49706867  0.50362421  1
  Te2-  Te109  1  0.82607630  0.50238736  0.83514371  1
  Te2-  Te110  1  0.82962758  0.82981941  0.16335728  1
  Te2-  Te111  1  0.82827213  0.83649481  0.49904065  1
  Te2-  Te112  1  0.83749615  0.84986552  0.83358507  1
  Te2-  Te113  1  0.16532511  0.01416358  -0.00686236  1
  Te2-  Te114  1  0.17337879  -0.01374964  0.32893770  1
  Te2-  Te115  1  0.16849596  0.00393211  0.68216535  1
  Te2-  Te116  1  0.16582907  0.31925558  0.00212900  1
  Te2-  Te117  1  0.16297744  0.33738417  0.33372090  1
  Te2-  Te118  1  0.17381166  0.32997207  0.67366511  1
  Te2-  Te119  1  0.16037353  0.66384296  -0.00137860  1
  Te2-  Te120  1  0.16966876  0.67216010  0.32944449  1
  Te2-  Te121  1  0.17000042  0.66021143  0.66817304  1
  Te2-  Te122  1  0.50656021  -0.01732192  -0.00813550  1
  Te2-  Te123  1  0.48717779  -0.00712422  0.34401232  1
  Te2-  Te124  1  0.49474973  -0.00444661  0.66942608  1
  Te2-  Te125  1  0.49823760  0.33659987  -0.00228777  1
  Te2-  Te126  1  0.49558759  0.33187622  0.33677186  1
  Te2-  Te127  1  0.48890913  0.33634984  0.67062837  1
  Te2-  Te128  1  0.49673112  0.68115882  -0.00404412  1
  Te2-  Te129  1  0.49431450  0.67201720  0.33990225  1
  Te2-  Te130  1  0.49780029  0.66949665  0.66550497  1
  Te2-  Te131  1  0.83761959  -0.00373495  0.00557141  1
  Te2-  Te132  1  0.83506217  -0.01459876  0.32881763  1
  Te2-  Te133  1  0.83345578  -0.00257885  0.66565260  1
  Te2-  Te134  1  0.84099898  0.33242002  0.00422860  1
  Te2-  Te135  1  0.83491728  0.33927529  0.33167739  1
  Te2-  Te136  1  0.83134853  0.32972517  0.66661752  1
  Te2-  Te137  1  0.84721029  0.67094286  0.00424467  1
  Te2-  Te138  1  0.83698388  0.68012020  0.32874083  1
  Te2-  Te139  1  0.83065475  0.67685548  0.66988841  1
  Te2-  Te140  1  -0.00903866  0.16274897  -0.00039542  1
  Te2-  Te141  1  -0.00078834  0.17125184  0.33687951  1
  Te2-  Te142  1  -0.00940215  0.16427050  0.66520763  1
  Te2-  Te143  1  0.00253029  0.50046297  -0.00922288  1
  Te2-  Te144  1  -0.00178730  0.50613700  0.33583696  1
  Te2-  Te145  1  -0.01416057  0.50296866  0.66920909  1
  Te2-  Te146  1  0.00262365  0.83145185  -0.00772009  1
  Te2-  Te147  1  0.00714007  0.82567408  0.33379485  1
  Te2-  Te148  1  0.00701556  0.83092788  0.67742812  1
  Te2-  Te149  1  0.33282727  0.16610689  0.00701675  1
  Te2-  Te150  1  0.33144890  0.16210938  0.33583588  1
  Te2-  Te151  1  0.33750806  0.16689543  0.67115707  1
  Te2-  Te152  1  0.33166508  0.49746936  0.00722238  1
  Te2-  Te153  1  0.33532363  0.50278123  0.34801816  1
  Te2-  Te154  1  0.33096436  0.49703691  0.65525944  1
  Te2-  Te155  1  0.32954773  0.83524370  -0.00061688  1
  Te2-  Te156  1  0.32771307  0.83178670  0.33512245  1
  Te2-  Te157  1  0.32987630  0.83562485  0.66766254  1
  Te2-  Te158  1  0.67434161  0.16039344  0.00878420  1
  Te2-  Te159  1  0.66747443  0.15902094  0.31928585  1
  Te2-  Te160  1  0.66174518  0.16977546  0.67478667  1
  Te2-  Te161  1  0.67096083  0.50143250  -0.00220495  1
  Te2-  Te162  1  0.66563471  0.50463352  0.34308682  1
  Te2-  Te163  1  0.67742333  0.50503826  0.66590785  1
  Te2-  Te164  1  0.67459817  0.83541780  0.00047911  1
  Te2-  Te165  1  0.66415776  0.84281791  0.32781004  1
  Te2-  Te166  1  0.66357692  0.82972243  0.66750406  1
  Te2-  Te167  1  0.00921182  -0.00184772  0.16482352  1
  Te2-  Te168  1  0.01199504  -0.00143943  0.50186660  1
  Te2-  Te169  1  0.01489576  0.00304597  0.83782346  1
  Te2-  Te170  1  -0.00221201  0.33214183  0.17022482  1
  Te2-  Te171  1  0.00179323  0.32824498  0.49386996  1
  Te2-  Te172  1  0.00183698  0.34514861  0.83269458  1
  Te2-  Te173  1  0.01193337  0.66515938  0.17167510  1
  Te2-  Te174  1  -0.00167645  0.66416940  0.49539234  1
  Te2-  Te175  1  0.00478835  0.64881286  0.83457020  1
  Te2-  Te176  1  0.34365543  -0.00514736  0.16741405  1
  Te2-  Te177  1  0.31528474  -0.00340183  0.50471146  1
  Te2-  Te178  1  0.32500404  -0.00485226  0.83447281  1
  Te2-  Te179  1  0.32778110  0.32993737  0.17233874  1
  Te2-  Te180  1  0.32850357  0.32325229  0.49348086  1
  Te2-  Te181  1  0.33394245  0.33016929  0.83498904  1
  Te2-  Te182  1  0.32656634  0.67053069  0.17215096  1
  Te2-  Te183  1  0.33650952  0.67737034  0.50302657  1
  Te2-  Te184  1  0.33533609  0.66961944  0.82570470  1
  Te2-  Te185  1  0.65050065  -0.00380817  0.16721219  1
  Te2-  Te186  1  0.67202461  0.00003411  0.49156936  1
  Te2-  Te187  1  0.66168629  0.00103490  0.83570926  1
  Te2-  Te188  1  0.66823411  0.32700700  0.15687736  1
  Te2-  Te189  1  0.66349101  0.33843104  0.50109994  1
  Te2-  Te190  1  0.66237658  0.33241344  0.84847551  1
  Te2-  Te191  1  0.66816371  0.67005903  0.16319505  1
  Te2-  Te192  1  0.65800786  0.66641002  0.50515056  1
  Te2-  Te193  1  0.66462930  0.66538618  0.83500982  1
  Pb2+  Pb194  1  0.50826775  0.49887754  0.66157082  1
  Pb2+  Pb195  1  0.67158977  0.49668367  0.16931982  1
  Pb2+  Pb196  1  0.49903251  0.15813034  0.32548743  1
  Pb2+  Pb197  1  0.83708316  0.67604672  0.83589605  1
  Pb2+  Pb198  1  0.66271612  0.00002021  0.66394823  1
  Pb2+  Pb199  1  -0.00024853  0.83127443  0.16240535  1
  Pb2+  Pb200  1  0.83335641  0.16423815  0.32845407  1
  Pb2+  Pb201  1  0.00280028  0.00131702  0.33278469  1
  Pb2+  Pb202  1  0.49722539  0.67306711  0.17051694  1
  Pb2+  Pb203  1  0.49617585  0.32749596  0.16766838  1
  Pb2+  Pb204  1  0.66334378  0.16823272  0.49712696  1
  Pb2+  Pb205  1  0.66578592  0.67408612  0.33532062  1
  Pb2+  Pb206  1  0.50035248  0.50298494  0.00407662  1
  Pb2+  Pb207  1  0.16653882  0.16425035  0.34127437  1
  Pb2+  Pb208  1  0.83030234  0.66517552  0.50293819  1
  Pb2+  Pb209  1  0.82922045  0.32911594  0.83480197  1
  Pb2+  Pb210  1  0.00620507  0.33302765  0.66306084  1
  Pb2+  Pb211  1  0.00341919  0.17278756  0.83328486  1
  Pb2+  Pb212  1  -0.00089278  0.82984256  0.50955158  1
  Pb2+  Pb213  1  0.32809688  0.49916449  0.17671809  1
  Pb2+  Pb214  1  0.32757499  0.66191260  -0.00296976  1
  Pb2+  Pb215  1  0.66529140  0.33373869  0.32950683  1
