# generated using pymatgen
data_In22Ag21Sn22Bi21(Te54Pb11)2
_symmetry_space_group_name_H-M   'P 1'
_cell_length_a   19.14342863
_cell_length_b   19.12176345
_cell_length_c   19.16202535
_cell_angle_alpha   89.99257450
_cell_angle_beta   90.00711164
_cell_angle_gamma   89.98496338
_symmetry_Int_Tables_number   1
_chemical_formula_structural   In22Ag21Sn22Bi21(Te54Pb11)2
_chemical_formula_sum   'In22 Ag21 Sn22 Bi21 Te108 Pb22'
_cell_volume   7014.37617839
_cell_formula_units_Z   1
loop_
 _symmetry_equiv_pos_site_id
 _symmetry_equiv_pos_as_xyz
  1  'x, y, z'
loop_
 _atom_type_symbol
 _atom_type_oxidation_number
  In3+  3.0
  Ag+  1.0
  Sn2+  2.0
  Bi3+  3.0
  Te2-  -2.0
  Pb2+  2.0
loop_
 _atom_site_type_symbol
 _atom_site_label
 _atom_site_symmetry_multiplicity
 _atom_site_fract_x
 _atom_site_fract_y
 _atom_site_fract_z
 _atom_site_occupancy
  In3+  In0  1  -0.02221306  0.84263542  0.83441849  1
  In3+  In1  1  0.51991931  0.66571445  0.83137917  1
  In3+  In2  1  0.33636007  0.31871547  0.00087693  1
  In3+  In3  1  0.32260588  0.83874407  0.49503263  1
  In3+  In4  1  0.50950556  -0.00371020  0.47889920  1
  In3+  In5  1  0.50953346  0.82951457  0.32016074  1
  In3+  In6  1  0.82837621  0.66560029  0.48283220  1
  In3+  In7  1  0.50340215  0.17712866  0.00235620  1
  In3+  In8  1  0.36218964  0.66941463  0.00330774  1
  In3+  In9  1  0.50464061  0.16704379  0.68558929  1
  In3+  In10  1  0.15621545  0.50414574  -0.00280821  1
  In3+  In11  1  0.66408785  0.50464944  0.15588748  1
  In3+  In12  1  0.84681953  0.33880680  0.15446485  1
  In3+  In13  1  0.83124599  0.83126432  0.33327477  1
  In3+  In14  1  0.66395378  0.18568455  0.50140356  1
  In3+  In15  1  0.30128607  -0.00957113  -0.00413897  1
  In3+  In16  1  0.66717499  0.32747623  0.69858397  1
  In3+  In17  1  0.68434318  0.67706241  0.66644388  1
  In3+  In18  1  0.50125270  -0.01374117  0.84471416  1
  In3+  In19  1  0.82053197  0.50209929  -0.01124219  1
  In3+  In20  1  0.31656178  0.33521863  0.67299240  1
  In3+  In21  1  0.15914643  0.68174434  0.83719836  1
  Ag+  Ag22  1  0.13836815  -0.02698365  0.80047375  1
  Ag+  Ag23  1  0.85896841  0.14183810  0.68927282  1
  Ag+  Ag24  1  0.81819355  0.32891946  0.81804930  1
  Ag+  Ag25  1  0.50208362  0.19159401  0.35475334  1
  Ag+  Ag26  1  0.82994933  0.52744154  0.30470112  1
  Ag+  Ag27  1  0.51973392  0.32245474  0.83716356  1
  Ag+  Ag28  1  -0.03993190  0.30976314  0.69772049  1
  Ag+  Ag29  1  -0.02336250  0.33488091  -0.02329356  1
  Ag+  Ag30  1  0.68138312  0.31445501  0.00454917  1
  Ag+  Ag31  1  -0.00608437  -0.02656185  -0.01790232  1
  Ag+  Ag32  1  0.66531783  0.66696626  0.01732852  1
  Ag+  Ag33  1  0.67563916  0.83806786  0.85343536  1
  Ag+  Ag34  1  0.13723114  0.82650701  0.35343949  1
  Ag+  Ag35  1  0.01011937  0.85675701  0.19656795  1
  Ag+  Ag36  1  0.14149522  0.49976520  0.69755701  1
  Ag+  Ag37  1  0.66639703  0.66020671  0.31464443  1
  Ag+  Ag38  1  0.81898986  0.68747397  0.84050309  1
  Ag+  Ag39  1  0.66282449  0.83094634  0.47785509  1
  Ag+  Ag40  1  0.49573577  0.65077747  0.19211075  1
  Ag+  Ag41  1  0.14017342  0.36038212  0.13586655  1
  Ag+  Ag42  1  0.02854276  -0.03316737  0.30211373  1
  Sn2+  Sn43  1  0.33517657  0.66768452  0.33252764  1
  Sn2+  Sn44  1  0.66120319  -0.00041525  0.66219961  1
  Sn2+  Sn45  1  0.82771885  0.66482107  0.15177134  1
  Sn2+  Sn46  1  0.32864316  -0.00323820  0.32925907  1
  Sn2+  Sn47  1  0.83793136  0.33618918  0.50269870  1
  Sn2+  Sn48  1  0.66903431  0.50437145  0.83234932  1
  Sn2+  Sn49  1  0.33397890  0.33504436  0.33007820  1
  Sn2+  Sn50  1  0.67506502  0.82398420  0.16727373  1
  Sn2+  Sn51  1  0.16807770  0.82224681  0.66656934  1
  Sn2+  Sn52  1  0.50356428  0.49624779  -0.00230418  1
  Sn2+  Sn53  1  -0.00881602  0.84194449  0.50846793  1
  Sn2+  Sn54  1  0.50817626  0.84010362  0.66187859  1
  Sn2+  Sn55  1  0.82640532  0.83286316  0.66283536  1
  Sn2+  Sn56  1  0.67056351  -0.00078075  0.33586329  1
  Sn2+  Sn57  1  0.34150480  0.82870515  0.82816343  1
  Sn2+  Sn58  1  0.50733450  0.83494155  0.00039890  1
  Sn2+  Sn59  1  0.33673242  0.50140776  0.15580020  1
  Sn2+  Sn60  1  0.33845538  0.50349659  0.83303666  1
  Sn2+  Sn61  1  0.34092518  0.16187940  0.49082543  1
  Sn2+  Sn62  1  0.67146114  0.16453820  0.83100598  1
  Sn2+  Sn63  1  0.16677792  -0.00047597  0.50160653  1
  Sn2+  Sn64  1  0.83240546  0.83099127  0.00904555  1
  Bi3+  Bi65  1  0.66755805  0.50672388  0.49965732  1
  Bi3+  Bi66  1  0.50212236  -0.00431186  0.16150449  1
  Bi3+  Bi67  1  -0.00249307  0.50001352  0.83532594  1
  Bi3+  Bi68  1  0.33766153  0.16731069  0.83144798  1
  Bi3+  Bi69  1  0.83078312  0.50096234  0.67062042  1
  Bi3+  Bi70  1  -0.00629873  0.16722659  0.49850515  1
  Bi3+  Bi71  1  0.66505113  0.16963109  0.16817035  1
  Bi3+  Bi72  1  0.17054314  0.33390312  0.49541693  1
  Bi3+  Bi73  1  0.16588913  -0.00455306  0.16472688  1
  Bi3+  Bi74  1  0.33464224  0.49989311  0.49606029  1
  Bi3+  Bi75  1  -0.00051274  0.66600748  0.66870412  1
  Bi3+  Bi76  1  0.16642112  0.83101295  -0.00170130  1
  Bi3+  Bi77  1  0.33059615  0.66354988  0.67106154  1
  Bi3+  Bi78  1  0.83384520  -0.00427629  0.16763091  1
  Bi3+  Bi79  1  0.17400413  0.33339805  0.83311327  1
  Bi3+  Bi80  1  0.33614710  0.16916702  0.16659966  1
  Bi3+  Bi81  1  -0.00080375  0.33032711  0.34059463  1
  Bi3+  Bi82  1  0.82486845  0.16594307  0.33852198  1
  Bi3+  Bi83  1  0.50277126  0.49867971  0.67102145  1
  Bi3+  Bi84  1  0.82872493  -0.00181401  0.49857310  1
  Bi3+  Bi85  1  -0.00354834  0.50175662  0.16625128  1
  Te2-  Te86  1  0.17410754  0.16047889  0.16967729  1
  Te2-  Te87  1  0.16899659  0.16714877  0.50135785  1
  Te2-  Te88  1  0.17567915  0.16615830  0.83370431  1
  Te2-  Te89  1  0.16632509  0.50190662  0.16489674  1
  Te2-  Te90  1  0.17102788  0.49940120  0.49467649  1
  Te2-  Te91  1  0.16709549  0.49841339  0.84144247  1
  Te2-  Te92  1  0.15700428  0.83426834  0.16039511  1
  Te2-  Te93  1  0.16605862  0.83683876  0.49833026  1
  Te2-  Te94  1  0.17647751  0.83692434  0.83428740  1
  Te2-  Te95  1  0.50150824  0.16119512  0.16263524  1
  Te2-  Te96  1  0.50729306  0.15379191  0.49563395  1
  Te2-  Te97  1  0.50162373  0.17421971  0.83941332  1
  Te2-  Te98  1  0.50776958  0.50550422  0.16562069  1
  Te2-  Te99  1  0.50028342  0.50061660  0.50546549  1
  Te2-  Te100  1  0.50191825  0.50657287  0.83165371  1
  Te2-  Te101  1  0.50280982  0.83395113  0.16456283  1
  Te2-  Te102  1  0.51391857  0.84419856  0.50639679  1
  Te2-  Te103  1  0.49856873  0.83177707  0.83124098  1
  Te2-  Te104  1  0.82667648  0.16726679  0.17284296  1
  Te2-  Te105  1  0.82458641  0.16419842  0.50071602  1
  Te2-  Te106  1  0.82789516  0.17773675  0.82830429  1
  Te2-  Te107  1  0.82922675  0.49737472  0.16107273  1
  Te2-  Te108  1  0.82934476  0.50749300  0.50708654  1
  Te2-  Te109  1  0.83553758  0.48206375  0.83492914  1
  Te2-  Te110  1  0.84438895  0.83441074  0.17025441  1
  Te2-  Te111  1  0.82394115  0.83326589  0.49996896  1
  Te2-  Te112  1  0.82475786  0.83615070  0.83599439  1
  Te2-  Te113  1  0.14761331  -0.00367885  0.00322025  1
  Te2-  Te114  1  0.17124596  -0.01522121  0.33017876  1
  Te2-  Te115  1  0.17256466  -0.00243482  0.66200481  1
  Te2-  Te116  1  0.18322629  0.34324227  -0.00187882  1
  Te2-  Te117  1  0.16726772  0.33040300  0.33422656  1
  Te2-  Te118  1  0.16577917  0.34932849  0.66441969  1
  Te2-  Te119  1  0.16398501  0.66550053  -0.00538752  1
  Te2-  Te120  1  0.16948669  0.67876537  0.33194080  1
  Te2-  Te121  1  0.16638247  0.65379642  0.67362816  1
  Te2-  Te122  1  0.50260708  -0.00224231  -0.00053178  1
  Te2-  Te123  1  0.49945096  -0.01074476  0.32581207  1
  Te2-  Te124  1  0.50341220  0.01046121  0.67447344  1
  Te2-  Te125  1  0.49242288  0.33449126  -0.01094129  1
  Te2-  Te126  1  0.49706369  0.33681672  0.33520448  1
  Te2-  Te127  1  0.51386858  0.33392092  0.68042059  1
  Te2-  Te128  1  0.51266141  0.66977924  -0.01390247  1
  Te2-  Te129  1  0.50907936  0.67567033  0.33672804  1
  Te2-  Te130  1  0.49212011  0.66483040  0.67608269  1
  Te2-  Te131  1  0.84424773  0.00024987  0.00439333  1
  Te2-  Te132  1  0.83366031  0.00003348  0.33356210  1
  Te2-  Te133  1  0.82929444  0.00018862  0.66221887  1
  Te2-  Te134  1  0.82879085  0.34421379  0.00388601  1
  Te2-  Te135  1  0.83586657  0.32679933  0.34072141  1
  Te2-  Te136  1  0.81983168  0.33793606  0.66837541  1
  Te2-  Te137  1  0.82044109  0.65981091  -0.00868367  1
  Te2-  Te138  1  0.82240442  0.67354880  0.33032853  1
  Te2-  Te139  1  0.83800733  0.66565687  0.68776582  1
  Te2-  Te140  1  -0.00036242  0.18826452  0.00229808  1
  Te2-  Te141  1  -0.00464655  0.16569226  0.33815591  1
  Te2-  Te142  1  -0.00040146  0.17161363  0.66209595  1
  Te2-  Te143  1  0.00082514  0.48494375  0.00169960  1
  Te2-  Te144  1  -0.01684648  0.49641817  0.33114826  1
  Te2-  Te145  1  -0.00472797  0.50235035  0.66968780  1
  Te2-  Te146  1  0.00016054  0.82587665  -0.01433375  1
  Te2-  Te147  1  -0.01123712  0.83099007  0.34301761  1
  Te2-  Te148  1  0.00233258  0.82934047  0.67606279  1
  Te2-  Te149  1  0.33904636  0.16268861  -0.00049160  1
  Te2-  Te150  1  0.34807052  0.16604636  0.33153830  1
  Te2-  Te151  1  0.34415638  0.17394859  0.66572603  1
  Te2-  Te152  1  0.33754784  0.51723469  0.00062474  1
  Te2-  Te153  1  0.33479057  0.50450578  0.33269903  1
  Te2-  Te154  1  0.33996061  0.49672704  0.66190087  1
  Te2-  Te155  1  0.33188846  0.82671599  -0.00062361  1
  Te2-  Te156  1  0.34702736  0.82787627  0.34155107  1
  Te2-  Te157  1  0.33260377  0.82724186  0.65602303  1
  Te2-  Te158  1  0.66153077  0.16640060  0.00295161  1
  Te2-  Te159  1  0.65771976  0.16925634  0.33329529  1
  Te2-  Te160  1  0.65967126  0.17141715  0.66175380  1
  Te2-  Te161  1  0.66693105  0.51624216  0.00168584  1
  Te2-  Te162  1  0.67954358  0.51002097  0.33755184  1
  Te2-  Te163  1  0.66560806  0.50037970  0.66510373  1
  Te2-  Te164  1  0.67273338  0.82318096  0.00083652  1
  Te2-  Te165  1  0.66691655  0.82660985  0.32860015  1
  Te2-  Te166  1  0.66736582  0.83027383  0.67366986  1
  Te2-  Te167  1  -0.00255255  -0.00070687  0.16184749  1
  Te2-  Te168  1  -0.00513357  0.00334011  0.49667559  1
  Te2-  Te169  1  -0.00082354  -0.00201307  0.83470304  1
  Te2-  Te170  1  0.00120806  0.33758475  0.17615814  1
  Te2-  Te171  1  0.00543637  0.33016103  0.50399056  1
  Te2-  Te172  1  0.01287504  0.33834489  0.83169770  1
  Te2-  Te173  1  -0.00547981  0.66103818  0.16559687  1
  Te2-  Te174  1  -0.00815445  0.67209865  0.50534608  1
  Te2-  Te175  1  0.00444093  0.66283439  0.83190787  1
  Te2-  Te176  1  0.33573425  0.00216932  0.15965157  1
  Te2-  Te177  1  0.33906781  -0.00449168  0.49738439  1
  Te2-  Te178  1  0.34533277  0.00488156  0.83930255  1
  Te2-  Te179  1  0.33307186  0.33116421  0.16142386  1
  Te2-  Te180  1  0.33359453  0.33384838  0.50115233  1
  Te2-  Te181  1  0.33483333  0.33241978  0.83322493  1
  Te2-  Te182  1  0.34915856  0.66668767  0.16133060  1
  Te2-  Te183  1  0.33455191  0.66597940  0.50376181  1
  Te2-  Te184  1  0.32470682  0.66582238  0.83282569  1
  Te2-  Te185  1  0.66808838  -0.00044173  0.16820707  1
  Te2-  Te186  1  0.66670263  -0.01668393  0.49579102  1
  Te2-  Te187  1  0.65711142  -0.00691060  0.83337873  1
  Te2-  Te188  1  0.66740561  0.33378436  0.15398721  1
  Te2-  Te189  1  0.66677662  0.33966760  0.49571360  1
  Te2-  Te190  1  0.66746603  0.33427126  0.85099960  1
  Te2-  Te191  1  0.66191722  0.66114655  0.16664580  1
  Te2-  Te192  1  0.67334420  0.67376168  0.51124884  1
  Te2-  Te193  1  0.67053470  0.67276857  0.82004557  1
  Pb2+  Pb194  1  0.17229771  0.15897659  0.33513677  1
  Pb2+  Pb195  1  0.16457356  0.17118537  0.00183699  1
  Pb2+  Pb196  1  0.83526414  0.17208083  -0.00135425  1
  Pb2+  Pb197  1  0.33118831  0.83333946  0.16906888  1
  Pb2+  Pb198  1  0.50054476  0.32694522  0.51145836  1
  Pb2+  Pb199  1  0.17194773  0.66919387  0.16385141  1
  Pb2+  Pb200  1  0.82617786  0.00447403  0.83207068  1
  Pb2+  Pb201  1  0.16092060  0.49905127  0.32959538  1
  Pb2+  Pb202  1  0.17077524  0.17644015  0.66873941  1
  Pb2+  Pb203  1  -0.00027030  0.16330812  0.16703320  1
  Pb2+  Pb204  1  -0.00167362  0.49930129  0.50129784  1
  Pb2+  Pb205  1  0.33958330  -0.00213395  0.67002297  1
  Pb2+  Pb206  1  -0.00223505  0.66380443  0.33257090  1
  Pb2+  Pb207  1  -0.01019528  0.65824406  -0.00009046  1
  Pb2+  Pb208  1  0.16508914  0.66733167  0.50157416  1
  Pb2+  Pb209  1  0.50384951  0.67566076  0.50666110  1
  Pb2+  Pb210  1  0.50875517  0.50629892  0.33400206  1
  Pb2+  Pb211  1  0.00218872  0.17013033  0.83790134  1
  Pb2+  Pb212  1  0.50006293  0.33561003  0.16096931  1
  Pb2+  Pb213  1  0.67259051  -0.00621258  0.00014830  1
  Pb2+  Pb214  1  0.67047917  0.34224673  0.32341282  1
  Pb2+  Pb215  1  0.00206122  0.00026542  0.66334555  1
