# generated using pymatgen
data_In22Ag21Sn22Bi21(Te54Pb11)2
_symmetry_space_group_name_H-M   'P 1'
_cell_length_a   19.13265753
_cell_length_b   19.13967084
_cell_length_c   19.15639745
_cell_angle_alpha   90.00513823
_cell_angle_beta   90.01747807
_cell_angle_gamma   90.02093824
_symmetry_Int_Tables_number   1
_chemical_formula_structural   In22Ag21Sn22Bi21(Te54Pb11)2
_chemical_formula_sum   'In22 Ag21 Sn22 Bi21 Te108 Pb22'
_cell_volume   7014.93337448
_cell_formula_units_Z   1
loop_
 _symmetry_equiv_pos_site_id
 _symmetry_equiv_pos_as_xyz
  1  'x, y, z'
loop_
 _atom_type_symbol
 _atom_type_oxidation_number
  In3+  3.0
  Ag+  1.0
  Sn2+  2.0
  Bi3+  3.0
  Te2-  -2.0
  Pb2+  2.0
loop_
 _atom_site_type_symbol
 _atom_site_label
 _atom_site_symmetry_multiplicity
 _atom_site_fract_x
 _atom_site_fract_y
 _atom_site_fract_z
 _atom_site_occupancy
  In3+  In0  1  0.65597887  0.82037708  0.17312672  1
  In3+  In1  1  0.00368233  0.16356854  0.50654046  1
  In3+  In2  1  0.50580521  -0.00133585  0.51132178  1
  In3+  In3  1  0.32440608  0.00266946  -0.00139884  1
  In3+  In4  1  0.01525705  -0.01536702  -0.02676876  1
  In3+  In5  1  0.01661429  0.31446623  -0.00050148  1
  In3+  In6  1  0.83612677  0.83585093  0.33020085  1
  In3+  In7  1  0.83053576  0.50747811  0.32525252  1
  In3+  In8  1  0.82728164  0.33266428  0.51109783  1
  In3+  In9  1  0.30718245  0.83423309  0.16609101  1
  In3+  In10  1  0.83885100  -0.01223423  0.15101186  1
  In3+  In11  1  0.67563773  0.67363575  -0.02693452  1
  In3+  In12  1  0.15554800  0.68329915  0.49515001  1
  In3+  In13  1  0.81865715  0.50364769  0.67018328  1
  In3+  In14  1  0.83389265  0.65699914  0.49632790  1
  In3+  In15  1  0.32918497  0.00364732  0.65572689  1
  In3+  In16  1  0.63796187  0.33085390  0.66712398  1
  In3+  In17  1  0.33174236  0.31191341  -0.00364908  1
  In3+  In18  1  -0.00568776  0.66969172  0.69061948  1
  In3+  In19  1  0.50603494  0.83314904  -0.00894355  1
  In3+  In20  1  0.66940152  0.83101725  0.81803901  1
  In3+  In21  1  0.15745973  0.15518547  0.34408260  1
  Ag+  Ag22  1  0.19207386  0.01198079  0.83018781  1
  Ag+  Ag23  1  0.69308442  0.30605248  -0.00248545  1
  Ag+  Ag24  1  0.52155113  0.52508281  0.67296135  1
  Ag+  Ag25  1  -0.02184864  0.66896706  -0.00315334  1
  Ag+  Ag26  1  0.65964682  0.52296987  0.14005378  1
  Ag+  Ag27  1  0.68712997  0.13723242  0.47378707  1
  Ag+  Ag28  1  -0.00291359  0.85522385  0.14235388  1
  Ag+  Ag29  1  0.14547520  0.16073725  -0.02067484  1
  Ag+  Ag30  1  0.13626076  0.32744204  0.51979115  1
  Ag+  Ag31  1  0.49877447  0.81634158  0.64681993  1
  Ag+  Ag32  1  0.01363212  0.83808484  0.84397246  1
  Ag+  Ag33  1  0.16011129  0.84664325  0.30988027  1
  Ag+  Ag34  1  -0.02242377  0.02413006  0.67640887  1
  Ag+  Ag35  1  0.84921850  -0.02319509  0.85400956  1
  Ag+  Ag36  1  0.69532143  0.69199607  0.66790452  1
  Ag+  Ag37  1  0.68860743  0.66647993  0.31666127  1
  Ag+  Ag38  1  0.17459565  0.30509815  0.80652874  1
  Ag+  Ag39  1  0.32558437  0.30718427  0.69772237  1
  Ag+  Ag40  1  0.16036473  0.19614473  0.68967399  1
  Ag+  Ag41  1  0.83863825  0.68499573  0.83446877  1
  Ag+  Ag42  1  0.49937944  0.18947620  -0.02169327  1
  Sn2+  Sn43  1  0.51091562  -0.00229535  0.16201281  1
  Sn2+  Sn44  1  0.66505130  0.16928099  0.16542202  1
  Sn2+  Sn45  1  0.33017198  0.50347815  0.82847271  1
  Sn2+  Sn46  1  0.00704795  0.49569921  0.50366050  1
  Sn2+  Sn47  1  0.82145328  0.16743889  -0.00036212  1
  Sn2+  Sn48  1  0.50660780  -0.00081517  0.83759568  1
  Sn2+  Sn49  1  0.32902382  0.16405398  0.16506845  1
  Sn2+  Sn50  1  0.50872745  0.50557687  0.34388376  1
  Sn2+  Sn51  1  0.66269473  0.49714668  0.83687266  1
  Sn2+  Sn52  1  0.83355564  0.83604446  -0.00258179  1
  Sn2+  Sn53  1  0.00225502  0.67196847  0.32575333  1
  Sn2+  Sn54  1  0.15616860  0.67117735  0.83383584  1
  Sn2+  Sn55  1  0.16678038  0.01053232  0.51904114  1
  Sn2+  Sn56  1  0.50095562  0.66638236  0.16662780  1
  Sn2+  Sn57  1  0.33246058  0.49344817  0.50755230  1
  Sn2+  Sn58  1  0.66541438  -0.00474678  -0.00156985  1
  Sn2+  Sn59  1  0.16525478  0.83195482  -0.00624571  1
  Sn2+  Sn60  1  0.67209160  0.34705390  0.32424025  1
  Sn2+  Sn61  1  0.66741496  0.82650411  0.49738956  1
  Sn2+  Sn62  1  0.15919869  0.66465844  0.16393575  1
  Sn2+  Sn63  1  0.01070590  0.33784100  0.67347948  1
  Sn2+  Sn64  1  0.32992140  -0.00311732  0.32726044  1
  Bi3+  Bi65  1  0.50199723  0.33214040  0.50200938  1
  Bi3+  Bi66  1  0.16761050  0.32984409  0.16902816  1
  Bi3+  Bi67  1  0.83937129  0.33121655  0.83340271  1
  Bi3+  Bi68  1  0.33476833  0.33217361  0.32987090  1
  Bi3+  Bi69  1  0.83688418  0.17137763  0.66763118  1
  Bi3+  Bi70  1  -0.00267568  0.50454606  0.16510004  1
  Bi3+  Bi71  1  -0.00362538  0.15895375  0.83121254  1
  Bi3+  Bi72  1  0.82951239  0.33291979  0.16498478  1
  Bi3+  Bi73  1  -0.00234759  0.82965001  0.50238887  1
  Bi3+  Bi74  1  0.66971855  0.49974437  0.50356380  1
  Bi3+  Bi75  1  0.66682351  0.16517255  0.83485672  1
  Bi3+  Bi76  1  0.33157785  0.66644840  0.33597101  1
  Bi3+  Bi77  1  0.32923183  0.66852738  0.66627704  1
  Bi3+  Bi78  1  0.83646189  -0.00133899  0.50314428  1
  Bi3+  Bi79  1  0.33459440  0.67148910  0.00266841  1
  Bi3+  Bi80  1  0.33428311  0.16737121  0.49739450  1
  Bi3+  Bi81  1  0.16694164  0.50296857  0.66594451  1
  Bi3+  Bi82  1  0.49929890  0.16716070  0.33514481  1
  Bi3+  Bi83  1  0.17238016  0.83239589  0.66789429  1
  Bi3+  Bi84  1  0.50468943  0.33126992  0.16742791  1
  Bi3+  Bi85  1  0.49584847  0.16734015  0.66529101  1
  Te2-  Te86  1  0.16823151  0.16695363  0.17611687  1
  Te2-  Te87  1  0.16789087  0.17629579  0.49693731  1
  Te2-  Te88  1  0.15842965  0.15883501  0.83216066  1
  Te2-  Te89  1  0.16432115  0.49569251  0.16794479  1
  Te2-  Te90  1  0.16402560  0.47799014  0.50267981  1
  Te2-  Te91  1  0.16438667  0.50796319  0.83224824  1
  Te2-  Te92  1  0.15186803  0.83405397  0.16271743  1
  Te2-  Te93  1  0.16350964  0.84178715  0.50616101  1
  Te2-  Te94  1  0.16169259  0.83108500  0.83069129  1
  Te2-  Te95  1  0.49859362  0.16693925  0.17388740  1
  Te2-  Te96  1  0.50207063  0.16559432  0.50158201  1
  Te2-  Te97  1  0.50139572  0.16593822  0.83029340  1
  Te2-  Te98  1  0.51469635  0.49553616  0.17119584  1
  Te2-  Te99  1  0.50386621  0.49465932  0.51343340  1
  Te2-  Te100  1  0.50062837  0.49857957  0.82219442  1
  Te2-  Te101  1  0.50579049  0.83586410  0.17032465  1
  Te2-  Te102  1  0.50124127  0.84077274  0.50229309  1
  Te2-  Te103  1  0.51004258  0.83619433  0.83873359  1
  Te2-  Te104  1  0.83285901  0.17191945  0.16535350  1
  Te2-  Te105  1  0.82805208  0.16770501  0.50593252  1
  Te2-  Te106  1  0.83244932  0.16730271  0.83021589  1
  Te2-  Te107  1  0.82653226  0.49805110  0.17055227  1
  Te2-  Te108  1  0.83514877  0.49722135  0.50915461  1
  Te2-  Te109  1  0.83139565  0.49287466  0.82548190  1
  Te2-  Te110  1  0.84747640  0.83653934  0.17507026  1
  Te2-  Te111  1  0.83414000  0.83318798  0.49788986  1
  Te2-  Te112  1  0.82021202  0.83480875  0.83185003  1
  Te2-  Te113  1  0.16624266  0.00712988  -0.01084772  1
  Te2-  Te114  1  0.16966588  -0.00305328  0.33613164  1
  Te2-  Te115  1  0.17787192  -0.00755301  0.67843704  1
  Te2-  Te116  1  0.17349251  0.31303602  0.00860891  1
  Te2-  Te117  1  0.17217674  0.33019722  0.32930377  1
  Te2-  Te118  1  0.17509999  0.33973818  0.66506750  1
  Te2-  Te119  1  0.17351514  0.67019783  0.00083666  1
  Te2-  Te120  1  0.16971412  0.67011911  0.33491279  1
  Te2-  Te121  1  0.16411333  0.66769203  0.66105434  1
  Te2-  Te122  1  0.49843317  -0.01375218  0.00458296  1
  Te2-  Te123  1  0.49699435  0.00329444  0.33290876  1
  Te2-  Te124  1  0.49260961  0.00587419  0.66633573  1
  Te2-  Te125  1  0.48821420  0.33505467  0.00448466  1
  Te2-  Te126  1  0.50310435  0.33511642  0.33338697  1
  Te2-  Te127  1  0.47783492  0.32746989  0.66531005  1
  Te2-  Te128  1  0.50023564  0.67508476  0.00330438  1
  Te2-  Te129  1  0.49393164  0.66579298  0.33568910  1
  Te2-  Te130  1  0.49087434  0.66912872  0.66697384  1
  Te2-  Te131  1  0.83615312  0.00186681  -0.00235785  1
  Te2-  Te132  1  0.83233304  -0.00493564  0.34175893  1
  Te2-  Te133  1  0.83204724  0.00586306  0.66359139  1
  Te2-  Te134  1  0.83782451  0.33227784  -0.00101048  1
  Te2-  Te135  1  0.83007556  0.33747222  0.33078515  1
  Te2-  Te136  1  0.84168731  0.33321515  0.66908951  1
  Te2-  Te137  1  0.82885609  0.67251906  -0.01135616  1
  Te2-  Te138  1  0.83409376  0.67113322  0.33866698  1
  Te2-  Te139  1  0.83954686  0.65917165  0.67652459  1
  Te2-  Te140  1  -0.00259263  0.15740912  -0.00435836  1
  Te2-  Te141  1  0.00131541  0.16624435  0.34107552  1
  Te2-  Te142  1  0.00903026  0.16856043  0.66563739  1
  Te2-  Te143  1  0.00040375  0.51822507  0.00355256  1
  Te2-  Te144  1  -0.00799465  0.50403671  0.33113136  1
  Te2-  Te145  1  0.00334109  0.50487539  0.66480296  1
  Te2-  Te146  1  -0.00069048  0.83497191  -0.00461326  1
  Te2-  Te147  1  0.01134426  0.82835171  0.34222529  1
  Te2-  Te148  1  0.00335733  0.82145426  0.66333260  1
  Te2-  Te149  1  0.35091570  0.15743078  0.00344134  1
  Te2-  Te150  1  0.33485375  0.16671833  0.33366027  1
  Te2-  Te151  1  0.32643322  0.16186427  0.66156120  1
  Te2-  Te152  1  0.33220863  0.50947759  0.00039645  1
  Te2-  Te153  1  0.33752003  0.49986274  0.33525375  1
  Te2-  Te154  1  0.32823427  0.50712130  0.66765530  1
  Te2-  Te155  1  0.33482659  0.83403294  0.00932317  1
  Te2-  Te156  1  0.31929517  0.83071908  0.32708519  1
  Te2-  Te157  1  0.34269492  0.83448106  0.66866627  1
  Te2-  Te158  1  0.65253396  0.16320335  -0.00360406  1
  Te2-  Te159  1  0.66178764  0.17077400  0.33414161  1
  Te2-  Te160  1  0.66588310  0.17516913  0.67178566  1
  Te2-  Te161  1  0.66673158  0.51817351  -0.00596176  1
  Te2-  Te162  1  0.67453249  0.51374740  0.34284923  1
  Te2-  Te163  1  0.66447921  0.48738213  0.66864533  1
  Te2-  Te164  1  0.66622973  0.82645844  0.01504424  1
  Te2-  Te165  1  0.67124183  0.82010417  0.32905617  1
  Te2-  Te166  1  0.65452598  0.83553919  0.66661160  1
  Te2-  Te167  1  -0.00893418  -0.00058566  0.17156811  1
  Te2-  Te168  1  -0.00057863  0.00225301  0.51502449  1
  Te2-  Te169  1  -0.00671980  -0.00815769  0.82528167  1
  Te2-  Te170  1  -0.00231933  0.33897753  0.16107505  1
  Te2-  Te171  1  -0.01058434  0.32456331  0.50208048  1
  Te2-  Te172  1  0.00551285  0.32904482  0.84074693  1
  Te2-  Te173  1  -0.00011228  0.66375160  0.15720457  1
  Te2-  Te174  1  -0.00729925  0.66486671  0.49530280  1
  Te2-  Te175  1  -0.00795040  0.68097707  0.84285639  1
  Te2-  Te176  1  0.33363524  -0.00751565  0.16228592  1
  Te2-  Te177  1  0.33490516  0.00357773  0.49806383  1
  Te2-  Te178  1  0.33852997  -0.00127540  0.84626948  1
  Te2-  Te179  1  0.33612973  0.33489894  0.16553667  1
  Te2-  Te180  1  0.34041207  0.32985164  0.49136536  1
  Te2-  Te181  1  0.31951851  0.33431188  0.84279772  1
  Te2-  Te182  1  0.33205302  0.67419848  0.16947976  1
  Te2-  Te183  1  0.32939135  0.66235069  0.49960042  1
  Te2-  Te184  1  0.33121381  0.66699488  0.83570929  1
  Te2-  Te185  1  0.68224102  0.00156984  0.16365671  1
  Te2-  Te186  1  0.66640335  -0.00498700  0.49848541  1
  Te2-  Te187  1  0.66897282  -0.00077090  0.83793542  1
  Te2-  Te188  1  0.66763937  0.33048190  0.15327325  1
  Te2-  Te189  1  0.66849041  0.33821893  0.50092350  1
  Te2-  Te190  1  0.67366727  0.32978593  0.84747440  1
  Te2-  Te191  1  0.66543908  0.66680543  0.17091810  1
  Te2-  Te192  1  0.67936979  0.66483622  0.51897948  1
  Te2-  Te193  1  0.67554411  0.67075505  0.82058906  1
  Pb2+  Pb194  1  0.83485820  0.49994981  -0.00143262  1
  Pb2+  Pb195  1  0.49850232  0.33361708  0.83368432  1
  Pb2+  Pb196  1  0.00125741  0.16513962  0.16410944  1
  Pb2+  Pb197  1  0.33163453  0.83331207  0.83708198  1
  Pb2+  Pb198  1  0.16478151  0.49189412  -0.00039851  1
  Pb2+  Pb199  1  0.66447976  0.00412564  0.66955072  1
  Pb2+  Pb200  1  0.00180312  -0.00666202  0.34185731  1
  Pb2+  Pb201  1  0.00355474  0.33655082  0.33416827  1
  Pb2+  Pb202  1  0.50710785  0.66439683  0.50282706  1
  Pb2+  Pb203  1  0.82937809  0.16700348  0.33361702  1
  Pb2+  Pb204  1  0.33093431  0.83128825  0.50087960  1
  Pb2+  Pb205  1  0.50339205  0.66658234  0.83161066  1
  Pb2+  Pb206  1  0.83496910  0.83344465  0.66702172  1
  Pb2+  Pb207  1  0.49958002  0.50104431  -0.00253598  1
  Pb2+  Pb208  1  0.66403801  -0.00723412  0.32720007  1
  Pb2+  Pb209  1  -0.00156692  0.50447429  0.83476485  1
  Pb2+  Pb210  1  0.49285116  0.83450892  0.33470864  1
  Pb2+  Pb211  1  0.34338851  0.50407608  0.16708314  1
  Pb2+  Pb212  1  0.83266230  0.67032525  0.16266002  1
  Pb2+  Pb213  1  0.16353468  0.00068588  0.16062820  1
  Pb2+  Pb214  1  0.32840825  0.16619841  0.83252495  1
  Pb2+  Pb215  1  0.16471471  0.50449921  0.33880767  1
