# generated using pymatgen
data_In22Ag21Sn22Bi21(Te54Pb11)2
_symmetry_space_group_name_H-M   'P 1'
_cell_length_a   19.11839698
_cell_length_b   19.13514051
_cell_length_c   19.11649602
_cell_angle_alpha   90.02182935
_cell_angle_beta   89.99845377
_cell_angle_gamma   90.01453647
_symmetry_Int_Tables_number   1
_chemical_formula_structural   In22Ag21Sn22Bi21(Te54Pb11)2
_chemical_formula_sum   'In22 Ag21 Sn22 Bi21 Te108 Pb22'
_cell_volume   6993.44841911
_cell_formula_units_Z   1
loop_
 _symmetry_equiv_pos_site_id
 _symmetry_equiv_pos_as_xyz
  1  'x, y, z'
loop_
 _atom_type_symbol
 _atom_type_oxidation_number
  In3+  3.0
  Ag+  1.0
  Sn2+  2.0
  Bi3+  3.0
  Te2-  -2.0
  Pb2+  2.0
loop_
 _atom_site_type_symbol
 _atom_site_label
 _atom_site_symmetry_multiplicity
 _atom_site_fract_x
 _atom_site_fract_y
 _atom_site_fract_z
 _atom_site_occupancy
  In3+  In0  1  0.66553939  0.66621536  0.66363521  1
  In3+  In1  1  0.32730218  0.83939551  0.82711310  1
  In3+  In2  1  0.49935087  0.32832626  0.19295681  1
  In3+  In3  1  0.33716754  0.32346469  0.66440898  1
  In3+  In4  1  0.34426378  0.67015469  0.34962557  1
  In3+  In5  1  0.16719204  0.02278658  0.83103844  1
  In3+  In6  1  0.50180289  -0.00879639  0.83995556  1
  In3+  In7  1  0.19269068  0.49623099  0.34921155  1
  In3+  In8  1  0.18086619  0.00474666  0.49895110  1
  In3+  In9  1  0.83044885  0.32916123  0.13651377  1
  In3+  In10  1  0.19593364  0.49526041  0.67403112  1
  In3+  In11  1  0.33673369  0.33478529  -0.01165945  1
  In3+  In12  1  0.67225926  0.32677301  -0.00003252  1
  In3+  In13  1  0.84277210  0.15286760  -0.00446404  1
  In3+  In14  1  0.33223872  0.01493497  0.66319288  1
  In3+  In15  1  0.49844658  0.17247102  -0.01189830  1
  In3+  In16  1  0.02876298  0.86598587  0.50391120  1
  In3+  In17  1  0.49338605  0.83383472  -0.01426153  1
  In3+  In18  1  0.82839544  0.16638540  0.34812299  1
  In3+  In19  1  0.34537481  0.66859712  0.67159719  1
  In3+  In20  1  0.49545527  0.65623614  0.82899371  1
  In3+  In21  1  0.65245232  0.66462071  0.34118727  1
  Ag+  Ag22  1  0.49740206  0.48426166  0.35431502  1
  Ag+  Ag23  1  0.32740248  0.68793734  -0.02607499  1
  Ag+  Ag24  1  0.19389634  0.30475024  0.51857324  1
  Ag+  Ag25  1  0.18737368  0.33208324  0.85197635  1
  Ag+  Ag26  1  0.33790428  0.84993925  0.52298017  1
  Ag+  Ag27  1  0.50113068  0.65041883  0.52857997  1
  Ag+  Ag28  1  0.68601200  0.83824257  0.81058821  1
  Ag+  Ag29  1  0.33450834  0.02907021  -0.02523478  1
  Ag+  Ag30  1  0.65948366  0.02546707  0.30626197  1
  Ag+  Ag31  1  0.49901481  0.14889159  0.64839714  1
  Ag+  Ag32  1  0.33497554  0.48158996  0.82896089  1
  Ag+  Ag33  1  0.48129645  0.30593539  0.50526948  1
  Ag+  Ag34  1  0.49853431  0.48124585  0.64899699  1
  Ag+  Ag35  1  0.80525728  0.86303868  0.33577933  1
  Ag+  Ag36  1  0.02764712  0.33564532  0.67456659  1
  Ag+  Ag37  1  0.66374984  0.14831335  0.14498616  1
  Ag+  Ag38  1  0.86200510  0.47882541  -0.01736734  1
  Ag+  Ag39  1  0.86609823  -0.02367580  0.83413160  1
  Ag+  Ag40  1  0.31579179  0.19850229  0.49602560  1
  Ag+  Ag41  1  0.85594163  0.31298014  0.83053681  1
  Ag+  Ag42  1  0.02154924  0.17240744  0.52293154  1
  Sn2+  Sn43  1  0.66186379  0.50758828  0.83436619  1
  Sn2+  Sn44  1  0.49760630  0.84131844  0.66151761  1
  Sn2+  Sn45  1  0.82574927  0.49496163  0.68126467  1
  Sn2+  Sn46  1  0.33497124  0.16359046  0.82734351  1
  Sn2+  Sn47  1  0.17672156  0.83807464  -0.00190436  1
  Sn2+  Sn48  1  -0.00058139  0.48363305  0.50513480  1
  Sn2+  Sn49  1  -0.00748057  0.64705383  0.66190017  1
  Sn2+  Sn50  1  0.33304276  0.50060204  0.15629734  1
  Sn2+  Sn51  1  0.00006185  0.67007344  -0.00447195  1
  Sn2+  Sn52  1  -0.01087710  0.17252315  0.17376253  1
  Sn2+  Sn53  1  0.65943718  -0.00153367  -0.00827101  1
  Sn2+  Sn54  1  0.33030171  0.32913192  0.33752638  1
  Sn2+  Sn55  1  0.50142082  0.16673443  0.33836939  1
  Sn2+  Sn56  1  0.82584044  0.17140177  0.66958168  1
  Sn2+  Sn57  1  0.66670042  0.00106157  0.66812822  1
  Sn2+  Sn58  1  0.65826664  0.83333138  0.50004380  1
  Sn2+  Sn59  1  -0.00946244  0.17584701  0.82370000  1
  Sn2+  Sn60  1  0.50044304  0.83250681  0.33756605  1
  Sn2+  Sn61  1  0.17499060  0.66576187  0.16133667  1
  Sn2+  Sn62  1  0.00513485  0.49603648  0.82571552  1
  Sn2+  Sn63  1  0.83203292  0.67679857  0.49275399  1
  Sn2+  Sn64  1  0.00198008  0.33296090  -0.01926820  1
  Bi3+  Bi65  1  0.16706730  0.66215347  0.49854554  1
  Bi3+  Bi66  1  0.49830007  0.66012233  0.16165591  1
  Bi3+  Bi67  1  0.83287463  0.66286223  0.16781557  1
  Bi3+  Bi68  1  -0.00319992  0.33398323  0.33895587  1
  Bi3+  Bi69  1  0.16930154  0.50222795  -0.00507964  1
  Bi3+  Bi70  1  0.66379358  0.50147658  0.50262046  1
  Bi3+  Bi71  1  0.49814432  0.49920904  -0.00139188  1
  Bi3+  Bi72  1  0.82886767  0.00019067  0.50762111  1
  Bi3+  Bi73  1  0.66011948  0.33853977  0.67281722  1
  Bi3+  Bi74  1  0.66461572  0.16954387  0.50449756  1
  Bi3+  Bi75  1  0.66463768  0.50024679  0.16497977  1
  Bi3+  Bi76  1  0.83000592  0.33807848  0.51136890  1
  Bi3+  Bi77  1  0.16656059  0.82712508  0.33392002  1
  Bi3+  Bi78  1  0.33873866  0.50670085  0.50506835  1
  Bi3+  Bi79  1  0.65690830  0.66568030  -0.00245879  1
  Bi3+  Bi80  1  0.82537701  0.66686709  0.83482744  1
  Bi3+  Bi81  1  0.00095106  0.66272504  0.33881877  1
  Bi3+  Bi82  1  0.49752586  0.33728756  0.82955562  1
  Bi3+  Bi83  1  0.17012995  -0.00050519  0.16592949  1
  Bi3+  Bi84  1  0.66472507  0.83432962  0.16948320  1
  Bi3+  Bi85  1  0.50425853  -0.00360497  0.50066721  1
  Te2-  Te86  1  0.16635466  0.16276879  0.16823980  1
  Te2-  Te87  1  0.16850901  0.16147554  0.50075404  1
  Te2-  Te88  1  0.16737273  0.17687233  0.83419031  1
  Te2-  Te89  1  0.16888739  0.50072642  0.15962780  1
  Te2-  Te90  1  0.17153816  0.50132467  0.50332662  1
  Te2-  Te91  1  0.17790021  0.48791677  0.82926601  1
  Te2-  Te92  1  0.16577527  0.83574734  0.16818798  1
  Te2-  Te93  1  0.18300727  0.82442256  0.49729246  1
  Te2-  Te94  1  0.17247826  0.82786704  0.83499010  1
  Te2-  Te95  1  0.51450753  0.17634827  0.17422847  1
  Te2-  Te96  1  0.50244379  0.16080707  0.50010522  1
  Te2-  Te97  1  0.49319595  0.17082747  0.83414128  1
  Te2-  Te98  1  0.50103394  0.49282819  0.16134783  1
  Te2-  Te99  1  0.50176408  0.50620317  0.50034946  1
  Te2-  Te100  1  0.49005704  0.50286990  0.83608443  1
  Te2-  Te101  1  0.50309416  0.82825897  0.16866196  1
  Te2-  Te102  1  0.48973364  0.83607098  0.49608620  1
  Te2-  Te103  1  0.48703694  0.83972850  0.83325922  1
  Te2-  Te104  1  0.81717641  0.17441495  0.14816388  1
  Te2-  Te105  1  0.82728591  0.16803066  0.50710535  1
  Te2-  Te106  1  0.83154411  0.16788415  0.84013478  1
  Te2-  Te107  1  0.82712891  0.49688136  0.15972071  1
  Te2-  Te108  1  0.82565628  0.50215717  0.50600005  1
  Te2-  Te109  1  0.82908256  0.50838802  0.84066848  1
  Te2-  Te110  1  0.82819945  0.83238655  0.18029650  1
  Te2-  Te111  1  0.82472715  0.83824478  0.48717430  1
  Te2-  Te112  1  0.83243720  0.83205955  0.83350578  1
  Te2-  Te113  1  0.18272712  -0.00102599  -0.00058544  1
  Te2-  Te114  1  0.16601645  -0.00651864  0.33478404  1
  Te2-  Te115  1  0.17536738  -0.00120945  0.67045191  1
  Te2-  Te116  1  0.17133445  0.33743197  -0.00055925  1
  Te2-  Te117  1  0.16150147  0.34236229  0.33616551  1
  Te2-  Te118  1  0.17548714  0.34366885  0.65938556  1
  Te2-  Te119  1  0.17696375  0.66574540  0.00029921  1
  Te2-  Te120  1  0.16568041  0.65869643  0.33290660  1
  Te2-  Te121  1  0.16019016  0.65220923  0.66075727  1
  Te2-  Te122  1  0.48687669  0.00654202  -0.00655915  1
  Te2-  Te123  1  0.51221907  0.00066651  0.33587318  1
  Te2-  Te124  1  0.49271919  0.00266796  0.67191281  1
  Te2-  Te125  1  0.49483042  0.33322973  -0.00450957  1
  Te2-  Te126  1  0.49623082  0.33513680  0.34734748  1
  Te2-  Te127  1  0.49405609  0.33393460  0.66369308  1
  Te2-  Te128  1  0.48821742  0.66550412  -0.00156338  1
  Te2-  Te129  1  0.49832377  0.66496452  0.32361283  1
  Te2-  Te130  1  0.50417692  0.67357148  0.67395204  1
  Te2-  Te131  1  0.83394640  0.00072594  -0.01538686  1
  Te2-  Te132  1  0.82259085  0.00968721  0.33706859  1
  Te2-  Te133  1  0.83141468  0.00305617  0.67917857  1
  Te2-  Te134  1  0.82999064  0.33617097  -0.01682400  1
  Te2-  Te135  1  0.83348073  0.32687557  0.34342290  1
  Te2-  Te136  1  0.82215867  0.33397677  0.67858051  1
  Te2-  Te137  1  0.82762988  0.66782555  0.00247098  1
  Te2-  Te138  1  0.83804271  0.66234326  0.33045659  1
  Te2-  Te139  1  0.82321368  0.66495362  0.66744546  1
  Te2-  Te140  1  -0.00453111  0.17315343  0.00083810  1
  Te2-  Te141  1  -0.00926000  0.16935278  0.33030030  1
  Te2-  Te142  1  -0.00263105  0.18118929  0.66832503  1
  Te2-  Te143  1  0.00634537  0.50113183  -0.00453019  1
  Te2-  Te144  1  -0.00423611  0.49808513  0.33712538  1
  Te2-  Te145  1  -0.00673753  0.48785577  0.66619479  1
  Te2-  Te146  1  0.00108499  0.83012975  0.00081802  1
  Te2-  Te147  1  0.00479097  0.82706786  0.34586875  1
  Te2-  Te148  1  -0.00093547  0.83351845  0.65653033  1
  Te2-  Te149  1  0.34073443  0.17536761  0.00262556  1
  Te2-  Te150  1  0.33353884  0.16903110  0.34755362  1
  Te2-  Te151  1  0.34293006  0.16766598  0.65461535  1
  Te2-  Te152  1  0.33343681  0.49047433  -0.01301339  1
  Te2-  Te153  1  0.34378573  0.50284798  0.33457860  1
  Te2-  Te154  1  0.34858671  0.51238985  0.67414736  1
  Te2-  Te155  1  0.33959647  0.83258007  -0.00458944  1
  Te2-  Te156  1  0.32972582  0.82451819  0.33366613  1
  Te2-  Te157  1  0.33271450  0.82526592  0.66956997  1
  Te2-  Te158  1  0.65555215  0.16800362  -0.00134722  1
  Te2-  Te159  1  0.67040814  0.16805212  0.34063293  1
  Te2-  Te160  1  0.65301254  0.17062257  0.66776195  1
  Te2-  Te161  1  0.66103701  0.50299509  -0.00042359  1
  Te2-  Te162  1  0.65363535  0.50330534  0.33303113  1
  Te2-  Te163  1  0.65130419  0.50533069  0.66855887  1
  Te2-  Te164  1  0.65187957  0.83087922  0.00482957  1
  Te2-  Te165  1  0.66397652  0.82226484  0.33289919  1
  Te2-  Te166  1  0.66245534  0.83030919  0.66517554  1
  Te2-  Te167  1  0.00288644  0.00281757  0.16604290  1
  Te2-  Te168  1  -0.01133578  0.02010802  0.50110891  1
  Te2-  Te169  1  0.01241888  0.00377461  0.83291185  1
  Te2-  Te170  1  -0.00953606  0.32970883  0.16744079  1
  Te2-  Te171  1  -0.00935141  0.32322154  0.50068102  1
  Te2-  Te172  1  0.00158736  0.33660807  0.82250000  1
  Te2-  Te173  1  -0.00205665  0.66448610  0.16751896  1
  Te2-  Te174  1  0.00032469  0.65816130  0.50120885  1
  Te2-  Te175  1  -0.00734853  0.66399401  0.83060509  1
  Te2-  Te176  1  0.33244522  0.00190552  0.17330265  1
  Te2-  Te177  1  0.33912883  -0.00259037  0.50764994  1
  Te2-  Te178  1  0.32792863  -0.00176783  0.83009861  1
  Te2-  Te179  1  0.34032301  0.33454260  0.17446930  1
  Te2-  Te180  1  0.33757355  0.34463956  0.50627035  1
  Te2-  Te181  1  0.33307990  0.33133395  0.82271468  1
  Te2-  Te182  1  0.33646396  0.66043042  0.17226296  1
  Te2-  Te183  1  0.33926306  0.66579141  0.50549561  1
  Te2-  Te184  1  0.33775719  0.67461368  0.82749165  1
  Te2-  Te185  1  0.66775084  -0.00086318  0.16098710  1
  Te2-  Te186  1  0.66705892  0.00206783  0.50626935  1
  Te2-  Te187  1  0.65548884  -0.01403485  0.83449026  1
  Te2-  Te188  1  0.66915470  0.33920188  0.15805583  1
  Te2-  Te189  1  0.66529362  0.33656478  0.50766930  1
  Te2-  Te190  1  0.65822705  0.33765181  0.83627197  1
  Te2-  Te191  1  0.66694856  0.66610617  0.16352147  1
  Te2-  Te192  1  0.65440776  0.66510981  0.50258283  1
  Te2-  Te193  1  0.66002522  0.68148927  0.83688771  1
  Pb2+  Pb194  1  0.82387726  0.83416178  0.00441858  1
  Pb2+  Pb195  1  0.16594487  0.82514388  0.66594866  1
  Pb2+  Pb196  1  0.82647902  0.49589700  0.33127761  1
  Pb2+  Pb197  1  0.16905777  0.17293904  0.66800162  1
  Pb2+  Pb198  1  0.00858969  0.00056913  -0.00114282  1
  Pb2+  Pb199  1  0.16744536  0.16810162  0.00105753  1
  Pb2+  Pb200  1  0.34126959  -0.00332049  0.33900927  1
  Pb2+  Pb201  1  0.83028959  0.83408148  0.65672047  1
  Pb2+  Pb202  1  -0.00335090  0.82987803  0.17376013  1
  Pb2+  Pb203  1  0.00138117  0.00644517  0.66603602  1
  Pb2+  Pb204  1  -0.00644923  -0.00378893  0.33591003  1
  Pb2+  Pb205  1  0.16731235  0.65745055  0.83035887  1
  Pb2+  Pb206  1  0.34401008  0.16861783  0.17484536  1
  Pb2+  Pb207  1  0.83368746  0.00755519  0.16483612  1
  Pb2+  Pb208  1  0.66499386  0.16082091  0.83351902  1
  Pb2+  Pb209  1  0.33553158  0.82892578  0.16525892  1
  Pb2+  Pb210  1  0.49985810  0.00161856  0.16288874  1
  Pb2+  Pb211  1  -0.00224508  0.49735271  0.16742857  1
  Pb2+  Pb212  1  0.16313542  0.16975502  0.33473157  1
  Pb2+  Pb213  1  0.00175379  0.83070913  0.83014172  1
  Pb2+  Pb214  1  0.66463871  0.33366821  0.33150903  1
  Pb2+  Pb215  1  0.16768952  0.33324819  0.16862467  1
