# generated using pymatgen
data_In22Ag21Sn22Bi21(Te54Pb11)2
_symmetry_space_group_name_H-M   'P 1'
_cell_length_a   19.14642528
_cell_length_b   19.14122090
_cell_length_c   19.14956720
_cell_angle_alpha   89.99386537
_cell_angle_beta   90.01736404
_cell_angle_gamma   89.99933898
_symmetry_Int_Tables_number   1
_chemical_formula_structural   In22Ag21Sn22Bi21(Te54Pb11)2
_chemical_formula_sum   'In22 Ag21 Sn22 Bi21 Te108 Pb22'
_cell_volume   7018.04707369
_cell_formula_units_Z   1
loop_
 _symmetry_equiv_pos_site_id
 _symmetry_equiv_pos_as_xyz
  1  'x, y, z'
loop_
 _atom_type_symbol
 _atom_type_oxidation_number
  In3+  3.0
  Ag+  1.0
  Sn2+  2.0
  Bi3+  3.0
  Te2-  -2.0
  Pb2+  2.0
loop_
 _atom_site_type_symbol
 _atom_site_label
 _atom_site_symmetry_multiplicity
 _atom_site_fract_x
 _atom_site_fract_y
 _atom_site_fract_z
 _atom_site_occupancy
  In3+  In0  1  0.00361007  0.34693054  0.67524518  1
  In3+  In1  1  0.83432431  0.63875885  0.83260520  1
  In3+  In2  1  0.49941110  0.18572419  0.01186794  1
  In3+  In3  1  0.16618480  0.50702028  0.30721432  1
  In3+  In4  1  0.67883665  0.33169690  0.66477059  1
  In3+  In5  1  0.67249659  0.16954755  0.17685806  1
  In3+  In6  1  0.18275286  0.82882466  0.65370824  1
  In3+  In7  1  0.15743707  0.17068538  0.32288378  1
  In3+  In8  1  0.50292978  -0.02307468  0.17455405  1
  In3+  In9  1  0.32647962  0.49884216  0.83411802  1
  In3+  In10  1  -0.00833455  0.18331609  0.15921772  1
  In3+  In11  1  0.00622868  0.33695050  0.01824799  1
  In3+  In12  1  0.50850275  0.67939819  0.83501651  1
  In3+  In13  1  0.82832315  0.50087980  0.65492029  1
  In3+  In14  1  0.16640230  0.65967364  0.83949065  1
  In3+  In15  1  0.32597425  0.67125607  0.00331238  1
  In3+  In16  1  0.00066373  -0.00992964  0.01537818  1
  In3+  In17  1  0.66773501  0.15619161  0.49522436  1
  In3+  In18  1  0.83264695  0.36511123  0.16954812  1
  In3+  In19  1  -0.00620122  0.16620578  0.83268214  1
  In3+  In20  1  0.47817590  0.50583729  -0.00190809  1
  In3+  In21  1  0.48727646  0.83678823  0.00415530  1
  Ag+  Ag22  1  0.02981708  0.51959219  0.17339764  1
  Ag+  Ag23  1  0.52168196  0.65137800  0.46909741  1
  Ag+  Ag24  1  0.35372537  0.35570156  0.00189684  1
  Ag+  Ag25  1  0.48610921  0.80816478  0.35987370  1
  Ag+  Ag26  1  0.48309134  0.33776779  0.18522602  1
  Ag+  Ag27  1  0.79690031  0.82652349  0.34744219  1
  Ag+  Ag28  1  0.85743473  0.33162306  0.86479330  1
  Ag+  Ag29  1  0.36131264  0.80387078  0.45938507  1
  Ag+  Ag30  1  0.18363935  0.81201420  0.00082035  1
  Ag+  Ag31  1  0.16330185  0.69683500  0.19478729  1
  Ag+  Ag32  1  0.66734532  -0.01531958  0.31359195  1
  Ag+  Ag33  1  0.63900681  0.52771435  0.48101062  1
  Ag+  Ag34  1  0.80999029  0.66957226  0.18828804  1
  Ag+  Ag35  1  0.67980787  0.69402719  0.31130475  1
  Ag+  Ag36  1  0.18954205  0.51887974  0.64746209  1
  Ag+  Ag37  1  0.65304701  0.80681496  0.19100478  1
  Ag+  Ag38  1  0.30612980  0.81032845  0.17216932  1
  Ag+  Ag39  1  0.18947482  0.34404222  0.14347344  1
  Ag+  Ag40  1  0.17446409  0.51120735  0.00197124  1
  Ag+  Ag41  1  0.80871209  0.65887406  0.48320374  1
  Ag+  Ag42  1  0.66891904  -0.02750502  0.63495033  1
  Sn2+  Sn43  1  0.66696858  0.34335217  0.33837028  1
  Sn2+  Sn44  1  0.33198730  -0.00061607  0.00409871  1
  Sn2+  Sn45  1  0.50751692  0.34339047  0.49638372  1
  Sn2+  Sn46  1  0.66221914  0.82552491  0.48724789  1
  Sn2+  Sn47  1  -0.01965859  0.66862066  0.32120444  1
  Sn2+  Sn48  1  0.66465090  0.49705064  0.17294209  1
  Sn2+  Sn49  1  0.82802876  -0.02455785  0.49321950  1
  Sn2+  Sn50  1  0.33038647  0.50137929  0.16381840  1
  Sn2+  Sn51  1  0.67194670  0.66709217  0.00711985  1
  Sn2+  Sn52  1  0.67510256  0.84329187  0.83903544  1
  Sn2+  Sn53  1  0.66872093  -0.00774845  0.01300440  1
  Sn2+  Sn54  1  0.00579943  0.83586104  0.83028783  1
  Sn2+  Sn55  1  -0.00272390  0.16723702  0.49674719  1
  Sn2+  Sn56  1  0.50515978  0.83199393  0.66086324  1
  Sn2+  Sn57  1  -0.00810739  -0.00210553  0.66799957  1
  Sn2+  Sn58  1  0.00193490  0.50143359  0.49669175  1
  Sn2+  Sn59  1  -0.00719100  0.83118354  0.49682584  1
  Sn2+  Sn60  1  0.50615022  0.49783666  0.67079717  1
  Sn2+  Sn61  1  0.83049624  -0.02276067  0.17071902  1
  Sn2+  Sn62  1  0.16570172  0.33802399  0.84122505  1
  Sn2+  Sn63  1  0.33616342  0.17322609  0.16530234  1
  Sn2+  Sn64  1  0.00104675  0.66575495  0.65480094  1
  Bi3+  Bi65  1  0.66552547  0.17047429  0.83433996  1
  Bi3+  Bi66  1  -0.00191891  0.33525028  0.33633094  1
  Bi3+  Bi67  1  0.00113596  0.50007787  0.83893680  1
  Bi3+  Bi68  1  0.83481160  0.83224269  0.00130281  1
  Bi3+  Bi69  1  0.83342719  0.83039399  0.66709151  1
  Bi3+  Bi70  1  0.50085584  0.16653186  0.66891165  1
  Bi3+  Bi71  1  0.66882296  0.66608881  0.67095257  1
  Bi3+  Bi72  1  0.49925956  0.33463049  0.82884049  1
  Bi3+  Bi73  1  0.33768511  0.16821066  0.49931118  1
  Bi3+  Bi74  1  0.16491386  -0.00250096  0.83395940  1
  Bi3+  Bi75  1  0.83705955  0.50282879  -0.00003412  1
  Bi3+  Bi76  1  0.16504413  0.33388576  0.50200703  1
  Bi3+  Bi77  1  0.49639541  0.65946293  0.15960249  1
  Bi3+  Bi78  1  0.83150668  0.33931156  0.49671670  1
  Bi3+  Bi79  1  -0.00650863  -0.00508682  0.33467080  1
  Bi3+  Bi80  1  0.50339880  -0.00157588  0.83515573  1
  Bi3+  Bi81  1  0.00349315  0.66342146  -0.00083917  1
  Bi3+  Bi82  1  0.16621645  0.16565130  0.00420012  1
  Bi3+  Bi83  1  0.50068367  0.17066309  0.32919868  1
  Bi3+  Bi84  1  0.16558328  0.66416445  0.50271091  1
  Bi3+  Bi85  1  -0.00286132  0.82721340  0.16489091  1
  Te2-  Te86  1  0.16170144  0.17535380  0.16724471  1
  Te2-  Te87  1  0.16988110  0.17093832  0.49994630  1
  Te2-  Te88  1  0.16107651  0.16433255  0.83679764  1
  Te2-  Te89  1  0.17201639  0.48945138  0.15699623  1
  Te2-  Te90  1  0.16209331  0.49670829  0.50502016  1
  Te2-  Te91  1  0.16485242  0.50126701  0.84690055  1
  Te2-  Te92  1  0.16294418  0.83889833  0.15532047  1
  Te2-  Te93  1  0.16323976  0.82975775  0.50263793  1
  Te2-  Te94  1  0.16305362  0.83564990  0.85004063  1
  Te2-  Te95  1  0.50760366  0.18678165  0.16497857  1
  Te2-  Te96  1  0.50269668  0.17076036  0.50212374  1
  Te2-  Te97  1  0.49938767  0.16598854  0.83354424  1
  Te2-  Te98  1  0.49978830  0.49194328  0.15348294  1
  Te2-  Te99  1  0.49660063  0.50801834  0.50333020  1
  Te2-  Te100  1  0.49424495  0.49821858  0.83902502  1
  Te2-  Te101  1  0.50977883  0.82600992  0.15524133  1
  Te2-  Te102  1  0.49709862  0.82778811  0.50614457  1
  Te2-  Te103  1  0.50211089  0.83465106  0.83800488  1
  Te2-  Te104  1  0.83138076  0.15062412  0.16732050  1
  Te2-  Te105  1  0.82662777  0.17264201  0.49838955  1
  Te2-  Te106  1  0.83403780  0.18350768  0.83482056  1
  Te2-  Te107  1  0.83245756  0.51890132  0.16396648  1
  Te2-  Te108  1  0.83812489  0.50753900  0.50190190  1
  Te2-  Te109  1  0.83711049  0.48125393  0.83634735  1
  Te2-  Te110  1  0.83471588  0.81849906  0.16146569  1
  Te2-  Te111  1  0.83312860  0.81467742  0.50249671  1
  Te2-  Te112  1  0.83737944  0.83798888  0.83232488  1
  Te2-  Te113  1  0.16223838  0.00461472  -0.00331866  1
  Te2-  Te114  1  0.16092030  0.00615795  0.33294927  1
  Te2-  Te115  1  0.16430586  -0.00844862  0.67254184  1
  Te2-  Te116  1  0.15745365  0.32573299  0.00109291  1
  Te2-  Te117  1  0.15921457  0.32970906  0.33780078  1
  Te2-  Te118  1  0.15936847  0.33991958  0.66727078  1
  Te2-  Te119  1  0.16876678  0.66281908  -0.00502721  1
  Te2-  Te120  1  0.16698075  0.65917109  0.33648888  1
  Te2-  Te121  1  0.16380667  0.66269668  0.67157070  1
  Te2-  Te122  1  0.50012072  -0.00890990  -0.00273568  1
  Te2-  Te123  1  0.51403400  0.01023604  0.32405614  1
  Te2-  Te124  1  0.51743736  0.00180696  0.66999451  1
  Te2-  Te125  1  0.50137967  0.33836946  -0.00865985  1
  Te2-  Te126  1  0.50072754  0.33376662  0.33187957  1
  Te2-  Te127  1  0.49856809  0.33238025  0.66584242  1
  Te2-  Te128  1  0.49937999  0.66481374  -0.00477837  1
  Te2-  Te129  1  0.50814774  0.66637084  0.32286926  1
  Te2-  Te130  1  0.50384999  0.66443802  0.68072473  1
  Te2-  Te131  1  0.83943390  -0.00305719  0.00034826  1
  Te2-  Te132  1  0.82820368  -0.02013740  0.33289904  1
  Te2-  Te133  1  0.82094095  -0.00561679  0.66019648  1
  Te2-  Te134  1  0.83993887  0.33671211  0.01282768  1
  Te2-  Te135  1  0.83597145  0.33067507  0.33146376  1
  Te2-  Te136  1  0.83871242  0.33981595  0.65815103  1
  Te2-  Te137  1  0.84159057  0.66651980  -0.00861908  1
  Te2-  Te138  1  0.82547662  0.67904374  0.33734471  1
  Te2-  Te139  1  0.83329916  0.66486164  0.67646864  1
  Te2-  Te140  1  0.00063578  0.17489231  -0.00189758  1
  Te2-  Te141  1  -0.00114473  0.16313616  0.32969114  1
  Te2-  Te142  1  -0.00337145  0.16296387  0.66814983  1
  Te2-  Te143  1  0.00077488  0.49582889  0.00229635  1
  Te2-  Te144  1  0.00768240  0.49922871  0.32168965  1
  Te2-  Te145  1  -0.00909186  0.50079856  0.67424152  1
  Te2-  Te146  1  -0.00209788  0.82959246  -0.00093793  1
  Te2-  Te147  1  0.00171508  0.83383909  0.33053846  1
  Te2-  Te148  1  -0.00486528  0.83436979  0.66491641  1
  Te2-  Te149  1  0.33499273  0.16478076  0.00544116  1
  Te2-  Te150  1  0.33585418  0.16645142  0.33580169  1
  Te2-  Te151  1  0.33497290  0.16660097  0.66519339  1
  Te2-  Te152  1  0.32386838  0.50049419  -0.00256192  1
  Te2-  Te153  1  0.32849627  0.49826532  0.33031116  1
  Te2-  Te154  1  0.33169161  0.50008069  0.67820805  1
  Te2-  Te155  1  0.33158986  0.82928472  0.01214259  1
  Te2-  Te156  1  0.34166069  0.83609362  0.31861828  1
  Te2-  Te157  1  0.33323356  0.83355336  0.67166822  1
  Te2-  Te158  1  0.65755641  0.16588161  -0.00299878  1
  Te2-  Te159  1  0.66277400  0.17470082  0.33547946  1
  Te2-  Te160  1  0.66229512  0.17426448  0.66810895  1
  Te2-  Te161  1  0.67533665  0.50388789  0.00167670  1
  Te2-  Te162  1  0.67028056  0.49892770  0.33886028  1
  Te2-  Te163  1  0.67156303  0.50007131  0.66474575  1
  Te2-  Te164  1  0.67368544  0.83113194  0.00004402  1
  Te2-  Te165  1  0.65126645  0.83834348  0.33391773  1
  Te2-  Te166  1  0.67028419  0.82961588  0.67025213  1
  Te2-  Te167  1  -0.00067361  -0.00649506  0.17237255  1
  Te2-  Te168  1  -0.00504652  0.00385766  0.49766408  1
  Te2-  Te169  1  0.00084393  0.00835483  0.83204834  1
  Te2-  Te170  1  -0.00843666  0.33803641  0.17415258  1
  Te2-  Te171  1  -0.00216917  0.33179868  0.50020454  1
  Te2-  Te172  1  0.00061865  0.33334964  0.82795968  1
  Te2-  Te173  1  0.01942811  0.66608823  0.16207130  1
  Te2-  Te174  1  0.00478756  0.66420525  0.49405900  1
  Te2-  Te175  1  0.00380658  0.66331930  0.83350211  1
  Te2-  Te176  1  0.35027542  0.00789350  0.16207881  1
  Te2-  Te177  1  0.33449611  0.00499770  0.50004554  1
  Te2-  Te178  1  0.33549644  0.00016158  0.83658092  1
  Te2-  Te179  1  0.33706647  0.33182396  0.15292574  1
  Te2-  Te180  1  0.33156978  0.33108377  0.49971350  1
  Te2-  Te181  1  0.33448365  0.34029973  0.84733666  1
  Te2-  Te182  1  0.33139950  0.66504369  0.15803202  1
  Te2-  Te183  1  0.32681885  0.66842211  0.50238067  1
  Te2-  Te184  1  0.33093814  0.65905814  0.84446484  1
  Te2-  Te185  1  0.66005022  0.01139016  0.16855221  1
  Te2-  Te186  1  0.67025860  0.00336872  0.49291398  1
  Te2-  Te187  1  0.66479940  0.00761402  0.84065361  1
  Te2-  Te188  1  0.68096437  0.32932651  0.16897675  1
  Te2-  Te189  1  0.67101710  0.33742570  0.50778073  1
  Te2-  Te190  1  0.66246292  0.33272765  0.82497841  1
  Te2-  Te191  1  0.66088644  0.66065309  0.16713920  1
  Te2-  Te192  1  0.66277742  0.66887058  0.51103584  1
  Te2-  Te193  1  0.66545465  0.67087955  0.83637690  1
  Pb2+  Pb194  1  0.34368205  -0.00184537  0.66647933  1
  Pb2+  Pb195  1  0.82815884  0.16651174  0.00278652  1
  Pb2+  Pb196  1  0.32931267  0.82884227  0.84238306  1
  Pb2+  Pb197  1  0.83675579  0.50736023  0.33364723  1
  Pb2+  Pb198  1  0.16522712  -0.00151538  0.50244093  1
  Pb2+  Pb199  1  0.33497585  0.66760858  0.66937070  1
  Pb2+  Pb200  1  0.50290759  -0.00562214  0.49442621  1
  Pb2+  Pb201  1  0.16091994  0.16970913  0.66849183  1
  Pb2+  Pb202  1  0.82987322  0.15346655  0.33223202  1
  Pb2+  Pb203  1  0.83029259  0.16724395  0.66564503  1
  Pb2+  Pb204  1  0.33868530  0.66814247  0.33307531  1
  Pb2+  Pb205  1  0.66906969  0.33646317  0.00068106  1
  Pb2+  Pb206  1  0.32892495  0.33481467  0.67348459  1
  Pb2+  Pb207  1  0.32947635  0.17042793  0.84139492  1
  Pb2+  Pb208  1  0.83162127  0.00657069  0.82862267  1
  Pb2+  Pb209  1  0.32621241  0.33232556  0.32060696  1
  Pb2+  Pb210  1  0.50297767  0.50253021  0.32724231  1
  Pb2+  Pb211  1  0.66367511  0.50221989  0.83318386  1
  Pb2+  Pb212  1  0.17363006  0.00565091  0.16531933  1
  Pb2+  Pb213  1  0.16900333  0.83110180  0.32815077  1
  Pb2+  Pb214  1  0.34014045  -0.00098105  0.33151229  1
  Pb2+  Pb215  1  0.33092519  0.50118106  0.50054652  1
