# generated using pymatgen
data_In22Ag21Sn22Bi21(Te54Pb11)2
_symmetry_space_group_name_H-M   'P 1'
_cell_length_a   19.09664567
_cell_length_b   19.11078169
_cell_length_c   19.12651403
_cell_angle_alpha   90.00662279
_cell_angle_beta   90.00635781
_cell_angle_gamma   90.01470735
_symmetry_Int_Tables_number   1
_chemical_formula_structural   In22Ag21Sn22Bi21(Te54Pb11)2
_chemical_formula_sum   'In22 Ag21 Sn22 Bi21 Te108 Pb22'
_cell_volume   6980.25590938
_cell_formula_units_Z   1
loop_
 _symmetry_equiv_pos_site_id
 _symmetry_equiv_pos_as_xyz
  1  'x, y, z'
loop_
 _atom_type_symbol
 _atom_type_oxidation_number
  In3+  3.0
  Ag+  1.0
  Sn2+  2.0
  Bi3+  3.0
  Te2-  -2.0
  Pb2+  2.0
loop_
 _atom_site_type_symbol
 _atom_site_label
 _atom_site_symmetry_multiplicity
 _atom_site_fract_x
 _atom_site_fract_y
 _atom_site_fract_z
 _atom_site_occupancy
  In3+  In0  1  -0.00357653  0.85048979  0.49317744  1
  In3+  In1  1  -0.01768225  0.66275910  0.34912066  1
  In3+  In2  1  0.32385883  0.66182205  0.66906830  1
  In3+  In3  1  0.83048618  0.16979623  0.65192201  1
  In3+  In4  1  0.82961260  0.00837748  0.50559984  1
  In3+  In5  1  0.83314441  0.00657822  0.82910660  1
  In3+  In6  1  0.15904633  0.16159691  -0.02100062  1
  In3+  In7  1  0.83338640  0.34011430  0.49941584  1
  In3+  In8  1  0.52315382  0.48024468  0.33101199  1
  In3+  In9  1  0.84009092  0.34337779  0.17100234  1
  In3+  In10  1  0.35398864  0.16488914  0.83080612  1
  In3+  In11  1  0.15521980  0.66125973  0.16464464  1
  In3+  In12  1  0.49096189  0.33059187  0.50707700  1
  In3+  In13  1  0.67820963  0.32465582  0.34236183  1
  In3+  In14  1  0.34320141  0.83680946  0.49770214  1
  In3+  In15  1  0.17183958  0.65369649  0.82479382  1
  In3+  In16  1  0.83908600  0.80952838  -0.00559894  1
  In3+  In17  1  0.16561162  0.85306201  0.66284053  1
  In3+  In18  1  0.83345541  0.50848719  0.65519339  1
  In3+  In19  1  -0.00569242  0.34919351  -0.00939494  1
  In3+  In20  1  -0.01207293  0.00869388  -0.00123154  1
  In3+  In21  1  0.83491228  0.65685060  0.84434825  1
  Ag+  Ag22  1  -0.00268077  0.17047342  0.48110213  1
  Ag+  Ag23  1  0.47234236  -0.01118258  0.86259559  1
  Ag+  Ag24  1  -0.00031013  0.52160287  0.83606353  1
  Ag+  Ag25  1  0.83109997  0.65850476  0.49830761  1
  Ag+  Ag26  1  0.47343128  0.16256927  0.33770438  1
  Ag+  Ag27  1  0.36338174  0.02565580  0.33615070  1
  Ag+  Ag28  1  0.36418436  0.51412393  0.81411883  1
  Ag+  Ag29  1  0.14059116  0.00082919  0.50041613  1
  Ag+  Ag30  1  0.83631051  0.15156207  0.34864373  1
  Ag+  Ag31  1  0.83778662  0.49582382  -0.01701331  1
  Ag+  Ag32  1  0.67140668  -0.02190106  0.65723196  1
  Ag+  Ag33  1  0.47878624  0.14050675  -0.03267318  1
  Ag+  Ag34  1  0.18826977  0.49433589  0.64446354  1
  Ag+  Ag35  1  -0.00548781  0.17922064  0.81321291  1
  Ag+  Ag36  1  -0.00123886  0.64901164  0.01989748  1
  Ag+  Ag37  1  0.46483272  0.52329238  -0.03069484  1
  Ag+  Ag38  1  0.66927536  0.33483720  0.64452947  1
  Ag+  Ag39  1  0.82311657  0.50029024  0.35197819  1
  Ag+  Ag40  1  -0.00971291  0.51634454  0.19008155  1
  Ag+  Ag41  1  0.64814424  0.49705477  0.52322885  1
  Ag+  Ag42  1  0.83463901  0.85228163  0.35763261  1
  Sn2+  Sn43  1  0.83292069  0.65842512  0.17968519  1
  Sn2+  Sn44  1  0.83667265  0.83218789  0.66700042  1
  Sn2+  Sn45  1  0.83393988  0.33466005  0.83032719  1
  Sn2+  Sn46  1  0.67013369  0.00428157  0.33577855  1
  Sn2+  Sn47  1  0.15565193  0.17663501  0.66693264  1
  Sn2+  Sn48  1  0.50206847  0.00775377  0.16630557  1
  Sn2+  Sn49  1  0.67945275  0.49912860  0.83726835  1
  Sn2+  Sn50  1  0.50002071  0.84412123  0.66911333  1
  Sn2+  Sn51  1  0.83036207  0.00136355  0.17446003  1
  Sn2+  Sn52  1  0.51022604  0.66371437  0.49990489  1
  Sn2+  Sn53  1  0.16317919  0.50551066  0.33769910  1
  Sn2+  Sn54  1  0.34396543  0.16144050  0.16365447  1
  Sn2+  Sn55  1  0.67340516  0.65843810  0.00018239  1
  Sn2+  Sn56  1  0.32602237  0.15692649  0.50248155  1
  Sn2+  Sn57  1  0.49241290  0.65797448  0.16456735  1
  Sn2+  Sn58  1  0.33532565  0.83532585  0.17596410  1
  Sn2+  Sn59  1  0.16130973  0.32178513  0.50465565  1
  Sn2+  Sn60  1  0.67436066  0.00208369  -0.01507741  1
  Sn2+  Sn61  1  0.83198634  0.17423497  0.00341952  1
  Sn2+  Sn62  1  -0.00154884  0.49382962  0.50799098  1
  Sn2+  Sn63  1  0.00296815  -0.00215713  0.32895106  1
  Sn2+  Sn64  1  0.32619621  0.49782206  0.16290896  1
  Bi3+  Bi65  1  0.50724366  0.00352656  0.50029316  1
  Bi3+  Bi66  1  0.66628342  0.66686287  0.33301157  1
  Bi3+  Bi67  1  0.00018844  0.83303167  0.83065232  1
  Bi3+  Bi68  1  -0.00732166  0.33369806  0.66727108  1
  Bi3+  Bi69  1  0.16220837  0.33464049  0.16836152  1
  Bi3+  Bi70  1  0.50310212  0.16759740  0.65822437  1
  Bi3+  Bi71  1  -0.00305533  0.82754175  0.16460236  1
  Bi3+  Bi72  1  0.15542492  0.49858947  0.00286088  1
  Bi3+  Bi73  1  0.66953658  0.33259359  0.00637649  1
  Bi3+  Bi74  1  0.15892022  0.16467227  0.33871661  1
  Bi3+  Bi75  1  0.67648904  0.50043083  0.16484117  1
  Bi3+  Bi76  1  0.67938367  0.16963014  0.83507533  1
  Bi3+  Bi77  1  0.33732938  0.33287560  0.00087323  1
  Bi3+  Bi78  1  0.33312191  0.66754069  0.33528366  1
  Bi3+  Bi79  1  0.50254442  0.33193765  0.16798137  1
  Bi3+  Bi80  1  0.67176729  0.83344180  0.16783619  1
  Bi3+  Bi81  1  0.00136138  0.16645106  0.16967847  1
  Bi3+  Bi82  1  0.16177064  0.83212095  -0.00100685  1
  Bi3+  Bi83  1  0.67156437  0.16651520  0.16779460  1
  Bi3+  Bi84  1  0.15570962  0.83524790  0.33426284  1
  Bi3+  Bi85  1  -0.00060260  0.66112638  0.66411474  1
  Te2-  Te86  1  0.16826725  0.17024100  0.17489148  1
  Te2-  Te87  1  0.15589466  0.16071875  0.50014348  1
  Te2-  Te88  1  0.14783022  0.16515465  0.82664877  1
  Te2-  Te89  1  0.15216104  0.49921678  0.16636465  1
  Te2-  Te90  1  0.16489512  0.49620141  0.49748752  1
  Te2-  Te91  1  0.15135449  0.50507695  0.84336416  1
  Te2-  Te92  1  0.16212769  0.83125300  0.16553562  1
  Te2-  Te93  1  0.15239495  0.84245762  0.49681015  1
  Te2-  Te94  1  0.16438025  0.82493619  0.83322358  1
  Te2-  Te95  1  0.50551635  0.16899316  0.18305887  1
  Te2-  Te96  1  0.49960573  0.17080252  0.49196116  1
  Te2-  Te97  1  0.50964892  0.15806342  0.82401725  1
  Te2-  Te98  1  0.50396370  0.49612883  0.17310503  1
  Te2-  Te99  1  0.50386971  0.49156096  0.48936864  1
  Te2-  Te100  1  0.50956451  0.50086994  0.83217588  1
  Te2-  Te101  1  0.50518334  0.83372284  0.16910129  1
  Te2-  Te102  1  0.50276713  0.83597180  0.50175493  1
  Te2-  Te103  1  0.49849441  0.84441270  0.83031979  1
  Te2-  Te104  1  0.83459422  0.17310466  0.16768888  1
  Te2-  Te105  1  0.84115318  0.16588661  0.49601551  1
  Te2-  Te106  1  0.84249290  0.16256505  0.84106763  1
  Te2-  Te107  1  0.84109506  0.49742439  0.16768079  1
  Te2-  Te108  1  0.83918754  0.49647582  0.50069016  1
  Te2-  Te109  1  0.83881467  0.50312682  0.83314337  1
  Te2-  Te110  1  0.83512131  0.82920945  0.15379435  1
  Te2-  Te111  1  0.84317493  0.83466588  0.50473247  1
  Te2-  Te112  1  0.83840867  0.83945954  0.83584318  1
  Te2-  Te113  1  0.16415148  -0.00194017  0.00140050  1
  Te2-  Te114  1  0.16131667  -0.00305841  0.34664423  1
  Te2-  Te115  1  0.16815967  0.00516204  0.65215125  1
  Te2-  Te116  1  0.16749133  0.32753572  0.00624932  1
  Te2-  Te117  1  0.16594536  0.33201331  0.33424339  1
  Te2-  Te118  1  0.15959029  0.34430706  0.66459781  1
  Te2-  Te119  1  0.15128340  0.66754171  0.00342793  1
  Te2-  Te120  1  0.16664794  0.67355924  0.32956249  1
  Te2-  Te121  1  0.16549564  0.64613483  0.66776336  1
  Te2-  Te122  1  0.50310094  0.00066196  0.00523944  1
  Te2-  Te123  1  0.50993674  0.00971005  0.33736808  1
  Te2-  Te124  1  0.51502187  0.00519894  0.66096930  1
  Te2-  Te125  1  0.50285163  0.33786973  0.00745133  1
  Te2-  Te126  1  0.50779912  0.32632343  0.33348909  1
  Te2-  Te127  1  0.51021116  0.33018030  0.66200124  1
  Te2-  Te128  1  0.49982956  0.66261575  0.00015897  1
  Te2-  Te129  1  0.49964879  0.66869295  0.33632241  1
  Te2-  Te130  1  0.49728390  0.67123770  0.66024242  1
  Te2-  Te131  1  0.83334338  0.00361423  0.00024905  1
  Te2-  Te132  1  0.83490643  -0.00095729  0.33814376  1
  Te2-  Te133  1  0.82413950  0.00283196  0.66479230  1
  Te2-  Te134  1  0.83484471  0.34191815  0.00440378  1
  Te2-  Te135  1  0.83226826  0.34670587  0.33676273  1
  Te2-  Te136  1  0.82917145  0.32670459  0.66242434  1
  Te2-  Te137  1  0.84510628  0.65639713  -0.00166829  1
  Te2-  Te138  1  0.83042018  0.65598339  0.34448870  1
  Te2-  Te139  1  0.83667299  0.66392229  0.65159088  1
  Te2-  Te140  1  0.00287502  0.16260706  0.00974734  1
  Te2-  Te141  1  -0.00817320  0.16645190  0.33108892  1
  Te2-  Te142  1  -0.01193267  0.16881326  0.66566231  1
  Te2-  Te143  1  -0.00616610  0.50001795  -0.01199873  1
  Te2-  Te144  1  0.00178576  0.50965941  0.33679084  1
  Te2-  Te145  1  -0.01196780  0.49572160  0.67550636  1
  Te2-  Te146  1  -0.00091160  0.83598302  -0.00075920  1
  Te2-  Te147  1  -0.01172039  0.82710120  0.32852041  1
  Te2-  Te148  1  0.00535438  0.82845696  0.66521257  1
  Te2-  Te149  1  0.33700099  0.16985532  -0.00524416  1
  Te2-  Te150  1  0.32392400  0.16767747  0.33668033  1
  Te2-  Te151  1  0.33585372  0.16661319  0.66900618  1
  Te2-  Te152  1  0.32452668  0.49661580  0.00284803  1
  Te2-  Te153  1  0.32941982  0.50578812  0.32838095  1
  Te2-  Te154  1  0.33525464  0.50502266  0.66908303  1
  Te2-  Te155  1  0.32800841  0.83348554  0.00196607  1
  Te2-  Te156  1  0.32663590  0.82955479  0.33649015  1
  Te2-  Te157  1  0.32594389  0.82590586  0.65969937  1
  Te2-  Te158  1  0.66342866  0.16872765  0.00426467  1
  Te2-  Te159  1  0.68644916  0.17013866  0.33093639  1
  Te2-  Te160  1  0.67330553  0.18260939  0.66942697  1
  Te2-  Te161  1  0.67893139  0.49818761  0.00443856  1
  Te2-  Te162  1  0.67519732  0.50265804  0.32606648  1
  Te2-  Te163  1  0.67854532  0.48833264  0.66784913  1
  Te2-  Te164  1  0.67632087  0.83041652  0.00456800  1
  Te2-  Te165  1  0.68289548  0.83144488  0.32968376  1
  Te2-  Te166  1  0.66936172  0.82994155  0.66517279  1
  Te2-  Te167  1  -0.00295138  -0.00368478  0.16355239  1
  Te2-  Te168  1  -0.01048801  0.00347969  0.50014312  1
  Te2-  Te169  1  -0.00643405  -0.00374335  0.83835124  1
  Te2-  Te170  1  -0.00055892  0.33068287  0.16061608  1
  Te2-  Te171  1  -0.00573356  0.32270442  0.50484464  1
  Te2-  Te172  1  -0.00510756  0.32580396  0.83688597  1
  Te2-  Te173  1  -0.00161551  0.66409925  0.16779264  1
  Te2-  Te174  1  -0.00817769  0.66382211  0.50167610  1
  Te2-  Te175  1  -0.01170356  0.67191106  0.82476850  1
  Te2-  Te176  1  0.33676263  -0.00015313  0.18258000  1
  Te2-  Te177  1  0.34492581  -0.00624002  0.48961485  1
  Te2-  Te178  1  0.33000353  0.00726179  0.83109864  1
  Te2-  Te179  1  0.33218016  0.33026906  0.16435721  1
  Te2-  Te180  1  0.33633345  0.33061123  0.50228531  1
  Te2-  Te181  1  0.33377932  0.32938335  0.83737623  1
  Te2-  Te182  1  0.33180742  0.66707758  0.17000114  1
  Te2-  Te183  1  0.33379389  0.67453189  0.49987998  1
  Te2-  Te184  1  0.33119374  0.65833947  0.82852029  1
  Te2-  Te185  1  0.66972598  0.00008044  0.16529350  1
  Te2-  Te186  1  0.67316666  0.00111027  0.50551654  1
  Te2-  Te187  1  0.67700149  0.00852572  0.82382947  1
  Te2-  Te188  1  0.67015995  0.33389941  0.17180314  1
  Te2-  Te189  1  0.67678732  0.34618963  0.49567285  1
  Te2-  Te190  1  0.67080568  0.33105309  0.84407314  1
  Te2-  Te191  1  0.66518151  0.66715100  0.16718780  1
  Te2-  Te192  1  0.67110355  0.65030570  0.49512678  1
  Te2-  Te193  1  0.67718501  0.66883322  0.83468426  1
  Pb2+  Pb194  1  0.50418965  0.83107653  0.00266048  1
  Pb2+  Pb195  1  0.16289785  -0.00256124  0.82864086  1
  Pb2+  Pb196  1  0.66930898  0.84043180  0.83299600  1
  Pb2+  Pb197  1  0.33169265  0.83212545  0.82956474  1
  Pb2+  Pb198  1  0.33093423  0.00213300  0.00983398  1
  Pb2+  Pb199  1  0.16573709  0.00271027  0.17481634  1
  Pb2+  Pb200  1  0.16199205  0.67094149  0.49931430  1
  Pb2+  Pb201  1  0.33385342  0.33323741  0.67062106  1
  Pb2+  Pb202  1  0.66896514  0.65885035  0.66409305  1
  Pb2+  Pb203  1  -0.00152421  0.34048666  0.33366438  1
  Pb2+  Pb204  1  0.33429237  0.50399827  0.49758302  1
  Pb2+  Pb205  1  0.50474518  0.66905876  0.83049593  1
  Pb2+  Pb206  1  0.32226514  0.66467751  0.00115748  1
  Pb2+  Pb207  1  0.66987800  0.17279162  0.50167639  1
  Pb2+  Pb208  1  0.50657683  0.50123585  0.66325027  1
  Pb2+  Pb209  1  0.67552175  0.82584413  0.49807810  1
  Pb2+  Pb210  1  -0.00479975  0.00084350  0.66883543  1
  Pb2+  Pb211  1  0.33876457  0.33702194  0.33306005  1
  Pb2+  Pb212  1  0.50412929  0.83842778  0.33413624  1
  Pb2+  Pb213  1  0.34371397  -0.00277234  0.65977435  1
  Pb2+  Pb214  1  0.16406530  0.33749705  0.83592098  1
  Pb2+  Pb215  1  0.50251465  0.32861431  0.84052526  1
