# generated using pymatgen
data_In22Ag21Sn22Bi21(Te54Pb11)2
_symmetry_space_group_name_H-M   'P 1'
_cell_length_a   19.14840342
_cell_length_b   19.16470545
_cell_length_c   19.15081465
_cell_angle_alpha   90.00690675
_cell_angle_beta   89.98683663
_cell_angle_gamma   90.00516682
_symmetry_Int_Tables_number   1
_chemical_formula_structural   In22Ag21Sn22Bi21(Te54Pb11)2
_chemical_formula_sum   'In22 Ag21 Sn22 Bi21 Te108 Pb22'
_cell_volume   7027.84143089
_cell_formula_units_Z   1
loop_
 _symmetry_equiv_pos_site_id
 _symmetry_equiv_pos_as_xyz
  1  'x, y, z'
loop_
 _atom_type_symbol
 _atom_type_oxidation_number
  In3+  3.0
  Ag+  1.0
  Sn2+  2.0
  Bi3+  3.0
  Te2-  -2.0
  Pb2+  2.0
loop_
 _atom_site_type_symbol
 _atom_site_label
 _atom_site_symmetry_multiplicity
 _atom_site_fract_x
 _atom_site_fract_y
 _atom_site_fract_z
 _atom_site_occupancy
  In3+  In0  1  0.50087498  0.34840648  0.50365756  1
  In3+  In1  1  0.68924732  0.81613829  0.83672783  1
  In3+  In2  1  -0.00273499  0.31987952  0.67992371  1
  In3+  In3  1  -0.01058852  -0.00861730  0.32691841  1
  In3+  In4  1  0.16869360  0.67622625  0.48877646  1
  In3+  In5  1  0.83138498  0.33093279  0.83563451  1
  In3+  In6  1  0.00495136  0.16761876  0.50019410  1
  In3+  In7  1  0.65613718  0.82683249  0.48563477  1
  In3+  In8  1  0.33533140  0.00953682  0.66418242  1
  In3+  In9  1  0.81190673  -0.00420774  0.17268572  1
  In3+  In10  1  0.68350202  0.16517231  0.83105499  1
  In3+  In11  1  -0.00214084  0.16407286  0.14942634  1
  In3+  In12  1  0.51261333  0.49741949  0.33470616  1
  In3+  In13  1  0.66588279  0.51665133  0.83844708  1
  In3+  In14  1  0.32677661  0.81724016  0.82770827  1
  In3+  In15  1  0.13882628  0.50135712  -0.01269902  1
  In3+  In16  1  0.16109044  0.82619276  0.67053094  1
  In3+  In17  1  0.84202249  -0.00504729  0.81993242  1
  In3+  In18  1  0.34621008  0.82890274  0.18517834  1
  In3+  In19  1  0.48321014  0.16330618  0.66356059  1
  In3+  In20  1  -0.01285941  0.65635382  0.66763145  1
  In3+  In21  1  0.17287326  0.33005298  0.82168814  1
  Ag+  Ag22  1  0.66731547  0.35350833  -0.02853151  1
  Ag+  Ag23  1  0.84208171  0.81028477  0.32172969  1
  Ag+  Ag24  1  0.51602742  -0.02054518  0.14112182  1
  Ag+  Ag25  1  0.83206843  0.63469570  0.18962304  1
  Ag+  Ag26  1  -0.01543709  0.66750981  0.02427435  1
  Ag+  Ag27  1  0.83889498  0.15249970  0.65115377  1
  Ag+  Ag28  1  0.35514777  0.65283254  0.32966433  1
  Ag+  Ag29  1  0.83144695  0.52886606  0.00896360  1
  Ag+  Ag30  1  0.49526919  0.69018856  0.85784254  1
  Ag+  Ag31  1  -0.01506263  0.16291016  0.83825062  1
  Ag+  Ag32  1  0.52512138  0.65186581  0.51243280  1
  Ag+  Ag33  1  0.29868644  0.34419611  0.63567563  1
  Ag+  Ag34  1  -0.01594619  0.80750631  0.83393738  1
  Ag+  Ag35  1  0.49497394  0.02364405  0.48195316  1
  Ag+  Ag36  1  0.19836770  0.33102532  0.52280602  1
  Ag+  Ag37  1  0.70127162  0.64343203  0.01834244  1
  Ag+  Ag38  1  -0.03994444  0.69463257  0.32190222  1
  Ag+  Ag39  1  0.31368836  0.35915855  0.35326854  1
  Ag+  Ag40  1  0.80975908  0.52317721  0.29484131  1
  Ag+  Ag41  1  0.14176977  -0.02112711  0.49950256  1
  Ag+  Ag42  1  0.87640354  0.70356564  0.46929756  1
  Sn2+  Sn43  1  0.15613794  0.16061760  0.66037426  1
  Sn2+  Sn44  1  0.49954439  0.82769750  0.66617634  1
  Sn2+  Sn45  1  0.82484050  -0.00166024  0.49300895  1
  Sn2+  Sn46  1  0.16481061  0.16633645  0.33622578  1
  Sn2+  Sn47  1  0.84105520  0.17690302  0.33938297  1
  Sn2+  Sn48  1  0.66751747  0.50471934  0.15751849  1
  Sn2+  Sn49  1  0.66351154  0.00007737  0.34453817  1
  Sn2+  Sn50  1  0.50561784  -0.00585340  0.82929285  1
  Sn2+  Sn51  1  0.33006322  0.49889424  0.16919232  1
  Sn2+  Sn52  1  0.32565755  0.50761830  0.49566717  1
  Sn2+  Sn53  1  0.83322503  0.66001792  0.83190842  1
  Sn2+  Sn54  1  0.67022512  0.15826910  0.50961740  1
  Sn2+  Sn55  1  0.83761495  0.83638399  0.65842629  1
  Sn2+  Sn56  1  0.33953273  0.66204188  0.65624009  1
  Sn2+  Sn57  1  0.17252917  0.51221995  0.65888740  1
  Sn2+  Sn58  1  -0.01624535  0.33964285  -0.00340537  1
  Sn2+  Sn59  1  0.15404244  0.66697659  0.17354428  1
  Sn2+  Sn60  1  0.83166139  0.32952166  0.16302861  1
  Sn2+  Sn61  1  0.16067712  0.82443627  -0.00060805  1
  Sn2+  Sn62  1  0.16092599  0.83183119  0.32976095  1
  Sn2+  Sn63  1  0.50141333  0.83516940  0.34238724  1
  Sn2+  Sn64  1  0.66948962  -0.00021973  -0.00100601  1
  Bi3+  Bi65  1  0.66991521  0.32964256  0.33442551  1
  Bi3+  Bi66  1  0.33351129  0.16167570  0.17040543  1
  Bi3+  Bi67  1  0.33056972  -0.00050917  -0.00242376  1
  Bi3+  Bi68  1  0.83342463  0.16741585  0.00289756  1
  Bi3+  Bi69  1  0.83362990  0.33543907  0.50175353  1
  Bi3+  Bi70  1  0.00549402  0.33514074  0.33517377  1
  Bi3+  Bi71  1  0.66619057  0.00024233  0.66976594  1
  Bi3+  Bi72  1  0.00184480  0.49500182  0.50000071  1
  Bi3+  Bi73  1  0.33230912  -0.00253394  0.33933517  1
  Bi3+  Bi74  1  0.33521270  0.16667185  0.83268621  1
  Bi3+  Bi75  1  0.49520361  0.83449881  -0.00504913  1
  Bi3+  Bi76  1  0.67046863  0.32991726  0.66529034  1
  Bi3+  Bi77  1  0.33688065  0.83146105  0.50587754  1
  Bi3+  Bi78  1  0.83436279  0.49960087  0.66533182  1
  Bi3+  Bi79  1  -0.00031664  0.83227451  0.16338482  1
  Bi3+  Bi80  1  0.16352258  0.50212973  0.33546177  1
  Bi3+  Bi81  1  0.65990737  0.67028422  0.32921853  1
  Bi3+  Bi82  1  0.16839920  0.33656965  0.16974362  1
  Bi3+  Bi83  1  0.50051218  0.33219170  0.16980583  1
  Bi3+  Bi84  1  0.00398069  0.00299911  0.66417296  1
  Bi3+  Bi85  1  0.49951269  0.32803367  0.83146263  1
  Te2-  Te86  1  0.16762780  0.17026024  0.16687952  1
  Te2-  Te87  1  0.15996586  0.18534561  0.50399422  1
  Te2-  Te88  1  0.17144798  0.17480965  0.82955171  1
  Te2-  Te89  1  0.16875635  0.50102519  0.16903577  1
  Te2-  Te90  1  0.16510375  0.48037613  0.50015595  1
  Te2-  Te91  1  0.16616093  0.49148298  0.83450470  1
  Te2-  Te92  1  0.16041146  0.83061344  0.16493639  1
  Te2-  Te93  1  0.16994938  0.83323759  0.50385186  1
  Te2-  Te94  1  0.17161020  0.83474901  0.82764030  1
  Te2-  Te95  1  0.49668237  0.16991877  0.16832623  1
  Te2-  Te96  1  0.50412486  0.16713813  0.51018668  1
  Te2-  Te97  1  0.49872635  0.16539473  0.82602469  1
  Te2-  Te98  1  0.49911497  0.49683036  0.17448971  1
  Te2-  Te99  1  0.49821176  0.50574780  0.49362380  1
  Te2-  Te100  1  0.50895618  0.48944436  0.83305557  1
  Te2-  Te101  1  0.49811109  0.83559416  0.16605580  1
  Te2-  Te102  1  0.50153923  0.82010329  0.50157747  1
  Te2-  Te103  1  0.49035627  0.83563199  0.83140608  1
  Te2-  Te104  1  0.84046869  0.16110420  0.16763663  1
  Te2-  Te105  1  0.84002959  0.17128164  0.50332726  1
  Te2-  Te106  1  0.83792017  0.17235751  0.83995628  1
  Te2-  Te107  1  0.83117899  0.48832621  0.15486555  1
  Te2-  Te108  1  0.83936900  0.49815197  0.50407383  1
  Te2-  Te109  1  0.82370141  0.49228242  0.82724499  1
  Te2-  Te110  1  0.83905805  0.84403476  0.17704005  1
  Te2-  Te111  1  0.82904907  0.83893465  0.50232563  1
  Te2-  Te112  1  0.84159775  0.83777700  0.83191710  1
  Te2-  Te113  1  0.16931112  -0.00150960  -0.00188913  1
  Te2-  Te114  1  0.16964807  -0.00029060  0.35095631  1
  Te2-  Te115  1  0.16729504  0.00151136  0.64977918  1
  Te2-  Te116  1  0.16036411  0.34665814  0.00898414  1
  Te2-  Te117  1  0.17129720  0.33614862  0.33093107  1
  Te2-  Te118  1  0.15450995  0.33396702  0.66969439  1
  Te2-  Te119  1  0.16118956  0.65402170  0.00131527  1
  Te2-  Te120  1  0.15594356  0.66494826  0.33700835  1
  Te2-  Te121  1  0.17693456  0.67167148  0.66278780  1
  Te2-  Te122  1  0.49565151  -0.00252003  -0.00294659  1
  Te2-  Te123  1  0.49675447  -0.00598768  0.33877781  1
  Te2-  Te124  1  0.50350174  0.00241715  0.66977133  1
  Te2-  Te125  1  0.51453223  0.33543144  0.00100074  1
  Te2-  Te126  1  0.50652885  0.33929111  0.33584122  1
  Te2-  Te127  1  0.50808767  0.32533403  0.66545106  1
  Te2-  Te128  1  0.49893975  0.67367714  0.00404225  1
  Te2-  Te129  1  0.50135134  0.66546391  0.33651597  1
  Te2-  Te130  1  0.49564683  0.66468580  0.65738560  1
  Te2-  Te131  1  0.83502193  0.00277485  0.01366553  1
  Te2-  Te132  1  0.83648710  0.00869309  0.33075845  1
  Te2-  Te133  1  0.83444220  0.00434143  0.66627471  1
  Te2-  Te134  1  0.82218087  0.32822901  -0.00761076  1
  Te2-  Te135  1  0.83449927  0.33738128  0.33557039  1
  Te2-  Te136  1  0.83633255  0.33501870  0.66940972  1
  Te2-  Te137  1  0.83966197  0.67299971  -0.01631598  1
  Te2-  Te138  1  0.82062088  0.66222630  0.34027174  1
  Te2-  Te139  1  0.83310153  0.66553275  0.66839138  1
  Te2-  Te140  1  -0.00152221  0.16789874  -0.00586267  1
  Te2-  Te141  1  0.00452631  0.17269227  0.33847763  1
  Te2-  Te142  1  -0.00970034  0.16631764  0.67618711  1
  Te2-  Te143  1  -0.01393656  0.51006962  0.00097369  1
  Te2-  Te144  1  -0.00006903  0.49731940  0.33846608  1
  Te2-  Te145  1  0.00134271  0.49995047  0.66441075  1
  Te2-  Te146  1  0.00447993  0.82045226  -0.00536214  1
  Te2-  Te147  1  -0.00626584  0.83661204  0.33649204  1
  Te2-  Te148  1  0.00486798  0.84159188  0.67803975  1
  Te2-  Te149  1  0.33390236  0.16412775  0.00314650  1
  Te2-  Te150  1  0.33298901  0.15973221  0.33280706  1
  Te2-  Te151  1  0.32839064  0.17444969  0.66817177  1
  Te2-  Te152  1  0.33926444  0.50344377  0.00458702  1
  Te2-  Te153  1  0.32685000  0.50472710  0.33056684  1
  Te2-  Te154  1  0.32798400  0.48770220  0.66348008  1
  Te2-  Te155  1  0.32953250  0.83795213  -0.01185384  1
  Te2-  Te156  1  0.32940928  0.83654994  0.33960800  1
  Te2-  Te157  1  0.33050965  0.83426163  0.66785577  1
  Te2-  Te158  1  0.67087961  0.15921016  -0.00313658  1
  Te2-  Te159  1  0.66994655  0.16565084  0.34007830  1
  Te2-  Te160  1  0.68579842  0.16534274  0.67062465  1
  Te2-  Te161  1  0.68003102  0.50100245  -0.00875500  1
  Te2-  Te162  1  0.66827428  0.49705641  0.33220030  1
  Te2-  Te163  1  0.66882904  0.49504198  0.67080432  1
  Te2-  Te164  1  0.66082500  0.83874899  -0.01131565  1
  Te2-  Te165  1  0.67613972  0.83489608  0.33277309  1
  Te2-  Te166  1  0.67008752  0.84001633  0.68441072  1
  Te2-  Te167  1  0.00737225  0.00257167  0.17330878  1
  Te2-  Te168  1  -0.00374419  0.00825312  0.50099446  1
  Te2-  Te169  1  -0.00423738  0.01188037  0.82986914  1
  Te2-  Te170  1  0.00177513  0.32615854  0.16866949  1
  Te2-  Te171  1  -0.00457655  0.32903026  0.49854154  1
  Te2-  Te172  1  0.00517271  0.32688768  0.83602586  1
  Te2-  Te173  1  -0.01545554  0.67228266  0.17229543  1
  Te2-  Te174  1  0.00981398  0.66388954  0.51516484  1
  Te2-  Te175  1  0.00283704  0.66476900  0.81918493  1
  Te2-  Te176  1  0.33722163  -0.00438302  0.16725252  1
  Te2-  Te177  1  0.34935591  -0.00528312  0.50904097  1
  Te2-  Te178  1  0.33344366  0.00641451  0.82751838  1
  Te2-  Te179  1  0.33577883  0.32728178  0.17068621  1
  Te2-  Te180  1  0.34857496  0.33286724  0.49472763  1
  Te2-  Te181  1  0.33384863  0.32877428  0.83672485  1
  Te2-  Te182  1  0.32909736  0.67484672  0.18061339  1
  Te2-  Te183  1  0.32346529  0.66975923  0.48696429  1
  Te2-  Te184  1  0.34490944  0.66552816  0.82903761  1
  Te2-  Te185  1  0.65771068  0.00267356  0.17132576  1
  Te2-  Te186  1  0.65625248  -0.01021391  0.50752981  1
  Te2-  Te187  1  0.67944831  0.00544490  0.83250358  1
  Te2-  Te188  1  0.66455498  0.33761301  0.17350587  1
  Te2-  Te189  1  0.66719974  0.33133667  0.50044831  1
  Te2-  Te190  1  0.66517866  0.32146599  0.82755414  1
  Te2-  Te191  1  0.68085439  0.66418418  0.16337791  1
  Te2-  Te192  1  0.66939055  0.67426748  0.49672477  1
  Te2-  Te193  1  0.64994955  0.66973254  0.83405974  1
  Pb2+  Pb194  1  0.33702779  0.49916467  0.83388599  1
  Pb2+  Pb195  1  0.16555251  0.00459882  0.82170432  1
  Pb2+  Pb196  1  0.83365798  0.83502921  0.00604133  1
  Pb2+  Pb197  1  0.33458702  0.33903519  0.00476185  1
  Pb2+  Pb198  1  0.16831842  0.66436656  0.83391817  1
  Pb2+  Pb199  1  0.67252075  0.50429056  0.50088615  1
  Pb2+  Pb200  1  0.66927552  0.83104110  0.16098314  1
  Pb2+  Pb201  1  0.66517513  0.67094403  0.66621985  1
  Pb2+  Pb202  1  0.49655116  0.49632365  0.66572093  1
  Pb2+  Pb203  1  0.00165276  -0.00762447  -0.00112068  1
  Pb2+  Pb204  1  0.50407360  0.16988207  -0.00408336  1
  Pb2+  Pb205  1  -0.00758209  0.49766055  0.83343724  1
  Pb2+  Pb206  1  0.00012973  0.50127606  0.17068372  1
  Pb2+  Pb207  1  0.50114918  0.66626628  0.17016710  1
  Pb2+  Pb208  1  -0.00056015  0.83506629  0.50779512  1
  Pb2+  Pb209  1  0.50891761  0.50510843  0.00162472  1
  Pb2+  Pb210  1  0.66946926  0.17170829  0.16679355  1
  Pb2+  Pb211  1  0.50176119  0.16687264  0.33702591  1
  Pb2+  Pb212  1  0.32970438  0.66959372  0.00824630  1
  Pb2+  Pb213  1  0.17377471  -0.00066082  0.17838026  1
  Pb2+  Pb214  1  0.16601294  0.17423941  -0.00318271  1
  Pb2+  Pb215  1  0.32770853  0.16286144  0.50064714  1
