# generated using pymatgen
data_In22Ag21Sn22Bi21(Te54Pb11)2
_symmetry_space_group_name_H-M   'P 1'
_cell_length_a   19.14441928
_cell_length_b   19.13788199
_cell_length_c   19.15357510
_cell_angle_alpha   89.99412791
_cell_angle_beta   90.02395064
_cell_angle_gamma   89.99537672
_symmetry_Int_Tables_number   1
_chemical_formula_structural   In22Ag21Sn22Bi21(Te54Pb11)2
_chemical_formula_sum   'In22 Ag21 Sn22 Bi21 Te108 Pb22'
_cell_volume   7017.55583167
_cell_formula_units_Z   1
loop_
 _symmetry_equiv_pos_site_id
 _symmetry_equiv_pos_as_xyz
  1  'x, y, z'
loop_
 _atom_type_symbol
 _atom_type_oxidation_number
  In3+  3.0
  Ag+  1.0
  Sn2+  2.0
  Bi3+  3.0
  Te2-  -2.0
  Pb2+  2.0
loop_
 _atom_site_type_symbol
 _atom_site_label
 _atom_site_symmetry_multiplicity
 _atom_site_fract_x
 _atom_site_fract_y
 _atom_site_fract_z
 _atom_site_occupancy
  In3+  In0  1  0.83848005  0.66395565  0.83767645  1
  In3+  In1  1  0.66825519  0.81389006  0.81817434  1
  In3+  In2  1  0.50015270  0.18182454  0.33458151  1
  In3+  In3  1  0.33565544  0.83308820  0.15681929  1
  In3+  In4  1  0.00224778  0.49717226  0.48358168  1
  In3+  In5  1  0.18549364  0.16792813  0.33035003  1
  In3+  In6  1  0.83577848  -0.00415461  0.49773851  1
  In3+  In7  1  0.16702351  0.52068116  0.63880956  1
  In3+  In8  1  0.00506032  0.83793115  0.81934076  1
  In3+  In9  1  0.00398900  0.32928325  0.33333997  1
  In3+  In10  1  0.00132539  0.15913297  0.84270339  1
  In3+  In11  1  0.85559970  0.16185274  0.67566035  1
  In3+  In12  1  0.00529035  0.67938585  0.00845210  1
  In3+  In13  1  0.33092387  0.50580426  0.82897492  1
  In3+  In14  1  0.17982855  0.68950771  0.50068437  1
  In3+  In15  1  0.66064917  0.49446694  0.84329333  1
  In3+  In16  1  0.50337736  0.31846394  0.14943187  1
  In3+  In17  1  0.83181025  0.32221077  0.49650426  1
  In3+  In18  1  0.82081648  0.16824368  0.01566820  1
  In3+  In19  1  0.83125168  0.15833916  0.33815520  1
  In3+  In20  1  0.33654956  0.17879300  0.83987916  1
  In3+  In21  1  0.66845589  0.16979700  0.86079977  1
  Ag+  Ag22  1  0.64198712  0.68640505  0.34329022  1
  Ag+  Ag23  1  0.17169062  0.51788235  0.33659442  1
  Ag+  Ag24  1  0.00910586  0.15162425  0.49606810  1
  Ag+  Ag25  1  0.19853613  0.81829781  -0.02204235  1
  Ag+  Ag26  1  0.83680336  -0.01944829  0.18798452  1
  Ag+  Ag27  1  0.84304782  0.81296185  -0.02437131  1
  Ag+  Ag28  1  0.30698342  0.49751534  0.47267390  1
  Ag+  Ag29  1  0.52306158  0.66681222  0.18623921  1
  Ag+  Ag30  1  -0.02529837  0.48851491  0.18876961  1
  Ag+  Ag31  1  0.33099339  0.35108316  0.02826818  1
  Ag+  Ag32  1  0.35885525  0.85506088  0.49715550  1
  Ag+  Ag33  1  0.85417483  0.81809663  0.33533938  1
  Ag+  Ag34  1  0.30400186  0.83033625  0.79164818  1
  Ag+  Ag35  1  0.69082584  0.35444354  0.00528728  1
  Ag+  Ag36  1  0.51767439  0.16971488  0.02867102  1
  Ag+  Ag37  1  0.52179230  0.83849620  0.69473379  1
  Ag+  Ag38  1  0.30886531  0.15039727  0.49664328  1
  Ag+  Ag39  1  0.19340979  0.85464779  0.69049311  1
  Ag+  Ag40  1  -0.00798859  0.85357698  0.47994656  1
  Ag+  Ag41  1  0.66970234  0.14659242  0.17115977  1
  Ag+  Ag42  1  -0.00278265  -0.02760027  0.64671079  1
  Sn2+  Sn43  1  0.49871956  -0.00307633  0.50262022  1
  Sn2+  Sn44  1  0.49839625  0.50069185  0.32978314  1
  Sn2+  Sn45  1  0.00469687  0.32884862  0.66490388  1
  Sn2+  Sn46  1  0.16575451  0.50347201  0.01280223  1
  Sn2+  Sn47  1  0.17096832  0.34205991  0.16524073  1
  Sn2+  Sn48  1  0.67038650  0.82807404  0.48948000  1
  Sn2+  Sn49  1  -0.00605746  0.83362179  0.16431519  1
  Sn2+  Sn50  1  0.33212457  0.50482697  0.16598255  1
  Sn2+  Sn51  1  0.49207580  0.00317122  0.83444337  1
  Sn2+  Sn52  1  0.51243170  0.83922579  0.00079372  1
  Sn2+  Sn53  1  -0.01270562  0.17243067  0.17341431  1
  Sn2+  Sn54  1  0.83002545  -0.00269775  0.83870111  1
  Sn2+  Sn55  1  0.16298769  -0.00804218  0.50576056  1
  Sn2+  Sn56  1  0.66015688  0.67102978  0.00821709  1
  Sn2+  Sn57  1  0.16259663  0.15392069  0.65963169  1
  Sn2+  Sn58  1  0.33237870  0.33786705  0.33865893  1
  Sn2+  Sn59  1  0.49620294  0.48843841  0.00991411  1
  Sn2+  Sn60  1  0.49381322  0.33181614  0.50182047  1
  Sn2+  Sn61  1  0.82790061  0.33403513  0.17101248  1
  Sn2+  Sn62  1  -0.00216939  0.66628351  0.33517793  1
  Sn2+  Sn63  1  0.84165390  0.49672354  0.66314798  1
  Sn2+  Sn64  1  0.84362958  0.67458931  0.49954899  1
  Bi3+  Bi65  1  0.66634433  0.16678464  0.49100759  1
  Bi3+  Bi66  1  0.49980722  0.33187352  0.83895550  1
  Bi3+  Bi67  1  0.33324091  0.32973522  0.66348431  1
  Bi3+  Bi68  1  0.49453444  0.83514169  0.33206773  1
  Bi3+  Bi69  1  -0.00395968  0.66216020  0.66721938  1
  Bi3+  Bi70  1  0.49600280  0.15954967  0.66123925  1
  Bi3+  Bi71  1  -0.00473466  -0.00271628  0.00112953  1
  Bi3+  Bi72  1  0.49900378  0.66634017  0.83377252  1
  Bi3+  Bi73  1  0.00226229  0.49939184  0.83562536  1
  Bi3+  Bi74  1  0.33460561  -0.00311393  -0.00423920  1
  Bi3+  Bi75  1  0.66663900  -0.00205584  0.00026310  1
  Bi3+  Bi76  1  0.15645883  -0.00019327  0.16706453  1
  Bi3+  Bi77  1  0.16313615  0.66965315  0.17027584  1
  Bi3+  Bi78  1  0.66881296  0.83262836  0.16598590  1
  Bi3+  Bi79  1  0.67035313  0.50008878  0.50067603  1
  Bi3+  Bi80  1  0.16445596  0.83528946  0.33122147  1
  Bi3+  Bi81  1  0.16529399  0.16123786  -0.00048894  1
  Bi3+  Bi82  1  0.66284022  0.50108455  0.16791079  1
  Bi3+  Bi83  1  0.16507631  0.32716096  0.49852090  1
  Bi3+  Bi84  1  0.33262019  0.67131430  0.66490431  1
  Bi3+  Bi85  1  0.66960743  0.33519325  0.32722081  1
  Te2-  Te86  1  0.16035445  0.16519513  0.16894498  1
  Te2-  Te87  1  0.16003446  0.16701128  0.49021142  1
  Te2-  Te88  1  0.16529148  0.16648073  0.83315806  1
  Te2-  Te89  1  0.17161012  0.50303803  0.17240598  1
  Te2-  Te90  1  0.15876640  0.49052657  0.48658209  1
  Te2-  Te91  1  0.16792409  0.50027339  0.84351392  1
  Te2-  Te92  1  0.16243326  0.83640252  0.16966977  1
  Te2-  Te93  1  0.14347350  0.83595039  0.49134239  1
  Te2-  Te94  1  0.15715867  0.83202864  0.83747240  1
  Te2-  Te95  1  0.50350187  0.16537394  0.17645939  1
  Te2-  Te96  1  0.50520093  0.16470809  0.49446483  1
  Te2-  Te97  1  0.50027547  0.16831019  0.82203875  1
  Te2-  Te98  1  0.50071550  0.51541465  0.16753879  1
  Te2-  Te99  1  0.50873318  0.49951961  0.50091362  1
  Te2-  Te100  1  0.49917906  0.49936950  0.83708911  1
  Te2-  Te101  1  0.49745097  0.82021667  0.16781553  1
  Te2-  Te102  1  0.50847526  0.83767144  0.49246438  1
  Te2-  Te103  1  0.51584477  0.83171454  0.84046805  1
  Te2-  Te104  1  0.82491107  0.17459792  0.16707479  1
  Te2-  Te105  1  0.82824265  0.16887243  0.49567192  1
  Te2-  Te106  1  0.82945728  0.16726458  0.82364190  1
  Te2-  Te107  1  0.82997919  0.49907577  0.16522553  1
  Te2-  Te108  1  0.83475491  0.50024879  0.50542643  1
  Te2-  Te109  1  0.83544214  0.50315659  0.83039022  1
  Te2-  Te110  1  0.83254135  0.83520772  0.18200299  1
  Te2-  Te111  1  0.83923300  0.84030344  0.48773875  1
  Te2-  Te112  1  0.82023829  0.82980300  0.83186681  1
  Te2-  Te113  1  0.16157312  -0.00312406  0.00560831  1
  Te2-  Te114  1  0.16439863  0.00641773  0.32946032  1
  Te2-  Te115  1  0.15058426  -0.00653772  0.66484802  1
  Te2-  Te116  1  0.17967504  0.32580655  0.00607230  1
  Te2-  Te117  1  0.16162883  0.32134075  0.33387895  1
  Te2-  Te118  1  0.17114427  0.32456465  0.66136593  1
  Te2-  Te119  1  0.16121804  0.67718536  0.00384554  1
  Te2-  Te120  1  0.16147533  0.66778854  0.33718284  1
  Te2-  Te121  1  0.16203810  0.67584759  0.65993503  1
  Te2-  Te122  1  0.49970202  0.01507741  0.00025178  1
  Te2-  Te123  1  0.49887102  -0.00116178  0.33204236  1
  Te2-  Te124  1  0.50144738  -0.00879811  0.66554889  1
  Te2-  Te125  1  0.48158048  0.31840391  -0.00102334  1
  Te2-  Te126  1  0.50648288  0.33571373  0.33535760  1
  Te2-  Te127  1  0.49847769  0.33230759  0.67072990  1
  Te2-  Te128  1  0.50243209  0.66470529  -0.00582092  1
  Te2-  Te129  1  0.49625092  0.66848063  0.33260727  1
  Te2-  Te130  1  0.49834086  0.68019604  0.67122769  1
  Te2-  Te131  1  0.83204592  0.01484516  -0.00172677  1
  Te2-  Te132  1  0.83198705  0.00556763  0.33340107  1
  Te2-  Te133  1  0.84776508  0.00875119  0.66697731  1
  Te2-  Te134  1  0.83564461  0.32292566  0.00100471  1
  Te2-  Te135  1  0.83312998  0.33760023  0.33673157  1
  Te2-  Te136  1  0.83605957  0.32620878  0.65769167  1
  Te2-  Te137  1  0.83245873  0.66733427  -0.00761329  1
  Te2-  Te138  1  0.84074310  0.67058518  0.33876065  1
  Te2-  Te139  1  0.83419898  0.66518123  0.66840034  1
  Te2-  Te140  1  0.00177747  0.16471673  0.00077518  1
  Te2-  Te141  1  -0.01564585  0.17551028  0.34147206  1
  Te2-  Te142  1  0.00335662  0.17220893  0.64781207  1
  Te2-  Te143  1  0.00604801  0.50353134  -0.00374916  1
  Te2-  Te144  1  0.01094441  0.49667508  0.32953818  1
  Te2-  Te145  1  0.00816729  0.49865635  0.67477216  1
  Te2-  Te146  1  -0.01309790  0.83387786  0.00406386  1
  Te2-  Te147  1  0.00247671  0.83359519  0.33290992  1
  Te2-  Te148  1  -0.00226514  0.82556649  0.67076066  1
  Te2-  Te149  1  0.32608999  0.15711447  -0.00500145  1
  Te2-  Te150  1  0.33891016  0.16936712  0.34525105  1
  Te2-  Te151  1  0.33495198  0.16751212  0.64919970  1
  Te2-  Te152  1  0.33171334  0.49582206  0.00101511  1
  Te2-  Te153  1  0.32491911  0.49686511  0.32650868  1
  Te2-  Te154  1  0.32516584  0.50039711  0.67285432  1
  Te2-  Te155  1  0.34191969  0.83628234  0.00322050  1
  Te2-  Te156  1  0.32865802  0.83116049  0.35232199  1
  Te2-  Te157  1  0.32916722  0.82906463  0.64106724  1
  Te2-  Te158  1  0.66516363  0.16395285  0.01523628  1
  Te2-  Te159  1  0.67131190  0.17334471  0.32253620  1
  Te2-  Te160  1  0.65841063  0.16946499  0.65445785  1
  Te2-  Te161  1  0.66469735  0.50026544  0.00179936  1
  Te2-  Te162  1  0.66618688  0.49641625  0.33363177  1
  Te2-  Te163  1  0.66828549  0.49642509  0.66662301  1
  Te2-  Te164  1  0.67569188  0.83597582  0.00474929  1
  Te2-  Te165  1  0.66064760  0.83149411  0.32856779  1
  Te2-  Te166  1  0.66588230  0.83517487  0.66281155  1
  Te2-  Te167  1  -0.01033811  0.00470435  0.16446369  1
  Te2-  Te168  1  -0.00898683  0.00418584  0.50263858  1
  Te2-  Te169  1  -0.00591147  -0.00325402  0.83907619  1
  Te2-  Te170  1  0.00034475  0.34107285  0.17508432  1
  Te2-  Te171  1  -0.00229784  0.34207341  0.49558835  1
  Te2-  Te172  1  0.00020426  0.33428772  0.83424689  1
  Te2-  Te173  1  0.00351938  0.65799320  0.16255465  1
  Te2-  Te174  1  0.00183443  0.65155700  0.50587888  1
  Te2-  Te175  1  -0.00553795  0.66703368  0.83465800  1
  Te2-  Te176  1  0.32686835  -0.00428584  0.16292497  1
  Te2-  Te177  1  0.32896278  0.00476674  0.50249996  1
  Te2-  Te178  1  0.33524539  -0.02598519  0.83431571  1
  Te2-  Te179  1  0.34415154  0.33048831  0.17308351  1
  Te2-  Te180  1  0.33104121  0.34757948  0.50234125  1
  Te2-  Te181  1  0.33764371  0.33752702  0.82711574  1
  Te2-  Te182  1  0.32382793  0.67600340  0.16258547  1
  Te2-  Te183  1  0.32578560  0.64458512  0.50485525  1
  Te2-  Te184  1  0.33598848  0.68580599  0.82731713  1
  Te2-  Te185  1  0.67504309  -0.00223938  0.16299054  1
  Te2-  Te186  1  0.67605052  0.00241791  0.50200654  1
  Te2-  Te187  1  0.66364419  0.01195861  0.83915685  1
  Te2-  Te188  1  0.65718756  0.34015405  0.15663628  1
  Te2-  Te189  1  0.66850929  0.33358250  0.49492816  1
  Te2-  Te190  1  0.66228134  0.33135975  0.85313567  1
  Te2-  Te191  1  0.66934605  0.66574295  0.17436398  1
  Te2-  Te192  1  0.67167671  0.66407463  0.48921470  1
  Te2-  Te193  1  0.66521905  0.66068000  0.83437137  1
  Pb2+  Pb194  1  0.32932390  -0.00435099  0.66738442  1
  Pb2+  Pb195  1  0.33096308  0.16626856  0.16534091  1
  Pb2+  Pb196  1  0.66554337  -0.00110574  0.33465618  1
  Pb2+  Pb197  1  0.16766699  0.00129960  0.83466524  1
  Pb2+  Pb198  1  0.66599224  0.66415803  0.65977496  1
  Pb2+  Pb199  1  0.83383598  0.33408898  0.82994056  1
  Pb2+  Pb200  1  0.32989936  0.66587400  0.33169154  1
  Pb2+  Pb201  1  -0.00161273  0.00426935  0.33566928  1
  Pb2+  Pb202  1  0.83833510  0.49811070  -0.00162472  1
  Pb2+  Pb203  1  0.33242636  -0.00340678  0.33666620  1
  Pb2+  Pb204  1  0.83488576  0.83791120  0.65888210  1
  Pb2+  Pb205  1  0.33497706  0.66182817  -0.00373480  1
  Pb2+  Pb206  1  0.49579585  0.66757773  0.50067007  1
  Pb2+  Pb207  1  0.00951348  0.33505651  0.00730536  1
  Pb2+  Pb208  1  0.83628230  0.67256532  0.16489311  1
  Pb2+  Pb209  1  0.16905415  0.33514279  0.83146831  1
  Pb2+  Pb210  1  0.66816050  0.33119814  0.67408637  1
  Pb2+  Pb211  1  0.16596870  0.66322076  0.82849479  1
  Pb2+  Pb212  1  0.49306343  0.50480938  0.66742676  1
  Pb2+  Pb213  1  0.50326396  -0.00918197  0.16408241  1
  Pb2+  Pb214  1  0.67388462  0.00589119  0.67227524  1
  Pb2+  Pb215  1  0.83753684  0.50665065  0.33733985  1
