# generated using pymatgen
data_In22Ag21Sn22Bi21(Te54Pb11)2
_symmetry_space_group_name_H-M   'P 1'
_cell_length_a   19.14763904
_cell_length_b   19.14014989
_cell_length_c   19.15392611
_cell_angle_alpha   90.01496688
_cell_angle_beta   89.99183829
_cell_angle_gamma   89.99490749
_symmetry_Int_Tables_number   1
_chemical_formula_structural   In22Ag21Sn22Bi21(Te54Pb11)2
_chemical_formula_sum   'In22 Ag21 Sn22 Bi21 Te108 Pb22'
_cell_volume   7019.69678153
_cell_formula_units_Z   1
loop_
 _symmetry_equiv_pos_site_id
 _symmetry_equiv_pos_as_xyz
  1  'x, y, z'
loop_
 _atom_type_symbol
 _atom_type_oxidation_number
  In3+  3.0
  Ag+  1.0
  Sn2+  2.0
  Bi3+  3.0
  Te2-  -2.0
  Pb2+  2.0
loop_
 _atom_site_type_symbol
 _atom_site_label
 _atom_site_symmetry_multiplicity
 _atom_site_fract_x
 _atom_site_fract_y
 _atom_site_fract_z
 _atom_site_occupancy
  In3+  In0  1  -0.00443124  0.65726739  0.65922451  1
  In3+  In1  1  0.34218533  0.31864291  0.33697635  1
  In3+  In2  1  0.83371856  -0.02371093  0.50502972  1
  In3+  In3  1  0.82205623  0.33822658  0.82430960  1
  In3+  In4  1  0.82488443  0.18235788  0.34150282  1
  In3+  In5  1  0.49437640  0.82967423  -0.01014255  1
  In3+  In6  1  0.65993686  0.00877933  -0.00120202  1
  In3+  In7  1  0.63945288  0.64427623  0.65401348  1
  In3+  In8  1  0.16699898  0.00230263  0.51696207  1
  In3+  In9  1  0.66446561  0.67183120  -0.02156984  1
  In3+  In10  1  0.34154215  0.84435570  0.81186235  1
  In3+  In11  1  0.83824287  0.83297414  -0.01789369  1
  In3+  In12  1  0.15996816  0.31917386  0.49655379  1
  In3+  In13  1  0.15918255  0.86084427  -0.00240382  1
  In3+  In14  1  0.34381032  -0.01146150  0.34676999  1
  In3+  In15  1  0.00897137  0.32298323  0.67885233  1
  In3+  In16  1  0.33848296  0.16697789  0.49734123  1
  In3+  In17  1  0.66120784  0.82456498  0.16596321  1
  In3+  In18  1  0.83753373  0.64229647  0.82552818  1
  In3+  In19  1  0.81969399  0.83490399  0.67040278  1
  In3+  In20  1  0.50691261  0.67181339  0.18827836  1
  In3+  In21  1  0.16750000  0.65474850  0.51034992  1
  Ag+  Ag22  1  0.81423011  0.66656832  0.53131102  1
  Ag+  Ag23  1  -0.02010219  0.64390359  0.36437399  1
  Ag+  Ag24  1  0.83408915  0.48344335  0.66147109  1
  Ag+  Ag25  1  0.02202087  0.49315863  0.81671487  1
  Ag+  Ag26  1  0.14036171  0.18445314  -0.02561977  1
  Ag+  Ag27  1  0.46484197  0.70802735  0.51964530  1
  Ag+  Ag28  1  0.52322093  0.80985436  0.35156215  1
  Ag+  Ag29  1  0.50510751  0.19043812  -0.02372651  1
  Ag+  Ag30  1  0.66468711  -0.02791833  0.64257773  1
  Ag+  Ag31  1  0.47274401  0.47426718  0.69424927  1
  Ag+  Ag32  1  0.47485383  0.14390876  0.33436827  1
  Ag+  Ag33  1  0.19015474  0.17168347  0.68257979  1
  Ag+  Ag34  1  0.51993617  0.83681249  0.64173721  1
  Ag+  Ag35  1  0.01318305  0.35208649  0.33085247  1
  Ag+  Ag36  1  0.63649059  0.16911008  0.81339727  1
  Ag+  Ag37  1  0.33283979  0.18192281  0.85866451  1
  Ag+  Ag38  1  -0.03522760  0.02776771  -0.02988175  1
  Ag+  Ag39  1  0.35390939  0.81331273  0.50029026  1
  Ag+  Ag40  1  0.48067806  0.31215030  0.86338135  1
  Ag+  Ag41  1  0.66091619  0.52275004  0.83284331  1
  Ag+  Ag42  1  0.64416288  0.32877245  0.34705761  1
  Sn2+  Sn43  1  -0.00605668  0.49427244  0.50873875  1
  Sn2+  Sn44  1  0.50617341  0.01439365  0.83274534  1
  Sn2+  Sn45  1  0.33942494  0.49624431  0.16859974  1
  Sn2+  Sn46  1  0.82823238  0.82857946  0.33537082  1
  Sn2+  Sn47  1  0.66824721  0.33243512  -0.01266656  1
  Sn2+  Sn48  1  0.34565691  0.00485483  0.66746165  1
  Sn2+  Sn49  1  0.82896493  0.16569508  0.66853717  1
  Sn2+  Sn50  1  0.34279233  0.16656018  0.15941326  1
  Sn2+  Sn51  1  0.83047351  0.01329343  0.83276884  1
  Sn2+  Sn52  1  0.50253524  0.32651023  0.16742056  1
  Sn2+  Sn53  1  0.16406158  0.66802885  0.83528865  1
  Sn2+  Sn54  1  0.34065011  0.33039211  0.66687903  1
  Sn2+  Sn55  1  0.16416523  0.32357770  0.17105569  1
  Sn2+  Sn56  1  0.50050627  0.00428070  0.50800041  1
  Sn2+  Sn57  1  -0.00569038  0.83125352  0.17047776  1
  Sn2+  Sn58  1  0.16084909  0.49664415  -0.00246366  1
  Sn2+  Sn59  1  0.16970554  0.84268070  0.66398887  1
  Sn2+  Sn60  1  0.15996946  0.16998452  0.33172994  1
  Sn2+  Sn61  1  0.67616194  0.65671701  0.33684299  1
  Sn2+  Sn62  1  0.66604031  0.49414281  0.15964475  1
  Sn2+  Sn63  1  0.00698272  0.16499638  0.16826436  1
  Sn2+  Sn64  1  0.83878151  0.34077857  0.49953516  1
  Bi3+  Bi65  1  0.32862838  0.67200621  0.67073625  1
  Bi3+  Bi66  1  0.67170121  0.33404275  0.66543257  1
  Bi3+  Bi67  1  0.67128075  0.49679087  0.50247910  1
  Bi3+  Bi68  1  -0.00012396  0.66660296  -0.00212399  1
  Bi3+  Bi69  1  0.83132964  0.50372494  -0.00066187  1
  Bi3+  Bi70  1  0.66714852  0.16791467  0.16880801  1
  Bi3+  Bi71  1  0.83117022  0.66844562  0.16595209  1
  Bi3+  Bi72  1  0.33648466  -0.00146975  0.00048644  1
  Bi3+  Bi73  1  0.83559046  -0.00343266  0.17055472  1
  Bi3+  Bi74  1  0.16693292  0.66579022  0.16306910  1
  Bi3+  Bi75  1  0.00540124  0.83522865  0.50232164  1
  Bi3+  Bi76  1  0.50113674  -0.00136926  0.16880299  1
  Bi3+  Bi77  1  0.50005379  0.33756422  0.49966114  1
  Bi3+  Bi78  1  0.00270626  -0.00301778  0.32809790  1
  Bi3+  Bi79  1  0.33454489  0.66743217  -0.00249347  1
  Bi3+  Bi80  1  0.16765197  0.00155884  0.16623694  1
  Bi3+  Bi81  1  0.17171982  0.00023473  0.83329048  1
  Bi3+  Bi82  1  0.50437936  0.50168253  0.33807585  1
  Bi3+  Bi83  1  -0.00157298  0.16890752  0.49485983  1
  Bi3+  Bi84  1  0.83294649  0.32961556  0.16761519  1
  Bi3+  Bi85  1  0.16473554  0.83698976  0.33071877  1
  Te2-  Te86  1  0.17192436  0.16368468  0.16534077  1
  Te2-  Te87  1  0.16209044  0.16436889  0.49795048  1
  Te2-  Te88  1  0.17966451  0.16295577  0.83260637  1
  Te2-  Te89  1  0.16847966  0.49999965  0.16158002  1
  Te2-  Te90  1  0.16572667  0.49994710  0.50125325  1
  Te2-  Te91  1  0.16835902  0.49902408  0.83526473  1
  Te2-  Te92  1  0.16533699  0.83400915  0.16325688  1
  Te2-  Te93  1  0.16566514  0.84900395  0.49627553  1
  Te2-  Te94  1  0.17602677  0.83774382  0.83589321  1
  Te2-  Te95  1  0.50442434  0.16127686  0.18392319  1
  Te2-  Te96  1  0.49495531  0.17193575  0.48411396  1
  Te2-  Te97  1  0.48882602  0.16948718  0.82962612  1
  Te2-  Te98  1  0.50394088  0.50615886  0.17184747  1
  Te2-  Te99  1  0.50887509  0.49978269  0.50139740  1
  Te2-  Te100  1  0.51283953  0.49993232  0.83117275  1
  Te2-  Te101  1  0.50548368  0.83213581  0.17436366  1
  Te2-  Te102  1  0.49819051  0.84823752  0.49287564  1
  Te2-  Te103  1  0.49564765  0.83958556  0.83635147  1
  Te2-  Te104  1  0.83353670  0.16203660  0.16845289  1
  Te2-  Te105  1  0.83717947  0.17232702  0.49786034  1
  Te2-  Te106  1  0.84056629  0.16880966  0.83171490  1
  Te2-  Te107  1  0.83160533  0.50181261  0.16495956  1
  Te2-  Te108  1  0.83534808  0.51314116  0.51291286  1
  Te2-  Te109  1  0.81714252  0.49331419  0.83632463  1
  Te2-  Te110  1  0.82665932  0.83278811  0.16730933  1
  Te2-  Te111  1  0.84110588  0.81786667  0.50694089  1
  Te2-  Te112  1  0.83348715  0.84432810  0.82922944  1
  Te2-  Te113  1  0.17386570  0.01395576  0.00257792  1
  Te2-  Te114  1  0.16694452  -0.00032807  0.32728520  1
  Te2-  Te115  1  0.16966286  0.01589526  0.67002013  1
  Te2-  Te116  1  0.16894437  0.32690863  0.00411460  1
  Te2-  Te117  1  0.16322951  0.33275801  0.33800530  1
  Te2-  Te118  1  0.16351731  0.32257275  0.65612449  1
  Te2-  Te119  1  0.16735223  0.66378238  0.00094829  1
  Te2-  Te120  1  0.16361143  0.67422506  0.32372573  1
  Te2-  Te121  1  0.16536821  0.66875734  0.66948692  1
  Te2-  Te122  1  0.50118782  -0.01161852  0.00647542  1
  Te2-  Te123  1  0.49615366  -0.00296154  0.33147263  1
  Te2-  Te124  1  0.51177113  -0.00937492  0.66398076  1
  Te2-  Te125  1  0.50425755  0.33660175  0.00700835  1
  Te2-  Te126  1  0.49668440  0.33777969  0.33429887  1
  Te2-  Te127  1  0.50694268  0.33512885  0.65957569  1
  Te2-  Te128  1  0.50175998  0.67434678  -0.00101160  1
  Te2-  Te129  1  0.50305932  0.66515691  0.33910521  1
  Te2-  Te130  1  0.49376672  0.68307760  0.66123452  1
  Te2-  Te131  1  0.82895767  -0.00975120  0.00623927  1
  Te2-  Te132  1  0.83781870  -0.00539095  0.33204516  1
  Te2-  Te133  1  0.81982256  -0.00664849  0.66268149  1
  Te2-  Te134  1  0.83175780  0.33725522  0.00393369  1
  Te2-  Te135  1  0.84300267  0.33239051  0.32923963  1
  Te2-  Te136  1  0.83831827  0.33430146  0.66631507  1
  Te2-  Te137  1  0.83130164  0.67180973  0.00153512  1
  Te2-  Te138  1  0.83969276  0.66877444  0.32692788  1
  Te2-  Te139  1  0.84442020  0.67922642  0.67491825  1
  Te2-  Te140  1  -0.00301988  0.16664213  0.00075272  1
  Te2-  Te141  1  -0.00565331  0.15812758  0.33294600  1
  Te2-  Te142  1  -0.00300699  0.17066742  0.65956387  1
  Te2-  Te143  1  -0.00602886  0.50301379  -0.00751514  1
  Te2-  Te144  1  0.00148860  0.50125198  0.33787637  1
  Te2-  Te145  1  -0.01331977  0.50500862  0.67263563  1
  Te2-  Te146  1  -0.00170625  0.82843382  -0.00069246  1
  Te2-  Te147  1  -0.00016593  0.83518828  0.33779809  1
  Te2-  Te148  1  0.00993610  0.83287552  0.66397660  1
  Te2-  Te149  1  0.35418643  0.16062086  0.00281232  1
  Te2-  Te150  1  0.32941314  0.16697634  0.33486300  1
  Te2-  Te151  1  0.33412286  0.16886350  0.65250097  1
  Te2-  Te152  1  0.33265098  0.50184732  0.00072814  1
  Te2-  Te153  1  0.33856320  0.50303456  0.33109003  1
  Te2-  Te154  1  0.33194203  0.50486500  0.66680191  1
  Te2-  Te155  1  0.33601366  0.83147893  0.00116042  1
  Te2-  Te156  1  0.32895840  0.83739599  0.34676444  1
  Te2-  Te157  1  0.32927636  0.83731864  0.65688800  1
  Te2-  Te158  1  0.65320251  0.16327644  0.00695338  1
  Te2-  Te159  1  0.67078620  0.17977043  0.33087797  1
  Te2-  Te160  1  0.66983964  0.17139397  0.66876581  1
  Te2-  Te161  1  0.67143159  0.50843207  -0.01005242  1
  Te2-  Te162  1  0.66665927  0.49013938  0.33393610  1
  Te2-  Te163  1  0.68015483  0.49982687  0.66821996  1
  Te2-  Te164  1  0.66577705  0.82402959  0.00598846  1
  Te2-  Te165  1  0.66695576  0.83004615  0.32848101  1
  Te2-  Te166  1  0.66646624  0.82713635  0.66845029  1
  Te2-  Te167  1  0.00138364  -0.00287212  0.16350722  1
  Te2-  Te168  1  -0.00466718  0.00155885  0.49706706  1
  Te2-  Te169  1  0.00523509  -0.00304630  0.83395946  1
  Te2-  Te170  1  -0.00211323  0.33134735  0.17755427  1
  Te2-  Te171  1  0.00339292  0.33216817  0.48586817  1
  Te2-  Te172  1  -0.00117303  0.34389836  0.82791658  1
  Te2-  Te173  1  -0.00035298  0.66853307  0.16138103  1
  Te2-  Te174  1  0.01326843  0.66923687  0.50448272  1
  Te2-  Te175  1  -0.00507674  0.65642027  0.83602779  1
  Te2-  Te176  1  0.33469744  -0.00074395  0.16612728  1
  Te2-  Te177  1  0.32765556  0.01104271  0.49940680  1
  Te2-  Te178  1  0.33592370  -0.00319451  0.83453770  1
  Te2-  Te179  1  0.33249245  0.33373505  0.17727043  1
  Te2-  Te180  1  0.33147306  0.32984465  0.49632876  1
  Te2-  Te181  1  0.33810285  0.32726923  0.82695850  1
  Te2-  Te182  1  0.33407200  0.66502524  0.15960120  1
  Te2-  Te183  1  0.32223743  0.66853058  0.50519988  1
  Te2-  Te184  1  0.33155292  0.67122529  0.83491507  1
  Te2-  Te185  1  0.66906632  -0.00087293  0.16236129  1
  Te2-  Te186  1  0.67617325  -0.00099323  0.49684445  1
  Te2-  Te187  1  0.66596139  0.01728070  0.84380300  1
  Te2-  Te188  1  0.67164523  0.33197892  0.16250635  1
  Te2-  Te189  1  0.67118808  0.33538343  0.49418352  1
  Te2-  Te190  1  0.67152552  0.31686294  0.82855897  1
  Te2-  Te191  1  0.66752750  0.66528687  0.17153896  1
  Te2-  Te192  1  0.66885929  0.66171286  0.50345309  1
  Te2-  Te193  1  0.67739141  0.67213630  0.82622796  1
  Pb2+  Pb194  1  0.50331222  0.50551907  -0.00186998  1
  Pb2+  Pb195  1  0.66332766  0.84723274  0.83689990  1
  Pb2+  Pb196  1  0.50266467  0.66343475  0.82705733  1
  Pb2+  Pb197  1  0.33481443  0.32767407  0.00507501  1
  Pb2+  Pb198  1  0.66581790  0.16659645  0.50153874  1
  Pb2+  Pb199  1  0.83522595  0.49910625  0.34352876  1
  Pb2+  Pb200  1  0.00461400  0.82516104  0.83143893  1
  Pb2+  Pb201  1  0.00888014  0.16896064  0.83044506  1
  Pb2+  Pb202  1  0.15783969  0.49499992  0.66684663  1
  Pb2+  Pb203  1  -0.00741604  0.00066664  0.66793157  1
  Pb2+  Pb204  1  0.00111720  0.33312245  0.00332874  1
  Pb2+  Pb205  1  0.66791968  0.82908088  0.49885652  1
  Pb2+  Pb206  1  0.00076550  0.49998814  0.16504109  1
  Pb2+  Pb207  1  0.34133018  0.49771034  0.50040251  1
  Pb2+  Pb208  1  0.66653443  0.00612418  0.33078086  1
  Pb2+  Pb209  1  0.82194957  0.16601857  -0.00133859  1
  Pb2+  Pb210  1  0.16737971  0.50343870  0.33167298  1
  Pb2+  Pb211  1  0.33645986  0.83278413  0.17149311  1
  Pb2+  Pb212  1  0.16961823  0.33054987  0.83126672  1
  Pb2+  Pb213  1  0.50097681  0.16291704  0.66146946  1
  Pb2+  Pb214  1  0.33024616  0.67143047  0.33195059  1
  Pb2+  Pb215  1  0.34573255  0.49488888  0.83285190  1
