# generated using pymatgen
data_In22Ag21Sn22Bi21(Te54Pb11)2
_symmetry_space_group_name_H-M   'P 1'
_cell_length_a   19.18988530
_cell_length_b   19.19269688
_cell_length_c   19.24445051
_cell_angle_alpha   90.00024662
_cell_angle_beta   90.01708683
_cell_angle_gamma   90.02098463
_symmetry_Int_Tables_number   1
_chemical_formula_structural   In22Ag21Sn22Bi21(Te54Pb11)2
_chemical_formula_sum   'In22 Ag21 Sn22 Bi21 Te108 Pb22'
_cell_volume   7087.83909842
_cell_formula_units_Z   1
loop_
 _symmetry_equiv_pos_site_id
 _symmetry_equiv_pos_as_xyz
  1  'x, y, z'
loop_
 _atom_type_symbol
 _atom_type_oxidation_number
  In3+  3.0
  Ag+  1.0
  Sn2+  2.0
  Bi3+  3.0
  Te2-  -2.0
  Pb2+  2.0
loop_
 _atom_site_type_symbol
 _atom_site_label
 _atom_site_symmetry_multiplicity
 _atom_site_fract_x
 _atom_site_fract_y
 _atom_site_fract_z
 _atom_site_occupancy
  In3+  In0  1  0.18985765  0.85556192  0.00414939  1
  In3+  In1  1  0.48976820  0.83328747  0.67570757  1
  In3+  In2  1  0.84001664  0.64946884  0.17239014  1
  In3+  In3  1  0.18682406  0.50350293  0.66259750  1
  In3+  In4  1  0.17973063  0.49785973  0.02073586  1
  In3+  In5  1  0.33114635  0.34994004  0.65234989  1
  In3+  In6  1  0.16658252  0.18885386  0.31662747  1
  In3+  In7  1  0.67701213  0.00089657  0.31418411  1
  In3+  In8  1  0.84031651  0.00661527  0.16175248  1
  In3+  In9  1  0.64759799  0.31001451  0.00055733  1
  In3+  In10  1  0.33202308  0.17128660  0.83897130  1
  In3+  In11  1  0.66842969  0.65727652  0.02684596  1
  In3+  In12  1  0.16824694  0.14598992  0.66529448  1
  In3+  In13  1  0.15643910  0.83758038  0.30240708  1
  In3+  In14  1  0.66406450  0.51685915  0.48274643  1
  In3+  In15  1  0.17488142  0.65643389  0.83453074  1
  In3+  In16  1  0.49901257  0.00115369  0.48363454  1
  In3+  In17  1  0.66989902  0.00279567  0.65313035  1
  In3+  In18  1  0.83613320  0.64844290  0.47978840  1
  In3+  In19  1  0.18572916  0.66870760  0.48820718  1
  In3+  In20  1  0.66142312  0.83307892  0.84291923  1
  In3+  In21  1  0.82702708  0.49721637  0.64869239  1
  Ag+  Ag22  1  0.46488806  0.47002005  0.36291967  1
  Ag+  Ag23  1  0.31724926  0.64574899  0.64199702  1
  Ag+  Ag24  1  0.17276270  -0.00123495  0.81266150  1
  Ag+  Ag25  1  -0.02561184  0.36206468  -0.02892791  1
  Ag+  Ag26  1  0.69833567  0.17431099  0.46972458  1
  Ag+  Ag27  1  0.50583617  0.80765055  0.02696667  1
  Ag+  Ag28  1  -0.02689783  0.85382625  0.18344109  1
  Ag+  Ag29  1  0.46658013  0.13692066  0.02821835  1
  Ag+  Ag30  1  0.18397291  0.02387642  0.17149068  1
  Ag+  Ag31  1  0.36010260  0.47665809  0.19083034  1
  Ag+  Ag32  1  0.82815627  0.52607317  0.35033938  1
  Ag+  Ag33  1  0.35164042  0.36662904  0.29936197  1
  Ag+  Ag34  1  0.36365896  0.02652205  0.03124218  1
  Ag+  Ag35  1  0.64585410  0.63866494  0.32140787  1
  Ag+  Ag36  1  0.01974697  0.50034268  0.52658857  1
  Ag+  Ag37  1  0.32082023  0.31636460  -0.00410722  1
  Ag+  Ag38  1  0.80798443  -0.00031243  0.85620811  1
  Ag+  Ag39  1  0.64440700  0.16961127  0.18056242  1
  Ag+  Ag40  1  0.18735212  0.66430954  0.19055570  1
  Ag+  Ag41  1  0.80099101  0.16487637  0.35876216  1
  Ag+  Ag42  1  0.36440556  0.47821724  0.47503932  1
  Sn2+  Sn43  1  0.49914830  0.49425692  0.00124539  1
  Sn2+  Sn44  1  0.67218986  0.84054182  0.16639929  1
  Sn2+  Sn45  1  0.66703603  0.67425811  0.66241449  1
  Sn2+  Sn46  1  0.49555082  0.16249808  0.67448829  1
  Sn2+  Sn47  1  0.00163007  0.34140207  0.66498408  1
  Sn2+  Sn48  1  0.00106365  0.65526709  0.32702943  1
  Sn2+  Sn49  1  0.33092613  0.49736064  0.84120507  1
  Sn2+  Sn50  1  0.33906226  0.00386118  0.67260016  1
  Sn2+  Sn51  1  0.16363461  0.16688689  -0.00591059  1
  Sn2+  Sn52  1  0.83030639  0.32769241  0.48709605  1
  Sn2+  Sn53  1  0.83086282  0.84496339  0.33452733  1
  Sn2+  Sn54  1  0.00091427  0.50208172  0.83260707  1
  Sn2+  Sn55  1  0.83482920  0.67692170  0.82790869  1
  Sn2+  Sn56  1  -0.00204778  0.16724585  0.16616792  1
  Sn2+  Sn57  1  0.50851328  0.50698514  0.67024241  1
  Sn2+  Sn58  1  0.49036121  0.17283900  0.33948886  1
  Sn2+  Sn59  1  0.00545128  0.66150999  0.65644611  1
  Sn2+  Sn60  1  0.16978158  0.34582906  0.16075201  1
  Sn2+  Sn61  1  0.49844225  0.82849026  0.33540559  1
  Sn2+  Sn62  1  -0.00544769  -0.00331776  0.67478781  1
  Sn2+  Sn63  1  0.66821364  0.84220316  0.50136635  1
  Sn2+  Sn64  1  0.34213751  0.66601508  0.32847020  1
  Bi3+  Bi65  1  0.32993859  -0.00065611  0.33456503  1
  Bi3+  Bi66  1  -0.00041217  0.33395353  0.33391205  1
  Bi3+  Bi67  1  0.00004217  0.83426952  0.83874634  1
  Bi3+  Bi68  1  0.83156269  -0.00369434  0.49862638  1
  Bi3+  Bi69  1  -0.00001721  0.49837826  0.16700715  1
  Bi3+  Bi70  1  -0.00258612  0.66669772  -0.00479848  1
  Bi3+  Bi71  1  0.49141578  0.00531289  0.83122422  1
  Bi3+  Bi72  1  0.49869794  0.33387061  0.16050266  1
  Bi3+  Bi73  1  0.66583126  -0.00494260  -0.00247160  1
  Bi3+  Bi74  1  0.33460998  0.82825775  0.16801783  1
  Bi3+  Bi75  1  0.83631056  0.32514917  0.16598530  1
  Bi3+  Bi76  1  0.83638067  0.16941138  -0.00315232  1
  Bi3+  Bi77  1  0.66438056  0.16353453  0.83120041  1
  Bi3+  Bi78  1  0.32938512  0.67096645  -0.00306342  1
  Bi3+  Bi79  1  0.33095399  0.83920640  0.83736091  1
  Bi3+  Bi80  1  0.00524076  -0.00496106  0.00036619  1
  Bi3+  Bi81  1  0.83067956  0.82983801  0.66604350  1
  Bi3+  Bi82  1  0.83573051  0.50221117  0.00007681  1
  Bi3+  Bi83  1  0.33272163  0.16904176  0.50754744  1
  Bi3+  Bi84  1  0.00655738  0.16108461  0.83377103  1
  Bi3+  Bi85  1  0.49929771  0.33496072  0.83299468  1
  Te2-  Te86  1  0.16604905  0.17173434  0.16507061  1
  Te2-  Te87  1  0.17112502  0.16688012  0.51062191  1
  Te2-  Te88  1  0.16896996  0.15715868  0.82646263  1
  Te2-  Te89  1  0.16070395  0.51482491  0.17119306  1
  Te2-  Te90  1  0.16469921  0.51530353  0.50947804  1
  Te2-  Te91  1  0.16538295  0.50177931  0.81961771  1
  Te2-  Te92  1  0.17240712  0.81302359  0.15435271  1
  Te2-  Te93  1  0.16490681  0.82074652  0.50737993  1
  Te2-  Te94  1  0.16644762  0.84634951  0.84671683  1
  Te2-  Te95  1  0.49804398  0.17165877  0.16681603  1
  Te2-  Te96  1  0.49278993  0.15718706  0.50747079  1
  Te2-  Te97  1  0.49960637  0.16937775  0.83639081  1
  Te2-  Te98  1  0.50329992  0.49570191  0.16336354  1
  Te2-  Te99  1  0.51069362  0.49932726  0.50302779  1
  Te2-  Te100  1  0.50110643  0.49821561  0.83259794  1
  Te2-  Te101  1  0.50101773  0.83231582  0.17055185  1
  Te2-  Te102  1  0.50402978  0.84428935  0.50168716  1
  Te2-  Te103  1  0.49832451  0.84076387  0.83023467  1
  Te2-  Te104  1  0.83719616  0.16478592  0.15806760  1
  Te2-  Te105  1  0.84021930  0.16076078  0.50474180  1
  Te2-  Te106  1  0.83557805  0.15333017  0.83470883  1
  Te2-  Te107  1  0.83436351  0.49246277  0.16224185  1
  Te2-  Te108  1  0.82342436  0.49448763  0.49494377  1
  Te2-  Te109  1  0.83721375  0.50186799  0.84014171  1
  Te2-  Te110  1  0.82799173  0.84671441  0.16935695  1
  Te2-  Te111  1  0.83491967  0.83497631  0.50046122  1
  Te2-  Te112  1  0.83476047  0.84841457  0.82922143  1
  Te2-  Te113  1  0.16232912  0.00304035  0.02172197  1
  Te2-  Te114  1  0.16679062  -0.01031104  0.32141697  1
  Te2-  Te115  1  0.16585159  -0.00589031  0.66329280  1
  Te2-  Te116  1  0.17490636  0.34263108  0.00247013  1
  Te2-  Te117  1  0.16806699  0.33968702  0.33284079  1
  Te2-  Te118  1  0.17091921  0.34840948  0.66826002  1
  Te2-  Te119  1  0.16241318  0.65304375  -0.01223242  1
  Te2-  Te120  1  0.16386892  0.67603191  0.33725797  1
  Te2-  Te121  1  0.17358269  0.65818817  0.67520269  1
  Te2-  Te122  1  0.50368517  -0.00113415  -0.00789464  1
  Te2-  Te123  1  0.49167710  0.00174746  0.33268829  1
  Te2-  Te124  1  0.50450104  -0.00631577  0.67136052  1
  Te2-  Te125  1  0.49343455  0.33446346  -0.00347539  1
  Te2-  Te126  1  0.49417020  0.33245961  0.32673991  1
  Te2-  Te127  1  0.49147966  0.33384743  0.67080914  1
  Te2-  Te128  1  0.50692789  0.66404428  -0.00063690  1
  Te2-  Te129  1  0.50421566  0.67014099  0.33550036  1
  Te2-  Te130  1  0.50359038  0.67634926  0.66642765  1
  Te2-  Te131  1  0.83458684  0.00110646  0.00126206  1
  Te2-  Te132  1  0.82894680  0.01575894  0.33495467  1
  Te2-  Te133  1  0.83086782  -0.00556031  0.66019486  1
  Te2-  Te134  1  0.83380594  0.33407696  0.00196178  1
  Te2-  Te135  1  0.83631254  0.31152289  0.32741537  1
  Te2-  Te136  1  0.83392823  0.33960731  0.66427116  1
  Te2-  Te137  1  0.82732369  0.66472711  0.00003149  1
  Te2-  Te138  1  0.83737811  0.67455183  0.32904358  1
  Te2-  Te139  1  0.83254608  0.66691048  0.67093239  1
  Te2-  Te140  1  -0.00033435  0.16131462  -0.00377436  1
  Te2-  Te141  1  0.01418264  0.16898954  0.33511426  1
  Te2-  Te142  1  0.00814818  0.16905894  0.67196599  1
  Te2-  Te143  1  0.00245325  0.50271593  0.00046606  1
  Te2-  Te144  1  -0.02118146  0.49558736  0.32807734  1
  Te2-  Te145  1  -0.01666582  0.50065778  0.66957342  1
  Te2-  Te146  1  -0.00279130  0.82944985  -0.00032815  1
  Te2-  Te147  1  0.00268746  0.82824191  0.32470077  1
  Te2-  Te148  1  -0.00425903  0.82969494  0.67063693  1
  Te2-  Te149  1  0.32504237  0.16608327  -0.00666555  1
  Te2-  Te150  1  0.32207529  0.16265457  0.34338031  1
  Te2-  Te151  1  0.32680610  0.16972497  0.66945526  1
  Te2-  Te152  1  0.33142461  0.51077095  -0.00158711  1
  Te2-  Te153  1  0.32559512  0.50991154  0.33093222  1
  Te2-  Te154  1  0.34121359  0.50405277  0.67243520  1
  Te2-  Te155  1  0.34618375  0.83132521  0.00033540  1
  Te2-  Te156  1  0.33000219  0.83401798  0.33278954  1
  Te2-  Te157  1  0.33571335  0.83465280  0.67409651  1
  Te2-  Te158  1  0.67275458  0.15786166  -0.00807727  1
  Te2-  Te159  1  0.65309186  0.15377294  0.32998819  1
  Te2-  Te160  1  0.66460323  0.16059487  0.67147529  1
  Te2-  Te161  1  0.67009146  0.50722853  -0.00085112  1
  Te2-  Te162  1  0.67760044  0.49694557  0.33629436  1
  Te2-  Te163  1  0.67361990  0.50330554  0.66520950  1
  Te2-  Te164  1  0.65601585  0.83165978  -0.00087821  1
  Te2-  Te165  1  0.66684644  0.84862148  0.33457769  1
  Te2-  Te166  1  0.67040563  0.83633300  0.66634355  1
  Te2-  Te167  1  -0.00511149  -0.00218697  0.16342804  1
  Te2-  Te168  1  -0.00145011  -0.00443368  0.50323077  1
  Te2-  Te169  1  0.01435960  -0.00212189  0.83535301  1
  Te2-  Te170  1  0.00186743  0.33423231  0.17033158  1
  Te2-  Te171  1  -0.00140374  0.34801088  0.49815244  1
  Te2-  Te172  1  0.00264047  0.32719491  0.83326355  1
  Te2-  Te173  1  -0.00924226  0.66264065  0.15825172  1
  Te2-  Te174  1  -0.01253914  0.64973529  0.50041160  1
  Te2-  Te175  1  0.00136839  0.67256267  0.83208970  1
  Te2-  Te176  1  0.32980279  -0.00619872  0.17009063  1
  Te2-  Te177  1  0.33477538  0.00222386  0.50194315  1
  Te2-  Te178  1  0.32623311  0.00126736  0.83167076  1
  Te2-  Te179  1  0.33370098  0.33607769  0.15564288  1
  Te2-  Te180  1  0.33381452  0.33793536  0.50140025  1
  Te2-  Te181  1  0.33701497  0.32849206  0.84360709  1
  Te2-  Te182  1  0.33139525  0.66809736  0.15943150  1
  Te2-  Te183  1  0.33681154  0.66435345  0.49971015  1
  Te2-  Te184  1  0.33019015  0.67303639  0.83544751  1
  Te2-  Te185  1  0.66882694  0.01324853  0.16131242  1
  Te2-  Te186  1  0.66567618  0.00775069  0.50139990  1
  Te2-  Te187  1  0.66175204  -0.00284014  0.83281220  1
  Te2-  Te188  1  0.66745975  0.31914319  0.16216051  1
  Te2-  Te189  1  0.66970801  0.31650300  0.49914897  1
  Te2-  Te190  1  0.66442114  0.33020245  0.83500961  1
  Te2-  Te191  1  0.67590539  0.67084555  0.17930323  1
  Te2-  Te192  1  0.68089836  0.66820217  0.49199067  1
  Te2-  Te193  1  0.66980201  0.67926489  0.82893541  1
  Pb2+  Pb194  1  0.49993791  0.67006260  0.83406985  1
  Pb2+  Pb195  1  0.16566445  0.82473631  0.67808178  1
  Pb2+  Pb196  1  0.50670267  0.67331158  0.50003618  1
  Pb2+  Pb197  1  0.83492531  0.33180122  0.83207658  1
  Pb2+  Pb198  1  -0.00275007  -0.00035034  0.33435662  1
  Pb2+  Pb199  1  0.66745524  0.49213016  0.16837621  1
  Pb2+  Pb200  1  0.16509397  0.34001622  0.50162554  1
  Pb2+  Pb201  1  0.67046083  0.50823684  0.83218346  1
  Pb2+  Pb202  1  0.50284345  0.32547235  0.49926180  1
  Pb2+  Pb203  1  0.16593112  -0.00519106  0.49078831  1
  Pb2+  Pb204  1  0.33437559  0.83085930  0.50202500  1
  Pb2+  Pb205  1  0.66765563  0.32930432  0.33315380  1
  Pb2+  Pb206  1  0.33210179  0.16912074  0.17246748  1
  Pb2+  Pb207  1  0.49824619  0.66274987  0.16783724  1
  Pb2+  Pb208  1  0.17032215  0.33061448  0.83619178  1
  Pb2+  Pb209  1  0.82942086  0.83229655  -0.00191772  1
  Pb2+  Pb210  1  0.15111912  0.50556573  0.33970760  1
  Pb2+  Pb211  1  0.00017241  0.82038791  0.49308467  1
  Pb2+  Pb212  1  0.50048829  -0.00140215  0.16272229  1
  Pb2+  Pb213  1  0.66381600  0.33248231  0.66363397  1
  Pb2+  Pb214  1  0.00423188  0.17437248  0.50145094  1
  Pb2+  Pb215  1  0.83472743  0.16573673  0.67114857  1
