# generated using pymatgen
data_In22Ag21Sn22Bi21(Te54Pb11)2
_symmetry_space_group_name_H-M   'P 1'
_cell_length_a   19.16832618
_cell_length_b   19.17059707
_cell_length_c   19.17163642
_cell_angle_alpha   89.99720698
_cell_angle_beta   90.00769508
_cell_angle_gamma   90.00993309
_symmetry_Int_Tables_number   1
_chemical_formula_structural   In22Ag21Sn22Bi21(Te54Pb11)2
_chemical_formula_sum   'In22 Ag21 Sn22 Bi21 Te108 Pb22'
_cell_volume   7044.96765440
_cell_formula_units_Z   1
loop_
 _symmetry_equiv_pos_site_id
 _symmetry_equiv_pos_as_xyz
  1  'x, y, z'
loop_
 _atom_type_symbol
 _atom_type_oxidation_number
  In3+  3.0
  Ag+  1.0
  Sn2+  2.0
  Bi3+  3.0
  Te2-  -2.0
  Pb2+  2.0
loop_
 _atom_site_type_symbol
 _atom_site_label
 _atom_site_symmetry_multiplicity
 _atom_site_fract_x
 _atom_site_fract_y
 _atom_site_fract_z
 _atom_site_occupancy
  In3+  In0  1  0.83930326  0.83039032  0.02244954  1
  In3+  In1  1  0.84940155  0.83371933  0.65427961  1
  In3+  In2  1  0.67037606  0.17252681  0.81776007  1
  In3+  In3  1  0.32687026  0.83403828  0.81469092  1
  In3+  In4  1  0.00166282  0.49112585  0.15109452  1
  In3+  In5  1  0.49514696  0.18162879  0.67152652  1
  In3+  In6  1  0.13737714  0.18021704  0.66779471  1
  In3+  In7  1  0.00393593  0.84538769  0.83520936  1
  In3+  In8  1  0.68808104  0.00505647  0.00484116  1
  In3+  In9  1  0.32132036  0.48244264  0.49661042  1
  In3+  In10  1  0.01434695  0.83208418  0.48415465  1
  In3+  In11  1  0.31116159  0.67914253  0.33850228  1
  In3+  In12  1  0.16151594  0.00634068  0.83361390  1
  In3+  In13  1  0.65968607  0.82643730  0.16950616  1
  In3+  In14  1  0.83783425  0.52984964  0.31886102  1
  In3+  In15  1  0.33286172  -0.00205927  0.01549005  1
  In3+  In16  1  0.83574542  0.17603907  0.67703086  1
  In3+  In17  1  0.31860030  0.01778428  0.66784791  1
  In3+  In18  1  0.33266875  0.63826195  0.66264827  1
  In3+  In19  1  -0.01237550  0.83192948  0.18384177  1
  In3+  In20  1  0.64487921  0.17718341  0.16717842  1
  In3+  In21  1  0.83687560  0.17293791  0.01158532  1
  Ag+  Ag22  1  0.15668835  0.30444678  0.47232168  1
  Ag+  Ag23  1  0.66829944  0.35457135  0.64227168  1
  Ag+  Ag24  1  0.31394846  0.33039267  0.66090743  1
  Ag+  Ag25  1  0.15464074  0.64850141  0.48267005  1
  Ag+  Ag26  1  0.85048671  0.83087372  0.35303817  1
  Ag+  Ag27  1  0.02067359  0.36027714  0.66394134  1
  Ag+  Ag28  1  0.52532714  -0.00256657  0.13817062  1
  Ag+  Ag29  1  0.03054786  0.30364565  0.02993222  1
  Ag+  Ag30  1  0.49208600  0.35692685  0.17474553  1
  Ag+  Ag31  1  0.47110390  0.65072596  0.19794852  1
  Ag+  Ag32  1  0.00360798  0.00582468  0.30909964  1
  Ag+  Ag33  1  0.18965237  0.16642702  0.02425512  1
  Ag+  Ag34  1  0.01868336  -0.00033476  0.65249279  1
  Ag+  Ag35  1  0.30440341  0.47027972  0.86461326  1
  Ag+  Ag36  1  0.14320685  0.81751473  0.32872839  1
  Ag+  Ag37  1  0.84852628  0.47183395  0.02213654  1
  Ag+  Ag38  1  -0.01321383  0.19132299  0.16363146  1
  Ag+  Ag39  1  0.84244148  0.65719064  0.15387353  1
  Ag+  Ag40  1  0.13286334  0.30533585  0.81196631  1
  Ag+  Ag41  1  0.01455341  0.64160099  0.30295566  1
  Ag+  Ag42  1  0.29797747  -0.02299827  0.31292447  1
  Sn2+  Sn43  1  0.00446832  0.00754014  0.00242474  1
  Sn2+  Sn44  1  0.84602739  0.65992377  0.49666221  1
  Sn2+  Sn45  1  0.67448770  0.16975363  0.49533172  1
  Sn2+  Sn46  1  0.83372566  -0.00746215  0.82692596  1
  Sn2+  Sn47  1  0.67611312  0.66321594  0.65693240  1
  Sn2+  Sn48  1  0.49834495  0.49573211  0.66893203  1
  Sn2+  Sn49  1  0.32672257  0.16891527  0.17157397  1
  Sn2+  Sn50  1  0.84291426  -0.00322034  0.49806947  1
  Sn2+  Sn51  1  0.83542756  0.49684547  0.67304889  1
  Sn2+  Sn52  1  0.16549141  0.16299729  0.33477927  1
  Sn2+  Sn53  1  0.47997481  0.66266858  0.49123410  1
  Sn2+  Sn54  1  0.49640522  0.33773015  0.84001276  1
  Sn2+  Sn55  1  -0.00094063  0.66502474  -0.00182219  1
  Sn2+  Sn56  1  0.17475653  0.32525239  0.15835288  1
  Sn2+  Sn57  1  0.67100309  -0.00368476  0.32901126  1
  Sn2+  Sn58  1  0.16852189  -0.00144351  0.49322324  1
  Sn2+  Sn59  1  0.00525083  0.67725473  0.66296134  1
  Sn2+  Sn60  1  0.83318062  0.00342050  0.17117546  1
  Sn2+  Sn61  1  0.68184387  0.66716309  0.33206543  1
  Sn2+  Sn62  1  0.83626456  0.67011199  0.83964847  1
  Sn2+  Sn63  1  0.50166315  0.83101434  0.00960504  1
  Sn2+  Sn64  1  0.00513414  0.49245208  0.49993406  1
  Bi3+  Bi65  1  0.33353973  0.83773323  0.49753605  1
  Bi3+  Bi66  1  0.49606314  -0.00085205  0.83127155  1
  Bi3+  Bi67  1  0.50217245  0.50135627  -0.00138265  1
  Bi3+  Bi68  1  0.33508343  0.16483601  0.50041425  1
  Bi3+  Bi69  1  0.66837876  0.67407416  -0.00204919  1
  Bi3+  Bi70  1  0.33455740  0.83437905  0.16866322  1
  Bi3+  Bi71  1  0.50254031  0.83717990  0.33420144  1
  Bi3+  Bi72  1  0.83593654  0.15739992  0.33433892  1
  Bi3+  Bi73  1  0.49806241  0.83448504  0.67062634  1
  Bi3+  Bi74  1  0.49704997  0.66713206  0.82725140  1
  Bi3+  Bi75  1  0.66718461  0.32990397  0.33290897  1
  Bi3+  Bi76  1  0.33404743  0.33087739  -0.00400599  1
  Bi3+  Bi77  1  0.66716258  -0.00417923  0.67132784  1
  Bi3+  Bi78  1  -0.00084164  0.50261798  0.83149931  1
  Bi3+  Bi79  1  0.16313312  0.00240071  0.16552756  1
  Bi3+  Bi80  1  0.50332592  -0.00007320  0.50254205  1
  Bi3+  Bi81  1  0.66520598  0.33392839  0.00218483  1
  Bi3+  Bi82  1  0.83150617  0.33485274  0.83334926  1
  Bi3+  Bi83  1  0.49830410  0.16354035  0.33639793  1
  Bi3+  Bi84  1  0.16741129  0.66844267  0.83194532  1
  Bi3+  Bi85  1  0.66899770  0.83630466  0.83390274  1
  Te2-  Te86  1  0.16228224  0.16498641  0.16933003  1
  Te2-  Te87  1  0.17117379  0.16171011  0.50975250  1
  Te2-  Te88  1  0.16446259  0.16151975  0.82037561  1
  Te2-  Te89  1  0.15598488  0.50090328  0.16702987  1
  Te2-  Te90  1  0.17040486  0.50473797  0.50302848  1
  Te2-  Te91  1  0.16472380  0.50361284  0.83530274  1
  Te2-  Te92  1  0.16929583  0.83921786  0.17752749  1
  Te2-  Te93  1  0.16945730  0.83947742  0.48604010  1
  Te2-  Te94  1  0.16432958  0.83529438  0.83621295  1
  Te2-  Te95  1  0.49656431  0.14347001  0.17377859  1
  Te2-  Te96  1  0.50199564  0.16554142  0.50203015  1
  Te2-  Te97  1  0.50796188  0.16342255  0.83180302  1
  Te2-  Te98  1  0.49946761  0.50897001  0.16495442  1
  Te2-  Te99  1  0.49830109  0.50256321  0.50074399  1
  Te2-  Te100  1  0.49544127  0.50580788  0.83438947  1
  Te2-  Te101  1  0.50202224  0.84917679  0.16947622  1
  Te2-  Te102  1  0.50060301  0.83436546  0.50382734  1
  Te2-  Te103  1  0.50013054  0.83323640  0.83513607  1
  Te2-  Te104  1  0.84031899  0.16460571  0.16786376  1
  Te2-  Te105  1  0.83585428  0.16485485  0.49925263  1
  Te2-  Te106  1  0.82778970  0.16510081  0.83681485  1
  Te2-  Te107  1  0.84417006  0.50954421  0.16460557  1
  Te2-  Te108  1  0.84066171  0.50173020  0.50709757  1
  Te2-  Te109  1  0.83510135  0.50147632  0.83204689  1
  Te2-  Te110  1  0.83280519  0.83871655  0.17151218  1
  Te2-  Te111  1  0.84099334  0.82871744  0.50044195  1
  Te2-  Te112  1  0.82952378  0.83085608  0.82537554  1
  Te2-  Te113  1  0.17311587  0.01426279  -0.00343536  1
  Te2-  Te114  1  0.15644857  0.00733065  0.33141302  1
  Te2-  Te115  1  0.16544286  -0.00074909  0.67568950  1
  Te2-  Te116  1  0.17261528  0.31923213  0.00165282  1
  Te2-  Te117  1  0.16681526  0.33137714  0.32990900  1
  Te2-  Te118  1  0.16606504  0.32696774  0.67197257  1
  Te2-  Te119  1  0.16731635  0.67024585  -0.00457529  1
  Te2-  Te120  1  0.15614493  0.67092937  0.33595304  1
  Te2-  Te121  1  0.17690294  0.66900392  0.67168029  1
  Te2-  Te122  1  0.48901415  -0.00173596  -0.00658902  1
  Te2-  Te123  1  0.50640132  0.00093081  0.34193867  1
  Te2-  Te124  1  0.50373526  -0.00020011  0.66834922  1
  Te2-  Te125  1  0.50135379  0.33735997  0.01112462  1
  Te2-  Te126  1  0.50429043  0.32966383  0.32433870  1
  Te2-  Te127  1  0.52091401  0.33011622  0.66953936  1
  Te2-  Te128  1  0.50514631  0.66669880  -0.00421644  1
  Te2-  Te129  1  0.51284546  0.67394032  0.33447068  1
  Te2-  Te130  1  0.49399375  0.67051587  0.66506725  1
  Te2-  Te131  1  0.83700350  -0.00245177  -0.00524599  1
  Te2-  Te132  1  0.83578388  -0.00402664  0.33878976  1
  Te2-  Te133  1  0.82751754  -0.01140173  0.66635364  1
  Te2-  Te134  1  0.82845802  0.32900803  -0.00161743  1
  Te2-  Te135  1  0.83020135  0.32288153  0.33577102  1
  Te2-  Te136  1  0.81660543  0.32761964  0.67125199  1
  Te2-  Te137  1  0.82918530  0.67679106  0.00591517  1
  Te2-  Te138  1  0.83718593  0.68095739  0.33267610  1
  Te2-  Te139  1  0.83492872  0.67309572  0.66764092  1
  Te2-  Te140  1  -0.01019205  0.16655183  0.01201172  1
  Te2-  Te141  1  -0.00349241  0.15817249  0.32687299  1
  Te2-  Te142  1  -0.01227491  0.14957833  0.66855571  1
  Te2-  Te143  1  -0.00848981  0.50196994  -0.00229446  1
  Te2-  Te144  1  -0.01243626  0.50385102  0.34125131  1
  Te2-  Te145  1  -0.00375371  0.50636340  0.66684174  1
  Te2-  Te146  1  -0.00772533  0.83314128  -0.01100224  1
  Te2-  Te147  1  -0.00191250  0.85086482  0.33424543  1
  Te2-  Te148  1  -0.00046820  0.84523392  0.67974469  1
  Te2-  Te149  1  0.33507049  0.16682565  0.00120789  1
  Te2-  Te150  1  0.33515745  0.16209843  0.33853576  1
  Te2-  Te151  1  0.34221881  0.17929447  0.66376812  1
  Te2-  Te152  1  0.33623537  0.49992614  0.00478508  1
  Te2-  Te153  1  0.33382224  0.50550950  0.34246857  1
  Te2-  Te154  1  0.33829508  0.48503293  0.65694012  1
  Te2-  Te155  1  0.33100447  0.84038716  0.00800786  1
  Te2-  Te156  1  0.33981572  0.83584900  0.33414710  1
  Te2-  Te157  1  0.33594132  0.84232249  0.65895615  1
  Te2-  Te158  1  0.67203912  0.16589168  0.01076755  1
  Te2-  Te159  1  0.66768995  0.16476480  0.32711084  1
  Te2-  Te160  1  0.67657652  0.15695671  0.66634611  1
  Te2-  Te161  1  0.66762366  0.50287752  -0.00116119  1
  Te2-  Te162  1  0.67959306  0.49569905  0.33024278  1
  Te2-  Te163  1  0.66631166  0.50201245  0.66596320  1
  Te2-  Te164  1  0.67187887  0.83985761  -0.00412172  1
  Te2-  Te165  1  0.66493207  0.83532497  0.32673179  1
  Te2-  Te166  1  0.66087162  0.83204281  0.66999389  1
  Te2-  Te167  1  0.00236910  -0.01428706  0.16140003  1
  Te2-  Te168  1  0.00216614  -0.01382681  0.50700196  1
  Te2-  Te169  1  0.00360655  -0.00077376  0.83603026  1
  Te2-  Te170  1  0.00018341  0.33867525  0.16862008  1
  Te2-  Te171  1  0.01407442  0.33280693  0.51217897  1
  Te2-  Te172  1  -0.00944590  0.33892728  0.81871732  1
  Te2-  Te173  1  -0.00946485  0.68122647  0.16474303  1
  Te2-  Te174  1  0.01083363  0.67940817  0.50717165  1
  Te2-  Te175  1  0.00309150  0.66546301  0.83070086  1
  Te2-  Te176  1  0.32613730  0.00033911  0.17015950  1
  Te2-  Te177  1  0.33831419  0.00232508  0.50616819  1
  Te2-  Te178  1  0.33309997  -0.00278951  0.82812037  1
  Te2-  Te179  1  0.34275427  0.33089367  0.16400192  1
  Te2-  Te180  1  0.32232843  0.32971312  0.50566891  1
  Te2-  Te181  1  0.34127439  0.33371277  0.83393475  1
  Te2-  Te182  1  0.33062239  0.67160244  0.17039523  1
  Te2-  Te183  1  0.32314473  0.67496188  0.49937197  1
  Te2-  Te184  1  0.33394051  0.67064829  0.82379011  1
  Te2-  Te185  1  0.67169790  -0.00262462  0.15774937  1
  Te2-  Te186  1  0.66731902  0.00224688  0.50498271  1
  Te2-  Te187  1  0.66188154  0.00108553  0.83899587  1
  Te2-  Te188  1  0.65919385  0.33258618  0.16602396  1
  Te2-  Te189  1  0.66539466  0.33136985  0.49519371  1
  Te2-  Te190  1  0.66607169  0.32679143  0.84106951  1
  Te2-  Te191  1  0.67468770  0.67688093  0.16103228  1
  Te2-  Te192  1  0.67118446  0.66877997  0.49773657  1
  Te2-  Te193  1  0.66377038  0.67198878  0.83222472  1
  Pb2+  Pb194  1  0.66853965  0.51002725  0.16396001  1
  Pb2+  Pb195  1  0.67436955  0.83451948  0.49670189  1
  Pb2+  Pb196  1  0.50242970  0.16792149  0.00345915  1
  Pb2+  Pb197  1  0.33620733  0.67177095  -0.00718028  1
  Pb2+  Pb198  1  -0.00068619  0.32920341  0.34229707  1
  Pb2+  Pb199  1  0.82950220  0.33311334  0.16919119  1
  Pb2+  Pb200  1  -0.00390743  0.17127010  0.84158553  1
  Pb2+  Pb201  1  0.16632640  0.49426851  0.66949550  1
  Pb2+  Pb202  1  0.84327746  0.33465282  0.50605116  1
  Pb2+  Pb203  1  0.16186262  0.49916149  0.33656833  1
  Pb2+  Pb204  1  0.16647532  0.83389127  0.65842578  1
  Pb2+  Pb205  1  0.49315041  0.33522579  0.50342766  1
  Pb2+  Pb206  1  0.00353680  0.15730767  0.49494671  1
  Pb2+  Pb207  1  0.15930125  0.84357448  0.00476551  1
  Pb2+  Pb208  1  0.50378951  0.50436156  0.33385976  1
  Pb2+  Pb209  1  0.67264278  0.50332210  0.49853370  1
  Pb2+  Pb210  1  0.15935855  0.67258312  0.16420031  1
  Pb2+  Pb211  1  0.33387738  0.16736570  0.83226942  1
  Pb2+  Pb212  1  0.33368872  0.32893282  0.33408185  1
  Pb2+  Pb213  1  0.16102379  0.48992124  -0.00089187  1
  Pb2+  Pb214  1  0.66418398  0.49842294  0.83200693  1
  Pb2+  Pb215  1  0.32985204  0.49886907  0.17290081  1
