# generated using pymatgen
data_In22Ag21Sn22Bi21(Te54Pb11)2
_symmetry_space_group_name_H-M   'P 1'
_cell_length_a   19.11431218
_cell_length_b   19.12201382
_cell_length_c   19.12202559
_cell_angle_alpha   89.99516494
_cell_angle_beta   90.00470637
_cell_angle_gamma   90.00229788
_symmetry_Int_Tables_number   1
_chemical_formula_structural   In22Ag21Sn22Bi21(Te54Pb11)2
_chemical_formula_sum   'In22 Ag21 Sn22 Bi21 Te108 Pb22'
_cell_volume   6989.17949842
_cell_formula_units_Z   1
loop_
 _symmetry_equiv_pos_site_id
 _symmetry_equiv_pos_as_xyz
  1  'x, y, z'
loop_
 _atom_type_symbol
 _atom_type_oxidation_number
  In3+  3.0
  Ag+  1.0
  Sn2+  2.0
  Bi3+  3.0
  Te2-  -2.0
  Pb2+  2.0
loop_
 _atom_site_type_symbol
 _atom_site_label
 _atom_site_symmetry_multiplicity
 _atom_site_fract_x
 _atom_site_fract_y
 _atom_site_fract_z
 _atom_site_occupancy
  In3+  In0  1  0.67291522  0.66361697  -0.00416822  1
  In3+  In1  1  0.33317933  0.19196155  0.50515846  1
  In3+  In2  1  0.67467597  0.32975367  -0.01712291  1
  In3+  In3  1  0.49162038  0.83677373  0.66655258  1
  In3+  In4  1  0.33239227  0.02865306  0.66125176  1
  In3+  In5  1  0.16160004  0.67418177  0.17403051  1
  In3+  In6  1  0.49147471  0.34602117  0.49013638  1
  In3+  In7  1  0.49529610  0.48479804  0.66652513  1
  In3+  In8  1  0.32534108  0.00534541  0.32977005  1
  In3+  In9  1  0.16358669  0.32613736  0.83103801  1
  In3+  In10  1  0.48937044  0.68059783  0.16593765  1
  In3+  In11  1  0.33623150  0.33533485  -0.00489345  1
  In3+  In12  1  0.17120006  0.49416189  0.67313623  1
  In3+  In13  1  0.18055581  0.66243882  0.49590920  1
  In3+  In14  1  0.01761933  0.83833933  0.84086635  1
  In3+  In15  1  0.66603107  0.84711370  0.83715674  1
  In3+  In16  1  0.86942042  0.83445563  0.31553555  1
  In3+  In17  1  0.17270093  0.49613063  0.33399220  1
  In3+  In18  1  0.17344436  0.84701278  0.66971731  1
  In3+  In19  1  0.66039740  0.66538736  0.68263945  1
  In3+  In20  1  0.02555763  0.16837796  0.50173368  1
  In3+  In21  1  0.48575582  0.01207636  0.49779855  1
  Ag+  Ag22  1  0.51808414  0.49824052  0.02132411  1
  Ag+  Ag23  1  0.17365998  0.19069780  0.33068906  1
  Ag+  Ag24  1  0.80347109  0.32572000  0.14517149  1
  Ag+  Ag25  1  0.67251312  0.14587676  0.80472712  1
  Ag+  Ag26  1  -0.01939296  0.46822618  0.83012097  1
  Ag+  Ag27  1  0.16998411  0.02368306  0.84849495  1
  Ag+  Ag28  1  0.17653971  0.85515753  0.31447692  1
  Ag+  Ag29  1  0.00291903  0.85816431  0.14009224  1
  Ag+  Ag30  1  0.31053108  0.67250690  0.31275188  1
  Ag+  Ag31  1  0.80990661  0.83276627  -0.01702030  1
  Ag+  Ag32  1  0.80329034  0.49896715  0.67863096  1
  Ag+  Ag33  1  0.34536987  0.32919967  0.67993821  1
  Ag+  Ag34  1  0.17840696  -0.02839316  0.14298652  1
  Ag+  Ag35  1  0.16684559  0.18768629  0.68905987  1
  Ag+  Ag36  1  -0.02415643  0.32812825  0.01728995  1
  Ag+  Ag37  1  0.69680531  0.30968759  0.33363490  1
  Ag+  Ag38  1  0.68862565  0.49889781  0.86060052  1
  Ag+  Ag39  1  0.51971908  0.18344355  0.66573262  1
  Ag+  Ag40  1  0.31036135  0.49655379  0.47940373  1
  Ag+  Ag41  1  0.33068574  0.30978622  0.33758855  1
  Ag+  Ag42  1  0.15788606  0.85604101  0.02333397  1
  Sn2+  Sn43  1  0.48698011  0.49637516  0.33288491  1
  Sn2+  Sn44  1  0.67293024  0.00080797  0.00635830  1
  Sn2+  Sn45  1  0.33512461  0.84447089  0.83664442  1
  Sn2+  Sn46  1  0.49094554  0.00413645  0.16042712  1
  Sn2+  Sn47  1  0.82462321  0.33315993  0.50111047  1
  Sn2+  Sn48  1  0.49806402  0.66415309  0.49609436  1
  Sn2+  Sn49  1  0.00368810  0.65900929  0.66808472  1
  Sn2+  Sn50  1  0.00096830  0.49712826  0.15251837  1
  Sn2+  Sn51  1  0.00371185  -0.00077561  0.00204370  1
  Sn2+  Sn52  1  0.00579450  0.33393691  0.31868424  1
  Sn2+  Sn53  1  0.82267467  0.00317158  0.50525486  1
  Sn2+  Sn54  1  0.00036081  0.49451782  0.51119716  1
  Sn2+  Sn55  1  0.32783657  0.17105090  0.17349670  1
  Sn2+  Sn56  1  0.66196853  0.17359353  0.50292698  1
  Sn2+  Sn57  1  0.33659618  0.49264693  0.17465775  1
  Sn2+  Sn58  1  0.83471161  0.50151845  0.33939764  1
  Sn2+  Sn59  1  -0.00395987  0.16415610  0.83184596  1
  Sn2+  Sn60  1  0.34212523  0.16911623  0.82890227  1
  Sn2+  Sn61  1  0.50613248  0.33494748  0.16754021  1
  Sn2+  Sn62  1  0.49945907  0.66032828  0.83615500  1
  Sn2+  Sn63  1  0.65913754  -0.00409652  0.66734012  1
  Sn2+  Sn64  1  0.68327260  0.83087767  0.16878861  1
  Bi3+  Bi65  1  0.33181836  0.50100280  0.83380316  1
  Bi3+  Bi66  1  0.00343589  0.16540425  0.16613392  1
  Bi3+  Bi67  1  0.00130444  0.33346462  0.66278592  1
  Bi3+  Bi68  1  0.16793340  0.66316120  0.83018710  1
  Bi3+  Bi69  1  0.66490509  0.66798347  0.33013317  1
  Bi3+  Bi70  1  0.83306620  0.66620612  0.50110243  1
  Bi3+  Bi71  1  0.16611285  0.50260621  -0.00018638  1
  Bi3+  Bi72  1  0.17326534  0.33693112  0.16358649  1
  Bi3+  Bi73  1  0.66797871  0.50035114  0.49464184  1
  Bi3+  Bi74  1  -0.00109126  0.83431919  0.50214293  1
  Bi3+  Bi75  1  0.33731304  0.65641386  0.66731672  1
  Bi3+  Bi76  1  0.66357500  0.16802197  0.17061148  1
  Bi3+  Bi77  1  0.00212807  0.65959714  0.33799072  1
  Bi3+  Bi78  1  0.33370911  0.66168968  0.00224826  1
  Bi3+  Bi79  1  0.00310529  -0.00100307  0.66617201  1
  Bi3+  Bi80  1  0.66806627  0.49842186  0.17031189  1
  Bi3+  Bi81  1  0.49605161  0.33361784  0.83400201  1
  Bi3+  Bi82  1  0.00689016  -0.00031001  0.33466879  1
  Bi3+  Bi83  1  0.16648360  -0.00662331  0.49993091  1
  Bi3+  Bi84  1  0.66599739  0.83333324  0.50361596  1
  Bi3+  Bi85  1  0.83586545  0.65887320  0.16869086  1
  Te2-  Te86  1  0.16657283  0.17371262  0.17722924  1
  Te2-  Te87  1  0.17881768  0.16016383  0.48732622  1
  Te2-  Te88  1  0.17028285  0.17090232  0.83542088  1
  Te2-  Te89  1  0.16575661  0.50059302  0.16525450  1
  Te2-  Te90  1  0.16223223  0.50364084  0.49852861  1
  Te2-  Te91  1  0.16855727  0.50027607  0.83355163  1
  Te2-  Te92  1  0.15496423  0.82692895  0.16712199  1
  Te2-  Te93  1  0.16194994  0.82437709  0.51087361  1
  Te2-  Te94  1  0.16993294  0.82583328  0.82418329  1
  Te2-  Te95  1  0.49863341  0.16414879  0.16806896  1
  Te2-  Te96  1  0.48815542  0.16337544  0.51490042  1
  Te2-  Te97  1  0.50583525  0.17117915  0.82009049  1
  Te2-  Te98  1  0.50434247  0.49757620  0.16918117  1
  Te2-  Te99  1  0.50457841  0.49987991  0.50505342  1
  Te2-  Te100  1  0.49298666  0.49736267  0.82266706  1
  Te2-  Te101  1  0.50313766  0.83467504  0.16545325  1
  Te2-  Te102  1  0.50388339  0.83105782  0.50790773  1
  Te2-  Te103  1  0.50740360  0.83101905  0.82556097  1
  Te2-  Te104  1  0.83309652  0.17892029  0.16924294  1
  Te2-  Te105  1  0.82412189  0.16431213  0.50009051  1
  Te2-  Te106  1  0.81999951  0.16629910  0.83212293  1
  Te2-  Te107  1  0.83343582  0.49472005  0.16945118  1
  Te2-  Te108  1  0.83204902  0.50336795  0.50583484  1
  Te2-  Te109  1  0.83524606  0.50127284  0.82446531  1
  Te2-  Te110  1  0.84691420  0.82816179  0.16545855  1
  Te2-  Te111  1  0.83184915  0.83278677  0.50001747  1
  Te2-  Te112  1  0.81912808  0.83239688  0.83530923  1
  Te2-  Te113  1  0.16409832  0.00033946  -0.00356848  1
  Te2-  Te114  1  0.17030654  -0.00000858  0.33967363  1
  Te2-  Te115  1  0.16931594  0.00096972  0.66012262  1
  Te2-  Te116  1  0.17826696  0.33915985  -0.00258648  1
  Te2-  Te117  1  0.17621502  0.34078107  0.33042133  1
  Te2-  Te118  1  0.16461253  0.33575251  0.66848572  1
  Te2-  Te119  1  0.17034532  0.66535671  -0.00184566  1
  Te2-  Te120  1  0.16395504  0.65809782  0.33672362  1
  Te2-  Te121  1  0.17048630  0.65396275  0.66432064  1
  Te2-  Te122  1  0.50012890  0.00016531  0.00088921  1
  Te2-  Te123  1  0.48724348  -0.00055465  0.33647105  1
  Te2-  Te124  1  0.48960622  -0.00684109  0.66242269  1
  Te2-  Te125  1  0.49260800  0.34696028  -0.00172986  1
  Te2-  Te126  1  0.48260753  0.33466458  0.33728476  1
  Te2-  Te127  1  0.49228387  0.32886288  0.66203012  1
  Te2-  Te128  1  0.49641646  0.65147845  0.00826822  1
  Te2-  Te129  1  0.50340395  0.66473649  0.32622260  1
  Te2-  Te130  1  0.50022166  0.67259241  0.66654580  1
  Te2-  Te131  1  0.83406832  -0.01491718  0.00179483  1
  Te2-  Te132  1  0.84019541  -0.00598549  0.33508792  1
  Te2-  Te133  1  0.83701149  0.00033040  0.66696546  1
  Te2-  Te134  1  0.82975512  0.33567851  0.00064417  1
  Te2-  Te135  1  0.84080659  0.33931444  0.34348369  1
  Te2-  Te136  1  0.83438849  0.34535280  0.66175826  1
  Te2-  Te137  1  0.83142642  0.67881219  0.00638399  1
  Te2-  Te138  1  0.83387313  0.67189564  0.33357863  1
  Te2-  Te139  1  0.83163500  0.65335378  0.66257046  1
  Te2-  Te140  1  -0.00164656  0.17378559  0.00046946  1
  Te2-  Te141  1  0.01242553  0.16487741  0.33255854  1
  Te2-  Te142  1  0.01469022  0.16433253  0.66369111  1
  Te2-  Te143  1  0.00366388  0.49059702  -0.01529608  1
  Te2-  Te144  1  0.00428975  0.49842596  0.33503798  1
  Te2-  Te145  1  0.01120795  0.49455024  0.67854822  1
  Te2-  Te146  1  0.01030467  0.83900809  -0.00462590  1
  Te2-  Te147  1  0.02167973  0.82869374  0.34073593  1
  Te2-  Te148  1  0.00437056  0.83510649  0.66547092  1
  Te2-  Te149  1  0.33514476  0.17323778  -0.00099742  1
  Te2-  Te150  1  0.32647586  0.15917007  0.34167834  1
  Te2-  Te151  1  0.31802950  0.17873462  0.65975367  1
  Te2-  Te152  1  0.33095540  0.49736422  -0.00037883  1
  Te2-  Te153  1  0.32680059  0.52006558  0.33287838  1
  Te2-  Te154  1  0.33271755  0.49175921  0.66944025  1
  Te2-  Te155  1  0.32743137  0.82877459  -0.00140088  1
  Te2-  Te156  1  0.32215274  0.82185897  0.33501995  1
  Te2-  Te157  1  0.33399927  0.82163908  0.67043943  1
  Te2-  Te158  1  0.66493084  0.17604908  0.00880738  1
  Te2-  Te159  1  0.66491275  0.16508501  0.33415076  1
  Te2-  Te160  1  0.66670135  0.16461679  0.66018912  1
  Te2-  Te161  1  0.66532820  0.50122306  0.00725537  1
  Te2-  Te162  1  0.66470119  0.50542405  0.33252373  1
  Te2-  Te163  1  0.65377018  0.50732402  0.65735711  1
  Te2-  Te164  1  0.66240456  0.82681899  -0.00151511  1
  Te2-  Te165  1  0.66375873  0.83139486  0.33699254  1
  Te2-  Te166  1  0.66500345  0.82806671  0.66915671  1
  Te2-  Te167  1  0.00978102  0.00362694  0.17134183  1
  Te2-  Te168  1  -0.00212971  0.00061949  0.50001861  1
  Te2-  Te169  1  0.01750146  -0.00187037  0.82817961  1
  Te2-  Te170  1  0.00801273  0.33088016  0.16052103  1
  Te2-  Te171  1  -0.00084991  0.32603003  0.50021048  1
  Te2-  Te172  1  0.00645702  0.32241412  0.82694658  1
  Te2-  Te173  1  -0.00003816  0.66016269  0.17405887  1
  Te2-  Te174  1  -0.00387025  0.66783903  0.50112527  1
  Te2-  Te175  1  0.00560245  0.68072590  0.83299083  1
  Te2-  Te176  1  0.32282001  0.00255656  0.17078126  1
  Te2-  Te177  1  0.33290257  -0.00892729  0.50589797  1
  Te2-  Te178  1  0.32056760  0.00201486  0.82330233  1
  Te2-  Te179  1  0.33440462  0.33087213  0.17948334  1
  Te2-  Te180  1  0.33579395  0.34582421  0.48740808  1
  Te2-  Te181  1  0.33014351  0.33431583  0.82789070  1
  Te2-  Te182  1  0.33121745  0.66292970  0.16442888  1
  Te2-  Te183  1  0.33463374  0.64837630  0.50628251  1
  Te2-  Te184  1  0.33346650  0.66761648  0.83390865  1
  Te2-  Te185  1  0.66723701  0.00148909  0.16663522  1
  Te2-  Te186  1  0.65668076  -0.00369017  0.50459588  1
  Te2-  Te187  1  0.66581656  0.00140375  0.83630628  1
  Te2-  Te188  1  0.66389426  0.33360941  0.18777811  1
  Te2-  Te189  1  0.65531445  0.33590138  0.48872144  1
  Te2-  Te190  1  0.65838812  0.35056263  0.83297582  1
  Te2-  Te191  1  0.67108961  0.66661718  0.16492500  1
  Te2-  Te192  1  0.66816958  0.66857683  0.49588591  1
  Te2-  Te193  1  0.66232243  0.64912067  0.83753451  1
  Pb2+  Pb194  1  0.49480287  0.82300501  -0.00528487  1
  Pb2+  Pb195  1  0.32813282  0.83477163  0.16973717  1
  Pb2+  Pb196  1  0.83387819  0.66603498  0.83269265  1
  Pb2+  Pb197  1  0.16587145  0.16890207  0.00687663  1
  Pb2+  Pb198  1  0.50044044  0.17508089  -0.00621443  1
  Pb2+  Pb199  1  0.48973046  0.83081821  0.33618322  1
  Pb2+  Pb200  1  0.83759409  0.50586108  -0.00277307  1
  Pb2+  Pb201  1  0.84553709  0.00020535  0.83545783  1
  Pb2+  Pb202  1  0.84413644  0.17182371  0.66608878  1
  Pb2+  Pb203  1  0.84447150  0.16924168  0.33503765  1
  Pb2+  Pb204  1  0.33138950  0.82291454  0.50041696  1
  Pb2+  Pb205  1  0.83499347  0.82469956  0.66860593  1
  Pb2+  Pb206  1  0.33215102  0.00173754  -0.00211796  1
  Pb2+  Pb207  1  0.66342772  0.33626578  0.66131938  1
  Pb2+  Pb208  1  0.66456590  -0.00288076  0.33585159  1
  Pb2+  Pb209  1  0.83279256  0.15887265  0.00098955  1
  Pb2+  Pb210  1  0.49368762  0.00260509  0.83048361  1
  Pb2+  Pb211  1  0.00317520  0.66647640  0.00284979  1
  Pb2+  Pb212  1  0.84081441  0.00268534  0.16697980  1
  Pb2+  Pb213  1  0.16749528  0.33263822  0.50098748  1
  Pb2+  Pb214  1  0.83164983  0.33441203  0.83008717  1
  Pb2+  Pb215  1  0.49510170  0.16959611  0.34091058  1
