# generated using pymatgen
data_In22Ag21Sn22Bi21(Te54Pb11)2
_symmetry_space_group_name_H-M   'P 1'
_cell_length_a   19.14959555
_cell_length_b   19.15339439
_cell_length_c   19.13195278
_cell_angle_alpha   89.99715007
_cell_angle_beta   89.99022485
_cell_angle_gamma   89.99855401
_symmetry_Int_Tables_number   1
_chemical_formula_structural   In22Ag21Sn22Bi21(Te54Pb11)2
_chemical_formula_sum   'In22 Ag21 Sn22 Bi21 Te108 Pb22'
_cell_volume   7017.21285986
_cell_formula_units_Z   1
loop_
 _symmetry_equiv_pos_site_id
 _symmetry_equiv_pos_as_xyz
  1  'x, y, z'
loop_
 _atom_type_symbol
 _atom_type_oxidation_number
  In3+  3.0
  Ag+  1.0
  Sn2+  2.0
  Bi3+  3.0
  Te2-  -2.0
  Pb2+  2.0
loop_
 _atom_site_type_symbol
 _atom_site_label
 _atom_site_symmetry_multiplicity
 _atom_site_fract_x
 _atom_site_fract_y
 _atom_site_fract_z
 _atom_site_occupancy
  In3+  In0  1  0.82846523  -0.01215392  0.86016424  1
  In3+  In1  1  0.65679486  0.84750995  0.48559411  1
  In3+  In2  1  0.49024609  0.33424311  0.16729803  1
  In3+  In3  1  -0.00510908  0.15941403  0.17102451  1
  In3+  In4  1  0.83445386  0.51430697  0.67019702  1
  In3+  In5  1  0.65117653  0.84371165  0.17680146  1
  In3+  In6  1  0.18187090  0.66850841  0.49812268  1
  In3+  In7  1  0.01211143  0.50463132  0.49776846  1
  In3+  In8  1  0.01139484  -0.00278930  0.00218602  1
  In3+  In9  1  -0.00550692  0.83549883  0.16297430  1
  In3+  In10  1  0.82909173  0.67409584  0.48655937  1
  In3+  In11  1  0.18520129  -0.02185080  0.83336684  1
  In3+  In12  1  0.34949845  0.81085471  0.84916419  1
  In3+  In13  1  0.82370601  0.14239145  0.32597126  1
  In3+  In14  1  0.68503447  0.50505227  0.49222408  1
  In3+  In15  1  0.32738011  0.49628121  0.51613281  1
  In3+  In16  1  0.01041632  0.49839013  0.14152176  1
  In3+  In17  1  0.18032816  0.51250592  0.69509311  1
  In3+  In18  1  0.82891839  0.66689363  0.83885660  1
  In3+  In19  1  0.33369703  0.14962934  0.83328360  1
  In3+  In20  1  0.82865244  0.83296725  0.68414628  1
  In3+  In21  1  0.65850081  0.67728240  0.01333000  1
  Ag+  Ag22  1  0.19392583  0.52264182  0.00733911  1
  Ag+  Ag23  1  0.64765641  0.83935466  0.81801105  1
  Ag+  Ag24  1  0.36027324  -0.03320169  0.66362144  1
  Ag+  Ag25  1  0.30617982  0.50990893  0.86553740  1
  Ag+  Ag26  1  0.47764922  -0.02109171  0.16604471  1
  Ag+  Ag27  1  0.46221652  0.85394442  0.68467179  1
  Ag+  Ag28  1  0.19646058  0.68267892  0.85955874  1
  Ag+  Ag29  1  0.80995488  0.84021623  0.33256391  1
  Ag+  Ag30  1  0.50720007  0.84081294  0.31911467  1
  Ag+  Ag31  1  0.64228119  0.13639222  0.17276436  1
  Ag+  Ag32  1  0.35274899  0.67313630  0.66265289  1
  Ag+  Ag33  1  0.18506913  0.32526913  0.13898678  1
  Ag+  Ag34  1  0.19315334  0.81564131  -0.00055144  1
  Ag+  Ag35  1  0.66356882  0.67995517  0.34945076  1
  Ag+  Ag36  1  0.66610500  -0.01892596  0.33129165  1
  Ag+  Ag37  1  0.52380140  0.83051121  0.01824940  1
  Ag+  Ag38  1  0.83270371  -0.02454711  0.16672001  1
  Ag+  Ag39  1  0.36070302  -0.00211273  0.02278554  1
  Ag+  Ag40  1  0.81477200  0.36732639  0.47404563  1
  Ag+  Ag41  1  0.50541203  0.68075294  0.18203407  1
  Ag+  Ag42  1  0.81918417  0.51635096  0.01073626  1
  Sn2+  Sn43  1  0.50933140  0.14642930  0.32783528  1
  Sn2+  Sn44  1  0.65940308  0.67069456  0.66522405  1
  Sn2+  Sn45  1  0.82466529  0.33551960  0.82870188  1
  Sn2+  Sn46  1  0.50360714  0.33816345  0.49608098  1
  Sn2+  Sn47  1  0.33735566  0.67591271  -0.00201833  1
  Sn2+  Sn48  1  0.49714269  0.51157153  0.33177284  1
  Sn2+  Sn49  1  0.50142991  0.51318785  0.66361733  1
  Sn2+  Sn50  1  0.33762087  0.16440448  0.50312150  1
  Sn2+  Sn51  1  0.49025217  0.33313995  0.83224910  1
  Sn2+  Sn52  1  0.50111906  0.15308681  0.00680545  1
  Sn2+  Sn53  1  -0.00949397  0.82854734  0.49167508  1
  Sn2+  Sn54  1  0.66710160  0.15780193  0.84349770  1
  Sn2+  Sn55  1  0.82465289  0.83000537  0.01268914  1
  Sn2+  Sn56  1  -0.00576486  0.66839105  0.32820676  1
  Sn2+  Sn57  1  0.16351940  0.49993573  0.32153955  1
  Sn2+  Sn58  1  0.16433605  0.82867994  0.67406187  1
  Sn2+  Sn59  1  0.16901010  0.16900524  0.32484072  1
  Sn2+  Sn60  1  0.33582346  0.33697506  0.67383958  1
  Sn2+  Sn61  1  0.66815434  0.17281857  0.48782658  1
  Sn2+  Sn62  1  0.67061879  0.50318096  0.16603663  1
  Sn2+  Sn63  1  0.34848114  0.66916854  0.33278303  1
  Sn2+  Sn64  1  0.83169661  0.50694035  0.32554376  1
  Bi3+  Bi65  1  0.16273817  0.33523181  0.49999472  1
  Bi3+  Bi66  1  -0.00561746  0.66895083  0.66198882  1
  Bi3+  Bi67  1  -0.00351521  0.33690112  0.66647305  1
  Bi3+  Bi68  1  0.66758402  -0.00315120  0.00911542  1
  Bi3+  Bi69  1  0.33443819  0.50228581  0.17057720  1
  Bi3+  Bi70  1  0.66634398  0.33619784  0.00208634  1
  Bi3+  Bi71  1  0.16841728  0.16407387  -0.00264126  1
  Bi3+  Bi72  1  -0.00319625  0.49945535  0.82722924  1
  Bi3+  Bi73  1  0.33584680  0.33500962  0.33733909  1
  Bi3+  Bi74  1  0.82835353  0.66704584  0.16660144  1
  Bi3+  Bi75  1  0.83037354  0.16381584  0.66334670  1
  Bi3+  Bi76  1  -0.00394434  0.16793627  0.49777461  1
  Bi3+  Bi77  1  0.50457657  0.66415958  0.83283663  1
  Bi3+  Bi78  1  -0.00288958  -0.00149234  0.67012198  1
  Bi3+  Bi79  1  0.17254992  0.83118005  0.32618446  1
  Bi3+  Bi80  1  0.33097131  0.82979845  0.16255568  1
  Bi3+  Bi81  1  0.66506854  0.33594185  0.32902687  1
  Bi3+  Bi82  1  0.16890923  0.34060165  0.83107601  1
  Bi3+  Bi83  1  0.83461721  0.34050736  0.16571552  1
  Bi3+  Bi84  1  0.66865743  0.50335819  0.82753260  1
  Bi3+  Bi85  1  0.66863758  0.33471116  0.66700384  1
  Te2-  Te86  1  0.16065903  0.17666652  0.16333570  1
  Te2-  Te87  1  0.16227333  0.16987055  0.49761874  1
  Te2-  Te88  1  0.17286374  0.17669334  0.83349898  1
  Te2-  Te89  1  0.16662799  0.49114634  0.15503026  1
  Te2-  Te90  1  0.16554739  0.49963849  0.49367904  1
  Te2-  Te91  1  0.15874898  0.50392903  0.84699094  1
  Te2-  Te92  1  0.16709233  0.83370216  0.15711186  1
  Te2-  Te93  1  0.16432050  0.82394796  0.49348801  1
  Te2-  Te94  1  0.16814927  0.82572027  0.84612571  1
  Te2-  Te95  1  0.50186555  0.17691429  0.16799625  1
  Te2-  Te96  1  0.50347858  0.16968230  0.49603928  1
  Te2-  Te97  1  0.49628070  0.16773963  0.83808544  1
  Te2-  Te98  1  0.49920676  0.49245655  0.16906061  1
  Te2-  Te99  1  0.48625477  0.49672271  0.50033174  1
  Te2-  Te100  1  0.50731289  0.50154931  0.82865177  1
  Te2-  Te101  1  0.50037336  0.82987098  0.16652976  1
  Te2-  Te102  1  0.50780540  0.83223678  0.50007156  1
  Te2-  Te103  1  0.50043044  0.82904992  0.82652071  1
  Te2-  Te104  1  0.84209332  0.17824127  0.17520007  1
  Te2-  Te105  1  0.83444513  0.16514672  0.49713071  1
  Te2-  Te106  1  0.82624647  0.16502049  0.83007706  1
  Te2-  Te107  1  0.83706320  0.50512855  0.15803541  1
  Te2-  Te108  1  0.83628270  0.50778222  0.50123621  1
  Te2-  Te109  1  0.83186808  0.50332951  0.83251595  1
  Te2-  Te110  1  0.84011573  0.82491304  0.17965813  1
  Te2-  Te111  1  0.82914317  0.82734504  0.48190053  1
  Te2-  Te112  1  0.83389939  0.82952431  0.83847964  1
  Te2-  Te113  1  0.16267049  0.00309915  -0.01319856  1
  Te2-  Te114  1  0.16828209  -0.00256647  0.33265690  1
  Te2-  Te115  1  0.15688940  -0.00076734  0.67973921  1
  Te2-  Te116  1  0.16814188  0.32848888  -0.00644942  1
  Te2-  Te117  1  0.17100274  0.33352588  0.33808841  1
  Te2-  Te118  1  0.16270701  0.34662332  0.66512626  1
  Te2-  Te119  1  0.17022778  0.66809015  0.00330790  1
  Te2-  Te120  1  0.17110806  0.66832951  0.33769870  1
  Te2-  Te121  1  0.15475416  0.65994496  0.65324348  1
  Te2-  Te122  1  0.50761666  -0.00847774  0.01494429  1
  Te2-  Te123  1  0.51008429  -0.00725849  0.31754910  1
  Te2-  Te124  1  0.50628638  -0.00556746  0.66875122  1
  Te2-  Te125  1  0.50277983  0.33030823  0.00361198  1
  Te2-  Te126  1  0.49902547  0.33359303  0.33090873  1
  Te2-  Te127  1  0.50564734  0.33690093  0.66530667  1
  Te2-  Te128  1  0.50432321  0.68058506  -0.00662577  1
  Te2-  Te129  1  0.50757028  0.67160585  0.32912460  1
  Te2-  Te130  1  0.49969544  0.67295518  0.66872216  1
  Te2-  Te131  1  0.82936961  0.00012637  0.01304174  1
  Te2-  Te132  1  0.82409059  -0.00773763  0.32158679  1
  Te2-  Te133  1  0.83593606  -0.00352407  0.66624746  1
  Te2-  Te134  1  0.82886933  0.33574865  -0.00144970  1
  Te2-  Te135  1  0.82902500  0.34225771  0.33037227  1
  Te2-  Te136  1  0.83241533  0.32795225  0.66486318  1
  Te2-  Te137  1  0.82648258  0.66482185  0.00114210  1
  Te2-  Te138  1  0.82047847  0.66537189  0.33007974  1
  Te2-  Te139  1  0.83248109  0.67286670  0.66293242  1
  Te2-  Te140  1  0.00149515  0.16083408  0.00530177  1
  Te2-  Te141  1  -0.00204265  0.16616889  0.33318002  1
  Te2-  Te142  1  -0.00404144  0.16721585  0.66473558  1
  Te2-  Te143  1  -0.00939968  0.50257575  -0.01003761  1
  Te2-  Te144  1  -0.00086931  0.50620592  0.34164115  1
  Te2-  Te145  1  -0.00245528  0.50053067  0.66170491  1
  Te2-  Te146  1  -0.00746499  0.84046024  0.00702207  1
  Te2-  Te147  1  0.01115283  0.82950519  0.32308394  1
  Te2-  Te148  1  -0.00457837  0.83422376  0.65902119  1
  Te2-  Te149  1  0.33257023  0.14855969  -0.00616856  1
  Te2-  Te150  1  0.33548921  0.16951792  0.33686413  1
  Te2-  Te151  1  0.33440467  0.17647950  0.67258285  1
  Te2-  Te152  1  0.33941855  0.50249138  0.00876565  1
  Te2-  Te153  1  0.33053083  0.50102102  0.33115451  1
  Te2-  Te154  1  0.33130263  0.50531346  0.66709566  1
  Te2-  Te155  1  0.33637834  0.84468161  -0.00234801  1
  Te2-  Te156  1  0.33566051  0.83058598  0.33026020  1
  Te2-  Te157  1  0.31889734  0.82037252  0.67017909  1
  Te2-  Te158  1  0.66228656  0.16835361  0.00966492  1
  Te2-  Te159  1  0.67163253  0.17490878  0.31936833  1
  Te2-  Te160  1  0.66919744  0.16956931  0.66660477  1
  Te2-  Te161  1  0.67096186  0.50014816  -0.00681440  1
  Te2-  Te162  1  0.66249686  0.49658490  0.33782821  1
  Te2-  Te163  1  0.67095696  0.49713120  0.66251509  1
  Te2-  Te164  1  0.66840481  0.83079094  -0.00704484  1
  Te2-  Te165  1  0.65937406  0.82837675  0.33021397  1
  Te2-  Te166  1  0.67713453  0.82850284  0.67288147  1
  Te2-  Te167  1  -0.01135197  0.00082666  0.16178762  1
  Te2-  Te168  1  0.00170467  0.00221335  0.50229913  1
  Te2-  Te169  1  -0.01634190  -0.00121833  0.83548306  1
  Te2-  Te170  1  -0.00185503  0.34601342  0.16875018  1
  Te2-  Te171  1  -0.00182427  0.33246907  0.50466836  1
  Te2-  Te172  1  -0.00124485  0.33312081  0.82914767  1
  Te2-  Te173  1  -0.00256665  0.65528640  0.16590553  1
  Te2-  Te174  1  -0.01381632  0.66477249  0.49858514  1
  Te2-  Te175  1  -0.01316962  0.66376377  0.82546301  1
  Te2-  Te176  1  0.33050603  -0.00380303  0.16809064  1
  Te2-  Te177  1  0.33208832  0.00338559  0.51534798  1
  Te2-  Te178  1  0.33209931  -0.00114773  0.81143087  1
  Te2-  Te179  1  0.33029675  0.33515715  0.17119671  1
  Te2-  Te180  1  0.32856765  0.33462166  0.49991217  1
  Te2-  Te181  1  0.33053359  0.35902026  0.83280115  1
  Te2-  Te182  1  0.34820311  0.66717656  0.16368386  1
  Te2-  Te183  1  0.33298634  0.65902819  0.50944004  1
  Te2-  Te184  1  0.33741053  0.65913143  0.82840211  1
  Te2-  Te185  1  0.67954516  -0.00581719  0.16920821  1
  Te2-  Te186  1  0.66687526  0.00093562  0.48402060  1
  Te2-  Te187  1  0.67231066  -0.00965242  0.84008627  1
  Te2-  Te188  1  0.67139080  0.34070903  0.16431541  1
  Te2-  Te189  1  0.67172345  0.33764685  0.50035990  1
  Te2-  Te190  1  0.66217004  0.33335029  0.83378796  1
  Te2-  Te191  1  0.65938057  0.66583373  0.16369062  1
  Te2-  Te192  1  0.67348199  0.65814355  0.49541449  1
  Te2-  Te193  1  0.67259531  0.66485431  0.83046253  1
  Pb2+  Pb194  1  -0.00089050  0.67098942  -0.00223349  1
  Pb2+  Pb195  1  0.15945697  0.00280029  0.16254274  1
  Pb2+  Pb196  1  0.00019541  0.33498800  0.00225541  1
  Pb2+  Pb197  1  0.34080983  -0.00042722  0.33880134  1
  Pb2+  Pb198  1  0.33527538  0.32379625  -0.00375747  1
  Pb2+  Pb199  1  -0.00629171  -0.00319321  0.33017937  1
  Pb2+  Pb200  1  0.33788387  0.82994258  0.50295329  1
  Pb2+  Pb201  1  0.17259598  0.66374086  0.16949231  1
  Pb2+  Pb202  1  -0.00179783  0.33700512  0.33494792  1
  Pb2+  Pb203  1  0.16808435  -0.00678075  0.50647340  1
  Pb2+  Pb204  1  0.33429146  0.16312860  0.16519307  1
  Pb2+  Pb205  1  0.66919656  -0.00546932  0.66357113  1
  Pb2+  Pb206  1  0.16936193  0.17152111  0.66544282  1
  Pb2+  Pb207  1  0.50478173  0.66556737  0.49627089  1
  Pb2+  Pb208  1  0.83305118  -0.00514997  0.49556481  1
  Pb2+  Pb209  1  0.00347783  0.83270858  0.83205880  1
  Pb2+  Pb210  1  0.00195383  0.16267656  0.83662769  1
  Pb2+  Pb211  1  0.49958400  -0.00345759  0.84221552  1
  Pb2+  Pb212  1  0.50439560  0.50700573  0.00087467  1
  Pb2+  Pb213  1  0.50008519  0.16364266  0.66734729  1
  Pb2+  Pb214  1  0.49972779  -0.00079752  0.49401244  1
  Pb2+  Pb215  1  0.82944361  0.16909841  0.00516791  1
