# generated using pymatgen
data_In22Ag21Sn22Bi21(Te54Pb11)2
_symmetry_space_group_name_H-M   'P 1'
_cell_length_a   19.13479631
_cell_length_b   19.11755972
_cell_length_c   19.14514031
_cell_angle_alpha   90.00984311
_cell_angle_beta   90.00057818
_cell_angle_gamma   89.99665891
_symmetry_Int_Tables_number   1
_chemical_formula_structural   In22Ag21Sn22Bi21(Te54Pb11)2
_chemical_formula_sum   'In22 Ag21 Sn22 Bi21 Te108 Pb22'
_cell_volume   7003.49536035
_cell_formula_units_Z   1
loop_
 _symmetry_equiv_pos_site_id
 _symmetry_equiv_pos_as_xyz
  1  'x, y, z'
loop_
 _atom_type_symbol
 _atom_type_oxidation_number
  In3+  3.0
  Ag+  1.0
  Sn2+  2.0
  Bi3+  3.0
  Te2-  -2.0
  Pb2+  2.0
loop_
 _atom_site_type_symbol
 _atom_site_label
 _atom_site_symmetry_multiplicity
 _atom_site_fract_x
 _atom_site_fract_y
 _atom_site_fract_z
 _atom_site_occupancy
  In3+  In0  1  0.00598021  -0.00227018  -0.00374948  1
  In3+  In1  1  0.15234702  0.17537338  0.66793867  1
  In3+  In2  1  0.33943390  0.82039081  0.15910381  1
  In3+  In3  1  0.18167325  -0.00401487  0.17008872  1
  In3+  In4  1  0.49773662  0.64572693  0.83587755  1
  In3+  In5  1  0.65793637  0.79961191  0.83334992  1
  In3+  In6  1  0.00125160  -0.00176327  0.33625830  1
  In3+  In7  1  0.49905485  0.49799395  0.31798164  1
  In3+  In8  1  0.48360734  0.32144091  0.50187788  1
  In3+  In9  1  0.00185102  0.82346450  0.49990142  1
  In3+  In10  1  0.17060284  0.80731512  0.33422498  1
  In3+  In11  1  -0.01027096  0.65999898  0.66983102  1
  In3+  In12  1  0.16903953  0.35094430  0.48308387  1
  In3+  In13  1  0.83472018  0.66130357  0.48527079  1
  In3+  In14  1  0.85165166  0.66098992  0.83362268  1
  In3+  In15  1  0.16887633  0.65910110  0.52013325  1
  In3+  In16  1  0.33630471  0.18597471  0.83032975  1
  In3+  In17  1  0.33236773  0.00459612  -0.00927347  1
  In3+  In18  1  0.50659662  0.48700354  0.67031330  1
  In3+  In19  1  0.49495751  0.32644636  0.15026852  1
  In3+  In20  1  0.34105905  0.66160545  0.66997414  1
  In3+  In21  1  0.32393106  0.48908917  0.83756305  1
  Ag+  Ag22  1  0.47653780  0.19254548  0.33230922  1
  Ag+  Ag23  1  0.14496402  0.31846369  0.83574776  1
  Ag+  Ag24  1  0.01826047  0.63472063  0.02459217  1
  Ag+  Ag25  1  0.18806356  0.50709720  0.01776192  1
  Ag+  Ag26  1  0.31613953  0.36083119  0.00355969  1
  Ag+  Ag27  1  0.49409648  0.64019797  0.19484239  1
  Ag+  Ag28  1  0.68774950  0.66022939  0.32747974  1
  Ag+  Ag29  1  0.49947183  0.33800138  0.84893195  1
  Ag+  Ag30  1  0.15088138  0.64410480  0.83273480  1
  Ag+  Ag31  1  -0.02693715  0.52548355  0.48623730  1
  Ag+  Ag32  1  0.30660773  0.83350165  0.50210959  1
  Ag+  Ag33  1  0.85321829  0.51709646  0.33427043  1
  Ag+  Ag34  1  0.14763134  0.49901084  0.31119074  1
  Ag+  Ag35  1  0.48922077  0.18211357  0.68756142  1
  Ag+  Ag36  1  0.82973438  -0.02944456  0.52809552  1
  Ag+  Ag37  1  0.47368832  0.16800411  -0.01432366  1
  Ag+  Ag38  1  0.85994098  0.49913121  0.68419367  1
  Ag+  Ag39  1  0.02898775  0.16964307  0.81115379  1
  Ag+  Ag40  1  0.30934950  0.47676997  0.13324155  1
  Ag+  Ag41  1  0.85681965  0.52394015  -0.02113575  1
  Ag+  Ag42  1  0.69408557  0.50069717  0.85991493  1
  Sn2+  Sn43  1  0.33870360  0.15717972  0.50727753  1
  Sn2+  Sn44  1  0.66026858  0.18118725  0.83724612  1
  Sn2+  Sn45  1  0.50374598  0.01233895  0.83258542  1
  Sn2+  Sn46  1  0.32578564  0.67007265  -0.00215031  1
  Sn2+  Sn47  1  0.33264785  0.33383312  0.67857163  1
  Sn2+  Sn48  1  0.50074421  0.66503406  0.50060449  1
  Sn2+  Sn49  1  0.16412297  0.81130409  -0.00337994  1
  Sn2+  Sn50  1  0.33609203  0.82958013  0.82586963  1
  Sn2+  Sn51  1  0.00284400  0.34467657  0.67378035  1
  Sn2+  Sn52  1  0.49646251  0.84009338  0.66894657  1
  Sn2+  Sn53  1  0.00825512  0.49314209  0.83308359  1
  Sn2+  Sn54  1  0.00075808  0.66249036  0.32786793  1
  Sn2+  Sn55  1  0.66240829  0.66306863  0.65878509  1
  Sn2+  Sn56  1  0.82425135  0.17577521  0.66710936  1
  Sn2+  Sn57  1  0.49580366  0.83102628  0.33316382  1
  Sn2+  Sn58  1  0.50136136  0.00580526  0.16838306  1
  Sn2+  Sn59  1  0.66193489  0.16478858  0.17312773  1
  Sn2+  Sn60  1  0.82289629  0.66279372  0.15837323  1
  Sn2+  Sn61  1  0.66367362  -0.00887403  0.33416177  1
  Sn2+  Sn62  1  0.82577421  0.34349553  0.16298932  1
  Sn2+  Sn63  1  0.01247882  0.33683223  -0.00377609  1
  Sn2+  Sn64  1  0.33150658  0.00102523  0.33844649  1
  Bi3+  Bi65  1  0.16761852  0.49518983  0.67028760  1
  Bi3+  Bi66  1  0.66258569  0.50283827  0.49907786  1
  Bi3+  Bi67  1  0.83727513  0.00185889  0.16512116  1
  Bi3+  Bi68  1  0.66917514  0.83193325  0.50011360  1
  Bi3+  Bi69  1  0.00243612  0.16605318  0.50077119  1
  Bi3+  Bi70  1  0.16312308  0.00241812  0.49749685  1
  Bi3+  Bi71  1  0.66710676  0.33391500  -0.00240940  1
  Bi3+  Bi72  1  0.16192675  0.16688684  -0.00145653  1
  Bi3+  Bi73  1  0.66601140  0.33464923  0.66824817  1
  Bi3+  Bi74  1  0.66490502  0.00020947  0.66745019  1
  Bi3+  Bi75  1  0.83257112  0.16911820  -0.00276115  1
  Bi3+  Bi76  1  0.66434206  0.50345058  0.17042490  1
  Bi3+  Bi77  1  0.83356074  0.00049277  0.83606301  1
  Bi3+  Bi78  1  0.33745623  -0.00023037  0.66973807  1
  Bi3+  Bi79  1  0.33692672  0.50652202  0.50145332  1
  Bi3+  Bi80  1  0.65935078  0.83063884  0.16844408  1
  Bi3+  Bi81  1  0.83409581  0.83077703  -0.00255567  1
  Bi3+  Bi82  1  0.66699133  0.33804621  0.33501028  1
  Bi3+  Bi83  1  0.33319849  0.67045971  0.33698486  1
  Bi3+  Bi84  1  -0.00115317  0.16850749  0.16212431  1
  Bi3+  Bi85  1  0.83478353  0.16885792  0.33396950  1
  Te2-  Te86  1  0.16300491  0.16282727  0.16448095  1
  Te2-  Te87  1  0.16885042  0.16432659  0.50942152  1
  Te2-  Te88  1  0.17520520  0.17172239  0.83340084  1
  Te2-  Te89  1  0.16747006  0.50068629  0.16367887  1
  Te2-  Te90  1  0.17336547  0.50392165  0.50528942  1
  Te2-  Te91  1  0.17142141  0.49812241  0.82886053  1
  Te2-  Te92  1  0.17555118  0.83680257  0.17182130  1
  Te2-  Te93  1  0.15840567  0.83794625  0.49463213  1
  Te2-  Te94  1  0.16717836  0.83647094  0.83733433  1
  Te2-  Te95  1  0.50326888  0.17180301  0.18313562  1
  Te2-  Te96  1  0.49536853  0.16770582  0.48157465  1
  Te2-  Te97  1  0.49556898  0.17361179  0.83576973  1
  Te2-  Te98  1  0.49896806  0.49569979  0.16352559  1
  Te2-  Te99  1  0.49778179  0.49973414  0.51328762  1
  Te2-  Te100  1  0.48733930  0.49227713  0.82419193  1
  Te2-  Te101  1  0.49741107  0.83884298  0.16489365  1
  Te2-  Te102  1  0.51008942  0.83041480  0.50036101  1
  Te2-  Te103  1  0.50596163  0.84207394  0.83113343  1
  Te2-  Te104  1  0.83434415  0.16732289  0.16457650  1
  Te2-  Te105  1  0.84026498  0.17008925  0.49960062  1
  Te2-  Te106  1  0.82740396  0.16523968  0.83511153  1
  Te2-  Te107  1  0.82737292  0.50595238  0.18264102  1
  Te2-  Te108  1  0.82697507  0.50827345  0.48656591  1
  Te2-  Te109  1  0.83904516  0.50697248  0.83212360  1
  Te2-  Te110  1  0.82871277  0.83387763  0.16099301  1
  Te2-  Te111  1  0.83668918  0.82631048  0.49915450  1
  Te2-  Te112  1  0.82626278  0.83320145  0.83572917  1
  Te2-  Te113  1  0.17045402  0.00168988  0.00961746  1
  Te2-  Te114  1  0.16393509  0.00141294  0.33377039  1
  Te2-  Te115  1  0.17175467  0.00509657  0.66378316  1
  Te2-  Te116  1  0.17084805  0.33080198  -0.01455661  1
  Te2-  Te117  1  0.17061052  0.34716809  0.32945894  1
  Te2-  Te118  1  0.17346510  0.32976850  0.68352519  1
  Te2-  Te119  1  0.16123741  0.65513092  -0.01227677  1
  Te2-  Te120  1  0.16926175  0.65443714  0.33410226  1
  Te2-  Te121  1  0.17298270  0.66258199  0.67428982  1
  Te2-  Te122  1  0.49019494  0.01507083  0.00246546  1
  Te2-  Te123  1  0.50242135  -0.00674729  0.33088784  1
  Te2-  Te124  1  0.50227584  0.00906172  0.66431154  1
  Te2-  Te125  1  0.50647611  0.31886348  -0.00161245  1
  Te2-  Te126  1  0.50539997  0.33945932  0.34532398  1
  Te2-  Te127  1  0.50155522  0.32636308  0.65603574  1
  Te2-  Te128  1  0.49570644  0.66772093  -0.01301297  1
  Te2-  Te129  1  0.49327857  0.66697668  0.34007709  1
  Te2-  Te130  1  0.49686313  0.67106719  0.67012943  1
  Te2-  Te131  1  0.83341248  0.00066747  0.00030936  1
  Te2-  Te132  1  0.83534416  0.00431236  0.32694762  1
  Te2-  Te133  1  0.83064224  0.00136505  0.67141815  1
  Te2-  Te134  1  0.83123051  0.33158077  0.00330814  1
  Te2-  Te135  1  0.82777403  0.33201185  0.33161393  1
  Te2-  Te136  1  0.83042698  0.34806348  0.66729308  1
  Te2-  Te137  1  0.83624927  0.66920116  -0.00927301  1
  Te2-  Te138  1  0.83536900  0.66489644  0.33067601  1
  Te2-  Te139  1  0.83486191  0.65150833  0.67617785  1
  Te2-  Te140  1  -0.00136723  0.16856570  0.00048788  1
  Te2-  Te141  1  -0.00097984  0.16754932  0.33128136  1
  Te2-  Te142  1  -0.00333899  0.17160685  0.66600627  1
  Te2-  Te143  1  -0.00157139  0.49412246  -0.00708293  1
  Te2-  Te144  1  0.00337329  0.50363296  0.34279351  1
  Te2-  Te145  1  0.00523663  0.50496095  0.65398612  1
  Te2-  Te146  1  -0.00063678  0.83644237  -0.00085460  1
  Te2-  Te147  1  0.00792042  0.83252529  0.33829194  1
  Te2-  Te148  1  -0.00031695  0.82784935  0.66073636  1
  Te2-  Te149  1  0.32622771  0.15921947  -0.00835767  1
  Te2-  Te150  1  0.33049753  0.16682351  0.33536069  1
  Te2-  Te151  1  0.34232941  0.16339305  0.67382099  1
  Te2-  Te152  1  0.33384447  0.50781863  -0.00842593  1
  Te2-  Te153  1  0.34495080  0.50598719  0.34040854  1
  Te2-  Te154  1  0.33433601  0.50359849  0.66528377  1
  Te2-  Te155  1  0.32711767  0.83674183  0.00432860  1
  Te2-  Te156  1  0.32393574  0.83209283  0.34731734  1
  Te2-  Te157  1  0.33640610  0.83723589  0.65482197  1
  Te2-  Te158  1  0.67031748  0.17191636  0.00366390  1
  Te2-  Te159  1  0.67330155  0.16724826  0.33375174  1
  Te2-  Te160  1  0.66467798  0.16894851  0.66803024  1
  Te2-  Te161  1  0.67145623  0.49727861  0.00668026  1
  Te2-  Te162  1  0.65520588  0.50757301  0.33485803  1
  Te2-  Te163  1  0.65907341  0.49985478  0.66055865  1
  Te2-  Te164  1  0.66744667  0.83294145  0.00011157  1
  Te2-  Te165  1  0.66714704  0.82428985  0.33305061  1
  Te2-  Te166  1  0.66507889  0.83316129  0.66687566  1
  Te2-  Te167  1  -0.00098495  0.00454339  0.16856480  1
  Te2-  Te168  1  -0.00337056  0.00286194  0.49569295  1
  Te2-  Te169  1  -0.00214242  0.01358996  0.83325734  1
  Te2-  Te170  1  -0.00278598  0.33233445  0.16605553  1
  Te2-  Te171  1  0.01678363  0.32739175  0.50538377  1
  Te2-  Te172  1  -0.00348004  0.32270262  0.82829900  1
  Te2-  Te173  1  -0.00250205  0.66977163  0.16510414  1
  Te2-  Te174  1  0.00425957  0.66851744  0.50340415  1
  Te2-  Te175  1  0.00523247  0.66663852  0.82355632  1
  Te2-  Te176  1  0.33337701  -0.00285748  0.17114088  1
  Te2-  Te177  1  0.32828014  -0.00956103  0.50453215  1
  Te2-  Te178  1  0.33668144  -0.00652971  0.83387326  1
  Te2-  Te179  1  0.34051618  0.33451432  0.15314199  1
  Te2-  Te180  1  0.32661162  0.33586248  0.50354959  1
  Te2-  Te181  1  0.34738136  0.33703367  0.84556880  1
  Te2-  Te182  1  0.34595598  0.67045079  0.16947465  1
  Te2-  Te183  1  0.32650912  0.67480693  0.50496313  1
  Te2-  Te184  1  0.34213152  0.67441152  0.82611004  1
  Te2-  Te185  1  0.67168584  -0.00512415  0.16753834  1
  Te2-  Te186  1  0.68275422  -0.00516650  0.50351490  1
  Te2-  Te187  1  0.66819077  0.00924582  0.82853496  1
  Te2-  Te188  1  0.65796203  0.33674334  0.17183176  1
  Te2-  Te189  1  0.66850125  0.33852345  0.50065380  1
  Te2-  Te190  1  0.65502322  0.34959583  0.83081542  1
  Te2-  Te191  1  0.65347311  0.66830820  0.17676832  1
  Te2-  Te192  1  0.67447059  0.66799402  0.49186838  1
  Te2-  Te193  1  0.65492246  0.64629260  0.82900642  1
  Pb2+  Pb194  1  0.84338537  0.33959701  0.50253086  1
  Pb2+  Pb195  1  0.00519414  0.83647749  0.16698435  1
  Pb2+  Pb196  1  0.16736454  0.17072576  0.34023208  1
  Pb2+  Pb197  1  -0.00110578  0.83794094  0.83405233  1
  Pb2+  Pb198  1  0.17028393  0.83146507  0.66875784  1
  Pb2+  Pb199  1  0.49494079  0.83702682  -0.00396802  1
  Pb2+  Pb200  1  -0.00219397  0.33815455  0.33622240  1
  Pb2+  Pb201  1  -0.00279017  0.50267716  0.16559847  1
  Pb2+  Pb202  1  0.65882281  0.00387341  -0.00369820  1
  Pb2+  Pb203  1  0.83134232  0.82059579  0.66768601  1
  Pb2+  Pb204  1  0.50373481  0.49411552  -0.00416887  1
  Pb2+  Pb205  1  0.16626044  0.33309908  0.15244179  1
  Pb2+  Pb206  1  0.83686868  0.83563843  0.33082567  1
  Pb2+  Pb207  1  0.50397850  -0.00222973  0.49766684  1
  Pb2+  Pb208  1  0.00187510  0.00085727  0.66333513  1
  Pb2+  Pb209  1  0.33720320  0.33922701  0.32846798  1
  Pb2+  Pb210  1  0.17571074  0.66635214  0.16226346  1
  Pb2+  Pb211  1  0.66657684  0.16731963  0.50004377  1
  Pb2+  Pb212  1  0.82669084  0.33571531  0.83482027  1
  Pb2+  Pb213  1  0.16784141  0.00281313  0.83875130  1
  Pb2+  Pb214  1  0.66482884  0.66414214  0.00271573  1
  Pb2+  Pb215  1  0.33673956  0.16465888  0.16126711  1
