# generated using pymatgen
data_In22Ag21Sn22Bi21(Te54Pb11)2
_symmetry_space_group_name_H-M   'P 1'
_cell_length_a   19.31884448
_cell_length_b   19.38319658
_cell_length_c   19.39493140
_cell_angle_alpha   90.02804747
_cell_angle_beta   89.97235388
_cell_angle_gamma   89.99672582
_symmetry_Int_Tables_number   1
_chemical_formula_structural   In22Ag21Sn22Bi21(Te54Pb11)2
_chemical_formula_sum   'In22 Ag21 Sn22 Bi21 Te108 Pb22'
_cell_volume   7262.64290807
_cell_formula_units_Z   1
loop_
 _symmetry_equiv_pos_site_id
 _symmetry_equiv_pos_as_xyz
  1  'x, y, z'
loop_
 _atom_type_symbol
 _atom_type_oxidation_number
  In3+  3.0
  Ag+  1.0
  Sn2+  2.0
  Bi3+  3.0
  Te2-  -2.0
  Pb2+  2.0
loop_
 _atom_site_type_symbol
 _atom_site_label
 _atom_site_symmetry_multiplicity
 _atom_site_fract_x
 _atom_site_fract_y
 _atom_site_fract_z
 _atom_site_occupancy
  In3+  In0  1  0.18485588  -0.00094453  0.17409480  1
  In3+  In1  1  0.52364992  0.33737519  0.19258365  1
  In3+  In2  1  0.34027729  -0.02211261  0.64951303  1
  In3+  In3  1  0.00560747  0.01081165  0.33829217  1
  In3+  In4  1  0.68222254  0.33369612  0.33637080  1
  In3+  In5  1  0.02578031  0.83808878  0.81136627  1
  In3+  In6  1  0.00048097  0.68509422  0.35400539  1
  In3+  In7  1  0.15925225  0.50774445  0.65624742  1
  In3+  In8  1  0.00019501  0.52565104  0.17995754  1
  In3+  In9  1  0.00936219  0.34900411  -0.02324239  1
  In3+  In10  1  0.17814843  0.50567619  0.34687068  1
  In3+  In11  1  0.66505450  0.15241938  0.17424189  1
  In3+  In12  1  0.66351716  0.81797815  0.80680436  1
  In3+  In13  1  -0.01235698  -0.00496618  0.64226624  1
  In3+  In14  1  0.86800704  0.69452069  0.83019742  1
  In3+  In15  1  0.69941740  0.68708874  0.34072683  1
  In3+  In16  1  0.47280202  -0.01103692  0.83294155  1
  In3+  In17  1  0.67010477  0.13910558  0.80717181  1
  In3+  In18  1  0.32250094  0.30209691  0.31577644  1
  In3+  In19  1  0.66966510  0.30989779  -0.02340673  1
  In3+  In20  1  0.19068213  0.53937817  0.00012797  1
  In3+  In21  1  0.83624025  0.14788757  -0.00127804  1
  Ag+  Ag22  1  0.19700833  0.71987768  0.55271220  1
  Ag+  Ag23  1  0.35395630  -0.00063379  0.35609552  1
  Ag+  Ag24  1  -0.01589051  0.35688754  0.64162130  1
  Ag+  Ag25  1  0.12726868  0.83395527  -0.01737903  1
  Ag+  Ag26  1  -0.02803153  0.63823407  0.64171955  1
  Ag+  Ag27  1  0.86729585  0.69970271  0.54223610  1
  Ag+  Ag28  1  0.17673657  0.85538388  0.63226054  1
  Ag+  Ag29  1  0.29810929  -0.02328177  -0.00031991  1
  Ag+  Ag30  1  0.70005552  0.79502992  0.47807673  1
  Ag+  Ag31  1  0.85801279  0.14421825  0.36332718  1
  Ag+  Ag32  1  0.17491383  0.69184132  0.81926211  1
  Ag+  Ag33  1  0.36859628  0.69250792  0.03087205  1
  Ag+  Ag34  1  -0.01786725  0.80403871  0.52963065  1
  Ag+  Ag35  1  0.68924181  -0.02487772  0.66362428  1
  Ag+  Ag36  1  -0.02697402  0.16269004  0.53227728  1
  Ag+  Ag37  1  0.86988947  0.86865374  0.36160785  1
  Ag+  Ag38  1  0.31964924  0.81414455  0.52991769  1
  Ag+  Ag39  1  0.82944568  0.69662257  0.20064445  1
  Ag+  Ag40  1  0.69003102  0.13103135  0.45722035  1
  Ag+  Ag41  1  0.53139068  0.80189358  0.62229037  1
  Ag+  Ag42  1  0.86431384  0.18328441  0.64203724  1
  Sn2+  Sn43  1  0.00382530  0.50896753  0.83528277  1
  Sn2+  Sn44  1  0.66030427  -0.00097884  -0.02417867  1
  Sn2+  Sn45  1  0.49994517  0.83422062  -0.00620210  1
  Sn2+  Sn46  1  0.16659006  -0.00003534  0.50146448  1
  Sn2+  Sn47  1  0.16086345  0.00237551  0.82674960  1
  Sn2+  Sn48  1  0.31918855  0.51505198  0.83140624  1
  Sn2+  Sn49  1  0.32431629  0.66976472  0.66816376  1
  Sn2+  Sn50  1  0.82217373  0.82693167  0.01315360  1
  Sn2+  Sn51  1  0.67130746  0.33216359  0.65956328  1
  Sn2+  Sn52  1  0.33102823  0.33353060  -0.00001914  1
  Sn2+  Sn53  1  -0.00652255  0.15567498  0.83243965  1
  Sn2+  Sn54  1  0.34452837  0.16973470  0.83514195  1
  Sn2+  Sn55  1  0.49658053  0.16690746  0.33828823  1
  Sn2+  Sn56  1  0.83932541  0.33628788  0.16233055  1
  Sn2+  Sn57  1  0.67445433  0.49560143  0.49652505  1
  Sn2+  Sn58  1  -0.00128699  -0.00135147  0.00801941  1
  Sn2+  Sn59  1  0.50728052  -0.00820647  0.50571327  1
  Sn2+  Sn60  1  0.50754367  0.66786458  0.17127374  1
  Sn2+  Sn61  1  0.50506753  0.49628221  -0.00223239  1
  Sn2+  Sn62  1  0.83462324  0.48114839  0.66567686  1
  Sn2+  Sn63  1  0.00177735  0.32775348  0.33862281  1
  Sn2+  Sn64  1  0.83799162  -0.00197836  0.82991155  1
  Bi3+  Bi65  1  0.67106580  0.50273185  0.16969138  1
  Bi3+  Bi66  1  0.33466715  0.16877959  0.50065670  1
  Bi3+  Bi67  1  0.49512615  0.33106443  0.50161417  1
  Bi3+  Bi68  1  0.50056656  0.33710953  0.83339811  1
  Bi3+  Bi69  1  0.33083771  0.83290973  0.16386856  1
  Bi3+  Bi70  1  0.50357393  0.17216709  -0.00332582  1
  Bi3+  Bi71  1  0.82533900  -0.00012648  0.50100248  1
  Bi3+  Bi72  1  0.83211922  0.49449098  -0.00406739  1
  Bi3+  Bi73  1  -0.00434241  0.66483520  -0.00234602  1
  Bi3+  Bi74  1  -0.00855839  0.16512341  0.16199548  1
  Bi3+  Bi75  1  0.16727036  0.83570871  0.32479463  1
  Bi3+  Bi76  1  0.32860913  0.33236132  0.66775863  1
  Bi3+  Bi77  1  0.49963729  0.16431589  0.66546014  1
  Bi3+  Bi78  1  -0.00764321  0.83818186  0.16501927  1
  Bi3+  Bi79  1  0.82896406  0.00320105  0.16845255  1
  Bi3+  Bi80  1  0.83571165  0.32775990  0.83518289  1
  Bi3+  Bi81  1  0.49115037  0.83611825  0.33498627  1
  Bi3+  Bi82  1  0.83516003  0.49464271  0.33234651  1
  Bi3+  Bi83  1  0.16144538  0.33181632  0.50213290  1
  Bi3+  Bi84  1  0.16964622  0.32868010  0.83067144  1
  Bi3+  Bi85  1  0.33459078  0.83152792  0.83858199  1
  Te2-  Te86  1  0.16189089  0.15901843  0.16383151  1
  Te2-  Te87  1  0.17312961  0.16963691  0.49662040  1
  Te2-  Te88  1  0.16722828  0.16769579  0.83355038  1
  Te2-  Te89  1  0.15503707  0.50318303  0.14740681  1
  Te2-  Te90  1  0.16309338  0.49794966  0.49848071  1
  Te2-  Te91  1  0.16162553  0.48644564  0.85604021  1
  Te2-  Te92  1  0.16070168  0.84168146  0.16570969  1
  Te2-  Te93  1  0.17826117  0.84592194  0.48333529  1
  Te2-  Te94  1  0.17131674  0.83679693  0.84373734  1
  Te2-  Te95  1  0.50578713  0.17853305  0.16098273  1
  Te2-  Te96  1  0.49507475  0.16800502  0.50306902  1
  Te2-  Te97  1  0.51185923  0.17758908  0.83308819  1
  Te2-  Te98  1  0.50394378  0.49593250  0.16519853  1
  Te2-  Te99  1  0.49884864  0.49518536  0.49770772  1
  Te2-  Te100  1  0.49651291  0.49899662  0.83279871  1
  Te2-  Te101  1  0.49536837  0.83368348  0.16889979  1
  Te2-  Te102  1  0.47675062  0.84016738  0.49530777  1
  Te2-  Te103  1  0.49930426  0.83900381  0.83093325  1
  Te2-  Te104  1  0.82453181  0.16602738  0.15770922  1
  Te2-  Te105  1  0.82494657  0.16285779  0.50354545  1
  Te2-  Te106  1  0.82459216  0.16814908  0.84296133  1
  Te2-  Te107  1  0.83561340  0.49713254  0.16745693  1
  Te2-  Te108  1  0.83260874  0.49465138  0.50012621  1
  Te2-  Te109  1  0.83830227  0.48794478  0.83196229  1
  Te2-  Te110  1  0.83109423  0.84008796  0.17593129  1
  Te2-  Te111  1  0.83766731  0.83814037  0.50089565  1
  Te2-  Te112  1  0.81692862  0.83425564  0.83847861  1
  Te2-  Te113  1  0.15269117  -0.01173304  0.00055736  1
  Te2-  Te114  1  0.15913053  0.00073438  0.32747649  1
  Te2-  Te115  1  0.18860092  -0.00322774  0.67005742  1
  Te2-  Te116  1  0.16099049  0.32362471  -0.00571911  1
  Te2-  Te117  1  0.16786899  0.34484270  0.33858800  1
  Te2-  Te118  1  0.16775926  0.33147397  0.66867029  1
  Te2-  Te119  1  0.15419652  0.68350906  0.00427931  1
  Te2-  Te120  1  0.15299952  0.66198972  0.33265909  1
  Te2-  Te121  1  0.17068600  0.65257518  0.67818176  1
  Te2-  Te122  1  0.50483017  0.00941673  -0.01112820  1
  Te2-  Te123  1  0.49831529  0.00129713  0.33018360  1
  Te2-  Te124  1  0.48713880  0.00599319  0.67948563  1
  Te2-  Te125  1  0.50418413  0.33353421  -0.00713145  1
  Te2-  Te126  1  0.47879683  0.33384407  0.33825361  1
  Te2-  Te127  1  0.49682971  0.33451633  0.66637490  1
  Te2-  Te128  1  0.50672484  0.66519535  0.00574206  1
  Te2-  Te129  1  0.49255794  0.67140819  0.32782568  1
  Te2-  Te130  1  0.49376596  0.66722289  0.66155667  1
  Te2-  Te131  1  0.82507713  -0.00298618  0.00498813  1
  Te2-  Te132  1  0.82520442  0.00527686  0.33317853  1
  Te2-  Te133  1  0.83612569  -0.00484783  0.66467032  1
  Te2-  Te134  1  0.83180391  0.33502519  -0.00530641  1
  Te2-  Te135  1  0.83434853  0.33406027  0.33505799  1
  Te2-  Te136  1  0.84462546  0.32477773  0.67183086  1
  Te2-  Te137  1  0.83560758  0.65803290  -0.01826590  1
  Te2-  Te138  1  0.84677698  0.65603907  0.33952620  1
  Te2-  Te139  1  0.83571869  0.66573161  0.68230863  1
  Te2-  Te140  1  -0.00848187  0.16253525  0.00153079  1
  Te2-  Te141  1  -0.00470568  0.16491245  0.32404455  1
  Te2-  Te142  1  0.00042564  0.14319553  0.67450438  1
  Te2-  Te143  1  -0.00991016  0.49819641  0.00152634  1
  Te2-  Te144  1  -0.00455851  0.49093524  0.32554741  1
  Te2-  Te145  1  0.00273285  0.49888755  0.67007739  1
  Te2-  Te146  1  -0.01867275  0.82975970  0.00625697  1
  Te2-  Te147  1  0.00495796  0.83431190  0.32695607  1
  Te2-  Te148  1  0.02110916  0.84837209  0.65981287  1
  Te2-  Te149  1  0.34040425  0.17523707  -0.00472250  1
  Te2-  Te150  1  0.33203716  0.14965119  0.33270349  1
  Te2-  Te151  1  0.33761674  0.17095610  0.66950613  1
  Te2-  Te152  1  0.33595176  0.49682204  0.00033295  1
  Te2-  Te153  1  0.32724657  0.50856149  0.33107203  1
  Te2-  Te154  1  0.32221103  0.49450811  0.66978713  1
  Te2-  Te155  1  0.34216712  0.83218737  0.00094826  1
  Te2-  Te156  1  0.32840123  0.85287362  0.32153656  1
  Te2-  Te157  1  0.32455882  0.83082004  0.67756238  1
  Te2-  Te158  1  0.66477274  0.16342288  0.00491605  1
  Te2-  Te159  1  0.65498738  0.17781187  0.32631476  1
  Te2-  Te160  1  0.65916874  0.17557808  0.66613800  1
  Te2-  Te161  1  0.67115140  0.50043903  0.00689601  1
  Te2-  Te162  1  0.66999476  0.48983921  0.32982908  1
  Te2-  Te163  1  0.66961362  0.49693509  0.66458858  1
  Te2-  Te164  1  0.66087694  0.83582702  0.00927743  1
  Te2-  Te165  1  0.65436933  0.83155836  0.34466729  1
  Te2-  Te166  1  0.66710777  0.83033895  0.66051156  1
  Te2-  Te167  1  -0.01110077  0.00191757  0.17430372  1
  Te2-  Te168  1  -0.00310374  0.01651822  0.49299128  1
  Te2-  Te169  1  -0.00557641  -0.01220130  0.84061778  1
  Te2-  Te170  1  -0.00341354  0.32186908  0.17238420  1
  Te2-  Te171  1  0.00408171  0.31859659  0.50145512  1
  Te2-  Te172  1  0.00080424  0.32261822  0.83160345  1
  Te2-  Te173  1  -0.02062254  0.67443766  0.15976200  1
  Te2-  Te174  1  0.00337596  0.66422451  0.50288521  1
  Te2-  Te175  1  0.01750954  0.67447990  0.83669810  1
  Te2-  Te176  1  0.33357097  -0.00097514  0.14517264  1
  Te2-  Te177  1  0.33398880  0.01009948  0.50043317  1
  Te2-  Te178  1  0.32728338  0.00080709  0.85315825  1
  Te2-  Te179  1  0.32297874  0.33382698  0.16734568  1
  Te2-  Te180  1  0.32958972  0.33133856  0.50495701  1
  Te2-  Te181  1  0.33429948  0.33519264  0.83172679  1
  Te2-  Te182  1  0.33068965  0.67121572  0.16740547  1
  Te2-  Te183  1  0.32573957  0.66861956  0.50343694  1
  Te2-  Te184  1  0.32248817  0.66953587  0.83815402  1
  Te2-  Te185  1  0.66592499  0.00262385  0.16905771  1
  Te2-  Te186  1  0.66459338  0.00039461  0.51434834  1
  Te2-  Te187  1  0.67246245  -0.00778318  0.81622185  1
  Te2-  Te188  1  0.67061547  0.34049753  0.17581315  1
  Te2-  Te189  1  0.65498201  0.33352930  0.49406289  1
  Te2-  Te190  1  0.66615974  0.34001743  0.82653735  1
  Te2-  Te191  1  0.67869922  0.66283577  0.18225714  1
  Te2-  Te192  1  0.66716698  0.65630975  0.48878011  1
  Te2-  Te193  1  0.65579094  0.67174748  0.83280518  1
  Pb2+  Pb194  1  0.84372526  0.83034418  0.66920666  1
  Pb2+  Pb195  1  0.33172571  0.50219223  0.50151898  1
  Pb2+  Pb196  1  0.32797482  0.50233543  0.16672300  1
  Pb2+  Pb197  1  0.66765613  0.66218161  0.65868662  1
  Pb2+  Pb198  1  0.32395237  0.68054893  0.33867376  1
  Pb2+  Pb199  1  0.66981194  0.50568041  0.83757413  1
  Pb2+  Pb200  1  0.48968697  0.66968012  0.83196280  1
  Pb2+  Pb201  1  0.66404095  0.83141605  0.17806529  1
  Pb2+  Pb202  1  0.82826050  0.32916161  0.50146791  1
  Pb2+  Pb203  1  0.49917642  0.00275531  0.15875516  1
  Pb2+  Pb204  1  0.16606659  0.16272584  0.66290858  1
  Pb2+  Pb205  1  0.50103302  0.50294500  0.33197497  1
  Pb2+  Pb206  1  0.15621296  0.67316351  0.16816789  1
  Pb2+  Pb207  1  0.67051268  0.67032919  0.00620605  1
  Pb2+  Pb208  1  0.15754685  0.33597179  0.16310212  1
  Pb2+  Pb209  1  0.49616053  0.50207248  0.66572966  1
  Pb2+  Pb210  1  -0.00368776  0.49793059  0.49746792  1
  Pb2+  Pb211  1  0.16441955  0.15315430  -0.00117156  1
  Pb2+  Pb212  1  0.49958179  0.67221453  0.49346167  1
  Pb2+  Pb213  1  0.33553805  0.16516716  0.16118982  1
  Pb2+  Pb214  1  0.16120869  0.17107352  0.33123784  1
  Pb2+  Pb215  1  0.66104851  0.00142020  0.34459470  1
