# generated using pymatgen
data_In22Ag21Sn22Bi21(Te54Pb11)2
_symmetry_space_group_name_H-M   'P 1'
_cell_length_a   19.16464875
_cell_length_b   19.13773666
_cell_length_c   19.13863497
_cell_angle_alpha   90.01017902
_cell_angle_beta   90.00870747
_cell_angle_gamma   89.98399090
_symmetry_Int_Tables_number   1
_chemical_formula_structural   In22Ag21Sn22Bi21(Te54Pb11)2
_chemical_formula_sum   'In22 Ag21 Sn22 Bi21 Te108 Pb22'
_cell_volume   7019.43842413
_cell_formula_units_Z   1
loop_
 _symmetry_equiv_pos_site_id
 _symmetry_equiv_pos_as_xyz
  1  'x, y, z'
loop_
 _atom_type_symbol
 _atom_type_oxidation_number
  In3+  3.0
  Ag+  1.0
  Sn2+  2.0
  Bi3+  3.0
  Te2-  -2.0
  Pb2+  2.0
loop_
 _atom_site_type_symbol
 _atom_site_label
 _atom_site_symmetry_multiplicity
 _atom_site_fract_x
 _atom_site_fract_y
 _atom_site_fract_z
 _atom_site_occupancy
  In3+  In0  1  0.49290512  0.67105562  0.83396710  1
  In3+  In1  1  0.17541410  0.83970840  0.32967327  1
  In3+  In2  1  0.32690822  0.83325118  0.48653751  1
  In3+  In3  1  0.00001382  0.16975818  0.18486866  1
  In3+  In4  1  0.16732756  0.82332177  0.66551533  1
  In3+  In5  1  0.32574140  0.83553674  0.81253830  1
  In3+  In6  1  0.66347653  0.18901114  0.50263960  1
  In3+  In7  1  0.82415894  0.51340905  0.34773487  1
  In3+  In8  1  0.48766244  0.34266951  0.83196980  1
  In3+  In9  1  0.83158280  0.49846419  -0.02716916  1
  In3+  In10  1  0.34794838  0.17692589  0.83380471  1
  In3+  In11  1  0.63667250  0.33402433  0.00535205  1
  In3+  In12  1  0.01289860  0.83991088  0.51439012  1
  In3+  In13  1  0.32905785  0.00361621  0.66638071  1
  In3+  In14  1  0.66807559  0.66301001  0.34591545  1
  In3+  In15  1  0.66647938  0.33548451  0.33787468  1
  In3+  In16  1  0.49616032  0.16452852  0.32375158  1
  In3+  In17  1  0.00188450  -0.00091295  -0.00121591  1
  In3+  In18  1  0.00602888  0.66878258  0.33782150  1
  In3+  In19  1  0.65532842  0.81042562  0.16617576  1
  In3+  In20  1  0.49528587  0.16582963  0.66580458  1
  In3+  In21  1  0.82733152  0.18247009  0.33702579  1
  Ag+  Ag22  1  0.47777118  0.66094748  0.18822305  1
  Ag+  Ag23  1  0.63582899  0.66173315  0.63950379  1
  Ag+  Ag24  1  0.47455147  -0.00957781  0.84179510  1
  Ag+  Ag25  1  0.32569745  0.47771837  0.80467236  1
  Ag+  Ag26  1  0.33526512  0.35354255  0.67249519  1
  Ag+  Ag27  1  0.19253860  -0.01483214  0.50042661  1
  Ag+  Ag28  1  0.19105026  0.48671986  0.68879771  1
  Ag+  Ag29  1  0.36956822  0.64441877  0.35605819  1
  Ag+  Ag30  1  0.30620365  0.02718364  0.32430936  1
  Ag+  Ag31  1  0.20048885  0.64306344  0.81047596  1
  Ag+  Ag32  1  0.83355132  0.64568715  0.18838459  1
  Ag+  Ag33  1  0.03606607  0.19555078  0.47724897  1
  Ag+  Ag34  1  0.18357638  0.66681093  0.18972074  1
  Ag+  Ag35  1  0.80697540  0.51657490  0.64795796  1
  Ag+  Ag36  1  0.47226501  0.66476480  0.47717302  1
  Ag+  Ag37  1  0.63288750  0.48686306  0.49204864  1
  Ag+  Ag38  1  0.32998872  0.36344599  0.02832098  1
  Ag+  Ag39  1  0.34037602  0.47162191  0.51647222  1
  Ag+  Ag40  1  0.17107445  0.35283721  0.52495487  1
  Ag+  Ag41  1  0.03133606  0.81172702  0.81442058  1
  Ag+  Ag42  1  0.19521420  0.30246822  0.17732783  1
  Sn2+  Sn43  1  0.65974691  -0.00966366  0.66829112  1
  Sn2+  Sn44  1  -0.00274963  0.65907759  0.66692409  1
  Sn2+  Sn45  1  0.49505136  -0.00903244  0.50493396  1
  Sn2+  Sn46  1  0.16772943  0.82493624  0.00210993  1
  Sn2+  Sn47  1  0.16889574  0.65725185  0.50153374  1
  Sn2+  Sn48  1  0.83833186  0.34085937  0.16320344  1
  Sn2+  Sn49  1  0.83861585  0.82638604  0.00332149  1
  Sn2+  Sn50  1  0.01378720  0.33974761  0.66565695  1
  Sn2+  Sn51  1  0.00583927  0.33930800  0.33530914  1
  Sn2+  Sn52  1  -0.00480035  0.82784487  0.16450377  1
  Sn2+  Sn53  1  0.83568224  -0.00269056  0.16706573  1
  Sn2+  Sn54  1  0.16485593  0.33912081  0.83627462  1
  Sn2+  Sn55  1  0.66245480  0.34617027  0.67100304  1
  Sn2+  Sn56  1  0.33274101  -0.00712578  0.00628867  1
  Sn2+  Sn57  1  0.83357157  -0.00520612  0.83475590  1
  Sn2+  Sn58  1  0.32762869  0.66490351  0.00667779  1
  Sn2+  Sn59  1  0.49682668  0.49890260  0.65950908  1
  Sn2+  Sn60  1  0.32343186  0.34230542  0.34769433  1
  Sn2+  Sn61  1  0.49678147  0.83218221  -0.00550385  1
  Sn2+  Sn62  1  0.83457290  0.66091095  0.50970415  1
  Sn2+  Sn63  1  0.01706672  0.33152511  0.00106581  1
  Sn2+  Sn64  1  0.84856839  0.33366651  0.50512106  1
  Bi3+  Bi65  1  0.33520204  0.16153525  0.50137812  1
  Bi3+  Bi66  1  0.16448511  0.50468614  0.33080634  1
  Bi3+  Bi67  1  0.82816046  0.33252633  0.83125866  1
  Bi3+  Bi68  1  0.82523550  -0.00020397  0.50211898  1
  Bi3+  Bi69  1  0.66172181  0.49863971  0.82570477  1
  Bi3+  Bi70  1  0.16605002  0.00421707  0.82549508  1
  Bi3+  Bi71  1  0.66627560  0.83084673  0.83419176  1
  Bi3+  Bi72  1  0.16506250  0.50336630  0.00011436  1
  Bi3+  Bi73  1  0.83371095  0.66618757  0.83453700  1
  Bi3+  Bi74  1  0.67070300  0.16767915  0.16839993  1
  Bi3+  Bi75  1  0.66757508  -0.00012147  0.33412303  1
  Bi3+  Bi76  1  0.82897524  0.16932398  0.66263284  1
  Bi3+  Bi77  1  0.00770974  0.50372966  0.50013542  1
  Bi3+  Bi78  1  0.00015154  0.67101559  0.00053116  1
  Bi3+  Bi79  1  0.83557445  0.83382257  0.33037219  1
  Bi3+  Bi80  1  0.16677739  0.16927791  -0.00344266  1
  Bi3+  Bi81  1  0.66639252  0.83221951  0.50013988  1
  Bi3+  Bi82  1  0.33241825  0.83132513  0.16794134  1
  Bi3+  Bi83  1  0.66802840  0.66354560  -0.00515663  1
  Bi3+  Bi84  1  0.00374083  0.17098594  0.82769263  1
  Bi3+  Bi85  1  0.66744915  0.16703476  0.82880290  1
  Te2-  Te86  1  0.15885970  0.16064072  0.16226356  1
  Te2-  Te87  1  0.17442412  0.15624849  0.49858265  1
  Te2-  Te88  1  0.16676230  0.16865691  0.83233969  1
  Te2-  Te89  1  0.16306560  0.51674650  0.16495629  1
  Te2-  Te90  1  0.17066814  0.49835824  0.49175506  1
  Te2-  Te91  1  0.17927337  0.49997820  0.83519711  1
  Te2-  Te92  1  0.16608925  0.82018579  0.17218822  1
  Te2-  Te93  1  0.16379830  0.83783288  0.50039539  1
  Te2-  Te94  1  0.17241706  0.84302794  0.83154911  1
  Te2-  Te95  1  0.50480125  0.16546024  0.16675016  1
  Te2-  Te96  1  0.50149082  0.16461027  0.50755232  1
  Te2-  Te97  1  0.50521161  0.16163167  0.82554284  1
  Te2-  Te98  1  0.50249018  0.50995116  0.16764531  1
  Te2-  Te99  1  0.48813638  0.51306062  0.50322018  1
  Te2-  Te100  1  0.50029693  0.49691578  0.83001561  1
  Te2-  Te101  1  0.50028084  0.81743120  0.16634140  1
  Te2-  Te102  1  0.50447769  0.81796038  0.50054090  1
  Te2-  Te103  1  0.50524718  0.84434574  0.83474494  1
  Te2-  Te104  1  0.83404753  0.16834997  0.17544224  1
  Te2-  Te105  1  0.82532997  0.16591159  0.49942845  1
  Te2-  Te106  1  0.83271257  0.16701270  0.83176339  1
  Te2-  Te107  1  0.83312539  0.49607767  0.19014318  1
  Te2-  Te108  1  0.84200590  0.49712559  0.50420333  1
  Te2-  Te109  1  0.82813607  0.49693773  0.81263942  1
  Te2-  Te110  1  0.82983519  0.83897788  0.16823780  1
  Te2-  Te111  1  0.83116161  0.83387544  0.49604618  1
  Te2-  Te112  1  0.82872924  0.83259376  0.83490995  1
  Te2-  Te113  1  0.16531063  0.00122912  -0.00568723  1
  Te2-  Te114  1  0.16563186  -0.00838658  0.34434561  1
  Te2-  Te115  1  0.17365782  -0.00250084  0.65846105  1
  Te2-  Te116  1  0.17805162  0.33427336  0.00533498  1
  Te2-  Te117  1  0.16510784  0.33897811  0.31921905  1
  Te2-  Te118  1  0.17436809  0.34000009  0.67206742  1
  Te2-  Te119  1  0.16009895  0.66623044  -0.00961089  1
  Te2-  Te120  1  0.15751350  0.67074464  0.33451880  1
  Te2-  Te121  1  0.16267371  0.67291568  0.67091679  1
  Te2-  Te122  1  0.49548154  -0.00037087  -0.00862433  1
  Te2-  Te123  1  0.50753134  0.00734383  0.33432996  1
  Te2-  Te124  1  0.49398352  0.00648738  0.67194968  1
  Te2-  Te125  1  0.47749542  0.33443872  -0.00781221  1
  Te2-  Te126  1  0.50821847  0.32448850  0.33852716  1
  Te2-  Te127  1  0.49405671  0.32483649  0.67315287  1
  Te2-  Te128  1  0.50522387  0.67176557  -0.00912752  1
  Te2-  Te129  1  0.51457397  0.66626906  0.33116253  1
  Te2-  Te130  1  0.49717553  0.66803146  0.68177995  1
  Te2-  Te131  1  0.83938203  0.00090200  -0.00052514  1
  Te2-  Te132  1  0.82965541  -0.00047500  0.33627035  1
  Te2-  Te133  1  0.82906973  0.00245549  0.66511365  1
  Te2-  Te134  1  0.84137510  0.34186643  -0.00474103  1
  Te2-  Te135  1  0.83126286  0.33300365  0.33924709  1
  Te2-  Te136  1  0.83210586  0.33000422  0.66768329  1
  Te2-  Te137  1  0.83309318  0.65959202  -0.00361928  1
  Te2-  Te138  1  0.83002315  0.66977021  0.33571370  1
  Te2-  Te139  1  0.83786787  0.66014458  0.67216669  1
  Te2-  Te140  1  0.00471343  0.16531372  -0.00761501  1
  Te2-  Te141  1  -0.00577917  0.16829254  0.33971294  1
  Te2-  Te142  1  -0.00675724  0.17256849  0.66573388  1
  Te2-  Te143  1  -0.00110686  0.50029818  -0.00305666  1
  Te2-  Te144  1  -0.00242108  0.50746973  0.33702961  1
  Te2-  Te145  1  0.01033285  0.49783899  0.66107160  1
  Te2-  Te146  1  0.00124660  0.83766800  -0.00116954  1
  Te2-  Te147  1  -0.00349306  0.82545169  0.33151966  1
  Te2-  Te148  1  0.00686954  0.83352736  0.67098164  1
  Te2-  Te149  1  0.32861720  0.15988819  -0.01163279  1
  Te2-  Te150  1  0.34073329  0.16955951  0.33524755  1
  Te2-  Te151  1  0.33685381  0.15881168  0.66839888  1
  Te2-  Te152  1  0.32677548  0.50673850  -0.00519096  1
  Te2-  Te153  1  0.32772083  0.50278840  0.33624793  1
  Te2-  Te154  1  0.33544235  0.50100174  0.66051270  1
  Te2-  Te155  1  0.33242804  0.83642565  0.00622515  1
  Te2-  Te156  1  0.32904318  0.82872587  0.33212651  1
  Te2-  Te157  1  0.32859714  0.83898130  0.65724175  1
  Te2-  Te158  1  0.66951609  0.17130525  -0.00065927  1
  Te2-  Te159  1  0.66671702  0.16591825  0.33505823  1
  Te2-  Te160  1  0.66516596  0.16828263  0.66628438  1
  Te2-  Te161  1  0.66941585  0.49642770  -0.00618392  1
  Te2-  Te162  1  0.67053676  0.50076146  0.34876280  1
  Te2-  Te163  1  0.66092307  0.50739629  0.66232370  1
  Te2-  Te164  1  0.66873838  0.83056756  0.00076246  1
  Te2-  Te165  1  0.67073559  0.83400745  0.32873928  1
  Te2-  Te166  1  0.66868194  0.82209505  0.66856589  1
  Te2-  Te167  1  -0.00104851  0.00442870  0.16121084  1
  Te2-  Te168  1  -0.01202987  -0.00888473  0.50151276  1
  Te2-  Te169  1  0.00229976  0.00696745  0.83677375  1
  Te2-  Te170  1  -0.00312734  0.32469511  0.16664630  1
  Te2-  Te171  1  0.01749069  0.33817379  0.49798624  1
  Te2-  Te172  1  -0.00594448  0.33412166  0.83384816  1
  Te2-  Te173  1  -0.01914460  0.66986328  0.16066113  1
  Te2-  Te174  1  0.00053565  0.67149264  0.49901691  1
  Te2-  Te175  1  -0.00410584  0.67138458  0.83650006  1
  Te2-  Te176  1  0.33351859  -0.00324372  0.17963224  1
  Te2-  Te177  1  0.33942546  -0.00469805  0.49095079  1
  Te2-  Te178  1  0.32846263  -0.00679331  0.82892473  1
  Te2-  Te179  1  0.33796225  0.33143651  0.17376740  1
  Te2-  Te180  1  0.32286062  0.32582719  0.50506889  1
  Te2-  Te181  1  0.33568618  0.32924061  0.82123040  1
  Te2-  Te182  1  0.33226966  0.67177870  0.16415826  1
  Te2-  Te183  1  0.32675545  0.68070730  0.49228120  1
  Te2-  Te184  1  0.33745376  0.68452761  0.83639532  1
  Te2-  Te185  1  0.66655371  0.00624644  0.16848218  1
  Te2-  Te186  1  0.66181311  -0.00506301  0.50051181  1
  Te2-  Te187  1  0.66884526  0.00096619  0.83022575  1
  Te2-  Te188  1  0.66948886  0.32920880  0.16979352  1
  Te2-  Te189  1  0.66643173  0.34295201  0.50106497  1
  Te2-  Te190  1  0.66508374  0.33230630  0.83815869  1
  Te2-  Te191  1  0.68445861  0.66386105  0.15683571  1
  Te2-  Te192  1  0.67519299  0.67050667  0.49983826  1
  Te2-  Te193  1  0.66840775  0.66461388  0.83331405  1
  Pb2+  Pb194  1  0.49981658  -0.01130283  0.16235782  1
  Pb2+  Pb195  1  0.66779438  0.49995371  0.17055930  1
  Pb2+  Pb196  1  0.00411891  0.00502997  0.66621407  1
  Pb2+  Pb197  1  0.50031683  0.83653554  0.66614018  1
  Pb2+  Pb198  1  0.00612881  0.50543559  0.82783909  1
  Pb2+  Pb199  1  0.49644025  0.50596168  -0.00109961  1
  Pb2+  Pb200  1  0.16815615  0.17116178  0.33584280  1
  Pb2+  Pb201  1  0.83716537  0.82733963  0.66514513  1
  Pb2+  Pb202  1  0.50197477  0.33804708  0.16863377  1
  Pb2+  Pb203  1  0.49749178  0.83762941  0.33685522  1
  Pb2+  Pb204  1  0.33209862  0.66549203  0.66126658  1
  Pb2+  Pb205  1  0.83827006  0.17444936  0.00616236  1
  Pb2+  Pb206  1  0.16551754  -0.01236733  0.16563630  1
  Pb2+  Pb207  1  0.16563235  0.17251363  0.66111759  1
  Pb2+  Pb208  1  0.66883506  -0.00194219  -0.00122814  1
  Pb2+  Pb209  1  0.32831957  0.50227753  0.16810621  1
  Pb2+  Pb210  1  -0.00014445  -0.00470065  0.33449725  1
  Pb2+  Pb211  1  -0.00000241  0.50148893  0.16560950  1
  Pb2+  Pb212  1  0.33022261  0.16591291  0.15947554  1
  Pb2+  Pb213  1  0.49989650  0.16757169  -0.00543267  1
  Pb2+  Pb214  1  0.49482712  0.49521026  0.33613803  1
  Pb2+  Pb215  1  0.49176982  0.33705437  0.50636221  1
