# generated using pymatgen
data_In22Ag21Sn22Bi21(Te54Pb11)2
_symmetry_space_group_name_H-M   'P 1'
_cell_length_a   19.19564889
_cell_length_b   19.16051967
_cell_length_c   19.15508538
_cell_angle_alpha   89.99097045
_cell_angle_beta   89.99571784
_cell_angle_gamma   89.99770866
_symmetry_Int_Tables_number   1
_chemical_formula_structural   In22Ag21Sn22Bi21(Te54Pb11)2
_chemical_formula_sum   'In22 Ag21 Sn22 Bi21 Te108 Pb22'
_cell_volume   7045.21363203
_cell_formula_units_Z   1
loop_
 _symmetry_equiv_pos_site_id
 _symmetry_equiv_pos_as_xyz
  1  'x, y, z'
loop_
 _atom_type_symbol
 _atom_type_oxidation_number
  In3+  3.0
  Ag+  1.0
  Sn2+  2.0
  Bi3+  3.0
  Te2-  -2.0
  Pb2+  2.0
loop_
 _atom_site_type_symbol
 _atom_site_label
 _atom_site_symmetry_multiplicity
 _atom_site_fract_x
 _atom_site_fract_y
 _atom_site_fract_z
 _atom_site_occupancy
  In3+  In0  1  0.33522027  0.68403873  0.32828721  1
  In3+  In1  1  0.00120591  0.49729718  0.81903364  1
  In3+  In2  1  0.17158105  0.33757066  0.81504441  1
  In3+  In3  1  0.66682218  0.50513680  0.51701636  1
  In3+  In4  1  0.32361691  0.84314492  0.50895077  1
  In3+  In5  1  0.83443258  0.49595677  -0.01787476  1
  In3+  In6  1  0.50164208  -0.02980091  0.49702565  1
  In3+  In7  1  -0.00006065  0.14612379  0.16408160  1
  In3+  In8  1  0.17503802  0.50027343  0.64806260  1
  In3+  In9  1  0.67345049  0.82081366  0.51511756  1
  In3+  In10  1  0.16617021  0.34693105  0.49595661  1
  In3+  In11  1  0.17464144  0.68356172  0.50777021  1
  In3+  In12  1  -0.00246898  0.15530291  0.83818268  1
  In3+  In13  1  0.65237150  0.66574759  -0.01360722  1
  In3+  In14  1  0.17619510  0.15597685  0.65231226  1
  In3+  In15  1  0.84074717  0.15847961  -0.00557047  1
  In3+  In16  1  0.49825517  0.84273624  0.01853771  1
  In3+  In17  1  0.16769583  -0.00886361  0.18384138  1
  In3+  In18  1  0.48237302  0.15333923  0.65198087  1
  In3+  In19  1  0.31835915  0.34033140  0.33444856  1
  In3+  In20  1  0.31733375  -0.00803681  0.01826973  1
  In3+  In21  1  0.83194496  0.47764948  0.32582291  1
  Ag+  Ag22  1  0.15255846  0.02004901  0.48202496  1
  Ag+  Ag23  1  0.85959182  0.80039589  0.67678997  1
  Ag+  Ag24  1  0.33641678  0.31517784  0.63949258  1
  Ag+  Ag25  1  0.33693974  0.18364244  0.48037459  1
  Ag+  Ag26  1  0.63559117  0.36629916  0.36569263  1
  Ag+  Ag27  1  0.81119539  0.33574779  0.82614504  1
  Ag+  Ag28  1  -0.02529478  0.69968179  0.65415484  1
  Ag+  Ag29  1  0.19520346  0.52211075  0.34363128  1
  Ag+  Ag30  1  0.31458584  0.83139955  0.14227702  1
  Ag+  Ag31  1  0.50096234  0.85540183  0.68728677  1
  Ag+  Ag32  1  0.30426054  0.52029877  0.82737786  1
  Ag+  Ag33  1  -0.02152743  -0.02475579  -0.01056525  1
  Ag+  Ag34  1  0.02491849  0.84751801  0.13711857  1
  Ag+  Ag35  1  0.64038566  0.67767705  0.64508976  1
  Ag+  Ag36  1  0.52418658  0.00471331  0.14740873  1
  Ag+  Ag37  1  0.15172417  0.85552946  0.66808917  1
  Ag+  Ag38  1  0.14595065  0.30439144  0.17521613  1
  Ag+  Ag39  1  0.47523284  0.67206280  0.49506112  1
  Ag+  Ag40  1  0.86407867  -0.00593727  0.14382805  1
  Ag+  Ag41  1  0.80215725  0.01491186  0.50357868  1
  Ag+  Ag42  1  0.65017711  0.52214144  0.81404969  1
  Sn2+  Sn43  1  0.66820172  -0.00327109  0.33123827  1
  Sn2+  Sn44  1  0.00251254  0.66491095  0.33726064  1
  Sn2+  Sn45  1  0.50703539  0.50170032  -0.00962158  1
  Sn2+  Sn46  1  0.49937447  0.67183160  0.81279058  1
  Sn2+  Sn47  1  0.00667073  0.33563526  -0.00234891  1
  Sn2+  Sn48  1  0.67240623  -0.01007935  0.66583847  1
  Sn2+  Sn49  1  0.00115883  0.82785026  0.83103013  1
  Sn2+  Sn50  1  -0.00391910  0.83923123  0.49947795  1
  Sn2+  Sn51  1  0.16822331  0.17197635  0.34107937  1
  Sn2+  Sn52  1  -0.00455635  0.50822727  0.49950402  1
  Sn2+  Sn53  1  0.33923283  0.65819393  0.00451147  1
  Sn2+  Sn54  1  0.32538150  0.50352897  0.16243714  1
  Sn2+  Sn55  1  0.66629772  0.66261600  0.33794108  1
  Sn2+  Sn56  1  0.33302653  0.00209955  0.33892896  1
  Sn2+  Sn57  1  0.65987090  0.49973332  0.16749813  1
  Sn2+  Sn58  1  -0.00260077  0.00096566  0.66419121  1
  Sn2+  Sn59  1  0.49922334  0.50002099  0.32709536  1
  Sn2+  Sn60  1  0.67112495  0.16767169  0.17418510  1
  Sn2+  Sn61  1  0.16137722  0.82739123  0.34254500  1
  Sn2+  Sn62  1  0.49096636  0.34022072  0.82831589  1
  Sn2+  Sn63  1  0.84035330  0.49901546  0.65983555  1
  Sn2+  Sn64  1  0.33269768  -0.00579541  0.66302678  1
  Bi3+  Bi65  1  -0.00007537  0.50569081  0.17270584  1
  Bi3+  Bi66  1  0.50405397  0.32992819  0.16486447  1
  Bi3+  Bi67  1  0.84080610  0.67060581  0.50023816  1
  Bi3+  Bi68  1  0.00131060  0.66552521  -0.00263741  1
  Bi3+  Bi69  1  0.83350806  0.15773085  0.33145920  1
  Bi3+  Bi70  1  0.83186590  0.83611797  0.33811386  1
  Bi3+  Bi71  1  0.49993324  0.83106355  0.33643074  1
  Bi3+  Bi72  1  0.33465514  0.66181337  0.66707937  1
  Bi3+  Bi73  1  0.83877712  0.16819095  0.66855608  1
  Bi3+  Bi74  1  0.00130203  0.33345002  0.33135688  1
  Bi3+  Bi75  1  0.49790913  0.49880020  0.66676234  1
  Bi3+  Bi76  1  0.33242941  0.17019896  0.83918923  1
  Bi3+  Bi77  1  0.00593394  0.33195175  0.66904244  1
  Bi3+  Bi78  1  0.67109834  0.33867299  0.00410919  1
  Bi3+  Bi79  1  0.16537545  0.16924538  0.00259177  1
  Bi3+  Bi80  1  0.66792190  0.16924883  0.83539138  1
  Bi3+  Bi81  1  0.50206863  0.16668400  0.00027515  1
  Bi3+  Bi82  1  0.66758327  0.83410022  0.17336557  1
  Bi3+  Bi83  1  0.66873318  0.83014429  0.82810921  1
  Bi3+  Bi84  1  0.16415150  0.66817604  0.17130671  1
  Bi3+  Bi85  1  0.33330648  0.33468125  0.00688002  1
  Te2-  Te86  1  0.16067394  0.15536551  0.16731177  1
  Te2-  Te87  1  0.18357259  0.16261217  0.50151444  1
  Te2-  Te88  1  0.16672619  0.17872265  0.84195108  1
  Te2-  Te89  1  0.16671342  0.50907501  0.18127348  1
  Te2-  Te90  1  0.16580624  0.49825741  0.48909098  1
  Te2-  Te91  1  0.16111622  0.49123567  0.84187209  1
  Te2-  Te92  1  0.16659047  0.83379124  0.17148814  1
  Te2-  Te93  1  0.17051736  0.83347006  0.51569821  1
  Te2-  Te94  1  0.16540696  0.83340607  0.82042483  1
  Te2-  Te95  1  0.50065799  0.15713311  0.16323757  1
  Te2-  Te96  1  0.48757950  0.17331579  0.50399638  1
  Te2-  Te97  1  0.50188502  0.17133729  0.83680264  1
  Te2-  Te98  1  0.49575206  0.49897566  0.16347622  1
  Te2-  Te99  1  0.51048289  0.50670060  0.50042255  1
  Te2-  Te100  1  0.50623016  0.50254336  0.83134214  1
  Te2-  Te101  1  0.50338985  0.84671545  0.17203789  1
  Te2-  Te102  1  0.51184911  0.81759681  0.49427410  1
  Te2-  Te103  1  0.50772781  0.82973785  0.83412125  1
  Te2-  Te104  1  0.84147039  0.14992709  0.16623511  1
  Te2-  Te105  1  0.83565194  0.16121357  0.50277016  1
  Te2-  Te106  1  0.83405623  0.17841892  0.83544570  1
  Te2-  Te107  1  0.83455243  0.49968204  0.17444789  1
  Te2-  Te108  1  0.82713492  0.50247728  0.49281175  1
  Te2-  Te109  1  0.84433771  0.48471903  0.82992169  1
  Te2-  Te110  1  0.82812332  0.84715921  0.17235457  1
  Te2-  Te111  1  0.82898340  0.83146930  0.50789220  1
  Te2-  Te112  1  0.83110357  0.83275818  0.82076375  1
  Te2-  Te113  1  0.16768903  0.00476032  -0.00344879  1
  Te2-  Te114  1  0.16824302  -0.00441083  0.33869579  1
  Te2-  Te115  1  0.17074552  0.00246546  0.66113011  1
  Te2-  Te116  1  0.17234350  0.32944258  0.02426201  1
  Te2-  Te117  1  0.16436971  0.32986700  0.32411979  1
  Te2-  Te118  1  0.17248418  0.33450643  0.65980205  1
  Te2-  Te119  1  0.16689248  0.66959635  0.00384341  1
  Te2-  Te120  1  0.16914962  0.66701360  0.33771783  1
  Te2-  Te121  1  0.17186939  0.65492813  0.65937809  1
  Te2-  Te122  1  0.49606231  0.00058339  0.00309110  1
  Te2-  Te123  1  0.49872827  -0.00471989  0.34389076  1
  Te2-  Te124  1  0.50342574  0.00257371  0.66247885  1
  Te2-  Te125  1  0.50134249  0.33170855  0.00171827  1
  Te2-  Te126  1  0.50055724  0.33152617  0.32639840  1
  Te2-  Te127  1  0.48497269  0.33804473  0.66637182  1
  Te2-  Te128  1  0.50049417  0.66871246  0.00056310  1
  Te2-  Te129  1  0.49435826  0.66616870  0.34195477  1
  Te2-  Te130  1  0.49557986  0.65813385  0.65437212  1
  Te2-  Te131  1  0.83563776  0.00516932  -0.00178692  1
  Te2-  Te132  1  0.83197714  -0.00246573  0.35340169  1
  Te2-  Te133  1  0.83639810  0.00830329  0.65295607  1
  Te2-  Te134  1  0.83474358  0.33777571  -0.00485691  1
  Te2-  Te135  1  0.83670273  0.32256335  0.33124691  1
  Te2-  Te136  1  0.84101099  0.33096215  0.67510003  1
  Te2-  Te137  1  0.83817566  0.66224668  0.00024815  1
  Te2-  Te138  1  0.83544697  0.67507004  0.33808938  1
  Te2-  Te139  1  0.83568002  0.65558581  0.66338057  1
  Te2-  Te140  1  0.00081701  0.17260156  0.00244940  1
  Te2-  Te141  1  0.00024866  0.16826040  0.32893482  1
  Te2-  Te142  1  0.00676649  0.17013062  0.67357829  1
  Te2-  Te143  1  -0.00640476  0.50343075  0.00859177  1
  Te2-  Te144  1  -0.00812273  0.49717941  0.33505327  1
  Te2-  Te145  1  0.01304800  0.49277575  0.66441268  1
  Te2-  Te146  1  -0.00303091  0.82880331  -0.00605599  1
  Te2-  Te147  1  -0.00329898  0.82831376  0.33835053  1
  Te2-  Te148  1  0.00452851  0.84059961  0.67238772  1
  Te2-  Te149  1  0.33620140  0.16321375  0.00182580  1
  Te2-  Te150  1  0.32959752  0.16800477  0.33370567  1
  Te2-  Te151  1  0.33019040  0.17218780  0.67726270  1
  Te2-  Te152  1  0.33633451  0.49885086  -0.00531228  1
  Te2-  Te153  1  0.33814724  0.49179399  0.33289249  1
  Te2-  Te154  1  0.32789471  0.49983014  0.67972795  1
  Te2-  Te155  1  0.34054647  0.83545902  -0.00270595  1
  Te2-  Te156  1  0.33318142  0.83317047  0.34919792  1
  Te2-  Te157  1  0.35423120  0.82564587  0.65812251  1
  Te2-  Te158  1  0.66782421  0.17077632  0.00120623  1
  Te2-  Te159  1  0.67231889  0.16319660  0.33560818  1
  Te2-  Te160  1  0.67323684  0.16636342  0.67393631  1
  Te2-  Te161  1  0.67542822  0.50287725  0.00155202  1
  Te2-  Te162  1  0.67152726  0.50078722  0.32773015  1
  Te2-  Te163  1  0.66794526  0.49912786  0.67123702  1
  Te2-  Te164  1  0.66107694  0.82763528  0.00200055  1
  Te2-  Te165  1  0.66628580  0.83105539  0.33911890  1
  Te2-  Te166  1  0.65176204  0.82450607  0.66714829  1
  Te2-  Te167  1  0.01083895  -0.00800654  0.15981052  1
  Te2-  Te168  1  0.01062981  -0.00198220  0.50348030  1
  Te2-  Te169  1  -0.00084751  0.00266854  0.84357282  1
  Te2-  Te170  1  0.00432758  0.34106684  0.16911488  1
  Te2-  Te171  1  0.00878069  0.33277522  0.49893745  1
  Te2-  Te172  1  0.01380603  0.33984849  0.83164004  1
  Te2-  Te173  1  0.00187171  0.66878869  0.16587276  1
  Te2-  Te174  1  0.00400553  0.66798758  0.50979138  1
  Te2-  Te175  1  0.00150162  0.65718172  0.83290105  1
  Te2-  Te176  1  0.32362876  -0.01664216  0.17053300  1
  Te2-  Te177  1  0.34787140  -0.00527056  0.50614940  1
  Te2-  Te178  1  0.33441792  0.00512316  0.82659171  1
  Te2-  Te179  1  0.34335967  0.33473628  0.17027053  1
  Te2-  Te180  1  0.32352722  0.33205439  0.49383404  1
  Te2-  Te181  1  0.32639064  0.33151903  0.84550458  1
  Te2-  Te182  1  0.32997018  0.68047703  0.17162991  1
  Te2-  Te183  1  0.32758842  0.66302336  0.49755297  1
  Te2-  Te184  1  0.33467437  0.66443169  0.83517327  1
  Te2-  Te185  1  0.66854893  -0.00123576  0.17211039  1
  Te2-  Te186  1  0.65339930  -0.00319636  0.50504720  1
  Te2-  Te187  1  0.66804955  0.00023440  0.83408838  1
  Te2-  Te188  1  0.66840638  0.33101568  0.16567533  1
  Te2-  Te189  1  0.67065133  0.33661995  0.50365787  1
  Te2-  Te190  1  0.66317316  0.33093397  0.84255350  1
  Te2-  Te191  1  0.66473172  0.67037457  0.17071420  1
  Te2-  Te192  1  0.67620882  0.66250415  0.50328595  1
  Te2-  Te193  1  0.66791072  0.66686248  0.83438377  1
  Pb2+  Pb194  1  0.33361719  0.83457074  0.82382727  1
  Pb2+  Pb195  1  0.00696449  0.16252312  0.50159113  1
  Pb2+  Pb196  1  0.16787148  0.83724403  -0.00616894  1
  Pb2+  Pb197  1  0.83459951  0.00364295  0.82122400  1
  Pb2+  Pb198  1  0.83550193  0.65920356  0.83155114  1
  Pb2+  Pb199  1  0.66111211  0.16540746  0.50548232  1
  Pb2+  Pb200  1  0.65904066  0.33518652  0.67464059  1
  Pb2+  Pb201  1  0.33773913  0.49925296  0.50664811  1
  Pb2+  Pb202  1  0.83221491  0.67429474  0.16919810  1
  Pb2+  Pb203  1  0.49956130  0.67239415  0.17049020  1
  Pb2+  Pb204  1  0.32872580  0.15807708  0.16985782  1
  Pb2+  Pb205  1  0.16665551  0.66341148  0.82750457  1
  Pb2+  Pb206  1  0.66682316  0.00029307  0.00631695  1
  Pb2+  Pb207  1  0.16646455  0.00590308  0.82785057  1
  Pb2+  Pb208  1  0.16431941  0.49797705  0.01001568  1
  Pb2+  Pb209  1  0.82753118  0.83016850  -0.00296884  1
  Pb2+  Pb210  1  0.50218127  0.16239020  0.33442484  1
  Pb2+  Pb211  1  -0.00224303  -0.00393087  0.33131126  1
  Pb2+  Pb212  1  0.84061024  0.32391530  0.15971334  1
  Pb2+  Pb213  1  0.50144823  0.34039397  0.49752494  1
  Pb2+  Pb214  1  0.83775655  0.33400050  0.50446823  1
  Pb2+  Pb215  1  0.50005851  0.00141853  0.83380228  1
