# generated using pymatgen
data_In22Ag21Sn22Bi21(Te54Pb11)2
_symmetry_space_group_name_H-M   'P 1'
_cell_length_a   19.14525550
_cell_length_b   19.11655196
_cell_length_c   19.11779866
_cell_angle_alpha   90.00417075
_cell_angle_beta   89.99247126
_cell_angle_gamma   89.98186546
_symmetry_Int_Tables_number   1
_chemical_formula_structural   In22Ag21Sn22Bi21(Te54Pb11)2
_chemical_formula_sum   'In22 Ag21 Sn22 Bi21 Te108 Pb22'
_cell_volume   6996.94700903
_cell_formula_units_Z   1
loop_
 _symmetry_equiv_pos_site_id
 _symmetry_equiv_pos_as_xyz
  1  'x, y, z'
loop_
 _atom_type_symbol
 _atom_type_oxidation_number
  In3+  3.0
  Ag+  1.0
  Sn2+  2.0
  Bi3+  3.0
  Te2-  -2.0
  Pb2+  2.0
loop_
 _atom_site_type_symbol
 _atom_site_label
 _atom_site_symmetry_multiplicity
 _atom_site_fract_x
 _atom_site_fract_y
 _atom_site_fract_z
 _atom_site_occupancy
  In3+  In0  1  -0.00333367  0.49674500  0.83447510  1
  In3+  In1  1  0.16975729  -0.00609869  0.16798225  1
  In3+  In2  1  -0.01002961  0.16326712  0.50289605  1
  In3+  In3  1  0.51449742  0.18077915  -0.00131483  1
  In3+  In4  1  0.17261763  0.84067904  0.69550636  1
  In3+  In5  1  0.83905509  0.67186976  0.83258056  1
  In3+  In6  1  0.82990612  0.50396575  0.66577045  1
  In3+  In7  1  0.32165563  0.16922257  0.83438406  1
  In3+  In8  1  0.65704695  0.83808831  0.17422281  1
  In3+  In9  1  0.16630018  0.00253273  0.83521211  1
  In3+  In10  1  0.84314809  -0.00108300  0.16826741  1
  In3+  In11  1  0.49716633  -0.00251291  0.16700978  1
  In3+  In12  1  0.33396413  0.81904784  0.16322965  1
  In3+  In13  1  0.50200493  0.34141324  0.16578121  1
  In3+  In14  1  -0.00464284  0.84648919  0.84637624  1
  In3+  In15  1  0.83211514  0.14831982  0.32029039  1
  In3+  In16  1  -0.00079272  -0.01784142  0.66151142  1
  In3+  In17  1  0.83124930  0.33712758  0.83541813  1
  In3+  In18  1  0.34398213  0.00161731  0.32998065  1
  In3+  In19  1  0.83083689  0.83196904  0.00603314  1
  In3+  In20  1  0.65484314  0.31008068  0.67285761  1
  In3+  In21  1  0.83334774  0.66901223  0.48526909  1
  Ag+  Ag22  1  0.84538741  0.46769031  0.30892356  1
  Ag+  Ag23  1  0.66897163  0.69210219  -0.02203064  1
  Ag+  Ag24  1  0.64000090  0.00599308  0.69718130  1
  Ag+  Ag25  1  0.64697638  0.00604527  0.32889471  1
  Ag+  Ag26  1  0.52271403  0.32705564  0.47037282  1
  Ag+  Ag27  1  0.47063183  0.47206654  0.69983281  1
  Ag+  Ag28  1  0.47581865  0.83446744  0.33374646  1
  Ag+  Ag29  1  0.35197422  -0.00675068  0.69473894  1
  Ag+  Ag30  1  0.52611674  0.32706311  0.84064994  1
  Ag+  Ag31  1  0.82656020  0.83926522  0.30836148  1
  Ag+  Ag32  1  0.18997368  0.84169937  0.00193616  1
  Ag+  Ag33  1  0.03048907  0.68371318  0.68916094  1
  Ag+  Ag34  1  0.14228184  0.34400026  0.14537070  1
  Ag+  Ag35  1  0.30858865  0.63907552  0.00577172  1
  Ag+  Ag36  1  0.63969569  0.35275721  0.00397431  1
  Ag+  Ag37  1  0.19069796  0.34943288  0.85597941  1
  Ag+  Ag38  1  0.64339190  0.83223383  0.80290016  1
  Ag+  Ag39  1  0.31628581  0.47143113  0.17703348  1
  Ag+  Ag40  1  0.02449857  0.50043027  0.13995044  1
  Ag+  Ag41  1  0.84575169  0.18793083  0.00070779  1
  Ag+  Ag42  1  0.00131369  -0.02497522  0.30656115  1
  Sn2+  Sn43  1  0.50422636  0.83007067  0.00325752  1
  Sn2+  Sn44  1  0.51074450  0.00255241  0.50116642  1
  Sn2+  Sn45  1  0.49519309  0.17450468  0.67090642  1
  Sn2+  Sn46  1  0.83649726  0.66443226  0.16425978  1
  Sn2+  Sn47  1  0.33332972  0.32480757  0.67002347  1
  Sn2+  Sn48  1  0.32969848  0.00300915  0.00418931  1
  Sn2+  Sn49  1  0.50799001  0.50998213  0.33770520  1
  Sn2+  Sn50  1  -0.00210667  0.16819550  0.83346029  1
  Sn2+  Sn51  1  0.33371551  0.32976930  0.33976683  1
  Sn2+  Sn52  1  0.33776501  0.16933950  0.50867485  1
  Sn2+  Sn53  1  0.00217116  0.82273662  0.16633977  1
  Sn2+  Sn54  1  0.15651711  0.83913571  0.32591493  1
  Sn2+  Sn55  1  0.50325535  0.50623440  0.00182969  1
  Sn2+  Sn56  1  0.00277721  0.83440174  0.49590538  1
  Sn2+  Sn57  1  0.32820958  0.33430642  0.00149751  1
  Sn2+  Sn58  1  -0.00144059  0.00202608  0.00284883  1
  Sn2+  Sn59  1  0.00169156  0.17650670  0.17134602  1
  Sn2+  Sn60  1  0.17419366  0.50615970  0.00431192  1
  Sn2+  Sn61  1  0.83049928  0.50356225  0.00529460  1
  Sn2+  Sn62  1  0.83254017  0.00185591  0.83810082  1
  Sn2+  Sn63  1  0.50194521  0.65809126  0.50245821  1
  Sn2+  Sn64  1  0.00107474  0.33565871  0.32668760  1
  Bi3+  Bi65  1  0.66975424  0.67093184  0.33183242  1
  Bi3+  Bi66  1  0.33943521  0.50012779  0.49240369  1
  Bi3+  Bi67  1  0.33832773  0.67013388  0.67241138  1
  Bi3+  Bi68  1  0.66668574  0.16215005  0.16568351  1
  Bi3+  Bi69  1  0.66895431  0.16038620  0.83685979  1
  Bi3+  Bi70  1  0.33196184  0.16889705  0.16265925  1
  Bi3+  Bi71  1  0.50534364  0.66839845  0.16519292  1
  Bi3+  Bi72  1  0.16895817  0.33345514  0.50148936  1
  Bi3+  Bi73  1  -0.00359821  0.33649409  0.66438993  1
  Bi3+  Bi74  1  -0.00082443  0.66700918  0.33435651  1
  Bi3+  Bi75  1  0.16035386  0.16755012  0.32965848  1
  Bi3+  Bi76  1  0.66656483  0.50166178  0.16760034  1
  Bi3+  Bi77  1  0.16862218  0.16395358  0.66495194  1
  Bi3+  Bi78  1  -0.00270189  0.50172038  0.50234064  1
  Bi3+  Bi79  1  0.66661880  -0.00073428  0.00880792  1
  Bi3+  Bi80  1  0.83563108  -0.00346661  0.49643643  1
  Bi3+  Bi81  1  -0.00097056  0.33246251  -0.00262319  1
  Bi3+  Bi82  1  0.66814863  0.83610955  0.49188045  1
  Bi3+  Bi83  1  0.66441278  0.50071522  0.50344526  1
  Bi3+  Bi84  1  0.66582483  0.67150896  0.66905079  1
  Bi3+  Bi85  1  0.50248683  0.66700922  0.83632452  1
  Te2-  Te86  1  0.16710373  0.18290094  0.16893298  1
  Te2-  Te87  1  0.16880588  0.17005185  0.49790098  1
  Te2-  Te88  1  0.16665234  0.16540461  0.82921436  1
  Te2-  Te89  1  0.17172587  0.49086859  0.16276284  1
  Te2-  Te90  1  0.16772562  0.49940039  0.49853589  1
  Te2-  Te91  1  0.16365575  0.49266838  0.83597765  1
  Te2-  Te92  1  0.16749631  0.84060551  0.15528067  1
  Te2-  Te93  1  0.16348103  0.83731073  0.49190210  1
  Te2-  Te94  1  0.15910229  0.83678300  0.84855231  1
  Te2-  Te95  1  0.49977807  0.16088491  0.16100228  1
  Te2-  Te96  1  0.49600353  0.17838790  0.49944973  1
  Te2-  Te97  1  0.50747398  0.17393996  0.83948067  1
  Te2-  Te98  1  0.50511534  0.50209052  0.16893735  1
  Te2-  Te99  1  0.50100680  0.49027553  0.49677727  1
  Te2-  Te100  1  0.50403306  0.50139248  0.83985120  1
  Te2-  Te101  1  0.49942322  0.83417757  0.17755803  1
  Te2-  Te102  1  0.50293017  0.83325457  0.48585022  1
  Te2-  Te103  1  0.49935447  0.83525246  0.83301270  1
  Te2-  Te104  1  0.83142212  0.15809060  0.15845101  1
  Te2-  Te105  1  0.83350700  0.16124531  0.50073305  1
  Te2-  Te106  1  0.83028872  0.16258499  0.84713469  1
  Te2-  Te107  1  0.82621809  0.49981027  0.16752721  1
  Te2-  Te108  1  0.83120835  0.50532475  0.50692639  1
  Te2-  Te109  1  0.83772292  0.50340986  0.83544824  1
  Te2-  Te110  1  0.84125763  0.83596131  0.16191652  1
  Te2-  Te111  1  0.83560186  0.83407861  0.50075196  1
  Te2-  Te112  1  0.84262415  0.83250303  0.83795858  1
  Te2-  Te113  1  0.16392354  -0.00702716  -0.00192790  1
  Te2-  Te114  1  0.14934080  0.00542920  0.32318329  1
  Te2-  Te115  1  0.15909843  -0.00094660  0.67186358  1
  Te2-  Te116  1  0.16263144  0.33364995  -0.00206351  1
  Te2-  Te117  1  0.16773019  0.32986636  0.33735810  1
  Te2-  Te118  1  0.16460001  0.32732605  0.66538358  1
  Te2-  Te119  1  0.16562266  0.67310769  0.00039647  1
  Te2-  Te120  1  0.16551713  0.66910385  0.33074401  1
  Te2-  Te121  1  0.17600940  0.67299590  0.66868005  1
  Te2-  Te122  1  0.50335588  -0.00317583  0.00925652  1
  Te2-  Te123  1  0.49874287  -0.00931762  0.32677094  1
  Te2-  Te124  1  0.49823957  0.00354929  0.65896719  1
  Te2-  Te125  1  0.49638923  0.33252892  -0.00795113  1
  Te2-  Te126  1  0.50100904  0.33471152  0.32502401  1
  Te2-  Te127  1  0.50323766  0.33175865  0.68335994  1
  Te2-  Te128  1  0.51592901  0.67077532  0.00015912  1
  Te2-  Te129  1  0.50441301  0.67830894  0.33110065  1
  Te2-  Te130  1  0.49893836  0.66587762  0.66976477  1
  Te2-  Te131  1  0.82864515  -0.00920623  0.00756657  1
  Te2-  Te132  1  0.85083060  -0.00371024  0.32739437  1
  Te2-  Te133  1  0.84562146  -0.00019499  0.66575910  1
  Te2-  Te134  1  0.83748953  0.33529819  -0.00797030  1
  Te2-  Te135  1  0.83161883  0.32366014  0.33429455  1
  Te2-  Te136  1  0.83256369  0.33635563  0.67514674  1
  Te2-  Te137  1  0.82086648  0.67258528  -0.00620276  1
  Te2-  Te138  1  0.83358693  0.68078975  0.33083917  1
  Te2-  Te139  1  0.82687502  0.66331640  0.67745469  1
  Te2-  Te140  1  -0.00647210  0.17042829  0.00170107  1
  Te2-  Te141  1  -0.00463472  0.17327973  0.33017669  1
  Te2-  Te142  1  0.00444421  0.17340587  0.66620876  1
  Te2-  Te143  1  0.00095162  0.49686082  -0.00630475  1
  Te2-  Te144  1  -0.01425115  0.50399226  0.34117019  1
  Te2-  Te145  1  -0.00770652  0.49966318  0.66688563  1
  Te2-  Te146  1  -0.00997752  0.83211629  -0.00127326  1
  Te2-  Te147  1  -0.00337338  0.82838773  0.32932176  1
  Te2-  Te148  1  0.01039841  0.82812708  0.66936018  1
  Te2-  Te149  1  0.33312521  0.16630111  -0.00285506  1
  Te2-  Te150  1  0.32834882  0.16114985  0.32972266  1
  Te2-  Te151  1  0.33006643  0.14856858  0.67229070  1
  Te2-  Te152  1  0.33303288  0.49413140  0.01087775  1
  Te2-  Te153  1  0.33584704  0.49954832  0.32645011  1
  Te2-  Te154  1  0.33280413  0.50555073  0.66270322  1
  Te2-  Te155  1  0.33771913  0.84142966  0.01044813  1
  Te2-  Te156  1  0.32610221  0.83799169  0.31985418  1
  Te2-  Te157  1  0.32566541  0.84342981  0.66771947  1
  Te2-  Te158  1  0.66849072  0.16266384  0.00118429  1
  Te2-  Te159  1  0.67078775  0.15802745  0.32744984  1
  Te2-  Te160  1  0.66592346  0.15161467  0.67326311  1
  Te2-  Te161  1  0.66954348  0.49586447  0.00396651  1
  Te2-  Te162  1  0.67560754  0.50488226  0.33721491  1
  Te2-  Te163  1  0.67102167  0.50833833  0.66509825  1
  Te2-  Te164  1  0.67193064  0.83683050  0.01574120  1
  Te2-  Te165  1  0.67946183  0.83479418  0.32830567  1
  Te2-  Te166  1  0.66694082  0.83936870  0.65744543  1
  Te2-  Te167  1  0.00186116  0.00168820  0.16031508  1
  Te2-  Te168  1  -0.00223934  0.00317358  0.50572702  1
  Te2-  Te169  1  0.00227196  0.00067563  0.83180547  1
  Te2-  Te170  1  -0.00304541  0.34825060  0.16454848  1
  Te2-  Te171  1  0.00323345  0.33727602  0.50006094  1
  Te2-  Te172  1  -0.00815645  0.33541563  0.82957275  1
  Te2-  Te173  1  -0.00115179  0.65079766  0.16949570  1
  Te2-  Te174  1  -0.00751799  0.66470492  0.50080995  1
  Te2-  Te175  1  -0.00564107  0.65911107  0.82805226  1
  Te2-  Te176  1  0.32666266  0.00744789  0.17103393  1
  Te2-  Te177  1  0.33810120  0.00286552  0.48367254  1
  Te2-  Te178  1  0.32621146  0.00436189  0.83812593  1
  Te2-  Te179  1  0.34704632  0.32775781  0.16962361  1
  Te2-  Te180  1  0.33180483  0.33831575  0.50558926  1
  Te2-  Te181  1  0.33184298  0.32377356  0.82885676  1
  Te2-  Te182  1  0.34167481  0.66811069  0.15159267  1
  Te2-  Te183  1  0.33704944  0.66437750  0.50212296  1
  Te2-  Te184  1  0.33860093  0.66447221  0.83863008  1
  Te2-  Te185  1  0.66606533  -0.00208838  0.17628196  1
  Te2-  Te186  1  0.67206700  -0.00269482  0.48211625  1
  Te2-  Te187  1  0.66784664  -0.01144553  0.84124816  1
  Te2-  Te188  1  0.65947470  0.33009079  0.15414826  1
  Te2-  Te189  1  0.66531371  0.33584504  0.50747527  1
  Te2-  Te190  1  0.67384876  0.32895391  0.83339639  1
  Te2-  Te191  1  0.66709152  0.66749246  0.16952237  1
  Te2-  Te192  1  0.66753907  0.66712011  0.49941677  1
  Te2-  Te193  1  0.66574270  0.68290281  0.83029417  1
  Pb2+  Pb194  1  0.67096543  0.50622454  0.83402047  1
  Pb2+  Pb195  1  0.15476766  0.49716047  0.32858845  1
  Pb2+  Pb196  1  0.49918891  0.16122728  0.33125004  1
  Pb2+  Pb197  1  0.66690360  0.33439134  0.32732729  1
  Pb2+  Pb198  1  0.16290585  0.16157596  0.00132561  1
  Pb2+  Pb199  1  0.33766294  0.66564346  0.32503058  1
  Pb2+  Pb200  1  0.16917393  0.00228697  0.49671085  1
  Pb2+  Pb201  1  0.66358264  0.16294342  0.50073437  1
  Pb2+  Pb202  1  0.50017244  0.83487204  0.65694178  1
  Pb2+  Pb203  1  0.33433044  0.83682005  0.49524746  1
  Pb2+  Pb204  1  0.83641432  0.83198090  0.66886734  1
  Pb2+  Pb205  1  0.83363632  0.33547035  0.50247851  1
  Pb2+  Pb206  1  0.33606053  0.49406347  0.84068740  1
  Pb2+  Pb207  1  -0.00663937  0.66557954  -0.00233409  1
  Pb2+  Pb208  1  0.16076328  0.67092834  0.50009512  1
  Pb2+  Pb209  1  0.16933986  0.66610069  0.16348331  1
  Pb2+  Pb210  1  0.83564074  0.16661555  0.67559643  1
  Pb2+  Pb211  1  0.50067998  0.00635862  0.83856700  1
  Pb2+  Pb212  1  0.33319734  0.83195481  0.84142909  1
  Pb2+  Pb213  1  0.16326259  0.49631781  0.66883208  1
  Pb2+  Pb214  1  0.16518358  0.66003285  0.83693338  1
  Pb2+  Pb215  1  0.83057309  0.32864712  0.16349222  1
