# generated using pymatgen
data_In22Ag21Sn22Bi21(Te54Pb11)2
_symmetry_space_group_name_H-M   'P 1'
_cell_length_a   19.14419246
_cell_length_b   19.15797005
_cell_length_c   19.14588459
_cell_angle_alpha   90.00176094
_cell_angle_beta   90.00331673
_cell_angle_gamma   89.98531388
_symmetry_Int_Tables_number   1
_chemical_formula_structural   In22Ag21Sn22Bi21(Te54Pb11)2
_chemical_formula_sum   'In22 Ag21 Sn22 Bi21 Te108 Pb22'
_cell_volume   7022.01839834
_cell_formula_units_Z   1
loop_
 _symmetry_equiv_pos_site_id
 _symmetry_equiv_pos_as_xyz
  1  'x, y, z'
loop_
 _atom_type_symbol
 _atom_type_oxidation_number
  In3+  3.0
  Ag+  1.0
  Sn2+  2.0
  Bi3+  3.0
  Te2-  -2.0
  Pb2+  2.0
loop_
 _atom_site_type_symbol
 _atom_site_label
 _atom_site_symmetry_multiplicity
 _atom_site_fract_x
 _atom_site_fract_y
 _atom_site_fract_z
 _atom_site_occupancy
  In3+  In0  1  0.50216473  0.51367435  0.66437591  1
  In3+  In1  1  0.00557864  0.15175480  0.84053727  1
  In3+  In2  1  0.15608882  0.49665560  0.65928550  1
  In3+  In3  1  0.00397041  0.83878225  0.84558830  1
  In3+  In4  1  0.00300171  0.01270624  0.65485982  1
  In3+  In5  1  0.32628572  0.31946502  0.33296449  1
  In3+  In6  1  0.46990095  0.00189041  0.83680835  1
  In3+  In7  1  0.83866876  0.50174514  -0.00371049  1
  In3+  In8  1  0.00116972  -0.02186956  0.00526212  1
  In3+  In9  1  0.84255899  0.83699295  0.33996724  1
  In3+  In10  1  0.83873625  0.18924970  0.67390579  1
  In3+  In11  1  0.32688103  0.16675062  0.51292182  1
  In3+  In12  1  0.33070383  0.65840204  0.31307820  1
  In3+  In13  1  -0.00411231  0.33234228  0.35286785  1
  In3+  In14  1  0.32276679  0.00000146  0.32891665  1
  In3+  In15  1  0.47922855  0.34051458  0.82801578  1
  In3+  In16  1  0.67661850  0.49446355  0.50106534  1
  In3+  In17  1  0.86421504  0.83340316  0.66391839  1
  In3+  In18  1  0.14497781  0.32686346  0.84062725  1
  In3+  In19  1  0.49666409  0.17386195  -0.02380068  1
  In3+  In20  1  0.16323748  0.50797039  -0.01047244  1
  In3+  In21  1  -0.00097586  0.49645910  0.84697891  1
  Ag+  Ag22  1  0.64524703  0.65010611  -0.00290157  1
  Ag+  Ag23  1  0.29935564  0.64124969  0.01847706  1
  Ag+  Ag24  1  0.16655897  0.86494439  0.69234828  1
  Ag+  Ag25  1  0.48042974  0.19784407  0.31448447  1
  Ag+  Ag26  1  0.47261257  0.63848878  0.50105259  1
  Ag+  Ag27  1  0.01174890  0.31945788  -0.00747276  1
  Ag+  Ag28  1  0.19739817  0.85960977  -0.02192181  1
  Ag+  Ag29  1  0.16850291  0.47480662  0.31073695  1
  Ag+  Ag30  1  0.83854823  0.31360507  0.85424165  1
  Ag+  Ag31  1  -0.00051361  -0.01937728  0.35581841  1
  Ag+  Ag32  1  0.00127259  0.66170378  -0.01904288  1
  Ag+  Ag33  1  0.19049136  0.34138880  0.51357407  1
  Ag+  Ag34  1  0.17084441  0.15532123  0.68460534  1
  Ag+  Ag35  1  0.85994781  0.02475442  0.52844499  1
  Ag+  Ag36  1  -0.03018328  0.17448020  0.52287626  1
  Ag+  Ag37  1  0.47201104  0.16594026  0.67244778  1
  Ag+  Ag38  1  0.35265643  0.01982173  -0.00410744  1
  Ag+  Ag39  1  0.85612948  0.30670901  0.47883195  1
  Ag+  Ag40  1  0.35470554  0.16585158  0.80994237  1
  Ag+  Ag41  1  0.01023324  0.80889341  0.18758057  1
  Ag+  Ag42  1  0.16671783  -0.02624815  0.85222169  1
  Sn2+  Sn43  1  0.66607715  0.16803159  0.83424967  1
  Sn2+  Sn44  1  0.48905493  0.00220674  0.17481501  1
  Sn2+  Sn45  1  0.15962188  -0.00467438  0.16058986  1
  Sn2+  Sn46  1  0.48492522  0.83940996  0.66277765  1
  Sn2+  Sn47  1  0.83154334  0.49868435  0.66892048  1
  Sn2+  Sn48  1  0.66604398  -0.00095922  0.66878994  1
  Sn2+  Sn49  1  0.66685738  0.67039723  0.66833330  1
  Sn2+  Sn50  1  0.83968839  0.33480646  0.16535948  1
  Sn2+  Sn51  1  0.48837671  0.49882024  0.33841738  1
  Sn2+  Sn52  1  0.84712859  0.00483142  0.82705715  1
  Sn2+  Sn53  1  0.83658813  0.67064021  0.15619723  1
  Sn2+  Sn54  1  0.00293860  0.48802628  0.50119334  1
  Sn2+  Sn55  1  0.32813723  0.33483967  0.66437817  1
  Sn2+  Sn56  1  0.66181835  0.66312167  0.33347164  1
  Sn2+  Sn57  1  0.49652271  0.66999187  0.83593570  1
  Sn2+  Sn58  1  0.67725133  0.33788347  -0.00521962  1
  Sn2+  Sn59  1  0.15765663  0.33581891  0.17055762  1
  Sn2+  Sn60  1  0.33436892  0.66596230  0.67429269  1
  Sn2+  Sn61  1  0.00263507  0.66842972  0.67278912  1
  Sn2+  Sn62  1  0.17004161  0.66528118  0.50282541  1
  Sn2+  Sn63  1  0.67397456  0.49343428  0.83451727  1
  Sn2+  Sn64  1  0.83621009  0.15581573  0.33510591  1
  Bi3+  Bi65  1  0.50112899  0.83139031  0.33442669  1
  Bi3+  Bi66  1  0.16961102  0.83742533  0.33042478  1
  Bi3+  Bi67  1  0.49915001  0.32802421  0.51031365  1
  Bi3+  Bi68  1  0.83330589  0.83159151  -0.00089348  1
  Bi3+  Bi69  1  0.83223930  0.67111026  0.83217733  1
  Bi3+  Bi70  1  0.66895175  0.83320399  0.83101416  1
  Bi3+  Bi71  1  0.00222859  0.33676233  0.67149303  1
  Bi3+  Bi72  1  0.83450101  0.00046929  0.16554827  1
  Bi3+  Bi73  1  0.49853925  0.83416289  -0.00331501  1
  Bi3+  Bi74  1  0.33289079  0.16465366  0.16740992  1
  Bi3+  Bi75  1  0.16644703  0.16763100  0.33310167  1
  Bi3+  Bi76  1  0.16927144  0.00834350  0.49412411  1
  Bi3+  Bi77  1  0.50325148  0.00098282  0.50609669  1
  Bi3+  Bi78  1  0.16739619  0.66169145  0.83084760  1
  Bi3+  Bi79  1  0.00073087  0.17076221  0.16214487  1
  Bi3+  Bi80  1  0.67547856  0.83207868  0.16474906  1
  Bi3+  Bi81  1  0.66561782  0.83122162  0.50241614  1
  Bi3+  Bi82  1  0.66120559  0.16590055  0.50264446  1
  Bi3+  Bi83  1  0.00057356  0.49919573  0.16727750  1
  Bi3+  Bi84  1  0.83338215  0.67099391  0.49883870  1
  Bi3+  Bi85  1  0.33127861  0.83748164  0.50034132  1
  Te2-  Te86  1  0.16678130  0.16938804  0.16622803  1
  Te2-  Te87  1  0.17571949  0.17125556  0.49224107  1
  Te2-  Te88  1  0.15501887  0.17658855  0.82874312  1
  Te2-  Te89  1  0.16320977  0.49647902  0.16378051  1
  Te2-  Te90  1  0.16274821  0.49076767  0.50563711  1
  Te2-  Te91  1  0.16092271  0.49582912  0.82979468  1
  Te2-  Te92  1  0.15519836  0.83664503  0.16865777  1
  Te2-  Te93  1  0.16936786  0.83926682  0.49360496  1
  Te2-  Te94  1  0.15921446  0.82646031  0.83698879  1
  Te2-  Te95  1  0.49760273  0.16294023  0.17330986  1
  Te2-  Te96  1  0.50002246  0.16494634  0.51484244  1
  Te2-  Te97  1  0.50287235  0.16139969  0.82375915  1
  Te2-  Te98  1  0.50155416  0.49914079  0.16647927  1
  Te2-  Te99  1  0.50330315  0.49489815  0.50681340  1
  Te2-  Te100  1  0.50435202  0.49592189  0.82473876  1
  Te2-  Te101  1  0.50659196  0.83509501  0.16842152  1
  Te2-  Te102  1  0.49948288  0.83557227  0.49972516  1
  Te2-  Te103  1  0.50461977  0.83825799  0.83054380  1
  Te2-  Te104  1  0.83503849  0.16669986  0.16621528  1
  Te2-  Te105  1  0.82372454  0.16311968  0.49413996  1
  Te2-  Te106  1  0.84012937  0.16710977  0.82875596  1
  Te2-  Te107  1  0.83844521  0.50116929  0.16466794  1
  Te2-  Te108  1  0.83130444  0.50775167  0.50079886  1
  Te2-  Te109  1  0.84018694  0.50999988  0.83525748  1
  Te2-  Te110  1  0.83791785  0.83758901  0.16391243  1
  Te2-  Te111  1  0.82910375  0.83597260  0.50068354  1
  Te2-  Te112  1  0.83541926  0.83369512  0.83066134  1
  Te2-  Te113  1  0.15415085  -0.00297240  -0.00184235  1
  Te2-  Te114  1  0.15453274  0.00213955  0.33076447  1
  Te2-  Te115  1  0.15636884  0.01026036  0.65641052  1
  Te2-  Te116  1  0.15940797  0.33732216  -0.00683439  1
  Te2-  Te117  1  0.17138494  0.32974346  0.33796293  1
  Te2-  Te118  1  0.16338950  0.34198894  0.65857757  1
  Te2-  Te119  1  0.15704068  0.66125759  -0.00785141  1
  Te2-  Te120  1  0.17564263  0.67514237  0.33572031  1
  Te2-  Te121  1  0.16793665  0.65344124  0.66896904  1
  Te2-  Te122  1  0.49917268  -0.00020214  -0.00618771  1
  Te2-  Te123  1  0.49944866  -0.00706114  0.33980233  1
  Te2-  Te124  1  0.49575651  0.00749587  0.67131718  1
  Te2-  Te125  1  0.50391776  0.33067816  -0.01361102  1
  Te2-  Te126  1  0.49515617  0.34080755  0.33956273  1
  Te2-  Te127  1  0.49644050  0.31628561  0.67542297  1
  Te2-  Te128  1  0.50060263  0.67088828  -0.00418710  1
  Te2-  Te129  1  0.49026150  0.66553234  0.34657909  1
  Te2-  Te130  1  0.49741182  0.66726330  0.66031368  1
  Te2-  Te131  1  0.83956059  -0.00190444  -0.00184987  1
  Te2-  Te132  1  0.84868515  -0.00663326  0.32755043  1
  Te2-  Te133  1  0.84557402  -0.01351650  0.66788525  1
  Te2-  Te134  1  0.83449543  0.34428213  -0.00021938  1
  Te2-  Te135  1  0.83992453  0.33444390  0.33485995  1
  Te2-  Te136  1  0.83769390  0.33968930  0.65888010  1
  Te2-  Te137  1  0.84682364  0.66657625  -0.00571325  1
  Te2-  Te138  1  0.83331672  0.67353004  0.33447154  1
  Te2-  Te139  1  0.83494320  0.67352345  0.66645888  1
  Te2-  Te140  1  -0.00170896  0.17194878  -0.00592600  1
  Te2-  Te141  1  0.00327860  0.18067643  0.32254016  1
  Te2-  Te142  1  -0.00576644  0.17037098  0.66861404  1
  Te2-  Te143  1  0.00348224  0.50821911  0.00173257  1
  Te2-  Te144  1  0.01436634  0.48741653  0.33203214  1
  Te2-  Te145  1  -0.00065049  0.49939860  0.66644799  1
  Te2-  Te146  1  -0.00574661  0.82546471  -0.00246997  1
  Te2-  Te147  1  0.00061005  0.83415615  0.33282229  1
  Te2-  Te148  1  0.01701442  0.83516038  0.66964087  1
  Te2-  Te149  1  0.34383953  0.16702363  0.00413606  1
  Te2-  Te150  1  0.33759363  0.16289080  0.33093526  1
  Te2-  Te151  1  0.31791497  0.17186154  0.66731903  1
  Te2-  Te152  1  0.32948654  0.49900536  -0.00349713  1
  Te2-  Te153  1  0.31813805  0.50671895  0.33500918  1
  Te2-  Te154  1  0.34681064  0.49737344  0.66619206  1
  Te2-  Te155  1  0.33934800  0.83447563  -0.00082958  1
  Te2-  Te156  1  0.33596350  0.83448242  0.33464834  1
  Te2-  Te157  1  0.31733841  0.83581353  0.66494232  1
  Te2-  Te158  1  0.65817660  0.16764091  -0.00524844  1
  Te2-  Te159  1  0.66582456  0.16545116  0.33849976  1
  Te2-  Te160  1  0.68526702  0.16453925  0.66442192  1
  Te2-  Te161  1  0.67429298  0.50682958  -0.00437359  1
  Te2-  Te162  1  0.66444366  0.50385204  0.33995707  1
  Te2-  Te163  1  0.66181025  0.50399918  0.66467849  1
  Te2-  Te164  1  0.66851680  0.82672359  -0.00183432  1
  Te2-  Te165  1  0.66519841  0.82926681  0.33179392  1
  Te2-  Te166  1  0.65728223  0.83245084  0.66681237  1
  Te2-  Te167  1  -0.00379923  0.00925050  0.15730841  1
  Te2-  Te168  1  0.00336647  0.01490635  0.49986751  1
  Te2-  Te169  1  0.01281199  -0.00065861  0.83098461  1
  Te2-  Te170  1  -0.00105909  0.33526102  0.14823635  1
  Te2-  Te171  1  -0.00149930  0.32347350  0.50586826  1
  Te2-  Te172  1  -0.01027154  0.34261243  0.83841166  1
  Te2-  Te173  1  -0.00400738  0.66309520  0.17163529  1
  Te2-  Te174  1  -0.00163533  0.66549399  0.50417549  1
  Te2-  Te175  1  -0.00025528  0.66395622  0.83271675  1
  Te2-  Te176  1  0.33022375  0.00446492  0.15249966  1
  Te2-  Te177  1  0.33723952  0.00226254  0.49773898  1
  Te2-  Te178  1  0.31937501  0.01421198  0.84330869  1
  Te2-  Te179  1  0.33220871  0.32997390  0.17446257  1
  Te2-  Te180  1  0.33822461  0.32988617  0.49382472  1
  Te2-  Te181  1  0.33074298  0.31815613  0.83143422  1
  Te2-  Te182  1  0.33468913  0.66828439  0.15842888  1
  Te2-  Te183  1  0.33038539  0.67482809  0.50764971  1
  Te2-  Te184  1  0.33306579  0.66621209  0.83356082  1
  Te2-  Te185  1  0.66765955  -0.00480089  0.16601476  1
  Te2-  Te186  1  0.66607962  -0.00536122  0.50261243  1
  Te2-  Te187  1  0.67581224  -0.00431117  0.82884466  1
  Te2-  Te188  1  0.66803922  0.33297225  0.16498583  1
  Te2-  Te189  1  0.66158298  0.33744741  0.50381389  1
  Te2-  Te190  1  0.68846103  0.33380088  0.83603741  1
  Te2-  Te191  1  0.67226539  0.67062555  0.15978634  1
  Te2-  Te192  1  0.67146208  0.66996986  0.49923915  1
  Te2-  Te193  1  0.66795802  0.66936528  0.83855678  1
  Pb2+  Pb194  1  0.32956546  0.50417374  0.50045701  1
  Pb2+  Pb195  1  0.00616950  0.66083289  0.33795518  1
  Pb2+  Pb196  1  0.32599947  0.00305684  0.67182962  1
  Pb2+  Pb197  1  0.66516033  -0.00456859  -0.00553631  1
  Pb2+  Pb198  1  0.66993840  0.33141399  0.33687044  1
  Pb2+  Pb199  1  0.33246579  0.49775353  0.16733587  1
  Pb2+  Pb200  1  0.84015834  0.50373339  0.33502131  1
  Pb2+  Pb201  1  0.32977367  0.49426091  0.83024812  1
  Pb2+  Pb202  1  0.32748555  0.83846315  0.16337046  1
  Pb2+  Pb203  1  0.67311868  -0.00096828  0.33573548  1
  Pb2+  Pb204  1  0.66362497  0.33334736  0.67254027  1
  Pb2+  Pb205  1  0.16187908  0.66867831  0.16286738  1
  Pb2+  Pb206  1  0.66537976  0.16466386  0.16816858  1
  Pb2+  Pb207  1  0.50283092  0.50329631  -0.00664085  1
  Pb2+  Pb208  1  0.00174470  0.84022373  0.50310674  1
  Pb2+  Pb209  1  0.50576583  0.66709428  0.17327184  1
  Pb2+  Pb210  1  0.83121280  0.16941514  -0.00260875  1
  Pb2+  Pb211  1  0.50099595  0.32929618  0.16230394  1
  Pb2+  Pb212  1  0.33173788  0.83880382  0.83605506  1
  Pb2+  Pb213  1  0.32724946  0.33215418  -0.00015914  1
  Pb2+  Pb214  1  0.67066671  0.50133050  0.16595099  1
  Pb2+  Pb215  1  0.16924760  0.16368685  -0.00449374  1
