# generated using pymatgen
data_In22Ag21Sn22Bi21(Te54Pb11)2
_symmetry_space_group_name_H-M   'P 1'
_cell_length_a   19.14530321
_cell_length_b   19.12956651
_cell_length_c   19.13742391
_cell_angle_alpha   90.00292676
_cell_angle_beta   89.99879443
_cell_angle_gamma   89.99911365
_symmetry_Int_Tables_number   1
_chemical_formula_structural   In22Ag21Sn22Bi21(Te54Pb11)2
_chemical_formula_sum   'In22 Ag21 Sn22 Bi21 Te108 Pb22'
_cell_volume   7008.91597735
_cell_formula_units_Z   1
loop_
 _symmetry_equiv_pos_site_id
 _symmetry_equiv_pos_as_xyz
  1  'x, y, z'
loop_
 _atom_type_symbol
 _atom_type_oxidation_number
  In3+  3.0
  Ag+  1.0
  Sn2+  2.0
  Bi3+  3.0
  Te2-  -2.0
  Pb2+  2.0
loop_
 _atom_site_type_symbol
 _atom_site_label
 _atom_site_symmetry_multiplicity
 _atom_site_fract_x
 _atom_site_fract_y
 _atom_site_fract_z
 _atom_site_occupancy
  In3+  In0  1  0.67649559  0.67094859  0.68214516  1
  In3+  In1  1  0.32392350  0.33305145  0.33737466  1
  In3+  In2  1  0.32886887  -0.00265565  0.00654633  1
  In3+  In3  1  0.00891291  -0.01431785  0.32698408  1
  In3+  In4  1  0.68159579  0.33538569  0.33591546  1
  In3+  In5  1  0.82215816  0.82768799  0.00112037  1
  In3+  In6  1  0.16000749  0.18125034  0.32951177  1
  In3+  In7  1  0.51179575  0.82975216  0.01724801  1
  In3+  In8  1  0.80468776  0.16538571  -0.00378670  1
  In3+  In9  1  0.67782895  0.83092401  0.49854525  1
  In3+  In10  1  0.17086883  0.32512541  0.80786464  1
  In3+  In11  1  0.01059047  0.66185446  0.68254839  1
  In3+  In12  1  0.33100729  0.67434689  0.32750924  1
  In3+  In13  1  0.51413712  0.00757551  0.84014565  1
  In3+  In14  1  0.33875935  0.83933909  0.85297713  1
  In3+  In15  1  0.49831185  0.33256333  0.49929573  1
  In3+  In16  1  -0.00663992  0.32198486  -0.00666624  1
  In3+  In17  1  0.32733150  -0.00968255  0.67215817  1
  In3+  In18  1  0.33490740  0.32847560  0.66622153  1
  In3+  In19  1  0.50189146  0.67035238  0.49086756  1
  In3+  In20  1  0.85892895  0.52047141  0.33135281  1
  In3+  In21  1  0.82666487  0.66644146  0.86101999  1
  Ag+  Ag22  1  0.85525182  0.69652220  0.16863145  1
  Ag+  Ag23  1  0.64021807  0.83034643  0.85255755  1
  Ag+  Ag24  1  0.14619422  0.34561904  0.50308153  1
  Ag+  Ag25  1  0.66779134  0.66274326  0.02773779  1
  Ag+  Ag26  1  0.65863871  0.19445966  0.85310037  1
  Ag+  Ag27  1  0.81162400  0.82927613  0.30527772  1
  Ag+  Ag28  1  0.17069934  0.51895722  0.35906486  1
  Ag+  Ag29  1  -0.02536875  0.47531994  0.83293128  1
  Ag+  Ag30  1  0.14069300  0.63999822  0.50438635  1
  Ag+  Ag31  1  0.53003086  0.66879446  0.14431324  1
  Ag+  Ag32  1  0.14149872  0.00476692  0.18760930  1
  Ag+  Ag33  1  0.85016615  0.34848377  0.50182238  1
  Ag+  Ag34  1  0.50049474  0.14157811  0.02353629  1
  Ag+  Ag35  1  0.53726044  0.29705394  0.86599566  1
  Ag+  Ag36  1  0.66581831  0.83798329  0.15126873  1
  Ag+  Ag37  1  -0.02094994  0.19083274  0.16425750  1
  Ag+  Ag38  1  0.68016815  0.19141499  0.49146617  1
  Ag+  Ag39  1  -0.03213898  0.83024576  0.14709749  1
  Ag+  Ag40  1  0.49136582  0.30762895  0.19648624  1
  Ag+  Ag41  1  0.31433711  0.84701024  0.15211004  1
  Ag+  Ag42  1  0.19975415  0.03110933  0.84708409  1
  Sn2+  Sn43  1  0.16326235  0.66704490  0.82640444  1
  Sn2+  Sn44  1  0.67248177  -0.00260453  0.33106812  1
  Sn2+  Sn45  1  0.66492969  0.66105744  0.32792406  1
  Sn2+  Sn46  1  0.00429301  0.83050591  0.49171314  1
  Sn2+  Sn47  1  0.66677845  -0.00286422  0.00009509  1
  Sn2+  Sn48  1  0.50457775  -0.00043720  0.50573248  1
  Sn2+  Sn49  1  0.16545186  0.67973341  0.17495247  1
  Sn2+  Sn50  1  0.32865995  0.16481070  0.16110236  1
  Sn2+  Sn51  1  0.49161143  0.49619786  0.32770912  1
  Sn2+  Sn52  1  0.66155576  0.32865831  0.66387456  1
  Sn2+  Sn53  1  0.49979916  0.66460504  0.83226191  1
  Sn2+  Sn54  1  0.33920784  0.66808570  0.66608540  1
  Sn2+  Sn55  1  0.00411841  0.66575309  -0.00124594  1
  Sn2+  Sn56  1  0.50166752  0.17108686  0.33293596  1
  Sn2+  Sn57  1  0.65555334  0.34079916  0.00465236  1
  Sn2+  Sn58  1  0.16530655  0.16536549  0.65256283  1
  Sn2+  Sn59  1  0.33588503  0.66860413  0.01073187  1
  Sn2+  Sn60  1  0.66966600  0.49932476  0.49655486  1
  Sn2+  Sn61  1  0.66453066  0.00400898  0.66705609  1
  Sn2+  Sn62  1  0.84008609  -0.00175947  0.16980104  1
  Sn2+  Sn63  1  -0.00712927  0.33098856  0.66369798  1
  Sn2+  Sn64  1  0.33021400  0.82946652  0.48945368  1
  Bi3+  Bi65  1  0.50092924  0.16794403  0.66029190  1
  Bi3+  Bi66  1  0.00602813  0.66885184  0.33108133  1
  Bi3+  Bi67  1  0.33521300  0.33354325  0.00139122  1
  Bi3+  Bi68  1  0.16882161  0.82726471  0.33071460  1
  Bi3+  Bi69  1  0.82648178  0.33218288  0.16801300  1
  Bi3+  Bi70  1  0.50170654  0.83267915  0.66710217  1
  Bi3+  Bi71  1  0.33066701  0.50794280  0.83167553  1
  Bi3+  Bi72  1  0.00114134  0.83066491  0.83600064  1
  Bi3+  Bi73  1  0.50112587  0.50221419  0.66354218  1
  Bi3+  Bi74  1  0.66177971  0.50025570  0.16971181  1
  Bi3+  Bi75  1  0.83060243  0.00021179  0.49772388  1
  Bi3+  Bi76  1  0.82803536  0.16798682  0.66473857  1
  Bi3+  Bi77  1  0.82977093  -0.00503757  0.83626887  1
  Bi3+  Bi78  1  0.33802377  0.16546974  0.49598514  1
  Bi3+  Bi79  1  0.33255768  0.50121694  0.16605140  1
  Bi3+  Bi80  1  0.50564238  -0.00775836  0.16616228  1
  Bi3+  Bi81  1  0.50826976  0.83091955  0.33367565  1
  Bi3+  Bi82  1  0.83186698  0.83322820  0.66970269  1
  Bi3+  Bi83  1  0.16351021  0.50086073  -0.00034891  1
  Bi3+  Bi84  1  -0.00231721  0.33169533  0.32763385  1
  Bi3+  Bi85  1  0.50035228  0.50704021  0.00073341  1
  Te2-  Te86  1  0.17512070  0.15254529  0.17516369  1
  Te2-  Te87  1  0.17224509  0.16861203  0.48904149  1
  Te2-  Te88  1  0.16661361  0.17160641  0.82683185  1
  Te2-  Te89  1  0.16950030  0.50315844  0.16131543  1
  Te2-  Te90  1  0.16955384  0.49319296  0.50439578  1
  Te2-  Te91  1  0.16902090  0.50506902  0.83741045  1
  Te2-  Te92  1  0.17002871  0.84043594  0.17003066  1
  Te2-  Te93  1  0.16992029  0.83307246  0.49523107  1
  Te2-  Te94  1  0.16530050  0.82688953  0.83432835  1
  Te2-  Te95  1  0.49817518  0.16208521  0.17045522  1
  Te2-  Te96  1  0.50091568  0.16728722  0.49940927  1
  Te2-  Te97  1  0.51292195  0.16108757  0.82116292  1
  Te2-  Te98  1  0.49690803  0.51909308  0.16320228  1
  Te2-  Te99  1  0.50171758  0.50457571  0.50083163  1
  Te2-  Te100  1  0.49322164  0.49883144  0.82981393  1
  Te2-  Te101  1  0.51300478  0.82430122  0.16892576  1
  Te2-  Te102  1  0.49918908  0.83130696  0.50020158  1
  Te2-  Te103  1  0.49242664  0.83326789  0.82778260  1
  Te2-  Te104  1  0.83282892  0.16913759  0.15753896  1
  Te2-  Te105  1  0.82579229  0.16161849  0.50076113  1
  Te2-  Te106  1  0.81782090  0.16199241  0.83160210  1
  Te2-  Te107  1  0.82877085  0.49336165  0.17760544  1
  Te2-  Te108  1  0.83244837  0.49206770  0.48637776  1
  Te2-  Te109  1  0.83184391  0.51191505  0.83584961  1
  Te2-  Te110  1  0.81950108  0.83998620  0.15765986  1
  Te2-  Te111  1  0.83516552  0.83702665  0.50643025  1
  Te2-  Te112  1  0.83711864  0.82913255  0.83250808  1
  Te2-  Te113  1  0.17838595  0.00122911  -0.01030440  1
  Te2-  Te114  1  0.16437279  -0.00784161  0.33207853  1
  Te2-  Te115  1  0.17216019  0.00175038  0.67405975  1
  Te2-  Te116  1  0.17208840  0.33623969  0.00536000  1
  Te2-  Te117  1  0.16489010  0.33414949  0.33925869  1
  Te2-  Te118  1  0.16265304  0.32610011  0.65247036  1
  Te2-  Te119  1  0.16683211  0.66435869  0.00095102  1
  Te2-  Te120  1  0.17250816  0.66514410  0.34610137  1
  Te2-  Te121  1  0.16467985  0.66452367  0.65313300  1
  Te2-  Te122  1  0.49942564  -0.00645403  -0.00224035  1
  Te2-  Te123  1  0.50439825  -0.00558988  0.33141211  1
  Te2-  Te124  1  0.49851563  -0.00205185  0.67112133  1
  Te2-  Te125  1  0.49872011  0.34590294  -0.00077832  1
  Te2-  Te126  1  0.49196552  0.33740043  0.33952442  1
  Te2-  Te127  1  0.49922125  0.33521233  0.66117935  1
  Te2-  Te128  1  0.50733051  0.67291710  -0.00378398  1
  Te2-  Te129  1  0.49086742  0.66935633  0.33619733  1
  Te2-  Te130  1  0.50695792  0.66830544  0.66718059  1
  Te2-  Te131  1  0.83187651  0.00815333  -0.00272576  1
  Te2-  Te132  1  0.83348951  -0.01651847  0.33521988  1
  Te2-  Te133  1  0.83247204  -0.00046436  0.66881756  1
  Te2-  Te134  1  0.83248813  0.32598468  0.00182686  1
  Te2-  Te135  1  0.83463882  0.32548245  0.33375284  1
  Te2-  Te136  1  0.83154984  0.33142473  0.65368562  1
  Te2-  Te137  1  0.82857455  0.67146080  0.01461091  1
  Te2-  Te138  1  0.84015201  0.67622026  0.32083001  1
  Te2-  Te139  1  0.82881121  0.67065845  0.65814478  1
  Te2-  Te140  1  0.00814264  0.17097535  0.01316191  1
  Te2-  Te141  1  0.00429628  0.16822980  0.31633276  1
  Te2-  Te142  1  -0.00582547  0.16789625  0.66713280  1
  Te2-  Te143  1  0.00075797  0.49653936  -0.01299337  1
  Te2-  Te144  1  0.01388597  0.50091994  0.33159301  1
  Te2-  Te145  1  -0.00311632  0.50155761  0.68058552  1
  Te2-  Te146  1  -0.00818164  0.82965346  0.00039134  1
  Te2-  Te147  1  0.00433609  0.83133386  0.33181484  1
  Te2-  Te148  1  -0.00257028  0.82378527  0.66696111  1
  Te2-  Te149  1  0.35224910  0.17128200  -0.00403930  1
  Te2-  Te150  1  0.33279158  0.17287142  0.33256193  1
  Te2-  Te151  1  0.33571992  0.16448780  0.66220791  1
  Te2-  Te152  1  0.33475832  0.50188481  -0.00277637  1
  Te2-  Te153  1  0.32105798  0.49201250  0.32768129  1
  Te2-  Te154  1  0.33903020  0.49972203  0.66885085  1
  Te2-  Te155  1  0.34077690  0.83284906  0.00646512  1
  Te2-  Te156  1  0.33898490  0.83029673  0.32549827  1
  Te2-  Te157  1  0.33913895  0.83536750  0.65986667  1
  Te2-  Te158  1  0.65134863  0.16826687  -0.00135488  1
  Te2-  Te159  1  0.66330738  0.17018078  0.34141408  1
  Te2-  Te160  1  0.66431999  0.16821703  0.65254004  1
  Te2-  Te161  1  0.66480677  0.51149972  0.00407540  1
  Te2-  Te162  1  0.65810776  0.49121080  0.33090177  1
  Te2-  Te163  1  0.66241672  0.50577576  0.66438631  1
  Te2-  Te164  1  0.66609041  0.82610495  0.00033767  1
  Te2-  Te165  1  0.66811892  0.82882255  0.34123444  1
  Te2-  Te166  1  0.66569754  0.83054490  0.65851807  1
  Te2-  Te167  1  -0.00327933  -0.01674822  0.17235109  1
  Te2-  Te168  1  -0.00309910  -0.00092079  0.49523457  1
  Te2-  Te169  1  -0.00400857  -0.00354601  0.83548521  1
  Te2-  Te170  1  -0.00340159  0.33801651  0.16575898  1
  Te2-  Te171  1  -0.00293088  0.33065929  0.49319297  1
  Te2-  Te172  1  0.00799670  0.33128599  0.83401662  1
  Te2-  Te173  1  0.00213587  0.67809725  0.16789751  1
  Te2-  Te174  1  -0.00344504  0.66760058  0.49316913  1
  Te2-  Te175  1  -0.00697425  0.66926405  0.83471839  1
  Te2-  Te176  1  0.34463351  -0.00655355  0.15887385  1
  Te2-  Te177  1  0.33840901  0.00274699  0.50011978  1
  Te2-  Te178  1  0.33974886  -0.00619007  0.83071280  1
  Te2-  Te179  1  0.34560447  0.33540921  0.16636393  1
  Te2-  Te180  1  0.34019614  0.32830421  0.49631910  1
  Te2-  Te181  1  0.32464556  0.33966216  0.83151548  1
  Te2-  Te182  1  0.32893270  0.66403215  0.17140861  1
  Te2-  Te183  1  0.34331069  0.66941897  0.50066506  1
  Te2-  Te184  1  0.33034735  0.67285276  0.83294637  1
  Te2-  Te185  1  0.66577884  -0.00933949  0.16340267  1
  Te2-  Te186  1  0.66773116  -0.00858050  0.49813314  1
  Te2-  Te187  1  0.66738405  -0.01823865  0.83488489  1
  Te2-  Te188  1  0.66068711  0.33518700  0.17161844  1
  Te2-  Te189  1  0.65611640  0.33665091  0.49331513  1
  Te2-  Te190  1  0.67294719  0.34163464  0.83409457  1
  Te2-  Te191  1  0.67371374  0.66111030  0.17347479  1
  Te2-  Te192  1  0.66016047  0.66877622  0.49291012  1
  Te2-  Te193  1  0.67268804  0.68282947  0.83372176  1
  Pb2+  Pb194  1  0.83389876  0.15535145  0.33015191  1
  Pb2+  Pb195  1  0.17647149  0.16791582  0.00170124  1
  Pb2+  Pb196  1  0.00252718  0.50867353  0.15980348  1
  Pb2+  Pb197  1  0.34209735  0.17029653  0.83067958  1
  Pb2+  Pb198  1  0.17317033  0.32952642  0.17068854  1
  Pb2+  Pb199  1  0.33541670  0.50051663  0.49527192  1
  Pb2+  Pb200  1  0.00148430  0.50069994  0.50711498  1
  Pb2+  Pb201  1  0.33336579  0.00121930  0.32861789  1
  Pb2+  Pb202  1  0.00210783  -0.00547258  0.66769086  1
  Pb2+  Pb203  1  0.16478953  0.83420965  0.00387312  1
  Pb2+  Pb204  1  0.66057119  0.51164912  0.83459944  1
  Pb2+  Pb205  1  0.16639206  0.49635866  0.67113308  1
  Pb2+  Pb206  1  0.83029957  0.50309547  0.66344913  1
  Pb2+  Pb207  1  0.66523872  0.16304791  0.17170574  1
  Pb2+  Pb208  1  0.16906219  0.83042856  0.66776809  1
  Pb2+  Pb209  1  0.00215946  0.00125738  0.00603785  1
  Pb2+  Pb210  1  0.83696245  0.33317635  0.82814281  1
  Pb2+  Pb211  1  0.82746324  0.66536719  0.48817632  1
  Pb2+  Pb212  1  -0.00920575  0.16255043  0.84279694  1
  Pb2+  Pb213  1  0.83436627  0.49866766  0.00776110  1
  Pb2+  Pb214  1  -0.00166808  0.16597616  0.49184968  1
  Pb2+  Pb215  1  0.17015535  -0.00014516  0.50269137  1
