# generated using pymatgen
data_In22Ag21Sn22Bi21(Te54Pb11)2
_symmetry_space_group_name_H-M   'P 1'
_cell_length_a   19.15378067
_cell_length_b   19.14795114
_cell_length_c   19.14273699
_cell_angle_alpha   90.01110980
_cell_angle_beta   89.99990368
_cell_angle_gamma   90.01508768
_symmetry_Int_Tables_number   1
_chemical_formula_structural   In22Ag21Sn22Bi21(Te54Pb11)2
_chemical_formula_sum   'In22 Ag21 Sn22 Bi21 Te108 Pb22'
_cell_volume   7020.70669528
_cell_formula_units_Z   1
loop_
 _symmetry_equiv_pos_site_id
 _symmetry_equiv_pos_as_xyz
  1  'x, y, z'
loop_
 _atom_type_symbol
 _atom_type_oxidation_number
  In3+  3.0
  Ag+  1.0
  Sn2+  2.0
  Bi3+  3.0
  Te2-  -2.0
  Pb2+  2.0
loop_
 _atom_site_type_symbol
 _atom_site_label
 _atom_site_symmetry_multiplicity
 _atom_site_fract_x
 _atom_site_fract_y
 _atom_site_fract_z
 _atom_site_occupancy
  In3+  In0  1  0.00503022  0.51252179  0.16361259  1
  In3+  In1  1  0.49386863  0.00679927  0.85014476  1
  In3+  In2  1  0.64638514  0.68010545  0.33481027  1
  In3+  In3  1  0.16953751  0.66762737  0.48065965  1
  In3+  In4  1  0.00201943  0.65763693  0.33548787  1
  In3+  In5  1  0.17251666  0.83642624  0.35356416  1
  In3+  In6  1  0.30826588  0.66334265  0.64938705  1
  In3+  In7  1  0.48833167  0.33275161  0.47592596  1
  In3+  In8  1  0.65516681  0.50373962  0.84064740  1
  In3+  In9  1  0.65073541  0.31553529  0.00142776  1
  In3+  In10  1  0.31587131  0.32638641  0.64695068  1
  In3+  In11  1  0.85835270  0.16460798  -0.00810480  1
  In3+  In12  1  0.01667412  0.83910439  0.16817499  1
  In3+  In13  1  0.18258714  0.67227842  0.82090391  1
  In3+  In14  1  0.00504514  0.49430653  0.50149806  1
  In3+  In15  1  0.48667781  0.34408052  0.16590715  1
  In3+  In16  1  0.01564028  0.15970032  0.50118979  1
  In3+  In17  1  0.66155219  0.15336312  0.15868861  1
  In3+  In18  1  0.00778505  0.32394344  0.33259528  1
  In3+  In19  1  0.17272271  0.31088870  0.84345170  1
  In3+  In20  1  0.33347466  0.84816080  0.49951704  1
  In3+  In21  1  0.81844817  0.16258325  0.33368432  1
  Ag+  Ag22  1  0.34984742  0.68669791  0.33615450  1
  Ag+  Ag23  1  0.33469257  0.15781977  0.85408137  1
  Ag+  Ag24  1  0.48771751  0.02835561  0.19513972  1
  Ag+  Ag25  1  0.63780650  0.16386589  0.52279460  1
  Ag+  Ag26  1  0.63927997  0.02590959  0.33844900  1
  Ag+  Ag27  1  0.18163477  0.13934704  0.03062783  1
  Ag+  Ag28  1  0.64957585  0.86365445  0.86711446  1
  Ag+  Ag29  1  0.01667438  0.69491226  0.63457702  1
  Ag+  Ag30  1  0.01681179  0.31005947  0.03067281  1
  Ag+  Ag31  1  0.35186479  0.50076747  0.19075512  1
  Ag+  Ag32  1  0.66444917  0.01478471  -0.02765513  1
  Ag+  Ag33  1  0.17511384  0.02752908  0.52890267  1
  Ag+  Ag34  1  0.18472820  0.32054545  0.49156039  1
  Ag+  Ag35  1  0.47340158  0.49863726  0.32378146  1
  Ag+  Ag36  1  0.30964266  0.33083251  0.34154133  1
  Ag+  Ag37  1  0.18926343  0.85223620  0.67056755  1
  Ag+  Ag38  1  0.31860156  0.14969178  0.49685265  1
  Ag+  Ag39  1  0.52354860  0.49829887  -0.01990580  1
  Ag+  Ag40  1  0.19252140  0.69005813  0.18819734  1
  Ag+  Ag41  1  0.18701898  0.14271562  0.67359193  1
  Ag+  Ag42  1  0.00480556  -0.02069810  0.68883656  1
  Sn2+  Sn43  1  0.49955079  0.01044621  0.49594410  1
  Sn2+  Sn44  1  0.50105727  0.49546818  0.66320377  1
  Sn2+  Sn45  1  0.81219930  -0.00130287  0.16577218  1
  Sn2+  Sn46  1  0.84285789  0.16660364  0.65972635  1
  Sn2+  Sn47  1  0.17212937  0.00145885  0.16071880  1
  Sn2+  Sn48  1  -0.00491027  0.83636865  0.82945847  1
  Sn2+  Sn49  1  0.49631704  0.17224107  0.33631797  1
  Sn2+  Sn50  1  0.16501500  0.00195042  0.82614173  1
  Sn2+  Sn51  1  -0.00089469  0.50373638  0.83488412  1
  Sn2+  Sn52  1  0.17492810  0.15842420  0.34013764  1
  Sn2+  Sn53  1  0.48933842  0.16638014  0.66334367  1
  Sn2+  Sn54  1  0.83195450  0.66401756  0.49945086  1
  Sn2+  Sn55  1  0.82247166  -0.00208271  0.82923098  1
  Sn2+  Sn56  1  0.17061030  0.33670500  0.16852317  1
  Sn2+  Sn57  1  0.50180820  0.82597741  0.33317139  1
  Sn2+  Sn58  1  0.32682648  0.65743480  0.01460549  1
  Sn2+  Sn59  1  0.83908403  0.67198293  0.83305173  1
  Sn2+  Sn60  1  0.83066211  0.48760283  0.00187910  1
  Sn2+  Sn61  1  0.67356431  -0.00108545  0.65218720  1
  Sn2+  Sn62  1  0.83869906  0.50351215  0.67438120  1
  Sn2+  Sn63  1  0.33400792  0.01387278  0.33204442  1
  Sn2+  Sn64  1  0.17344855  0.49600673  0.33009262  1
  Bi3+  Bi65  1  0.50058796  0.66930645  0.83435623  1
  Bi3+  Bi66  1  0.83155674  0.83502648  0.66774963  1
  Bi3+  Bi67  1  0.83914536  0.83476145  0.33232382  1
  Bi3+  Bi68  1  0.83895118  0.00419485  0.49712004  1
  Bi3+  Bi69  1  0.16612554  0.49709642  0.66666710  1
  Bi3+  Bi70  1  0.83296366  0.32915804  0.49880340  1
  Bi3+  Bi71  1  0.67287730  0.33122583  0.33166101  1
  Bi3+  Bi72  1  0.67167381  0.66386325  0.66245167  1
  Bi3+  Bi73  1  0.00158527  0.33436612  0.66237874  1
  Bi3+  Bi74  1  0.66267707  0.33058339  0.66669179  1
  Bi3+  Bi75  1  0.83525128  0.32753552  0.16350400  1
  Bi3+  Bi76  1  0.16298050  0.50058620  -0.00041730  1
  Bi3+  Bi77  1  0.32461403  0.33696556  0.00306571  1
  Bi3+  Bi78  1  0.66761695  0.83468897  0.17149922  1
  Bi3+  Bi79  1  0.83862953  0.50082768  0.33620033  1
  Bi3+  Bi80  1  0.83361397  0.66439202  0.16871624  1
  Bi3+  Bi81  1  0.00004511  0.66507454  -0.00051814  1
  Bi3+  Bi82  1  0.33025401  0.49996037  0.49687665  1
  Bi3+  Bi83  1  0.49597012  0.66123463  0.16686401  1
  Bi3+  Bi84  1  0.00540197  -0.00049589  0.33209277  1
  Bi3+  Bi85  1  0.84023240  0.33363906  0.83490033  1
  Te2-  Te86  1  0.16598324  0.16861655  0.17296022  1
  Te2-  Te87  1  0.16952067  0.17019260  0.49548043  1
  Te2-  Te88  1  0.18101261  0.16201603  0.82088670  1
  Te2-  Te89  1  0.15611384  0.49608620  0.16323867  1
  Te2-  Te90  1  0.16334607  0.51191360  0.50176923  1
  Te2-  Te91  1  0.16422073  0.51205316  0.83061579  1
  Te2-  Te92  1  0.16740256  0.83238520  0.16299239  1
  Te2-  Te93  1  0.17264745  0.82278334  0.50632521  1
  Te2-  Te94  1  0.16667991  0.82840322  0.81812910  1
  Te2-  Te95  1  0.50492804  0.17219977  0.16877240  1
  Te2-  Te96  1  0.49512798  0.17713209  0.49586551  1
  Te2-  Te97  1  0.48746801  0.16096458  0.83103293  1
  Te2-  Te98  1  0.49982722  0.49901013  0.17549244  1
  Te2-  Te99  1  0.49655146  0.48895138  0.49632104  1
  Te2-  Te100  1  0.49908902  0.50160071  0.83208053  1
  Te2-  Te101  1  0.50291254  0.82477481  0.17332045  1
  Te2-  Te102  1  0.49090975  0.83262750  0.49249004  1
  Te2-  Te103  1  0.50822457  0.83277125  0.83322308  1
  Te2-  Te104  1  0.82907375  0.16562207  0.16450738  1
  Te2-  Te105  1  0.84203000  0.16612089  0.49584062  1
  Te2-  Te106  1  0.83564986  0.17067641  0.83401847  1
  Te2-  Te107  1  0.83872922  0.49789824  0.17046812  1
  Te2-  Te108  1  0.83906315  0.49629859  0.49948472  1
  Te2-  Te109  1  0.83437856  0.49647241  0.83558227  1
  Te2-  Te110  1  0.83331690  0.83031364  0.17067228  1
  Te2-  Te111  1  0.83293241  0.83676290  0.49617369  1
  Te2-  Te112  1  0.82519571  0.83778286  0.83003771  1
  Te2-  Te113  1  0.16921446  -0.00167071  -0.00179968  1
  Te2-  Te114  1  0.16642888  -0.01154199  0.32317714  1
  Te2-  Te115  1  0.15484284  -0.00378690  0.67075982  1
  Te2-  Te116  1  0.15925987  0.33638699  -0.00472648  1
  Te2-  Te117  1  0.16042652  0.33302058  0.34099097  1
  Te2-  Te118  1  0.16526552  0.33785666  0.64422347  1
  Te2-  Te119  1  0.16416761  0.66244036  0.00415871  1
  Te2-  Te120  1  0.15698006  0.67044693  0.32788137  1
  Te2-  Te121  1  0.15468183  0.66066329  0.67054057  1
  Te2-  Te122  1  0.51176481  0.00085969  -0.00195113  1
  Te2-  Te123  1  0.49424039  -0.00329119  0.33953715  1
  Te2-  Te124  1  0.50198543  0.00331231  0.65136771  1
  Te2-  Te125  1  0.49426048  0.34937385  0.00645697  1
  Te2-  Te126  1  0.51133057  0.34416312  0.32340697  1
  Te2-  Te127  1  0.50359850  0.33433592  0.66906781  1
  Te2-  Te128  1  0.49637615  0.65141044  -0.00081349  1
  Te2-  Te129  1  0.49374190  0.65372531  0.33280323  1
  Te2-  Te130  1  0.50722979  0.66224064  0.67158220  1
  Te2-  Te131  1  0.81848345  0.01234928  -0.00154082  1
  Te2-  Te132  1  0.84069952  -0.00145347  0.33287849  1
  Te2-  Te133  1  0.84334410  0.00100282  0.65968260  1
  Te2-  Te134  1  0.84622957  0.32336870  -0.00157857  1
  Te2-  Te135  1  0.83946362  0.33231512  0.33197849  1
  Te2-  Te136  1  0.83197946  0.33357464  0.66657238  1
  Te2-  Te137  1  0.83377492  0.66309273  0.00483207  1
  Te2-  Te138  1  0.83847688  0.66742382  0.33208023  1
  Te2-  Te139  1  0.83344481  0.66860488  0.66472670  1
  Te2-  Te140  1  0.01075519  0.16768722  -0.00313259  1
  Te2-  Te141  1  0.00683779  0.16528776  0.34004022  1
  Te2-  Te142  1  0.00736738  0.17333439  0.65610609  1
  Te2-  Te143  1  -0.00122024  0.50270007  0.00285220  1
  Te2-  Te144  1  -0.00015935  0.50153670  0.33583417  1
  Te2-  Te145  1  0.00120797  0.49878055  0.66295194  1
  Te2-  Te146  1  -0.00185715  0.83035475  0.00148797  1
  Te2-  Te147  1  0.00313462  0.83239474  0.32925644  1
  Te2-  Te148  1  -0.00855418  0.83288157  0.66966520  1
  Te2-  Te149  1  0.32381365  0.17331718  0.00218990  1
  Te2-  Te150  1  0.33706364  0.17883673  0.34342003  1
  Te2-  Te151  1  0.32939642  0.17508731  0.64807968  1
  Te2-  Te152  1  0.32437074  0.49862924  0.00468918  1
  Te2-  Te153  1  0.32779663  0.48138826  0.33558961  1
  Te2-  Te154  1  0.33094644  0.49966905  0.66283201  1
  Te2-  Te155  1  0.33349195  0.82914203  -0.00053705  1
  Te2-  Te156  1  0.32705272  0.83181313  0.34208289  1
  Te2-  Te157  1  0.33239176  0.82575238  0.65520530  1
  Te2-  Te158  1  0.66126944  0.16107443  0.00293249  1
  Te2-  Te159  1  0.66473316  0.17037599  0.32385241  1
  Te2-  Te160  1  0.66904644  0.16901163  0.66685353  1
  Te2-  Te161  1  0.66929002  0.49721675  -0.00339822  1
  Te2-  Te162  1  0.67727455  0.49382065  0.33612480  1
  Te2-  Te163  1  0.66938086  0.49704667  0.66757949  1
  Te2-  Te164  1  0.66761215  0.83569856  0.00892601  1
  Te2-  Te165  1  0.67324834  0.83692418  0.33221769  1
  Te2-  Te166  1  0.66999454  0.83007895  0.66091798  1
  Te2-  Te167  1  -0.00147271  -0.00478692  0.16786708  1
  Te2-  Te168  1  0.00990236  0.00482234  0.49337672  1
  Te2-  Te169  1  -0.00448205  -0.00134742  0.83368883  1
  Te2-  Te170  1  -0.00307403  0.33494391  0.17445046  1
  Te2-  Te171  1  -0.00623347  0.33646660  0.49577330  1
  Te2-  Te172  1  0.00348049  0.33560882  0.82486213  1
  Te2-  Te173  1  -0.00436694  0.66946719  0.16656685  1
  Te2-  Te174  1  0.00011687  0.66489721  0.49283714  1
  Te2-  Te175  1  -0.00467477  0.67002391  0.83851266  1
  Te2-  Te176  1  0.34331357  0.00080409  0.17058093  1
  Te2-  Te177  1  0.32063817  0.00095241  0.49707680  1
  Te2-  Te178  1  0.33916151  0.00539951  0.83036518  1
  Te2-  Te179  1  0.33237437  0.34395245  0.16861929  1
  Te2-  Te180  1  0.33417092  0.33804295  0.49222461  1
  Te2-  Te181  1  0.32675725  0.32597611  0.83735068  1
  Te2-  Te182  1  0.33472881  0.65521442  0.18009524  1
  Te2-  Te183  1  0.32590281  0.66108139  0.48667282  1
  Te2-  Te184  1  0.33604215  0.66755233  0.83368889  1
  Te2-  Te185  1  0.65592230  0.00052040  0.18548879  1
  Te2-  Te186  1  0.67351102  0.01694452  0.49123889  1
  Te2-  Te187  1  0.66333422  0.00141269  0.82217771  1
  Te2-  Te188  1  0.67569290  0.32556808  0.16261521  1
  Te2-  Te189  1  0.67169874  0.31589055  0.50036211  1
  Te2-  Te190  1  0.67255143  0.34010604  0.83514620  1
  Te2-  Te191  1  0.66754269  0.66604879  0.17151639  1
  Te2-  Te192  1  0.66428570  0.66545923  0.49769194  1
  Te2-  Te193  1  0.66716367  0.65944921  0.82731941  1
  Pb2+  Pb194  1  0.50002917  0.83012112  0.00268120  1
  Pb2+  Pb195  1  0.00952755  0.16679477  0.82451861  1
  Pb2+  Pb196  1  0.32993106  0.00491017  0.66380360  1
  Pb2+  Pb197  1  0.32840335  0.49547985  0.83697019  1
  Pb2+  Pb198  1  0.66329805  0.66788602  -0.00288462  1
  Pb2+  Pb199  1  -0.00460997  0.00082186  0.00008839  1
  Pb2+  Pb200  1  0.16548898  0.82847714  -0.01200729  1
  Pb2+  Pb201  1  0.49685138  0.32983843  0.83492936  1
  Pb2+  Pb202  1  0.66121358  0.84660857  0.49658898  1
  Pb2+  Pb203  1  0.66553095  0.49315628  0.16856064  1
  Pb2+  Pb204  1  0.49157162  0.17134499  0.00238620  1
  Pb2+  Pb205  1  0.33604999  0.83555494  0.83009665  1
  Pb2+  Pb206  1  0.66607666  0.48864173  0.50030939  1
  Pb2+  Pb207  1  0.33346437  0.17213598  0.17459702  1
  Pb2+  Pb208  1  0.83175681  0.83874803  -0.00151183  1
  Pb2+  Pb209  1  0.33443616  0.82782758  0.17191674  1
  Pb2+  Pb210  1  0.50040501  0.83556971  0.66628048  1
  Pb2+  Pb211  1  0.33915613  -0.00016514  0.00297024  1
  Pb2+  Pb212  1  0.49381324  0.66119067  0.50509761  1
  Pb2+  Pb213  1  0.66264500  0.16779202  0.83256131  1
  Pb2+  Pb214  1  0.00385184  0.83803152  0.50017856  1
  Pb2+  Pb215  1  -0.00175984  0.16464721  0.17099083  1
