# generated using pymatgen
data_In22Ag21Sn22Bi21(Te54Pb11)2
_symmetry_space_group_name_H-M   'P 1'
_cell_length_a   19.12784295
_cell_length_b   19.13320373
_cell_length_c   19.12691464
_cell_angle_alpha   89.99997345
_cell_angle_beta   90.01203376
_cell_angle_gamma   89.98524643
_symmetry_Int_Tables_number   1
_chemical_formula_structural   In22Ag21Sn22Bi21(Te54Pb11)2
_chemical_formula_sum   'In22 Ag21 Sn22 Bi21 Te108 Pb22'
_cell_volume   7000.00884765
_cell_formula_units_Z   1
loop_
 _symmetry_equiv_pos_site_id
 _symmetry_equiv_pos_as_xyz
  1  'x, y, z'
loop_
 _atom_type_symbol
 _atom_type_oxidation_number
  In3+  3.0
  Ag+  1.0
  Sn2+  2.0
  Bi3+  3.0
  Te2-  -2.0
  Pb2+  2.0
loop_
 _atom_site_type_symbol
 _atom_site_label
 _atom_site_symmetry_multiplicity
 _atom_site_fract_x
 _atom_site_fract_y
 _atom_site_fract_z
 _atom_site_occupancy
  In3+  In0  1  0.83209522  0.50427599  0.66204803  1
  In3+  In1  1  0.01470770  -0.00109677  -0.00889104  1
  In3+  In2  1  0.67154707  0.00107574  0.00291402  1
  In3+  In3  1  0.32814683  0.51672052  0.50140904  1
  In3+  In4  1  0.17321435  0.50218839  0.01701702  1
  In3+  In5  1  0.48105535  0.16990194  -0.01511227  1
  In3+  In6  1  0.16014462  0.81245738  0.33347811  1
  In3+  In7  1  0.32790922  -0.01799352  0.33275892  1
  In3+  In8  1  0.66503182  0.66828923  0.64540903  1
  In3+  In9  1  0.65051281  0.68952151  0.00283173  1
  In3+  In10  1  0.17248210  0.66092369  0.17862516  1
  In3+  In11  1  0.48745844  0.34165009  0.49558915  1
  In3+  In12  1  0.02235142  0.51406483  0.49528875  1
  In3+  In13  1  0.33079143  0.16670811  0.49850408  1
  In3+  In14  1  0.65707905  0.15920442  0.83982052  1
  In3+  In15  1  0.50706368  -0.00580774  0.50252781  1
  In3+  In16  1  0.66236149  0.33135915  -0.00931075  1
  In3+  In17  1  0.64725975  0.00081001  0.32708994  1
  In3+  In18  1  0.00630416  0.47474457  0.83551276  1
  In3+  In19  1  0.68904578  0.82449473  0.51998407  1
  In3+  In20  1  0.85867258  -0.00052888  0.16271924  1
  In3+  In21  1  0.32585076  0.34173354  0.32343336  1
  Ag+  Ag22  1  0.16620603  0.69559178  0.47816169  1
  Ag+  Ag23  1  0.86408073  0.36605055  0.14149367  1
  Ag+  Ag24  1  0.00133031  0.81181014  0.47525373  1
  Ag+  Ag25  1  0.47475168  0.33971944  0.86049650  1
  Ag+  Ag26  1  0.63243265  0.16438751  0.52681300  1
  Ag+  Ag27  1  0.47621865  0.50516711  0.33364456  1
  Ag+  Ag28  1  0.64176704  0.80327960  0.81596491  1
  Ag+  Ag29  1  -0.01353771  0.66202998  0.30640934  1
  Ag+  Ag30  1  0.16054043  0.85107032  0.69131396  1
  Ag+  Ag31  1  0.50233130  -0.01989941  0.85213836  1
  Ag+  Ag32  1  0.33806700  0.51579530  0.14389837  1
  Ag+  Ag33  1  0.02733019  0.15145604  0.85619468  1
  Ag+  Ag34  1  0.83565720  0.81113352  -0.01094641  1
  Ag+  Ag35  1  0.19261423  0.35116936  0.47928388  1
  Ag+  Ag36  1  0.31160104  0.33062141  -0.01530849  1
  Ag+  Ag37  1  0.81173178  0.65337139  0.16779292  1
  Ag+  Ag38  1  0.16851607  -0.02476707  0.15488900  1
  Ag+  Ag39  1  0.35251982  0.69493107  -0.00293048  1
  Ag+  Ag40  1  0.18527194  0.14242625  0.00206013  1
  Ag+  Ag41  1  0.35783467  0.16255513  0.81105963  1
  Ag+  Ag42  1  0.17816383  0.48988677  0.31769461  1
  Sn2+  Sn43  1  0.65716486  0.49323678  0.16831635  1
  Sn2+  Sn44  1  0.00328002  0.16515790  0.16182667  1
  Sn2+  Sn45  1  0.33465984  0.49191369  0.84367932  1
  Sn2+  Sn46  1  0.18563074  0.00836685  0.83814021  1
  Sn2+  Sn47  1  0.33047070  -0.00013396  0.67054940  1
  Sn2+  Sn48  1  0.50157584  0.33623285  0.17234534  1
  Sn2+  Sn49  1  0.48455540  0.00606208  0.16336524  1
  Sn2+  Sn50  1  0.33270967  0.83808126  0.83589096  1
  Sn2+  Sn51  1  0.48170277  0.66724982  0.49560948  1
  Sn2+  Sn52  1  0.33325216  0.01275461  -0.00189415  1
  Sn2+  Sn53  1  0.83686656  0.50643940  0.00152455  1
  Sn2+  Sn54  1  0.50089223  0.16695257  0.66934924  1
  Sn2+  Sn55  1  0.16583336  0.16325313  0.67529919  1
  Sn2+  Sn56  1  0.33010206  0.65418441  0.32570696  1
  Sn2+  Sn57  1  0.83692799  0.17074288  0.66463260  1
  Sn2+  Sn58  1  0.00109362  0.66954850  0.00071609  1
  Sn2+  Sn59  1  0.16705547  0.17049152  0.32558070  1
  Sn2+  Sn60  1  0.32693140  0.66474349  0.67663937  1
  Sn2+  Sn61  1  0.66017088  0.48277383  0.49648554  1
  Sn2+  Sn62  1  0.00375184  -0.00676563  0.66545857  1
  Sn2+  Sn63  1  -0.00473170  0.83141763  0.16640590  1
  Sn2+  Sn64  1  0.17239728  0.33123869  0.16313506  1
  Bi3+  Bi65  1  0.83587087  0.83474982  0.32912632  1
  Bi3+  Bi66  1  0.82976944  0.16880991  0.00140645  1
  Bi3+  Bi67  1  0.83660934  0.49970125  0.33413819  1
  Bi3+  Bi68  1  0.00354802  0.16900178  0.49959891  1
  Bi3+  Bi69  1  0.66693743  0.33131003  0.33118349  1
  Bi3+  Bi70  1  0.00082767  0.66477161  0.67037363  1
  Bi3+  Bi71  1  0.00112871  0.32971509  0.66702959  1
  Bi3+  Bi72  1  0.16731373  0.66711347  0.83246000  1
  Bi3+  Bi73  1  0.66304015  0.00132599  0.66786059  1
  Bi3+  Bi74  1  0.16563653  0.00647382  0.49847731  1
  Bi3+  Bi75  1  0.83708026  0.66756532  0.84363472  1
  Bi3+  Bi76  1  0.49266753  0.83580775  0.66705234  1
  Bi3+  Bi77  1  0.66701683  0.16625911  0.16776143  1
  Bi3+  Bi78  1  0.83099056  0.33283770  0.49668720  1
  Bi3+  Bi79  1  0.83595766  0.16595586  0.33032184  1
  Bi3+  Bi80  1  0.16358961  0.50090954  0.66907895  1
  Bi3+  Bi81  1  0.66961302  0.83843059  0.16794747  1
  Bi3+  Bi82  1  0.32995398  0.17094383  0.16870837  1
  Bi3+  Bi83  1  0.16704231  0.32774079  0.83222187  1
  Bi3+  Bi84  1  0.83331434  0.33310839  0.83672456  1
  Bi3+  Bi85  1  -0.00116368  0.83854040  0.83718444  1
  Te2-  Te86  1  0.16634845  0.17412612  0.15390403  1
  Te2-  Te87  1  0.16843977  0.16827651  0.50103072  1
  Te2-  Te88  1  0.17214508  0.16549381  0.84619787  1
  Te2-  Te89  1  0.18087699  0.50370593  0.17200411  1
  Te2-  Te90  1  0.17377248  0.49418225  0.50699268  1
  Te2-  Te91  1  0.16714355  0.49874066  0.82966920  1
  Te2-  Te92  1  0.16648246  0.82898668  0.17689338  1
  Te2-  Te93  1  0.15412722  0.84278941  0.48419388  1
  Te2-  Te94  1  0.16498054  0.83502809  0.83827935  1
  Te2-  Te95  1  0.50080414  0.16523830  0.16488921  1
  Te2-  Te96  1  0.48834700  0.16131164  0.50010271  1
  Te2-  Te97  1  0.50186401  0.18741516  0.83350561  1
  Te2-  Te98  1  0.48738939  0.49602199  0.17850932  1
  Te2-  Te99  1  0.49716081  0.49947158  0.48977425  1
  Te2-  Te100  1  0.49686977  0.48737370  0.83310473  1
  Te2-  Te101  1  0.50432467  0.83649367  0.16777404  1
  Te2-  Te102  1  0.49981296  0.83609616  0.50526289  1
  Te2-  Te103  1  0.49947673  0.83337040  0.83141752  1
  Te2-  Te104  1  0.83241898  0.16243898  0.16755794  1
  Te2-  Te105  1  0.83691337  0.16964532  0.49538393  1
  Te2-  Te106  1  0.82217939  0.17080279  0.83502522  1
  Te2-  Te107  1  0.83298548  0.50577202  0.17180787  1
  Te2-  Te108  1  0.82753157  0.49697543  0.49865644  1
  Te2-  Te109  1  0.84191136  0.49975393  0.83508934  1
  Te2-  Te110  1  0.83063146  0.84402171  0.16831155  1
  Te2-  Te111  1  0.84795176  0.83247887  0.49609609  1
  Te2-  Te112  1  0.83531630  0.83285234  0.84171778  1
  Te2-  Te113  1  0.16645398  -0.00398885  0.00678371  1
  Te2-  Te114  1  0.17626958  0.01076859  0.33334789  1
  Te2-  Te115  1  0.16960427  -0.00417766  0.66434423  1
  Te2-  Te116  1  0.16389203  0.34760354  -0.00511689  1
  Te2-  Te117  1  0.17079952  0.34090149  0.33419470  1
  Te2-  Te118  1  0.16279124  0.33263620  0.66933343  1
  Te2-  Te119  1  0.16706396  0.65653223  -0.00686038  1
  Te2-  Te120  1  0.17252778  0.65776818  0.33481964  1
  Te2-  Te121  1  0.16574182  0.66370970  0.67125476  1
  Te2-  Te122  1  0.49855359  0.01408564  -0.00400142  1
  Te2-  Te123  1  0.48824157  0.00116953  0.33572295  1
  Te2-  Te124  1  0.49877749  -0.00159353  0.65993600  1
  Te2-  Te125  1  0.50769564  0.32263929  0.00348481  1
  Te2-  Te126  1  0.50422873  0.34300053  0.34109869  1
  Te2-  Te127  1  0.50110808  0.33234716  0.65068876  1
  Te2-  Te128  1  0.49656975  0.66388958  -0.00158492  1
  Te2-  Te129  1  0.49810001  0.65741824  0.33851751  1
  Te2-  Te130  1  0.50226830  0.67227059  0.66210931  1
  Te2-  Te131  1  0.82601531  0.00759024  0.00598338  1
  Te2-  Te132  1  0.84018356  0.00017677  0.32486951  1
  Te2-  Te133  1  0.82852462  0.00147933  0.66673355  1
  Te2-  Te134  1  0.83171102  0.33486148  0.00099492  1
  Te2-  Te135  1  0.83188003  0.33233792  0.33176133  1
  Te2-  Te136  1  0.83592097  0.33751776  0.66783274  1
  Te2-  Te137  1  0.83783096  0.66435962  0.00925011  1
  Te2-  Te138  1  0.83931310  0.66847081  0.32335963  1
  Te2-  Te139  1  0.83161532  0.66792384  0.67301451  1
  Te2-  Te140  1  -0.00788190  0.15486940  0.00041341  1
  Te2-  Te141  1  -0.00014551  0.16703923  0.33346110  1
  Te2-  Te142  1  -0.00019471  0.16419574  0.66328474  1
  Te2-  Te143  1  0.00485130  0.50198223  -0.00284859  1
  Te2-  Te144  1  0.00095149  0.51336788  0.34104078  1
  Te2-  Te145  1  -0.00140518  0.49850400  0.66522705  1
  Te2-  Te146  1  -0.01294581  0.84313823  0.00055951  1
  Te2-  Te147  1  0.00162005  0.81987871  0.32767182  1
  Te2-  Te148  1  0.01134211  0.83161179  0.67407591  1
  Te2-  Te149  1  0.32937803  0.17901600  0.00747731  1
  Te2-  Te150  1  0.33170933  0.18398564  0.33147300  1
  Te2-  Te151  1  0.33006989  0.16071626  0.66609181  1
  Te2-  Te152  1  0.32701587  0.48351308  -0.00022122  1
  Te2-  Te153  1  0.32741110  0.49580044  0.34665545  1
  Te2-  Te154  1  0.33116305  0.50264237  0.66042312  1
  Te2-  Te155  1  0.33436268  0.84122152  -0.00267616  1
  Te2-  Te156  1  0.33260041  0.82821758  0.33527382  1
  Te2-  Te157  1  0.32912584  0.83162368  0.67205402  1
  Te2-  Te158  1  0.66656387  0.16735734  0.00217534  1
  Te2-  Te159  1  0.67098289  0.16277305  0.33053202  1
  Te2-  Te160  1  0.66724108  0.16327130  0.67022711  1
  Te2-  Te161  1  0.66692419  0.48691725  0.00900150  1
  Te2-  Te162  1  0.67320291  0.49651375  0.33140674  1
  Te2-  Te163  1  0.66838391  0.50918666  0.66506086  1
  Te2-  Te164  1  0.67860668  0.84264989  0.00331246  1
  Te2-  Te165  1  0.67233751  0.83943027  0.33376717  1
  Te2-  Te166  1  0.66453161  0.83553666  0.67419415  1
  Te2-  Te167  1  0.01556078  -0.00013880  0.16436761  1
  Te2-  Te168  1  0.00102613  0.00620866  0.50210089  1
  Te2-  Te169  1  0.00258305  0.00404299  0.83475686  1
  Te2-  Te170  1  0.00368321  0.33445642  0.16938423  1
  Te2-  Te171  1  -0.00512803  0.33414783  0.50558489  1
  Te2-  Te172  1  -0.00196215  0.31178882  0.82971066  1
  Te2-  Te173  1  0.01718265  0.66819009  0.16192945  1
  Te2-  Te174  1  0.01384188  0.66792438  0.50928719  1
  Te2-  Te175  1  -0.00039530  0.67213926  0.83373088  1
  Te2-  Te176  1  0.32221432  0.00546836  0.17226462  1
  Te2-  Te177  1  0.33025624  0.00744710  0.49470477  1
  Te2-  Te178  1  0.34484183  0.01235071  0.83694415  1
  Te2-  Te179  1  0.33685209  0.33291466  0.17195629  1
  Te2-  Te180  1  0.33427167  0.32260235  0.50044996  1
  Te2-  Te181  1  0.32922018  0.32281213  0.83608241  1
  Te2-  Te182  1  0.32612088  0.66400945  0.15391329  1
  Te2-  Te183  1  0.32066527  0.66960174  0.50184604  1
  Te2-  Te184  1  0.32981400  0.66481885  0.84469393  1
  Te2-  Te185  1  0.65555325  0.00275416  0.16468471  1
  Te2-  Te186  1  0.65844926  0.01359951  0.50334970  1
  Te2-  Te187  1  0.65174176  0.00639596  0.83380143  1
  Te2-  Te188  1  0.66703680  0.32821344  0.16943277  1
  Te2-  Te189  1  0.66836002  0.31707697  0.49608602  1
  Te2-  Te190  1  0.67206690  0.33294196  0.83436111  1
  Te2-  Te191  1  0.66602854  0.67038779  0.15677589  1
  Te2-  Te192  1  0.66934294  0.66515004  0.49648003  1
  Te2-  Te193  1  0.67395063  0.66575557  0.85070738  1
  Pb2+  Pb194  1  0.49996674  0.17368741  0.33323671  1
  Pb2+  Pb195  1  0.33339131  0.33186719  0.67013530  1
  Pb2+  Pb196  1  0.49739917  0.65708796  0.82975848  1
  Pb2+  Pb197  1  0.50496783  0.84352130  -0.00031158  1
  Pb2+  Pb198  1  0.84413445  0.66408359  0.49736244  1
  Pb2+  Pb199  1  0.00847616  -0.00647958  0.33269207  1
  Pb2+  Pb200  1  0.00301678  0.34023289  0.33807333  1
  Pb2+  Pb201  1  0.84283451  0.83458257  0.67325914  1
  Pb2+  Pb202  1  0.16041745  0.82360983  0.00593759  1
  Pb2+  Pb203  1  0.82549398  0.00119124  0.49521643  1
  Pb2+  Pb204  1  0.33390689  0.83215252  0.16556105  1
  Pb2+  Pb205  1  0.32435126  0.83917294  0.50492205  1
  Pb2+  Pb206  1  0.67118914  0.49992784  0.83917247  1
  Pb2+  Pb207  1  0.50399829  0.83063452  0.33801659  1
  Pb2+  Pb208  1  0.00064817  0.32791015  0.00123238  1
  Pb2+  Pb209  1  0.82558035  0.00227532  0.83711007  1
  Pb2+  Pb210  1  0.67186331  0.66679708  0.32649804  1
  Pb2+  Pb211  1  0.49546864  0.49098433  0.00725416  1
  Pb2+  Pb212  1  0.49398065  0.66243201  0.17075528  1
  Pb2+  Pb213  1  0.49978160  0.50040739  0.66060262  1
  Pb2+  Pb214  1  0.66671301  0.33533771  0.66493015  1
  Pb2+  Pb215  1  0.00399905  0.50250430  0.16829511  1
