# generated using pymatgen
data_In22Ag21Sn22Bi21(Te54Pb11)2
_symmetry_space_group_name_H-M   'P 1'
_cell_length_a   19.12083110
_cell_length_b   19.15219850
_cell_length_c   19.15132887
_cell_angle_alpha   90.00984852
_cell_angle_beta   89.98685590
_cell_angle_gamma   89.98893639
_symmetry_Int_Tables_number   1
_chemical_formula_structural   In22Ag21Sn22Bi21(Te54Pb11)2
_chemical_formula_sum   'In22 Ag21 Sn22 Bi21 Te108 Pb22'
_cell_volume   7013.33021527
_cell_formula_units_Z   1
loop_
 _symmetry_equiv_pos_site_id
 _symmetry_equiv_pos_as_xyz
  1  'x, y, z'
loop_
 _atom_type_symbol
 _atom_type_oxidation_number
  In3+  3.0
  Ag+  1.0
  Sn2+  2.0
  Bi3+  3.0
  Te2-  -2.0
  Pb2+  2.0
loop_
 _atom_site_type_symbol
 _atom_site_label
 _atom_site_symmetry_multiplicity
 _atom_site_fract_x
 _atom_site_fract_y
 _atom_site_fract_z
 _atom_site_occupancy
  In3+  In0  1  0.66784269  0.01257646  -0.01699293  1
  In3+  In1  1  0.15989605  0.84792186  0.66861669  1
  In3+  In2  1  0.33675644  0.17134744  0.16182016  1
  In3+  In3  1  0.83963140  0.31135795  0.82948585  1
  In3+  In4  1  0.34094605  0.48131264  0.15921791  1
  In3+  In5  1  0.82541805  0.83371242  0.66214480  1
  In3+  In6  1  0.83407723  0.02050314  0.14850723  1
  In3+  In7  1  0.83577382  0.48189139  0.31765033  1
  In3+  In8  1  -0.00197513  0.66970583  0.67583611  1
  In3+  In9  1  -0.02270629  -0.00093079  0.67266791  1
  In3+  In10  1  0.16947225  0.33537954  0.85549418  1
  In3+  In11  1  0.65900270  0.33057107  0.66326758  1
  In3+  In12  1  -0.01347045  0.84383214  0.84676486  1
  In3+  In13  1  0.51419660  0.66748846  0.47461842  1
  In3+  In14  1  0.66497727  0.48608026  0.50130302  1
  In3+  In15  1  0.16217779  0.49338720  0.67472067  1
  In3+  In16  1  -0.00109688  0.15176988  0.83770942  1
  In3+  In17  1  0.51505637  0.32298461  0.83827135  1
  In3+  In18  1  0.35370956  0.64834430  0.01475976  1
  In3+  In19  1  0.14566702  0.66583182  0.50443556  1
  In3+  In20  1  -0.01280640  0.32371729  0.00015242  1
  In3+  In21  1  0.65904120  0.83858394  0.83261078  1
  Ag+  Ag22  1  0.50468127  0.64710219  0.16853617  1
  Ag+  Ag23  1  0.80468248  0.64893765  0.47762415  1
  Ag+  Ag24  1  0.02113320  0.02313076  0.00256804  1
  Ag+  Ag25  1  0.50939975  0.30686398  0.46928964  1
  Ag+  Ag26  1  0.67601364  -0.02063810  0.68258990  1
  Ag+  Ag27  1  0.53404553  0.00773710  0.14551057  1
  Ag+  Ag28  1  0.83306687  0.18045932  0.01359105  1
  Ag+  Ag29  1  -0.00106972  0.63979143  -0.02390284  1
  Ag+  Ag30  1  0.50213603  0.47597703  0.01262194  1
  Ag+  Ag31  1  0.81656704  0.31414891  0.19848896  1
  Ag+  Ag32  1  0.00223478  0.30897143  0.35951984  1
  Ag+  Ag33  1  0.31996961  0.31615028  0.02555660  1
  Ag+  Ag34  1  0.83118797  0.15725684  0.31238485  1
  Ag+  Ag35  1  0.36816700  0.03339821  0.30163245  1
  Ag+  Ag36  1  0.47651211  0.14556999  -0.00137527  1
  Ag+  Ag37  1  0.82433156  0.00923255  0.85027141  1
  Ag+  Ag38  1  0.67292144  0.83522674  0.48718234  1
  Ag+  Ag39  1  0.18683375  0.15372339  0.32695158  1
  Ag+  Ag40  1  0.66337187  0.48139736  0.85423612  1
  Ag+  Ag41  1  0.47417279  0.02498613  0.85343389  1
  Ag+  Ag42  1  0.14532337  0.34293790  0.15492738  1
  Sn2+  Sn43  1  0.50157621  0.66225786  0.84654866  1
  Sn2+  Sn44  1  0.66665852  0.00130990  0.34405634  1
  Sn2+  Sn45  1  -0.01926109  0.49785550  0.83497109  1
  Sn2+  Sn46  1  -0.00048254  0.33199632  0.67091985  1
  Sn2+  Sn47  1  0.66579120  0.66658196  0.66148977  1
  Sn2+  Sn48  1  0.50515876  0.32319965  0.15450723  1
  Sn2+  Sn49  1  0.67657499  0.67115001  0.33325963  1
  Sn2+  Sn50  1  0.33838109  -0.00103039  0.00893214  1
  Sn2+  Sn51  1  0.00770555  0.17621377  0.17475754  1
  Sn2+  Sn52  1  0.15814577  0.82780554  -0.00376342  1
  Sn2+  Sn53  1  0.67332267  0.66787494  -0.00404431  1
  Sn2+  Sn54  1  -0.00530768  0.49575025  0.49497554  1
  Sn2+  Sn55  1  0.31464746  0.33414545  0.33751930  1
  Sn2+  Sn56  1  0.83126747  0.83656714  0.00083355  1
  Sn2+  Sn57  1  0.66551301  0.14994061  0.49324000  1
  Sn2+  Sn58  1  0.33488532  0.67026908  0.33794022  1
  Sn2+  Sn59  1  0.83527857  0.16576895  0.66266764  1
  Sn2+  Sn60  1  0.16669416  0.66538624  0.83329192  1
  Sn2+  Sn61  1  0.83127378  0.84119654  0.33702711  1
  Sn2+  Sn62  1  0.16588988  0.00150207  0.49385921  1
  Sn2+  Sn63  1  0.18276331  0.33660290  0.48908980  1
  Sn2+  Sn64  1  -0.00325870  0.00836072  0.32718830  1
  Bi3+  Bi65  1  0.33186096  0.66644941  0.66909456  1
  Bi3+  Bi66  1  0.33609222  0.50159961  0.49555751  1
  Bi3+  Bi67  1  0.00474954  0.49919973  0.16380852  1
  Bi3+  Bi68  1  0.83174611  0.67501325  0.83635163  1
  Bi3+  Bi69  1  0.15749009  0.00551277  0.16806407  1
  Bi3+  Bi70  1  0.33235231  0.33631640  0.66401762  1
  Bi3+  Bi71  1  -0.00273350  0.83640995  0.16405413  1
  Bi3+  Bi72  1  0.16545646  0.17050476  0.65925731  1
  Bi3+  Bi73  1  0.66689094  0.33236865  -0.00197653  1
  Bi3+  Bi74  1  0.50548797  0.50523419  0.67475875  1
  Bi3+  Bi75  1  0.33805299  0.82985547  0.49988353  1
  Bi3+  Bi76  1  -0.00104960  0.66615681  0.33315664  1
  Bi3+  Bi77  1  0.49827701  0.83618882  0.00188265  1
  Bi3+  Bi78  1  0.33996336  -0.00176649  0.66417263  1
  Bi3+  Bi79  1  0.66931485  0.83451952  0.16458991  1
  Bi3+  Bi80  1  0.33425574  0.83185186  0.83620884  1
  Bi3+  Bi81  1  0.50140752  -0.00329774  0.50448384  1
  Bi3+  Bi82  1  0.83439023  0.50711865  0.66865376  1
  Bi3+  Bi83  1  0.83279529  -0.00031530  0.49917821  1
  Bi3+  Bi84  1  0.33463722  0.83804377  0.16490236  1
  Bi3+  Bi85  1  0.16229042  0.49707086  0.33350567  1
  Te2-  Te86  1  0.16947026  0.16867958  0.17715358  1
  Te2-  Te87  1  0.16518976  0.16944963  0.49403744  1
  Te2-  Te88  1  0.15685406  0.17513727  0.82867579  1
  Te2-  Te89  1  0.17299399  0.49086665  0.16977586  1
  Te2-  Te90  1  0.17125037  0.50506301  0.49692426  1
  Te2-  Te91  1  0.16175280  0.49553973  0.82834310  1
  Te2-  Te92  1  0.16449244  0.83680765  0.16550942  1
  Te2-  Te93  1  0.17078149  0.82666291  0.50656224  1
  Te2-  Te94  1  0.16983567  0.83087103  0.82832425  1
  Te2-  Te95  1  0.49232950  0.15331947  0.15319349  1
  Te2-  Te96  1  0.50392768  0.16235592  0.49932431  1
  Te2-  Te97  1  0.49965925  0.16858801  0.84611901  1
  Te2-  Te98  1  0.49373863  0.49790796  0.16160571  1
  Te2-  Te99  1  0.50470281  0.51192708  0.50568687  1
  Te2-  Te100  1  0.51254642  0.50483356  0.83479052  1
  Te2-  Te101  1  0.49917113  0.85932867  0.16261093  1
  Te2-  Te102  1  0.50359433  0.82807741  0.49916361  1
  Te2-  Te103  1  0.49936212  0.83397245  0.83906688  1
  Te2-  Te104  1  0.83951884  0.17371476  0.16246361  1
  Te2-  Te105  1  0.83004555  0.16584562  0.50576747  1
  Te2-  Te106  1  0.84209550  0.15637984  0.82368368  1
  Te2-  Te107  1  0.83895937  0.49423488  0.16568778  1
  Te2-  Te108  1  0.82369230  0.50644812  0.50865845  1
  Te2-  Te109  1  0.81727374  0.51116760  0.82846753  1
  Te2-  Te110  1  0.83398144  0.83315803  0.16862120  1
  Te2-  Te111  1  0.82458397  0.83659995  0.50711597  1
  Te2-  Te112  1  0.83658758  0.83835078  0.82822445  1
  Te2-  Te113  1  0.16687750  0.00195546  0.00283888  1
  Te2-  Te114  1  0.15798131  0.00924913  0.33261713  1
  Te2-  Te115  1  0.17517380  0.00560211  0.66122030  1
  Te2-  Te116  1  0.17463954  0.33403669  0.00850499  1
  Te2-  Te117  1  0.15270961  0.33701466  0.33460873  1
  Te2-  Te118  1  0.16904718  0.33396388  0.65721389  1
  Te2-  Te119  1  0.15030393  0.66742661  -0.00337283  1
  Te2-  Te120  1  0.16476900  0.66441424  0.33929807  1
  Te2-  Te121  1  0.16908485  0.65806644  0.66225412  1
  Te2-  Te122  1  0.51041213  0.00017637  -0.00523948  1
  Te2-  Te123  1  0.50472214  0.00247826  0.34294212  1
  Te2-  Te124  1  0.50062152  0.00310047  0.66866864  1
  Te2-  Te125  1  0.50648296  0.32951333  -0.00645009  1
  Te2-  Te126  1  0.50265617  0.33323179  0.32446606  1
  Te2-  Te127  1  0.49849786  0.34147655  0.67715571  1
  Te2-  Te128  1  0.50256319  0.67451139  0.01373929  1
  Te2-  Te129  1  0.50286224  0.66431162  0.32102021  1
  Te2-  Te130  1  0.49534401  0.66566941  0.67778864  1
  Te2-  Te131  1  0.82144061  -0.00266927  -0.00308834  1
  Te2-  Te132  1  0.83593228  0.00712715  0.33830494  1
  Te2-  Te133  1  0.82482499  -0.00521616  0.66255599  1
  Te2-  Te134  1  0.83218936  0.32794199  -0.01496748  1
  Te2-  Te135  1  0.84779580  0.33491808  0.34012880  1
  Te2-  Te136  1  0.83325562  0.34126312  0.67579777  1
  Te2-  Te137  1  0.84507128  0.66697892  -0.00244544  1
  Te2-  Te138  1  0.83576427  0.67013680  0.33621868  1
  Te2-  Te139  1  0.83906291  0.67390356  0.67104309  1
  Te2-  Te140  1  -0.01451184  0.16718786  -0.00924702  1
  Te2-  Te141  1  -0.01711077  0.16615389  0.32987124  1
  Te2-  Te142  1  0.00447056  0.16196786  0.67090073  1
  Te2-  Te143  1  0.00105383  0.49436508  0.00065217  1
  Te2-  Te144  1  -0.00332961  0.50312821  0.32882477  1
  Te2-  Te145  1  0.00015588  0.50718868  0.66615948  1
  Te2-  Te146  1  -0.00273443  0.83995795  0.00089573  1
  Te2-  Te147  1  -0.00215807  0.83356852  0.33047748  1
  Te2-  Te148  1  0.00737907  0.83437669  0.67425218  1
  Te2-  Te149  1  0.33077991  0.16957068  0.00583127  1
  Te2-  Te150  1  0.33259158  0.17188857  0.33051931  1
  Te2-  Te151  1  0.32981264  0.16697327  0.66766454  1
  Te2-  Te152  1  0.34859963  0.49579367  0.00278994  1
  Te2-  Te153  1  0.32921188  0.50283351  0.33341061  1
  Te2-  Te154  1  0.33267656  0.50191806  0.66127782  1
  Te2-  Te155  1  0.33113779  0.83349901  -0.00103164  1
  Te2-  Te156  1  0.33108367  0.83298132  0.33553469  1
  Te2-  Te157  1  0.32854920  0.83200455  0.66797869  1
  Te2-  Te158  1  0.68140084  0.16617617  -0.00315487  1
  Te2-  Te159  1  0.67983802  0.16859668  0.33379527  1
  Te2-  Te160  1  0.66892320  0.17712894  0.66330421  1
  Te2-  Te161  1  0.65673605  0.49955185  0.00047555  1
  Te2-  Te162  1  0.67524283  0.50430403  0.34099425  1
  Te2-  Te163  1  0.66777179  0.50228453  0.65922869  1
  Te2-  Te164  1  0.66494518  0.83506563  0.00223913  1
  Te2-  Te165  1  0.66931398  0.83252243  0.33181975  1
  Te2-  Te166  1  0.67020886  0.83249978  0.67627237  1
  Te2-  Te167  1  -0.00720978  0.00071066  0.15315037  1
  Te2-  Te168  1  -0.00124243  -0.00302886  0.50771735  1
  Te2-  Te169  1  -0.00365695  -0.00312328  0.84144906  1
  Te2-  Te170  1  0.00033057  0.33779550  0.15085995  1
  Te2-  Te171  1  0.00209852  0.33882754  0.50572632  1
  Te2-  Te172  1  0.00037609  0.33975932  0.83490890  1
  Te2-  Te173  1  0.00366297  0.66961881  0.17029916  1
  Te2-  Te174  1  -0.00644149  0.66503083  0.49895840  1
  Te2-  Te175  1  -0.00214824  0.67023732  0.83133377  1
  Te2-  Te176  1  0.32145423  -0.00080970  0.16743987  1
  Te2-  Te177  1  0.33462278  -0.00805329  0.50128419  1
  Te2-  Te178  1  0.33233388  -0.00360609  0.83084434  1
  Te2-  Te179  1  0.34070027  0.32886945  0.16968291  1
  Te2-  Te180  1  0.35330782  0.33944647  0.50250976  1
  Te2-  Te181  1  0.32156045  0.33812964  0.82578720  1
  Te2-  Te182  1  0.34017744  0.67660429  0.16505853  1
  Te2-  Te183  1  0.34495093  0.66680653  0.50385875  1
  Te2-  Te184  1  0.33062546  0.66921791  0.83463580  1
  Te2-  Te185  1  0.68143500  -0.00327006  0.17497079  1
  Te2-  Te186  1  0.66660453  -0.01168818  0.50460210  1
  Te2-  Te187  1  0.67591076  -0.00749776  0.82959473  1
  Te2-  Te188  1  0.67306140  0.33405841  0.16162314  1
  Te2-  Te189  1  0.65386986  0.33323479  0.50476014  1
  Te2-  Te190  1  0.67153284  0.33536925  0.82975852  1
  Te2-  Te191  1  0.65843072  0.67314157  0.16487136  1
  Te2-  Te192  1  0.66566570  0.68571918  0.50226140  1
  Te2-  Te193  1  0.66920904  0.68055799  0.83646539  1
  Pb2+  Pb194  1  0.50143506  0.83570011  0.66722665  1
  Pb2+  Pb195  1  0.66952178  0.16349574  0.82988605  1
  Pb2+  Pb196  1  0.15590318  0.16919517  0.00927812  1
  Pb2+  Pb197  1  0.50111757  0.49637923  0.33486038  1
  Pb2+  Pb198  1  0.82760054  0.49728356  -0.00450395  1
  Pb2+  Pb199  1  0.83033435  0.33755229  0.50601013  1
  Pb2+  Pb200  1  0.83243727  0.66391689  0.16744635  1
  Pb2+  Pb201  1  0.50597094  0.16751627  0.32320972  1
  Pb2+  Pb202  1  0.33286320  0.16544496  0.49629009  1
  Pb2+  Pb203  1  0.49982086  0.83448394  0.32762072  1
  Pb2+  Pb204  1  0.17323010  0.50302936  -0.00041154  1
  Pb2+  Pb205  1  0.34022126  0.50143471  0.83324185  1
  Pb2+  Pb206  1  0.50185546  0.16979970  0.67104665  1
  Pb2+  Pb207  1  0.16456901  0.00053898  0.83107256  1
  Pb2+  Pb208  1  -0.00223020  0.16569468  0.49720542  1
  Pb2+  Pb209  1  0.32935029  0.17242998  0.83895269  1
  Pb2+  Pb210  1  0.66427026  0.50260023  0.16743557  1
  Pb2+  Pb211  1  0.67148014  0.33489289  0.33384506  1
  Pb2+  Pb212  1  0.17193639  0.66381064  0.16604067  1
  Pb2+  Pb213  1  -0.00706679  0.83187062  0.50419221  1
  Pb2+  Pb214  1  0.66397940  0.16466960  0.16207880  1
  Pb2+  Pb215  1  0.16544679  0.84237472  0.33587389  1
