# generated using pymatgen
data_In22Ag21Sn22Bi21(Te54Pb11)2
_symmetry_space_group_name_H-M   'P 1'
_cell_length_a   19.19760230
_cell_length_b   19.20153336
_cell_length_c   19.18499108
_cell_angle_alpha   90.00233099
_cell_angle_beta   89.98206284
_cell_angle_gamma   89.99720339
_symmetry_Int_Tables_number   1
_chemical_formula_structural   In22Ag21Sn22Bi21(Te54Pb11)2
_chemical_formula_sum   'In22 Ag21 Sn22 Bi21 Te108 Pb22'
_cell_volume   7072.03630192
_cell_formula_units_Z   1
loop_
 _symmetry_equiv_pos_site_id
 _symmetry_equiv_pos_as_xyz
  1  'x, y, z'
loop_
 _atom_type_symbol
 _atom_type_oxidation_number
  In3+  3.0
  Ag+  1.0
  Sn2+  2.0
  Bi3+  3.0
  Te2-  -2.0
  Pb2+  2.0
loop_
 _atom_site_type_symbol
 _atom_site_label
 _atom_site_symmetry_multiplicity
 _atom_site_fract_x
 _atom_site_fract_y
 _atom_site_fract_z
 _atom_site_occupancy
  In3+  In0  1  0.84828214  0.64466936  0.83677646  1
  In3+  In1  1  0.02826678  0.66076570  0.33376236  1
  In3+  In2  1  0.64425839  0.66158991  0.00718486  1
  In3+  In3  1  0.51368551  0.00277725  0.16766550  1
  In3+  In4  1  0.81452620  0.17099516  0.00202769  1
  In3+  In5  1  0.63631191  0.47706540  0.50011300  1
  In3+  In6  1  0.81691321  0.50846029  0.34057145  1
  In3+  In7  1  0.35014413  0.00314354  0.32705810  1
  In3+  In8  1  0.02587062  0.51096293  0.83963053  1
  In3+  In9  1  0.18509422  0.66671706  0.14935200  1
  In3+  In10  1  0.33444991  0.17330142  0.84433040  1
  In3+  In11  1  0.83159133  0.83799780  0.67374950  1
  In3+  In12  1  0.19172482  0.49374383  0.00192433  1
  In3+  In13  1  0.16668506  0.01387395  0.16023787  1
  In3+  In14  1  0.31980757  0.02206797  0.66622284  1
  In3+  In15  1  0.18128815  0.65487931  0.48071152  1
  In3+  In16  1  0.83918594  0.00479540  0.86524734  1
  In3+  In17  1  0.32753650  0.16740504  0.49461699  1
  In3+  In18  1  0.49038293  0.85367580  0.66758610  1
  In3+  In19  1  0.16528270  0.31924839  0.48885886  1
  In3+  In20  1  0.16565645  0.18197318  0.00981181  1
  In3+  In21  1  0.34433830  0.35333909  0.01004121  1
  Ag+  Ag22  1  0.32529709  0.49519974  0.18612352  1
  Ag+  Ag23  1  0.63814973  0.16168124  0.15606588  1
  Ag+  Ag24  1  0.17133593  0.49931416  0.30607518  1
  Ag+  Ag25  1  0.33980572  0.63934663  0.31401894  1
  Ag+  Ag26  1  0.68854549  0.51668521  0.85578296  1
  Ag+  Ag27  1  0.52713680  0.18674136  0.32819194  1
  Ag+  Ag28  1  0.63649255  0.36563722  0.02092637  1
  Ag+  Ag29  1  0.35041034  0.47401349  0.85392650  1
  Ag+  Ag30  1  0.03089044  0.16114044  0.85726635  1
  Ag+  Ag31  1  0.47237709  0.83268677  0.02891104  1
  Ag+  Ag32  1  0.62647775  0.46191397  0.14306711  1
  Ag+  Ag33  1  0.81332192  0.02785134  0.16966748  1
  Ag+  Ag34  1  0.02198535  -0.00213727  0.02388634  1
  Ag+  Ag35  1  0.34976390  0.64936670  0.01967470  1
  Ag+  Ag36  1  0.32600627  0.47190220  0.48065017  1
  Ag+  Ag37  1  0.62268092  0.18960472  0.45139258  1
  Ag+  Ag38  1  0.18338947  0.13593228  0.33211694  1
  Ag+  Ag39  1  0.66849625  0.80686731  0.13948980  1
  Ag+  Ag40  1  0.51353450  0.35934885  0.16203264  1
  Ag+  Ag41  1  0.17026142  0.15104932  0.68914669  1
  Ag+  Ag42  1  0.52194764  0.46674065  0.03166250  1
  Sn2+  Sn43  1  0.00175104  0.83302486  0.50021860  1
  Sn2+  Sn44  1  0.81969465  0.33668658  0.16414870  1
  Sn2+  Sn45  1  0.02041266  0.50301692  0.49833725  1
  Sn2+  Sn46  1  0.83541006  0.17035043  0.33299026  1
  Sn2+  Sn47  1  0.16485289  0.82973005  0.33172195  1
  Sn2+  Sn48  1  -0.00424986  0.32637460  -0.00683893  1
  Sn2+  Sn49  1  0.50350894  0.00316206  0.49318046  1
  Sn2+  Sn50  1  -0.00273456  0.50136278  0.16356951  1
  Sn2+  Sn51  1  0.50851352  -0.00033577  0.83822088  1
  Sn2+  Sn52  1  0.33249872  0.65924634  0.67018369  1
  Sn2+  Sn53  1  0.49552705  0.16554745  0.66187435  1
  Sn2+  Sn54  1  0.83505431  0.83059327  0.32570122  1
  Sn2+  Sn55  1  0.66731400  0.81789531  0.83429212  1
  Sn2+  Sn56  1  0.66975052  0.00576252  0.66955187  1
  Sn2+  Sn57  1  -0.00287492  0.00347632  0.67077988  1
  Sn2+  Sn58  1  0.48502336  0.49395941  0.32833633  1
  Sn2+  Sn59  1  -0.00655341  0.84797087  0.83714606  1
  Sn2+  Sn60  1  0.00110176  0.00783449  0.33111331  1
  Sn2+  Sn61  1  0.17017068  0.82874337  0.00318307  1
  Sn2+  Sn62  1  0.50149593  0.83032441  0.33512254  1
  Sn2+  Sn63  1  0.66146656  0.66777882  0.66979164  1
  Sn2+  Sn64  1  0.32979318  0.33967133  0.67301484  1
  Bi3+  Bi65  1  0.33404858  0.83655810  0.83084502  1
  Bi3+  Bi66  1  0.83393629  0.00125475  0.48810040  1
  Bi3+  Bi67  1  -0.00362237  0.16732877  0.49559481  1
  Bi3+  Bi68  1  0.00072215  0.16946461  0.16599712  1
  Bi3+  Bi69  1  0.17102040  0.66903031  0.83225557  1
  Bi3+  Bi70  1  0.66710805  0.33778701  0.32463337  1
  Bi3+  Bi71  1  0.83509894  0.83397436  0.00052742  1
  Bi3+  Bi72  1  0.33341899  0.83987476  0.49809460  1
  Bi3+  Bi73  1  0.49512136  0.49725083  0.66814935  1
  Bi3+  Bi74  1  0.00173805  0.34412261  0.33047041  1
  Bi3+  Bi75  1  0.83077694  0.32694553  0.83401114  1
  Bi3+  Bi76  1  0.66842543  0.84024772  0.50340771  1
  Bi3+  Bi77  1  0.16835600  0.49996329  0.67122862  1
  Bi3+  Bi78  1  0.33187465  0.16769985  0.16851593  1
  Bi3+  Bi79  1  0.50167848  0.67235115  0.16805476  1
  Bi3+  Bi80  1  0.83335652  0.66361212  0.16614568  1
  Bi3+  Bi81  1  0.49725649  0.66683006  0.83274012  1
  Bi3+  Bi82  1  0.00240136  0.33094368  0.66883020  1
  Bi3+  Bi83  1  0.66029764  0.16709139  0.83451113  1
  Bi3+  Bi84  1  0.66855954  -0.00397469  0.00199851  1
  Bi3+  Bi85  1  0.67008202  0.00226213  0.33301942  1
  Te2-  Te86  1  0.16700649  0.16840353  0.18137147  1
  Te2-  Te87  1  0.16679407  0.16590214  0.48126980  1
  Te2-  Te88  1  0.17849491  0.16570464  0.83612884  1
  Te2-  Te89  1  0.17488899  0.51131848  0.15641778  1
  Te2-  Te90  1  0.17964399  0.50759837  0.50981983  1
  Te2-  Te91  1  0.18386477  0.50442047  0.83597981  1
  Te2-  Te92  1  0.16500058  0.81776388  0.16631901  1
  Te2-  Te93  1  0.16767975  0.83155581  0.49780870  1
  Te2-  Te94  1  0.16489488  0.83323586  0.83303148  1
  Te2-  Te95  1  0.48988137  0.15462782  0.17823314  1
  Te2-  Te96  1  0.48527814  0.16410689  0.49186604  1
  Te2-  Te97  1  0.49328005  0.16709450  0.83339122  1
  Te2-  Te98  1  0.48243176  0.50748441  0.16960559  1
  Te2-  Te99  1  0.47893763  0.49757693  0.50035928  1
  Te2-  Te100  1  0.49347253  0.50629514  0.82842841  1
  Te2-  Te101  1  0.51426306  0.83407483  0.17082258  1
  Te2-  Te102  1  0.50164497  0.83710052  0.50658851  1
  Te2-  Te103  1  0.49978362  0.83265192  0.82283981  1
  Te2-  Te104  1  0.84342954  0.17175764  0.15864441  1
  Te2-  Te105  1  0.83427282  0.16330227  0.49984139  1
  Te2-  Te106  1  0.82410510  0.16167059  0.83874763  1
  Te2-  Te107  1  0.83144316  0.50280482  0.17588927  1
  Te2-  Te108  1  0.84538077  0.50501163  0.49403082  1
  Te2-  Te109  1  0.83088321  0.49373550  0.83184810  1
  Te2-  Te110  1  0.82100141  0.82328376  0.16361316  1
  Te2-  Te111  1  0.83443762  0.83791623  0.49767658  1
  Te2-  Te112  1  0.83403195  0.84721832  0.83247318  1
  Te2-  Te113  1  0.16673937  -0.00467551  0.00654300  1
  Te2-  Te114  1  0.15788447  -0.01004977  0.32336657  1
  Te2-  Te115  1  0.16764463  0.00543069  0.66464204  1
  Te2-  Te116  1  0.16392709  0.33673780  -0.00257378  1
  Te2-  Te117  1  0.16292386  0.35003048  0.33730329  1
  Te2-  Te118  1  0.16394515  0.33979026  0.66166622  1
  Te2-  Te119  1  0.17076041  0.66083418  -0.00484516  1
  Te2-  Te120  1  0.18108984  0.65871689  0.32961321  1
  Te2-  Te121  1  0.16370300  0.66467679  0.67109642  1
  Te2-  Te122  1  0.50431586  -0.01717796  0.00480300  1
  Te2-  Te123  1  0.50410534  -0.00042447  0.32908694  1
  Te2-  Te124  1  0.50110173  0.00685664  0.66614466  1
  Te2-  Te125  1  0.49440428  0.32307634  0.01179737  1
  Te2-  Te126  1  0.50604708  0.33164321  0.31711501  1
  Te2-  Te127  1  0.49657794  0.33189608  0.66475337  1
  Te2-  Te128  1  0.49308099  0.68254376  -0.00053523  1
  Te2-  Te129  1  0.48857164  0.66678592  0.33167023  1
  Te2-  Te130  1  0.50104032  0.66234430  0.66811426  1
  Te2-  Te131  1  0.83158573  -0.00137889  0.01773428  1
  Te2-  Te132  1  0.83372461  -0.00008861  0.32179069  1
  Te2-  Te133  1  0.83438385  -0.00520789  0.65553767  1
  Te2-  Te134  1  0.83636585  0.32726618  -0.00344232  1
  Te2-  Te135  1  0.83523109  0.34241885  0.32929275  1
  Te2-  Te136  1  0.83518363  0.33217884  0.66672357  1
  Te2-  Te137  1  0.83978621  0.66993960  -0.00801572  1
  Te2-  Te138  1  0.82914185  0.66267243  0.33060498  1
  Te2-  Te139  1  0.83071889  0.67363605  0.67922484  1
  Te2-  Te140  1  0.01463163  0.15548045  0.00565358  1
  Te2-  Te141  1  -0.00131821  0.17858533  0.33263922  1
  Te2-  Te142  1  0.01591638  0.17028514  0.65509975  1
  Te2-  Te143  1  0.00075925  0.49710252  -0.00673226  1
  Te2-  Te144  1  0.01839482  0.50506602  0.33266361  1
  Te2-  Te145  1  0.00219237  0.49528931  0.67398039  1
  Te2-  Te146  1  -0.00152974  0.84655942  -0.00154887  1
  Te2-  Te147  1  -0.00255657  0.82603400  0.33555079  1
  Te2-  Te148  1  -0.00482679  0.83650171  0.66673145  1
  Te2-  Te149  1  0.32162954  0.16590426  0.00440848  1
  Te2-  Te150  1  0.32930200  0.15627126  0.33437796  1
  Te2-  Te151  1  0.32136885  0.17160434  0.66295616  1
  Te2-  Te152  1  0.34068392  0.50497510  -0.00300060  1
  Te2-  Te153  1  0.32812597  0.49478636  0.33399982  1
  Te2-  Te154  1  0.33277484  0.49902823  0.66778556  1
  Te2-  Te155  1  0.32877923  0.83318560  -0.00445176  1
  Te2-  Te156  1  0.33567611  0.84719880  0.33743153  1
  Te2-  Te157  1  0.33771179  0.83460704  0.66439387  1
  Te2-  Te158  1  0.66232740  0.15935830  0.00447681  1
  Te2-  Te159  1  0.67528323  0.16699424  0.31683954  1
  Te2-  Te160  1  0.66525132  0.16598524  0.67129100  1
  Te2-  Te161  1  0.66585006  0.50791156  0.00145092  1
  Te2-  Te162  1  0.66069725  0.49680323  0.34042730  1
  Te2-  Te163  1  0.66086593  0.49955857  0.65227690  1
  Te2-  Te164  1  0.67377803  0.83298097  -0.00489824  1
  Te2-  Te165  1  0.66615258  0.83976297  0.34068036  1
  Te2-  Te166  1  0.67115136  0.83590636  0.66558214  1
  Te2-  Te167  1  0.01035078  0.00302914  0.17148065  1
  Te2-  Te168  1  -0.00333153  0.00202830  0.49681591  1
  Te2-  Te169  1  -0.00912423  0.01707353  0.82805270  1
  Te2-  Te170  1  -0.00136022  0.33603454  0.16667659  1
  Te2-  Te171  1  0.00413155  0.33495086  0.49895823  1
  Te2-  Te172  1  -0.00638381  0.30795438  0.83155902  1
  Te2-  Te173  1  -0.00449271  0.66382516  0.17515672  1
  Te2-  Te174  1  0.00618784  0.66755944  0.49125243  1
  Te2-  Te175  1  0.00172642  0.67158762  0.83308756  1
  Te2-  Te176  1  0.32410329  0.00159454  0.17021053  1
  Te2-  Te177  1  0.33525511  0.00284566  0.50757391  1
  Te2-  Te178  1  0.33739645  -0.00065575  0.82398255  1
  Te2-  Te179  1  0.33136599  0.33541040  0.16089402  1
  Te2-  Te180  1  0.32355074  0.32510173  0.50032171  1
  Te2-  Te181  1  0.33275537  0.32689440  0.84155960  1
  Te2-  Te182  1  0.33571682  0.66966107  0.16700044  1
  Te2-  Te183  1  0.32855612  0.67983323  0.50424816  1
  Te2-  Te184  1  0.33248152  0.67701404  0.83083139  1
  Te2-  Te185  1  0.66745323  0.00943096  0.16769787  1
  Te2-  Te186  1  0.67094782  0.00420706  0.49662529  1
  Te2-  Te187  1  0.66930354  0.00230088  0.83631084  1
  Te2-  Te188  1  0.66147966  0.31951968  0.16153838  1
  Te2-  Te189  1  0.66520262  0.32455724  0.49316156  1
  Te2-  Te190  1  0.66869349  0.32775838  0.84343275  1
  Te2-  Te191  1  0.66563602  0.66022654  0.16181278  1
  Te2-  Te192  1  0.66716113  0.67732950  0.50150571  1
  Te2-  Te193  1  0.66260390  0.65987201  0.83635718  1
  Pb2+  Pb194  1  0.66041189  0.66938393  0.33162122  1
  Pb2+  Pb195  1  0.49379975  0.33091705  0.49210939  1
  Pb2+  Pb196  1  0.84214607  0.16168026  0.67061581  1
  Pb2+  Pb197  1  0.16668524  0.33949546  0.16845877  1
  Pb2+  Pb198  1  0.00567910  0.66841885  0.00447644  1
  Pb2+  Pb199  1  0.16082040  0.00048190  0.83614968  1
  Pb2+  Pb200  1  -0.00642576  0.83419512  0.16824970  1
  Pb2+  Pb201  1  0.33746478  0.83506955  0.16777309  1
  Pb2+  Pb202  1  0.82927891  0.50281133  0.66251691  1
  Pb2+  Pb203  1  0.49804827  0.66441527  0.49943099  1
  Pb2+  Pb204  1  0.33466103  -0.00183807  -0.00383678  1
  Pb2+  Pb205  1  -0.00217876  0.66485927  0.66099868  1
  Pb2+  Pb206  1  0.49570811  0.15422321  0.00599187  1
  Pb2+  Pb207  1  0.83240533  0.66970227  0.50083055  1
  Pb2+  Pb208  1  0.16044724  0.33507724  0.82990782  1
  Pb2+  Pb209  1  0.16728249  0.00015206  0.49187880  1
  Pb2+  Pb210  1  0.66409139  0.33190288  0.67679066  1
  Pb2+  Pb211  1  0.50320101  0.34282908  0.83963815  1
  Pb2+  Pb212  1  0.33378269  0.32733187  0.32883832  1
  Pb2+  Pb213  1  0.83476344  0.49768808  0.00701277  1
  Pb2+  Pb214  1  0.83383728  0.33627842  0.49497070  1
  Pb2+  Pb215  1  0.16926692  0.83303610  0.66482132  1
