# generated using pymatgen
data_In22Ag21Sn22Bi21(Te54Pb11)2
_symmetry_space_group_name_H-M   'P 1'
_cell_length_a   19.16424402
_cell_length_b   19.17829878
_cell_length_c   19.18774291
_cell_angle_alpha   89.98453859
_cell_angle_beta   89.99924575
_cell_angle_gamma   89.98589426
_symmetry_Int_Tables_number   1
_chemical_formula_structural   In22Ag21Sn22Bi21(Te54Pb11)2
_chemical_formula_sum   'In22 Ag21 Sn22 Bi21 Te108 Pb22'
_cell_volume   7052.21646547
_cell_formula_units_Z   1
loop_
 _symmetry_equiv_pos_site_id
 _symmetry_equiv_pos_as_xyz
  1  'x, y, z'
loop_
 _atom_type_symbol
 _atom_type_oxidation_number
  In3+  3.0
  Ag+  1.0
  Sn2+  2.0
  Bi3+  3.0
  Te2-  -2.0
  Pb2+  2.0
loop_
 _atom_site_type_symbol
 _atom_site_label
 _atom_site_symmetry_multiplicity
 _atom_site_fract_x
 _atom_site_fract_y
 _atom_site_fract_z
 _atom_site_occupancy
  In3+  In0  1  0.84863371  0.15055038  0.66304475  1
  In3+  In1  1  0.66897208  0.33551570  0.32230250  1
  In3+  In2  1  0.67719569  0.82625631  0.17020241  1
  In3+  In3  1  0.83803755  0.85851020  0.33520156  1
  In3+  In4  1  0.30173335  0.81668277  0.49944976  1
  In3+  In5  1  0.00402607  0.48276387  0.17434838  1
  In3+  In6  1  0.81440943  0.51391079  0.00946866  1
  In3+  In7  1  0.16577603  0.51141403  0.00755261  1
  In3+  In8  1  0.66784040  0.16200900  0.51590201  1
  In3+  In9  1  0.48971812  -0.00362256  0.51251233  1
  In3+  In10  1  0.01493374  0.00520908  0.35526753  1
  In3+  In11  1  0.83333380  0.13145807  0.01417520  1
  In3+  In12  1  0.18935506  0.33244740  0.82756881  1
  In3+  In13  1  0.81735140  0.49233685  0.67755234  1
  In3+  In14  1  0.47924392  0.49199078  0.33109307  1
  In3+  In15  1  0.49457155  0.32173565  0.83136494  1
  In3+  In16  1  0.33521588  0.81820071  0.84523563  1
  In3+  In17  1  0.49285080  0.16495467  0.66388100  1
  In3+  In18  1  0.66024763  0.66203367  0.65280522  1
  In3+  In19  1  0.83042819  0.32629385  0.85494928  1
  In3+  In20  1  0.33038857  0.15168651  0.83645822  1
  In3+  In21  1  0.33466186  0.33308844  0.01443564  1
  Ag+  Ag22  1  0.16720480  0.18573189  0.35653926  1
  Ag+  Ag23  1  0.64159101  -0.02757278  0.01950270  1
  Ag+  Ag24  1  0.66545955  0.02734354  0.68918742  1
  Ag+  Ag25  1  0.31344876  0.18906445  0.19338395  1
  Ag+  Ag26  1  0.16559857  0.80517487  -0.02659847  1
  Ag+  Ag27  1  0.80442916  0.82177937  -0.02426445  1
  Ag+  Ag28  1  0.33279651  0.69603804  0.02696172  1
  Ag+  Ag29  1  0.16776579  0.52205276  0.69011971  1
  Ag+  Ag30  1  0.30622261  0.69914870  0.66754280  1
  Ag+  Ag31  1  0.18132160  0.53348605  0.35300685  1
  Ag+  Ag32  1  0.16839743  0.63779803  0.52471907  1
  Ag+  Ag33  1  0.50015221  0.35151618  0.18994508  1
  Ag+  Ag34  1  0.80585630  0.16012452  0.31628570  1
  Ag+  Ag35  1  0.19202320  0.16652994  0.65016152  1
  Ag+  Ag36  1  0.16532744  0.68941313  0.82251781  1
  Ag+  Ag37  1  0.48885653  -0.02945479  0.80724737  1
  Ag+  Ag38  1  0.00535052  0.81242256  0.47714231  1
  Ag+  Ag39  1  0.14148510  0.00142135  0.52883876  1
  Ag+  Ag40  1  0.02717885  -0.00546564  0.65255337  1
  Ag+  Ag41  1  0.64075242  0.52045575  0.15988228  1
  Ag+  Ag42  1  0.32972644  0.80093197  0.14153536  1
  Sn2+  Sn43  1  0.33115422  -0.00221130  0.32466787  1
  Sn2+  Sn44  1  0.67424281  0.33480464  0.66459452  1
  Sn2+  Sn45  1  0.47855886  0.49455882  0.66485319  1
  Sn2+  Sn46  1  0.32994216  0.51019457  0.83025500  1
  Sn2+  Sn47  1  0.32901638  0.33811110  0.66423427  1
  Sn2+  Sn48  1  0.17082985  -0.00066755  0.16572761  1
  Sn2+  Sn49  1  0.33534189  0.00747779  0.00459857  1
  Sn2+  Sn50  1  0.65343081  0.67276971  -0.00588723  1
  Sn2+  Sn51  1  0.32443764  0.32889832  0.33402282  1
  Sn2+  Sn52  1  0.01391654  0.83653019  0.16304138  1
  Sn2+  Sn53  1  0.00534097  0.32781381  0.33481006  1
  Sn2+  Sn54  1  0.00573378  0.32937863  0.66927811  1
  Sn2+  Sn55  1  0.66694386  0.50740376  0.83992410  1
  Sn2+  Sn56  1  0.32748588  0.49700807  0.15979699  1
  Sn2+  Sn57  1  0.32827272  0.16175815  0.49731676  1
  Sn2+  Sn58  1  0.00794667  0.50744465  0.50458211  1
  Sn2+  Sn59  1  0.16619412  0.67881219  0.15801231  1
  Sn2+  Sn60  1  0.81979264  0.33772123  0.16978305  1
  Sn2+  Sn61  1  0.00589320  0.49845498  0.82371929  1
  Sn2+  Sn62  1  0.66357427  0.84472560  0.83225629  1
  Sn2+  Sn63  1  0.48784636  0.83643859  0.00928402  1
  Sn2+  Sn64  1  0.00267890  0.16598710  0.83216823  1
  Bi3+  Bi65  1  0.83417229  -0.00094404  0.16653639  1
  Bi3+  Bi66  1  0.66504075  0.16642023  0.16270024  1
  Bi3+  Bi67  1  0.67035179  0.66081293  0.32947124  1
  Bi3+  Bi68  1  0.82868779  0.00237342  0.83414312  1
  Bi3+  Bi69  1  0.00032595  0.16970897  0.50118328  1
  Bi3+  Bi70  1  0.49369987  0.66184054  0.83111983  1
  Bi3+  Bi71  1  0.49792930  0.00018125  0.16410920  1
  Bi3+  Bi72  1  0.83598958  0.83155874  0.66802570  1
  Bi3+  Bi73  1  0.83814423  0.67011239  0.16909308  1
  Bi3+  Bi74  1  0.66874651  0.16923957  0.83612527  1
  Bi3+  Bi75  1  0.33707899  0.00386065  0.66230842  1
  Bi3+  Bi76  1  0.00111257  0.66707676  0.66906210  1
  Bi3+  Bi77  1  0.00251857  -0.00081441  -0.00247367  1
  Bi3+  Bi78  1  0.83902580  0.49218395  0.33248372  1
  Bi3+  Bi79  1  0.83449733  0.33367791  0.49721178  1
  Bi3+  Bi80  1  0.33020722  0.49731777  0.49967467  1
  Bi3+  Bi81  1  0.50434835  0.16386547  -0.00380343  1
  Bi3+  Bi82  1  0.16568204  0.16649229  -0.00216048  1
  Bi3+  Bi83  1  0.16701885  0.83846129  0.32964854  1
  Bi3+  Bi84  1  0.50266080  0.83349792  0.33120899  1
  Bi3+  Bi85  1  0.83392011  0.00198345  0.50157990  1
  Te2-  Te86  1  0.17367175  0.16823410  0.15661455  1
  Te2-  Te87  1  0.16394463  0.15501599  0.50284827  1
  Te2-  Te88  1  0.17155019  0.17584612  0.83697384  1
  Te2-  Te89  1  0.15814609  0.50035506  0.16145323  1
  Te2-  Te90  1  0.16807482  0.49354662  0.49207111  1
  Te2-  Te91  1  0.16674085  0.48251600  0.83433440  1
  Te2-  Te92  1  0.18428451  0.83535701  0.17129102  1
  Te2-  Te93  1  0.15438235  0.85246048  0.49367408  1
  Te2-  Te94  1  0.18209016  0.83560389  0.82969098  1
  Te2-  Te95  1  0.50344084  0.16179664  0.15718062  1
  Te2-  Te96  1  0.50556945  0.15819197  0.50162669  1
  Te2-  Te97  1  0.50515001  0.16831439  0.83154671  1
  Te2-  Te98  1  0.49699704  0.49843963  0.17449202  1
  Te2-  Te99  1  0.49598159  0.50075974  0.49388818  1
  Te2-  Te100  1  0.50322762  0.50166412  0.83067850  1
  Te2-  Te101  1  0.47722578  0.83690195  0.17016363  1
  Te2-  Te102  1  0.51185045  0.84171610  0.49600201  1
  Te2-  Te103  1  0.49532898  0.82703594  0.83699234  1
  Te2-  Te104  1  0.83108519  0.16640040  0.17041432  1
  Te2-  Te105  1  0.83245307  0.16856850  0.50436580  1
  Te2-  Te106  1  0.83053771  0.16924098  0.82480592  1
  Te2-  Te107  1  0.84463370  0.50427648  0.16525364  1
  Te2-  Te108  1  0.83844642  0.49724372  0.49899711  1
  Te2-  Te109  1  0.83306342  0.49686008  0.82924044  1
  Te2-  Te110  1  0.83800281  0.83521973  0.17574775  1
  Te2-  Te111  1  0.84907328  0.83660312  0.49974259  1
  Te2-  Te112  1  0.83040764  0.83301531  0.83096920  1
  Te2-  Te113  1  0.16627698  0.00631531  0.00074026  1
  Te2-  Te114  1  0.16652925  -0.00091849  0.32540798  1
  Te2-  Te115  1  0.17385123  0.01334401  0.67273311  1
  Te2-  Te116  1  0.17695597  0.32722392  -0.00894347  1
  Te2-  Te117  1  0.16477560  0.33025893  0.33000311  1
  Te2-  Te118  1  0.16394622  0.31489595  0.67461870  1
  Te2-  Te119  1  0.18627074  0.66329402  0.00051399  1
  Te2-  Te120  1  0.16627167  0.67601794  0.32659721  1
  Te2-  Te121  1  0.16202122  0.66762419  0.67122602  1
  Te2-  Te122  1  0.50039086  0.00229976  -0.00118305  1
  Te2-  Te123  1  0.50047116  -0.00278622  0.32838817  1
  Te2-  Te124  1  0.51319247  0.00379287  0.66641240  1
  Te2-  Te125  1  0.49419684  0.32945915  -0.01253657  1
  Te2-  Te126  1  0.49747894  0.33786579  0.33637601  1
  Te2-  Te127  1  0.50390093  0.33255010  0.67340004  1
  Te2-  Te128  1  0.48113705  0.66803906  -0.00645790  1
  Te2-  Te129  1  0.50745605  0.66501143  0.33303195  1
  Te2-  Te130  1  0.50549694  0.66108940  0.66775433  1
  Te2-  Te131  1  0.83791980  -0.02443613  -0.00097841  1
  Te2-  Te132  1  0.84004904  0.01523487  0.33244100  1
  Te2-  Te133  1  0.81614265  -0.00082241  0.66825053  1
  Te2-  Te134  1  0.83517438  0.35122568  0.00518729  1
  Te2-  Te135  1  0.83524271  0.32873550  0.33367732  1
  Te2-  Te136  1  0.83565741  0.34218477  0.65871451  1
  Te2-  Te137  1  0.83084731  0.67259957  0.00378272  1
  Te2-  Te138  1  0.83282597  0.65882470  0.33346247  1
  Te2-  Te139  1  0.83795883  0.66139969  0.66860262  1
  Te2-  Te140  1  -0.00580101  0.16593195  -0.00200936  1
  Te2-  Te141  1  0.01604797  0.15934491  0.33824446  1
  Te2-  Te142  1  -0.00121096  0.15435100  0.66564873  1
  Te2-  Te143  1  0.01329665  0.50173830  -0.00577299  1
  Te2-  Te144  1  0.00035869  0.49565470  0.32853268  1
  Te2-  Te145  1  0.01586818  0.50233184  0.66550776  1
  Te2-  Te146  1  0.02090558  0.83658169  0.00234372  1
  Te2-  Te147  1  0.00061208  0.84373356  0.33339483  1
  Te2-  Te148  1  -0.00356922  0.84159037  0.67097222  1
  Te2-  Te149  1  0.33814600  0.17519586  -0.01075412  1
  Te2-  Te150  1  0.32316204  0.16754914  0.33758524  1
  Te2-  Te151  1  0.33920338  0.16751894  0.67026483  1
  Te2-  Te152  1  0.32496121  0.48704718  -0.00464991  1
  Te2-  Te153  1  0.32432105  0.49625847  0.33397239  1
  Te2-  Te154  1  0.31889411  0.49691056  0.66143319  1
  Te2-  Te155  1  0.32282263  0.84107081  -0.00445081  1
  Te2-  Te156  1  0.34007214  0.83311602  0.34900886  1
  Te2-  Te157  1  0.33674433  0.84305928  0.65018291  1
  Te2-  Te158  1  0.67364895  0.16543824  -0.00212542  1
  Te2-  Te159  1  0.66128181  0.17674381  0.32506686  1
  Te2-  Te160  1  0.65820814  0.17292626  0.67041912  1
  Te2-  Te161  1  0.66318983  0.50385981  0.01213214  1
  Te2-  Te162  1  0.67660951  0.49509966  0.32198360  1
  Te2-  Te163  1  0.66308487  0.50603976  0.66388815  1
  Te2-  Te164  1  0.65987024  0.82888330  0.00354188  1
  Te2-  Te165  1  0.66807471  0.82661570  0.33091671  1
  Te2-  Te166  1  0.67338466  0.81860933  0.66788330  1
  Te2-  Te167  1  -0.00488228  -0.00318926  0.16098360  1
  Te2-  Te168  1  -0.00691886  0.00588349  0.50862612  1
  Te2-  Te169  1  -0.00813928  0.00489717  0.83541784  1
  Te2-  Te170  1  -0.00342434  0.33100598  0.16497489  1
  Te2-  Te171  1  -0.00220975  0.33199197  0.50009755  1
  Te2-  Te172  1  -0.01742312  0.33013374  0.82837963  1
  Te2-  Te173  1  -0.00087998  0.67287357  0.16528689  1
  Te2-  Te174  1  0.01614739  0.66763158  0.50483235  1
  Te2-  Te175  1  0.01617044  0.66679057  0.83215461  1
  Te2-  Te176  1  0.33789366  0.00803488  0.16460855  1
  Te2-  Te177  1  0.33876763  0.00482008  0.50020928  1
  Te2-  Te178  1  0.34598903  0.00179160  0.82695962  1
  Te2-  Te179  1  0.34787646  0.32979121  0.16658648  1
  Te2-  Te180  1  0.33496076  0.33168550  0.50032406  1
  Te2-  Te181  1  0.34276065  0.33724101  0.82324280  1
  Te2-  Te182  1  0.33329480  0.65366931  0.17043626  1
  Te2-  Te183  1  0.31998540  0.66334873  0.51411957  1
  Te2-  Te184  1  0.32867359  0.66905200  0.81486060  1
  Te2-  Te185  1  0.67104051  -0.00118530  0.16157936  1
  Te2-  Te186  1  0.67452636  0.00887121  0.49412748  1
  Te2-  Te187  1  0.66879107  0.00418895  0.83550310  1
  Te2-  Te188  1  0.65347263  0.32995025  0.16890415  1
  Te2-  Te189  1  0.67109831  0.32337340  0.49584980  1
  Te2-  Te190  1  0.67803631  0.33611741  0.83281568  1
  Te2-  Te191  1  0.67392474  0.66466782  0.16529752  1
  Te2-  Te192  1  0.66874883  0.66325852  0.49621392  1
  Te2-  Te193  1  0.66396717  0.66575784  0.83729662  1
  Pb2+  Pb194  1  0.00859231  0.66850233  -0.00074425  1
  Pb2+  Pb195  1  0.16178160  0.83876961  0.66000591  1
  Pb2+  Pb196  1  0.66898105  0.49306378  0.48879862  1
  Pb2+  Pb197  1  0.50303534  0.82995125  0.66765871  1
  Pb2+  Pb198  1  0.83978915  0.66238050  0.83553378  1
  Pb2+  Pb199  1  0.00227064  0.66677889  0.33270902  1
  Pb2+  Pb200  1  0.50155609  0.32847021  0.50527587  1
  Pb2+  Pb201  1  0.66504220  0.33286479  0.00145175  1
  Pb2+  Pb202  1  0.16730056  0.32666742  0.50373437  1
  Pb2+  Pb203  1  0.50327699  0.67086562  0.16209770  1
  Pb2+  Pb204  1  0.49170357  0.16721941  0.32856700  1
  Pb2+  Pb205  1  0.00360459  0.83631854  0.83524252  1
  Pb2+  Pb206  1  0.16994921  0.00376051  0.83613244  1
  Pb2+  Pb207  1  0.00758984  0.16193482  0.16876430  1
  Pb2+  Pb208  1  0.66852153  0.00306487  0.32845656  1
  Pb2+  Pb209  1  0.84303980  0.66711345  0.50267315  1
  Pb2+  Pb210  1  0.17234492  0.33479752  0.16408689  1
  Pb2+  Pb211  1  0.00603097  0.33761973  -0.00578442  1
  Pb2+  Pb212  1  0.33133177  0.66727803  0.33960086  1
  Pb2+  Pb213  1  0.68005557  0.83785805  0.50098161  1
  Pb2+  Pb214  1  0.49115806  0.67222014  0.50061796  1
  Pb2+  Pb215  1  0.49120709  0.49965325  -0.00026001  1
