# generated using pymatgen
data_In22Ag21Sn22Bi21(Te54Pb11)2
_symmetry_space_group_name_H-M   'P 1'
_cell_length_a   19.21570831
_cell_length_b   19.20290413
_cell_length_c   19.17492470
_cell_angle_alpha   89.99302230
_cell_angle_beta   89.99332842
_cell_angle_gamma   90.00633407
_symmetry_Int_Tables_number   1
_chemical_formula_structural   In22Ag21Sn22Bi21(Te54Pb11)2
_chemical_formula_sum   'In22 Ag21 Sn22 Bi21 Te108 Pb22'
_cell_volume   7075.49729919
_cell_formula_units_Z   1
loop_
 _symmetry_equiv_pos_site_id
 _symmetry_equiv_pos_as_xyz
  1  'x, y, z'
loop_
 _atom_type_symbol
 _atom_type_oxidation_number
  In3+  3.0
  Ag+  1.0
  Sn2+  2.0
  Bi3+  3.0
  Te2-  -2.0
  Pb2+  2.0
loop_
 _atom_site_type_symbol
 _atom_site_label
 _atom_site_symmetry_multiplicity
 _atom_site_fract_x
 _atom_site_fract_y
 _atom_site_fract_z
 _atom_site_occupancy
  In3+  In0  1  0.81840991  0.33702351  0.83182149  1
  In3+  In1  1  0.50828487  0.35659716  0.85683961  1
  In3+  In2  1  0.52087340  0.18060570  0.67284316  1
  In3+  In3  1  0.16607166  0.83745992  -0.01602903  1
  In3+  In4  1  0.52194790  0.01045309  0.82945205  1
  In3+  In5  1  0.17676069  -0.01360065  0.50600364  1
  In3+  In6  1  0.33130939  0.48682004  0.81917165  1
  In3+  In7  1  0.81531322  0.33026023  0.15868799  1
  In3+  In8  1  0.32347341  0.64943368  -0.00333885  1
  In3+  In9  1  0.16416888  0.03008593  0.84449987  1
  In3+  In10  1  0.00196903  0.66337140  -0.02549693  1
  In3+  In11  1  0.33546872  0.16853264  0.18698662  1
  In3+  In12  1  -0.00716441  0.16538445  0.48504030  1
  In3+  In13  1  -0.00952108  0.83754557  0.16944568  1
  In3+  In14  1  0.82945615  0.64945335  0.17663649  1
  In3+  In15  1  -0.01081790  0.66567778  0.31997060  1
  In3+  In16  1  0.68047805  0.81716640  0.50414541  1
  In3+  In17  1  -0.00362172  0.82428768  0.82605964  1
  In3+  In18  1  -0.01604765  0.34322797  0.66723753  1
  In3+  In19  1  0.65559138  0.17012068  0.48369501  1
  In3+  In20  1  0.15445774  0.82831162  0.32591714  1
  In3+  In21  1  0.34832890  0.82770964  0.49852384  1
  Ag+  Ag22  1  0.81298972  0.47920454  0.33474705  1
  Ag+  Ag23  1  0.35637487  0.18700519  0.82861811  1
  Ag+  Ag24  1  0.79652048  0.19399920  0.01967778  1
  Ag+  Ag25  1  0.69207845  0.16902437  0.12219553  1
  Ag+  Ag26  1  0.18757346  0.68133990  0.83326528  1
  Ag+  Ag27  1  0.64082910  0.35000097  0.70258876  1
  Ag+  Ag28  1  -0.02465600  0.64278740  0.66685869  1
  Ag+  Ag29  1  0.51942137  0.47950583  0.33590478  1
  Ag+  Ag30  1  0.66922348  0.29888449  0.01234297  1
  Ag+  Ag31  1  0.69472701  0.47774624  0.79855834  1
  Ag+  Ag32  1  0.80288601  0.04684999  0.79825620  1
  Ag+  Ag33  1  0.69147351  0.19281002  0.82799645  1
  Ag+  Ag34  1  0.13822156  0.33797320  0.80749236  1
  Ag+  Ag35  1  -0.02335753  0.53052442  0.50100632  1
  Ag+  Ag36  1  0.20092960  -0.03207396  0.19979926  1
  Ag+  Ag37  1  0.35745426  0.52919389  0.17008162  1
  Ag+  Ag38  1  0.51561273  0.32880583  0.19307057  1
  Ag+  Ag39  1  0.50003104  0.18647900  0.30965984  1
  Ag+  Ag40  1  0.85625390  0.50148062  0.68915086  1
  Ag+  Ag41  1  0.80872387  0.81326953  0.33195118  1
  Ag+  Ag42  1  0.69017018  0.46456896  0.16492713  1
  Sn2+  Sn43  1  0.33383516  0.16370733  0.51540248  1
  Sn2+  Sn44  1  0.50623214  0.33884252  0.50128406  1
  Sn2+  Sn45  1  -0.00320567  0.83715360  0.50170087  1
  Sn2+  Sn46  1  0.84499856  0.65274647  0.50152109  1
  Sn2+  Sn47  1  0.49966970  0.66080121  0.83137715  1
  Sn2+  Sn48  1  0.33905388  0.00391650  0.67231931  1
  Sn2+  Sn49  1  0.15881739  0.66543480  0.50885164  1
  Sn2+  Sn50  1  0.33413300  0.32749853  0.66200675  1
  Sn2+  Sn51  1  0.33713238  0.83422678  0.17119144  1
  Sn2+  Sn52  1  -0.00073302  -0.00254731  0.33197649  1
  Sn2+  Sn53  1  0.17500079  0.16287662  0.32702274  1
  Sn2+  Sn54  1  0.50216081  0.49754388  0.66432869  1
  Sn2+  Sn55  1  0.50027515  0.01473400  0.16405442  1
  Sn2+  Sn56  1  0.67051151  0.02618674  0.66484549  1
  Sn2+  Sn57  1  0.50603182  0.49743203  0.02441333  1
  Sn2+  Sn58  1  0.49683267  0.83401540  0.32560202  1
  Sn2+  Sn59  1  0.00810281  0.16601559  0.16509555  1
  Sn2+  Sn60  1  0.00113235  0.34818153  0.33837120  1
  Sn2+  Sn61  1  0.49928458  0.00599693  0.49774858  1
  Sn2+  Sn62  1  0.16673247  0.82452289  0.66414702  1
  Sn2+  Sn63  1  0.32982575  0.66812293  0.67425983  1
  Sn2+  Sn64  1  0.50589675  0.63764623  0.16560059  1
  Bi3+  Bi65  1  0.32780617  0.00249504  -0.00465934  1
  Bi3+  Bi66  1  0.84003150  0.33501754  0.49829313  1
  Bi3+  Bi67  1  0.00050906  0.16471444  0.83379005  1
  Bi3+  Bi68  1  0.16657018  0.16344345  0.66275639  1
  Bi3+  Bi69  1  0.33105512  0.66995442  0.33042204  1
  Bi3+  Bi70  1  0.66164673  0.66399865  0.32951359  1
  Bi3+  Bi71  1  0.16648872  0.50383458  0.33393680  1
  Bi3+  Bi72  1  0.83073118  0.66510703  0.83595599  1
  Bi3+  Bi73  1  -0.00100850  -0.00547399  -0.00112033  1
  Bi3+  Bi74  1  0.00165170  0.00231232  0.66914985  1
  Bi3+  Bi75  1  0.16647581  0.49894632  0.00113547  1
  Bi3+  Bi76  1  0.66853460  0.33180451  0.32961518  1
  Bi3+  Bi77  1  0.83657569  0.00271880  0.16481106  1
  Bi3+  Bi78  1  0.49312301  0.83218469  -0.00028262  1
  Bi3+  Bi79  1  0.83758368  0.83489264  0.00866506  1
  Bi3+  Bi80  1  0.16575362  0.16807789  -0.00024210  1
  Bi3+  Bi81  1  0.16936253  0.33017648  0.50204392  1
  Bi3+  Bi82  1  0.67057689  -0.00277225  -0.00037934  1
  Bi3+  Bi83  1  0.16366868  0.32905903  0.16815802  1
  Bi3+  Bi84  1  0.66256412  0.66705316  0.00475518  1
  Bi3+  Bi85  1  0.83475490  -0.00004679  0.49877225  1
  Te2-  Te86  1  0.17273629  0.16524804  0.16353366  1
  Te2-  Te87  1  0.16966775  0.16800224  0.49845887  1
  Te2-  Te88  1  0.16112134  0.18594533  0.83217086  1
  Te2-  Te89  1  0.16455671  0.49785873  0.16634045  1
  Te2-  Te90  1  0.16887868  0.49503894  0.49697219  1
  Te2-  Te91  1  0.17870498  0.48072184  0.84035563  1
  Te2-  Te92  1  0.16538748  0.83025960  0.17482177  1
  Te2-  Te93  1  0.15985573  0.83647398  0.49583729  1
  Te2-  Te94  1  0.15532172  0.82539798  0.83496160  1
  Te2-  Te95  1  0.48744096  0.17130818  0.16395182  1
  Te2-  Te96  1  0.50258186  0.16437529  0.51761411  1
  Te2-  Te97  1  0.49957607  0.16032308  0.82099252  1
  Te2-  Te98  1  0.49653285  0.48269545  0.18089196  1
  Te2-  Te99  1  0.49928902  0.49938001  0.48724517  1
  Te2-  Te100  1  0.48971892  0.50262522  0.83730938  1
  Te2-  Te101  1  0.49739094  0.84169835  0.16167700  1
  Te2-  Te102  1  0.49953101  0.83884069  0.49858850  1
  Te2-  Te103  1  0.49636297  0.82763515  0.83710342  1
  Te2-  Te104  1  0.83970493  0.16687701  0.16208647  1
  Te2-  Te105  1  0.83468593  0.16584671  0.50103715  1
  Te2-  Te106  1  0.84027532  0.18275040  0.83756746  1
  Te2-  Te107  1  0.83424152  0.49683974  0.18179161  1
  Te2-  Te108  1  0.83561789  0.49584276  0.48426077  1
  Te2-  Te109  1  0.83469440  0.49938652  0.83589545  1
  Te2-  Te110  1  0.83461474  0.84061373  0.17705167  1
  Te2-  Te111  1  0.83119742  0.83802560  0.48748069  1
  Te2-  Te112  1  0.84079641  0.82753438  0.83961580  1
  Te2-  Te113  1  0.16191307  -0.00195885  0.00294026  1
  Te2-  Te114  1  0.16237976  0.00217312  0.33642538  1
  Te2-  Te115  1  0.16414326  -0.00049976  0.66038192  1
  Te2-  Te116  1  0.16453163  0.33280485  0.00521521  1
  Te2-  Te117  1  0.16539984  0.33346533  0.33559748  1
  Te2-  Te118  1  0.17064842  0.32810788  0.66288173  1
  Te2-  Te119  1  0.16619102  0.66312761  -0.01294138  1
  Te2-  Te120  1  0.16607654  0.67029483  0.33660399  1
  Te2-  Te121  1  0.17582083  0.66469343  0.68074694  1
  Te2-  Te122  1  0.49621993  -0.00617284  -0.00850558  1
  Te2-  Te123  1  0.49895534  -0.00455943  0.33359162  1
  Te2-  Te124  1  0.50280171  0.00100654  0.67342859  1
  Te2-  Te125  1  0.51083200  0.33249464  0.00294282  1
  Te2-  Te126  1  0.50415996  0.33162448  0.34017716  1
  Te2-  Te127  1  0.50001995  0.33078125  0.66054815  1
  Te2-  Te128  1  0.49776570  0.67099428  0.00304079  1
  Te2-  Te129  1  0.49618921  0.67147973  0.32799728  1
  Te2-  Te130  1  0.49539827  0.66570228  0.66512773  1
  Te2-  Te131  1  0.83529380  -0.00474918  0.00221048  1
  Te2-  Te132  1  0.83373151  0.00176411  0.33378586  1
  Te2-  Te133  1  0.83698402  -0.00223207  0.66345153  1
  Te2-  Te134  1  0.82313647  0.33628983  0.00661154  1
  Te2-  Te135  1  0.83475036  0.33229991  0.33343205  1
  Te2-  Te136  1  0.83348588  0.35051576  0.66055335  1
  Te2-  Te137  1  0.83361604  0.67409856  0.00369719  1
  Te2-  Te138  1  0.83528258  0.66964145  0.33276502  1
  Te2-  Te139  1  0.82924096  0.65392653  0.66981886  1
  Te2-  Te140  1  0.00318045  0.15948236  -0.00232492  1
  Te2-  Te141  1  0.00281720  0.16956461  0.33277460  1
  Te2-  Te142  1  0.00517871  0.16423642  0.66917404  1
  Te2-  Te143  1  0.00130194  0.50133972  0.00087703  1
  Te2-  Te144  1  0.00699463  0.51471961  0.34869273  1
  Te2-  Te145  1  0.00141442  0.49612956  0.65665498  1
  Te2-  Te146  1  0.00188430  0.82923091  0.00824770  1
  Te2-  Te147  1  0.00304940  0.82810566  0.33244460  1
  Te2-  Te148  1  0.00087532  0.84130796  0.67139982  1
  Te2-  Te149  1  0.32529967  0.16303902  -0.02292555  1
  Te2-  Te150  1  0.34665698  0.16625298  0.34105539  1
  Te2-  Te151  1  0.32577489  0.16263188  0.67946837  1
  Te2-  Te152  1  0.33217964  0.50188085  0.01695253  1
  Te2-  Te153  1  0.32697130  0.50832944  0.32146443  1
  Te2-  Te154  1  0.33709028  0.49942725  0.66541640  1
  Te2-  Te155  1  0.32735794  0.83812520  0.00307989  1
  Te2-  Te156  1  0.33028157  0.83200319  0.33976660  1
  Te2-  Te157  1  0.32959156  0.83368148  0.65732698  1
  Te2-  Te158  1  0.65982213  0.15450280  -0.02626255  1
  Te2-  Te159  1  0.65112498  0.17041747  0.33237210  1
  Te2-  Te160  1  0.67119175  0.18350597  0.68047197  1
  Te2-  Te161  1  0.66136645  0.51070514  0.02355270  1
  Te2-  Te162  1  0.66607000  0.50064748  0.31707768  1
  Te2-  Te163  1  0.65476335  0.49113256  0.65974866  1
  Te2-  Te164  1  0.66660441  0.83366505  0.00224891  1
  Te2-  Te165  1  0.66365548  0.82886589  0.34168748  1
  Te2-  Te166  1  0.66958371  0.82914317  0.65799471  1
  Te2-  Te167  1  0.00020714  -0.00317016  0.16356408  1
  Te2-  Te168  1  -0.00289225  0.00694004  0.50215655  1
  Te2-  Te169  1  0.00467610  -0.00085131  0.83462695  1
  Te2-  Te170  1  0.00166047  0.33201927  0.17123536  1
  Te2-  Te171  1  0.00371727  0.32471148  0.50475330  1
  Te2-  Te172  1  -0.00834820  0.33297114  0.82832641  1
  Te2-  Te173  1  -0.00612134  0.67259803  0.16948465  1
  Te2-  Te174  1  0.00198009  0.67334662  0.51870309  1
  Te2-  Te175  1  -0.00717752  0.66671941  0.81739759  1
  Te2-  Te176  1  0.33442539  0.00607705  0.15885633  1
  Te2-  Te177  1  0.33122802  -0.00370960  0.50382540  1
  Te2-  Te178  1  0.31542549  -0.00721985  0.83371996  1
  Te2-  Te179  1  0.32551429  0.32043397  0.16466263  1
  Te2-  Te180  1  0.33228939  0.33065714  0.49941050  1
  Te2-  Te181  1  0.35247227  0.33609779  0.83187835  1
  Te2-  Te182  1  0.33445850  0.67235556  0.16564711  1
  Te2-  Te183  1  0.32680980  0.67414674  0.49760799  1
  Te2-  Te184  1  0.33326655  0.66014405  0.84124706  1
  Te2-  Te185  1  0.66876829  0.01973273  0.16109419  1
  Te2-  Te186  1  0.67021937  0.01202364  0.50569817  1
  Te2-  Te187  1  0.67381845  -0.01062309  0.83183145  1
  Te2-  Te188  1  0.66306203  0.31651786  0.16402854  1
  Te2-  Te189  1  0.67505431  0.32383889  0.49375785  1
  Te2-  Te190  1  0.66388248  0.34201939  0.84802489  1
  Te2-  Te191  1  0.67038822  0.67622356  0.16995683  1
  Te2-  Te192  1  0.66954526  0.66377841  0.49332176  1
  Te2-  Te193  1  0.66789383  0.65681873  0.84113367  1
  Pb2+  Pb194  1  -0.00328047  0.32862064  0.00162175  1
  Pb2+  Pb195  1  0.00037057  0.50003935  0.17432018  1
  Pb2+  Pb196  1  0.82740192  0.16619540  0.32964920  1
  Pb2+  Pb197  1  0.33415331  0.50111107  0.49064931  1
  Pb2+  Pb198  1  0.32850221  0.82941066  0.83125066  1
  Pb2+  Pb199  1  0.00847025  0.49896287  0.83211917  1
  Pb2+  Pb200  1  0.33808105  0.33635405  0.00009215  1
  Pb2+  Pb201  1  0.66509595  0.65614844  0.67024801  1
  Pb2+  Pb202  1  0.83487946  0.82394217  0.66282983  1
  Pb2+  Pb203  1  0.83739467  0.17777307  0.66799724  1
  Pb2+  Pb204  1  0.49833424  0.66814095  0.49652006  1
  Pb2+  Pb205  1  0.33458493  0.33881631  0.32825211  1
  Pb2+  Pb206  1  0.33327172  0.00105172  0.33298169  1
  Pb2+  Pb207  1  0.66514368  0.84698724  0.17162763  1
  Pb2+  Pb208  1  0.82438095  0.50384272  0.00555151  1
  Pb2+  Pb209  1  0.16673788  0.49859523  0.66598991  1
  Pb2+  Pb210  1  0.49296910  0.16608047  -0.00465628  1
  Pb2+  Pb211  1  0.16442347  0.66560431  0.16155466  1
  Pb2+  Pb212  1  0.66875656  0.49232461  0.49007959  1
  Pb2+  Pb213  1  0.66490075  0.00158213  0.33658776  1
  Pb2+  Pb214  1  0.66675803  0.82374294  0.82978329  1
  Pb2+  Pb215  1  0.50006371  0.83548270  0.66795039  1
