# generated using pymatgen
data_In22Ag21Sn22Bi21(Te54Pb11)2
_symmetry_space_group_name_H-M   'P 1'
_cell_length_a   19.14025369
_cell_length_b   19.15453577
_cell_length_c   19.14574401
_cell_angle_alpha   90.00340904
_cell_angle_beta   90.00648558
_cell_angle_gamma   89.99924945
_symmetry_Int_Tables_number   1
_chemical_formula_structural   In22Ag21Sn22Bi21(Te54Pb11)2
_chemical_formula_sum   'In22 Ag21 Sn22 Bi21 Te108 Pb22'
_cell_volume   7019.26380771
_cell_formula_units_Z   1
loop_
 _symmetry_equiv_pos_site_id
 _symmetry_equiv_pos_as_xyz
  1  'x, y, z'
loop_
 _atom_type_symbol
 _atom_type_oxidation_number
  In3+  3.0
  Ag+  1.0
  Sn2+  2.0
  Bi3+  3.0
  Te2-  -2.0
  Pb2+  2.0
loop_
 _atom_site_type_symbol
 _atom_site_label
 _atom_site_symmetry_multiplicity
 _atom_site_fract_x
 _atom_site_fract_y
 _atom_site_fract_z
 _atom_site_occupancy
  In3+  In0  1  0.66546806  0.49824814  0.14969207  1
  In3+  In1  1  0.32864504  0.18789999  0.51005640  1
  In3+  In2  1  0.00175395  0.84189981  0.48332091  1
  In3+  In3  1  0.50199551  -0.02464843  0.14237734  1
  In3+  In4  1  0.66316384  0.34428541  0.67448254  1
  In3+  In5  1  0.16827798  0.50120531  0.31330944  1
  In3+  In6  1  0.48628277  0.00046368  0.83019972  1
  In3+  In7  1  0.17735566  0.49954847  -0.00462319  1
  In3+  In8  1  0.84777290  0.67024882  0.14585804  1
  In3+  In9  1  0.50308721  0.33667770  0.13266321  1
  In3+  In10  1  0.18537113  0.49361675  0.67307234  1
  In3+  In11  1  0.00540271  0.64031096  0.66604772  1
  In3+  In12  1  -0.02242814  0.50062235  0.15387465  1
  In3+  In13  1  0.65545919  0.00211637  0.30252886  1
  In3+  In14  1  0.17190507  0.66820625  0.83246427  1
  In3+  In15  1  0.82773690  0.33482624  0.83716619  1
  In3+  In16  1  0.66672791  0.16762027  0.50995045  1
  In3+  In17  1  0.50000152  0.65920203  0.14702096  1
  In3+  In18  1  0.82298396  0.66038896  0.84114670  1
  In3+  In19  1  0.15406690  0.15409620  0.66523838  1
  In3+  In20  1  0.34059163  0.19107996  0.83211787  1
  In3+  In21  1  0.50971695  0.50076224  0.33926603  1
  Ag+  Ag22  1  0.31148990  0.68590330  0.00088215  1
  Ag+  Ag23  1  0.47356396  0.63888682  0.49095507  1
  Ag+  Ag24  1  0.69831998  -0.02301244  -0.00323603  1
  Ag+  Ag25  1  0.02123360  0.33563585  0.68192085  1
  Ag+  Ag26  1  0.02546569  0.86393842  0.15137304  1
  Ag+  Ag27  1  0.31112824  0.34074712  0.02166891  1
  Ag+  Ag28  1  0.84745185  0.30751308  0.19400106  1
  Ag+  Ag29  1  0.84371551  0.49931638  -0.00002089  1
  Ag+  Ag30  1  0.48515145  0.49419042  0.68361454  1
  Ag+  Ag31  1  0.47470486  0.36064711  0.82654992  1
  Ag+  Ag32  1  0.18927421  0.01287045  0.85875805  1
  Ag+  Ag33  1  0.32136207  0.33295780  0.66642198  1
  Ag+  Ag34  1  0.67226169  0.68345198  0.02360486  1
  Ag+  Ag35  1  0.47282775  0.79496143  0.66354942  1
  Ag+  Ag36  1  0.01931983  -0.02944895  0.03170731  1
  Ag+  Ag37  1  0.66570194  0.79949278  0.13765795  1
  Ag+  Ag38  1  0.19553136  -0.02907468  0.51264770  1
  Ag+  Ag39  1  0.81065643  0.19176515  0.66861209  1
  Ag+  Ag40  1  0.32613830  0.48985415  0.85059669  1
  Ag+  Ag41  1  0.80449156  0.86905716  0.03032171  1
  Ag+  Ag42  1  0.33020261  0.51949251  0.51723307  1
  Sn2+  Sn43  1  0.33754279  0.66084101  0.32417861  1
  Sn2+  Sn44  1  0.33425826  -0.00289036  0.33935255  1
  Sn2+  Sn45  1  0.49917999  0.83032756  0.34839478  1
  Sn2+  Sn46  1  0.00053337  0.00739690  0.67055555  1
  Sn2+  Sn47  1  0.66624869  -0.00211958  0.67741578  1
  Sn2+  Sn48  1  0.33935772  0.65362582  0.67735114  1
  Sn2+  Sn49  1  0.17073673  0.16167402  0.33897742  1
  Sn2+  Sn50  1  0.65762963  0.49894260  0.83690584  1
  Sn2+  Sn51  1  0.66700461  0.16002444  0.83381702  1
  Sn2+  Sn52  1  0.16869157  0.16725233  -0.01051462  1
  Sn2+  Sn53  1  0.50003102  0.16708118  0.00080874  1
  Sn2+  Sn54  1  0.66078623  0.50078028  0.50154479  1
  Sn2+  Sn55  1  0.01150830  0.49836933  0.50064802  1
  Sn2+  Sn56  1  0.17209436  0.66289890  0.50408199  1
  Sn2+  Sn57  1  0.33615144  0.49667621  0.15956078  1
  Sn2+  Sn58  1  0.83100077  0.49837125  0.67546694  1
  Sn2+  Sn59  1  0.16785473  0.34123600  0.49959523  1
  Sn2+  Sn60  1  0.33921197  0.82426925  0.50217092  1
  Sn2+  Sn61  1  0.83538366  0.33629190  0.50714414  1
  Sn2+  Sn62  1  -0.00616414  0.33527270  -0.00491133  1
  Sn2+  Sn63  1  0.50407538  0.82786837  -0.01017693  1
  Sn2+  Sn64  1  0.66082246  0.33102377  0.33184017  1
  Bi3+  Bi65  1  -0.00106981  0.33537992  0.33694482  1
  Bi3+  Bi66  1  -0.00121255  -0.00224410  0.33388446  1
  Bi3+  Bi67  1  0.50474165  0.33415493  0.50812469  1
  Bi3+  Bi68  1  0.83566354  0.83520349  0.67091860  1
  Bi3+  Bi69  1  0.50417471  -0.00243913  0.50278080  1
  Bi3+  Bi70  1  0.16427389  0.83138545  -0.00238922  1
  Bi3+  Bi71  1  0.66363771  0.17535296  0.16304168  1
  Bi3+  Bi72  1  0.16668331  0.33016265  0.83084609  1
  Bi3+  Bi73  1  0.00030780  0.83817679  0.83681419  1
  Bi3+  Bi74  1  0.66869834  0.66289483  0.66486098  1
  Bi3+  Bi75  1  0.66836452  0.83308684  0.82903624  1
  Bi3+  Bi76  1  0.00134365  0.16750083  0.50136291  1
  Bi3+  Bi77  1  0.83602461  0.66455886  0.50677244  1
  Bi3+  Bi78  1  0.49824593  0.66815509  0.82741556  1
  Bi3+  Bi79  1  0.00235626  0.16568439  0.83000767  1
  Bi3+  Bi80  1  0.83449105  0.00001165  0.50183007  1
  Bi3+  Bi81  1  0.66669918  0.33370791  -0.00308203  1
  Bi3+  Bi82  1  0.50178817  0.17428567  0.67050875  1
  Bi3+  Bi83  1  0.33399929  0.82559942  0.83119592  1
  Bi3+  Bi84  1  0.83142487  0.83368327  0.33030645  1
  Bi3+  Bi85  1  0.66666653  0.83730834  0.50111619  1
  Te2-  Te86  1  0.16837731  0.16861660  0.16399204  1
  Te2-  Te87  1  0.16772795  0.17281078  0.50537066  1
  Te2-  Te88  1  0.16880838  0.15907282  0.82592771  1
  Te2-  Te89  1  0.16611226  0.49960726  0.15915622  1
  Te2-  Te90  1  0.17643600  0.50071336  0.51495697  1
  Te2-  Te91  1  0.17636880  0.49869546  0.83115111  1
  Te2-  Te92  1  0.17107420  0.83158643  0.16145863  1
  Te2-  Te93  1  0.16251967  0.82906919  0.49928556  1
  Te2-  Te94  1  0.16566134  0.84078548  0.83848615  1
  Te2-  Te95  1  0.50231106  0.18282788  0.16699014  1
  Te2-  Te96  1  0.49902985  0.16691257  0.50469666  1
  Te2-  Te97  1  0.49741423  0.15910579  0.83105974  1
  Te2-  Te98  1  0.50312517  0.49552986  0.17219358  1
  Te2-  Te99  1  0.49354158  0.49427071  0.49198161  1
  Te2-  Te100  1  0.49209258  0.50687723  0.83056693  1
  Te2-  Te101  1  0.51581871  0.82699429  0.16917648  1
  Te2-  Te102  1  0.50491854  0.83653742  0.51708064  1
  Te2-  Te103  1  0.50019863  0.83094941  0.81707121  1
  Te2-  Te104  1  0.82571416  0.16646181  0.16778361  1
  Te2-  Te105  1  0.83300640  0.16390049  0.51568374  1
  Te2-  Te106  1  0.83758001  0.17686512  0.81923682  1
  Te2-  Te107  1  0.82466226  0.51120903  0.16018266  1
  Te2-  Te108  1  0.83472999  0.50342940  0.50206786  1
  Te2-  Te109  1  0.83333018  0.50091658  0.83575415  1
  Te2-  Te110  1  0.81473571  0.81842349  0.16881966  1
  Te2-  Te111  1  0.83498836  0.83333647  0.50097504  1
  Te2-  Te112  1  0.83556953  0.82297345  0.83513441  1
  Te2-  Te113  1  0.16231163  -0.00003229  0.00253282  1
  Te2-  Te114  1  0.16315077  0.00051736  0.34037773  1
  Te2-  Te115  1  0.16674069  0.00365619  0.65330847  1
  Te2-  Te116  1  0.16515041  0.33802863  -0.00622684  1
  Te2-  Te117  1  0.16322553  0.33808696  0.33258068  1
  Te2-  Te118  1  0.17085344  0.33926803  0.66827517  1
  Te2-  Te119  1  0.16574958  0.66032453  -0.00603903  1
  Te2-  Te120  1  0.16751432  0.65979873  0.33490252  1
  Te2-  Te121  1  0.16579673  0.65906417  0.67473198  1
  Te2-  Te122  1  0.49727480  -0.00170858  -0.00887545  1
  Te2-  Te123  1  0.50155164  -0.00219460  0.34038493  1
  Te2-  Te124  1  0.50335334  0.00688492  0.66897466  1
  Te2-  Te125  1  0.50226957  0.33142578  -0.02180715  1
  Te2-  Te126  1  0.50098299  0.34048538  0.34202589  1
  Te2-  Te127  1  0.50997619  0.34081969  0.67392412  1
  Te2-  Te128  1  0.51641810  0.66944894  -0.00548677  1
  Te2-  Te129  1  0.49365420  0.66098919  0.34506294  1
  Te2-  Te130  1  0.50368655  0.65169652  0.66455691  1
  Te2-  Te131  1  0.84269166  0.00724018  -0.00065672  1
  Te2-  Te132  1  0.83277693  -0.00252646  0.33721993  1
  Te2-  Te133  1  0.83291732  -0.00289214  0.66390867  1
  Te2-  Te134  1  0.83141979  0.34579853  -0.00727370  1
  Te2-  Te135  1  0.83307439  0.33639520  0.33637636  1
  Te2-  Te136  1  0.82037443  0.33803797  0.66786611  1
  Te2-  Te137  1  0.82079149  0.65392082  -0.00382595  1
  Te2-  Te138  1  0.83152075  0.67057021  0.34164347  1
  Te2-  Te139  1  0.83819938  0.66978750  0.66969647  1
  Te2-  Te140  1  0.00338420  0.17496760  -0.00754785  1
  Te2-  Te141  1  0.00161468  0.16937132  0.33566441  1
  Te2-  Te142  1  0.00303882  0.18148861  0.66382665  1
  Te2-  Te143  1  -0.00655327  0.49805891  0.00076235  1
  Te2-  Te144  1  0.00967529  0.49745875  0.33952096  1
  Te2-  Te145  1  -0.00208209  0.48700949  0.66477648  1
  Te2-  Te146  1  0.00179525  0.82899632  0.00346039  1
  Te2-  Te147  1  -0.00539547  0.83652966  0.31025034  1
  Te2-  Te148  1  -0.00336153  0.83941851  0.67469250  1
  Te2-  Te149  1  0.33144389  0.17601284  -0.01214447  1
  Te2-  Te150  1  0.32850979  0.16649086  0.33880526  1
  Te2-  Te151  1  0.33953156  0.17999156  0.66911901  1
  Te2-  Te152  1  0.32882719  0.48737194  -0.00172074  1
  Te2-  Te153  1  0.32207422  0.50441596  0.32825346  1
  Te2-  Te154  1  0.33805243  0.49867475  0.66241209  1
  Te2-  Te155  1  0.33460621  0.83260377  -0.00443121  1
  Te2-  Te156  1  0.33601508  0.82929629  0.33536806  1
  Te2-  Te157  1  0.32959466  0.82869723  0.66910486  1
  Te2-  Te158  1  0.66273691  0.17220946  -0.00141222  1
  Te2-  Te159  1  0.66570434  0.16349653  0.32752700  1
  Te2-  Te160  1  0.66408638  0.16607068  0.66920206  1
  Te2-  Te161  1  0.66601674  0.49535822  -0.00317502  1
  Te2-  Te162  1  0.66391776  0.50052060  0.33859533  1
  Te2-  Te163  1  0.66618709  0.50105492  0.66622598  1
  Te2-  Te164  1  0.66653070  0.83004019  -0.00901640  1
  Te2-  Te165  1  0.66642449  0.84234159  0.33911705  1
  Te2-  Te166  1  0.67090118  0.82983561  0.66638151  1
  Te2-  Te167  1  -0.00278568  0.00764651  0.17256042  1
  Te2-  Te168  1  -0.00217155  0.00421505  0.49759175  1
  Te2-  Te169  1  0.00313901  0.00320899  0.82901588  1
  Te2-  Te170  1  -0.01143059  0.34528772  0.17014249  1
  Te2-  Te171  1  -0.00135213  0.32953351  0.49808657  1
  Te2-  Te172  1  0.00394758  0.33127988  0.82806472  1
  Te2-  Te173  1  -0.00121651  0.65362577  0.16926501  1
  Te2-  Te174  1  -0.00083012  0.66763884  0.51149688  1
  Te2-  Te175  1  0.01091834  0.67047414  0.82401240  1
  Te2-  Te176  1  0.34844709  -0.00055525  0.17051297  1
  Te2-  Te177  1  0.33971012  -0.00384636  0.49635492  1
  Te2-  Te178  1  0.33135995  -0.00830994  0.82812830  1
  Te2-  Te179  1  0.34090857  0.33581113  0.16485549  1
  Te2-  Te180  1  0.33875408  0.33727123  0.50865530  1
  Te2-  Te181  1  0.32774367  0.34012990  0.82082832  1
  Te2-  Te182  1  0.34618199  0.66265144  0.14905527  1
  Te2-  Te183  1  0.33088917  0.66695472  0.50377637  1
  Te2-  Te184  1  0.33206358  0.66589085  0.84686140  1
  Te2-  Te185  1  0.65429775  0.00901350  0.14638529  1
  Te2-  Te186  1  0.66838652  0.00272914  0.50564905  1
  Te2-  Te187  1  0.66737126  -0.00494515  0.84505755  1
  Te2-  Te188  1  0.66689329  0.34140322  0.16361836  1
  Te2-  Te189  1  0.66663886  0.33019713  0.49808302  1
  Te2-  Te190  1  0.67261077  0.33070631  0.83123210  1
  Te2-  Te191  1  0.65402103  0.65305332  0.16759687  1
  Te2-  Te192  1  0.66993484  0.67142881  0.50361528  1
  Te2-  Te193  1  0.66516399  0.66642268  0.82673190  1
  Pb2+  Pb194  1  0.16592990  0.83176731  0.33373681  1
  Pb2+  Pb195  1  0.83171482  0.16823615  0.34533602  1
  Pb2+  Pb196  1  -0.00365746  0.17484574  0.16110126  1
  Pb2+  Pb197  1  0.66063285  0.67213036  0.33307089  1
  Pb2+  Pb198  1  0.17391605  0.66544850  0.16504387  1
  Pb2+  Pb199  1  -0.00062908  0.66893149  0.34095327  1
  Pb2+  Pb200  1  -0.00823801  0.66592653  -0.00617580  1
  Pb2+  Pb201  1  0.49735485  0.49979751  -0.00228124  1
  Pb2+  Pb202  1  0.83403158  0.50266731  0.33106936  1
  Pb2+  Pb203  1  0.33490536  0.00880352  0.66253375  1
  Pb2+  Pb204  1  0.83165944  0.17421947  -0.00701469  1
  Pb2+  Pb205  1  0.33086759  0.00355037  -0.00242123  1
  Pb2+  Pb206  1  0.33553142  0.16793873  0.16056579  1
  Pb2+  Pb207  1  0.33367880  0.33857930  0.33821092  1
  Pb2+  Pb208  1  0.16266615  0.83099267  0.66920066  1
  Pb2+  Pb209  1  0.00424402  0.50042223  0.83172547  1
  Pb2+  Pb210  1  0.34676815  0.82874998  0.16724177  1
  Pb2+  Pb211  1  0.82436906  -0.00738917  0.16308089  1
  Pb2+  Pb212  1  0.16268373  0.33366794  0.16454919  1
  Pb2+  Pb213  1  0.83619021  -0.00146292  0.83449234  1
  Pb2+  Pb214  1  0.49814687  0.16785319  0.33560954  1
  Pb2+  Pb215  1  0.17250928  0.00160756  0.17256608  1
