# generated using pymatgen
data_In22Ag21Sn22Bi21(Te54Pb11)2
_symmetry_space_group_name_H-M   'P 1'
_cell_length_a   19.14200795
_cell_length_b   19.14578532
_cell_length_c   19.15947031
_cell_angle_alpha   89.98049942
_cell_angle_beta   90.00366064
_cell_angle_gamma   89.98205150
_symmetry_Int_Tables_number   1
_chemical_formula_structural   In22Ag21Sn22Bi21(Te54Pb11)2
_chemical_formula_sum   'In22 Ag21 Sn22 Bi21 Te108 Pb22'
_cell_volume   7021.73003330
_cell_formula_units_Z   1
loop_
 _symmetry_equiv_pos_site_id
 _symmetry_equiv_pos_as_xyz
  1  'x, y, z'
loop_
 _atom_type_symbol
 _atom_type_oxidation_number
  In3+  3.0
  Ag+  1.0
  Sn2+  2.0
  Bi3+  3.0
  Te2-  -2.0
  Pb2+  2.0
loop_
 _atom_site_type_symbol
 _atom_site_label
 _atom_site_symmetry_multiplicity
 _atom_site_fract_x
 _atom_site_fract_y
 _atom_site_fract_z
 _atom_site_occupancy
  In3+  In0  1  0.00479042  0.66558742  0.69319673  1
  In3+  In1  1  0.83016220  0.84588556  -0.00004290  1
  In3+  In2  1  0.83125412  0.67371451  0.14615631  1
  In3+  In3  1  -0.01619936  0.16177106  0.85227907  1
  In3+  In4  1  0.49335576  0.82490998  -0.00146905  1
  In3+  In5  1  0.32240670  0.67028531  0.34568781  1
  In3+  In6  1  0.18383373  0.51874795  0.66993939  1
  In3+  In7  1  0.33533894  0.01186896  0.00470599  1
  In3+  In8  1  0.66722293  0.18357408  0.50551314  1
  In3+  In9  1  0.50115183  0.01112651  0.48362540  1
  In3+  In10  1  0.67694469  0.16445238  0.15107801  1
  In3+  In11  1  0.84747050  0.00862741  0.49686070  1
  In3+  In12  1  0.00020875  0.51671349  0.15425570  1
  In3+  In13  1  0.83288548  0.47678317  0.66187636  1
  In3+  In14  1  0.66546578  0.65455558  -0.00231119  1
  In3+  In15  1  0.17375658  0.00919459  0.83938561  1
  In3+  In16  1  0.50218734  0.01667214  0.15510711  1
  In3+  In17  1  0.65825114  0.50191586  0.83555143  1
  In3+  In18  1  0.66575176  0.82746526  0.51114437  1
  In3+  In19  1  0.13670156  0.17339673  0.67595522  1
  In3+  In20  1  0.16870143  0.66263836  0.15997773  1
  In3+  In21  1  -0.00431932  0.83234841  0.16706326  1
  Ag+  Ag22  1  0.65380691  0.83495765  0.85853326  1
  Ag+  Ag23  1  0.35782985  0.47513389  0.83585767  1
  Ag+  Ag24  1  0.33047988  0.36444976  0.30778999  1
  Ag+  Ag25  1  0.47297589  0.46075424  -0.02228088  1
  Ag+  Ag26  1  0.66822583  0.30372874  0.69167170  1
  Ag+  Ag27  1  0.33178576  0.01768638  0.30991684  1
  Ag+  Ag28  1  0.65301181  0.20224886  0.85514436  1
  Ag+  Ag29  1  0.64934073  0.30253585  -0.02467546  1
  Ag+  Ag30  1  0.31005317  0.83459530  0.85900775  1
  Ag+  Ag31  1  0.16600608  0.85068027  0.30613790  1
  Ag+  Ag32  1  0.85531536  -0.00326045  0.14699529  1
  Ag+  Ag33  1  0.64200459  0.47861553  0.53707697  1
  Ag+  Ag34  1  0.19804318  0.66746219  0.81215760  1
  Ag+  Ag35  1  0.30400164  0.65144002  0.70468616  1
  Ag+  Ag36  1  0.53215911  0.16797971  -0.00777145  1
  Ag+  Ag37  1  0.02362304  0.68744926  0.01005447  1
  Ag+  Ag38  1  0.83519640  0.14645388  -0.01778483  1
  Ag+  Ag39  1  0.18744159  0.18632310  -0.02866466  1
  Ag+  Ag40  1  0.83109554  0.17255934  0.68592796  1
  Ag+  Ag41  1  0.02995332  0.14251005  0.52995815  1
  Ag+  Ag42  1  0.19026950  0.67192127  0.47402376  1
  Sn2+  Sn43  1  0.16950640  0.00047135  0.16941636  1
  Sn2+  Sn44  1  0.50213736  0.49756739  0.66669377  1
  Sn2+  Sn45  1  0.66154438  0.00048396  0.33320418  1
  Sn2+  Sn46  1  0.32674920  0.16416180  0.49639571  1
  Sn2+  Sn47  1  0.16764999  0.16291357  0.33473560  1
  Sn2+  Sn48  1  0.49825822  0.66899691  0.83038502  1
  Sn2+  Sn49  1  0.16502289  0.50367349  0.34550723  1
  Sn2+  Sn50  1  0.66181700  -0.00171819  -0.00825987  1
  Sn2+  Sn51  1  0.00443482  0.66502868  0.33918148  1
  Sn2+  Sn52  1  0.83607729  0.83532636  0.33491282  1
  Sn2+  Sn53  1  0.50421439  0.33842685  0.16261224  1
  Sn2+  Sn54  1  0.49979061  0.66629626  0.49921058  1
  Sn2+  Sn55  1  0.16889302  0.83375367  -0.00675826  1
  Sn2+  Sn56  1  0.34302215  0.33360610  0.00316390  1
  Sn2+  Sn57  1  0.17819436  -0.01093758  0.49714502  1
  Sn2+  Sn58  1  0.16925542  0.35050970  0.83768496  1
  Sn2+  Sn59  1  0.33465634  0.66544321  -0.00303057  1
  Sn2+  Sn60  1  0.16803753  0.33975039  0.49601914  1
  Sn2+  Sn61  1  0.83787412  0.33336594  0.83907691  1
  Sn2+  Sn62  1  -0.00984469  0.32853513  -0.00148588  1
  Sn2+  Sn63  1  0.33419185  0.16931397  0.16796235  1
  Sn2+  Sn64  1  0.49136157  0.16972231  0.32764800  1
  Bi3+  Bi65  1  0.49960175  0.67039916  0.16451877  1
  Bi3+  Bi66  1  -0.00184605  0.49552617  0.83355455  1
  Bi3+  Bi67  1  0.83102424  0.49899585  -0.00282680  1
  Bi3+  Bi68  1  0.83065536  0.66656779  0.83026855  1
  Bi3+  Bi69  1  -0.00682177  0.33670785  0.66676861  1
  Bi3+  Bi70  1  0.32886160  0.83269906  0.16714123  1
  Bi3+  Bi71  1  0.82500495  0.16357079  0.33299963  1
  Bi3+  Bi72  1  0.50586579  0.16543532  0.67044040  1
  Bi3+  Bi73  1  0.83296975  0.66940992  0.49820553  1
  Bi3+  Bi74  1  0.66921609  0.49749616  0.16297621  1
  Bi3+  Bi75  1  0.33303332  0.83251725  0.50177995  1
  Bi3+  Bi76  1  0.50054873  0.50006544  0.32501191  1
  Bi3+  Bi77  1  -0.00188105  0.16603559  0.17227730  1
  Bi3+  Bi78  1  0.49977214  -0.00103079  0.83373509  1
  Bi3+  Bi79  1  0.83377639  0.83573335  0.66800012  1
  Bi3+  Bi80  1  0.16967040  0.83892526  0.66971403  1
  Bi3+  Bi81  1  0.33405132  -0.00478330  0.66765665  1
  Bi3+  Bi82  1  0.66839327  0.66687377  0.67025481  1
  Bi3+  Bi83  1  -0.00116653  0.50162644  0.50225915  1
  Bi3+  Bi84  1  0.49736143  0.33350051  0.49915009  1
  Bi3+  Bi85  1  0.66562758  -0.00106030  0.66377952  1
  Te2-  Te86  1  0.16030480  0.16016431  0.17257720  1
  Te2-  Te87  1  0.16907432  0.16506810  0.49634902  1
  Te2-  Te88  1  0.16491227  0.16105419  0.82835694  1
  Te2-  Te89  1  0.16066234  0.50458260  0.16975147  1
  Te2-  Te90  1  0.16439722  0.51190097  0.51328548  1
  Te2-  Te91  1  0.15935259  0.51722292  0.82339601  1
  Te2-  Te92  1  0.16654054  0.82930033  0.15975564  1
  Te2-  Te93  1  0.16991231  0.82155310  0.50747822  1
  Te2-  Te94  1  0.16452485  0.82082023  0.83270469  1
  Te2-  Te95  1  0.50258468  0.16787827  0.16446569  1
  Te2-  Te96  1  0.50190190  0.16902969  0.50417117  1
  Te2-  Te97  1  0.51038002  0.16343091  0.83651914  1
  Te2-  Te98  1  0.50347326  0.50607296  0.16208475  1
  Te2-  Te99  1  0.50326247  0.49849886  0.49274987  1
  Te2-  Te100  1  0.50277986  0.50339201  0.83871212  1
  Te2-  Te101  1  0.49614036  0.83588968  0.15963710  1
  Te2-  Te102  1  0.49977300  0.82596290  0.49929248  1
  Te2-  Te103  1  0.50662788  0.83810464  0.84459282  1
  Te2-  Te104  1  0.82963022  0.15015668  0.17333853  1
  Te2-  Te105  1  0.82255847  0.16026848  0.49410501  1
  Te2-  Te106  1  0.83313583  0.16817607  0.83424604  1
  Te2-  Te107  1  0.83606659  0.50552422  0.16341860  1
  Te2-  Te108  1  0.83397771  0.50596366  0.50213931  1
  Te2-  Te109  1  0.83608490  0.50414748  0.83011800  1
  Te2-  Te110  1  0.84135656  0.84328899  0.16551978  1
  Te2-  Te111  1  0.83021691  0.83462420  0.50242890  1
  Te2-  Te112  1  0.83202937  0.83137682  0.83401262  1
  Te2-  Te113  1  0.17467189  0.00092130  -0.00540677  1
  Te2-  Te114  1  0.18043393  -0.00627496  0.33830262  1
  Te2-  Te115  1  0.17149629  0.00467636  0.66769781  1
  Te2-  Te116  1  0.16376614  0.32840185  -0.00409239  1
  Te2-  Te117  1  0.18227233  0.33702066  0.33797396  1
  Te2-  Te118  1  0.15992515  0.32369246  0.66542020  1
  Te2-  Te119  1  0.16791405  0.66758137  0.00757235  1
  Te2-  Te120  1  0.16664270  0.66157389  0.32982102  1
  Te2-  Te121  1  0.16099915  0.67213585  0.66698923  1
  Te2-  Te122  1  0.49469597  0.01700656  -0.00006630  1
  Te2-  Te123  1  0.48501022  0.00345886  0.33200878  1
  Te2-  Te124  1  0.49988998  -0.00007058  0.66794986  1
  Te2-  Te125  1  0.50597151  0.32027981  0.00209299  1
  Te2-  Te126  1  0.48197482  0.33804711  0.33344340  1
  Te2-  Te127  1  0.51269429  0.33034060  0.66410427  1
  Te2-  Te128  1  0.50625518  0.67035292  0.00366366  1
  Te2-  Te129  1  0.49735355  0.66601690  0.32757242  1
  Te2-  Te130  1  0.50691584  0.65931238  0.66298176  1
  Te2-  Te131  1  0.83160367  -0.00049104  0.00199456  1
  Te2-  Te132  1  0.83089997  -0.00357749  0.34244968  1
  Te2-  Te133  1  0.82947418  -0.00041370  0.65593844  1
  Te2-  Te134  1  0.82712671  0.33856294  -0.00260302  1
  Te2-  Te135  1  0.83111786  0.33003116  0.33135188  1
  Te2-  Te136  1  0.82217083  0.32208604  0.66771820  1
  Te2-  Te137  1  0.82784737  0.66404465  -0.00484897  1
  Te2-  Te138  1  0.83634450  0.67527297  0.33363750  1
  Te2-  Te139  1  0.83291107  0.67424901  0.66517189  1
  Te2-  Te140  1  -0.01297118  0.16894080  0.00497930  1
  Te2-  Te141  1  -0.00409254  0.16696365  0.33312583  1
  Te2-  Te142  1  -0.01676208  0.17254286  0.66341523  1
  Te2-  Te143  1  -0.00343488  0.49478854  -0.00003573  1
  Te2-  Te144  1  0.00354475  0.49924115  0.33651514  1
  Te2-  Te145  1  -0.00419980  0.49838001  0.66871672  1
  Te2-  Te146  1  -0.00693532  0.83089497  0.00911013  1
  Te2-  Te147  1  0.01277795  0.83115749  0.32270850  1
  Te2-  Te148  1  -0.00142479  0.83153040  0.66660165  1
  Te2-  Te149  1  0.32749128  0.16376650  0.00303515  1
  Te2-  Te150  1  0.33134553  0.16254256  0.33193119  1
  Te2-  Te151  1  0.34320526  0.16042944  0.66642161  1
  Te2-  Te152  1  0.33272828  0.49623122  -0.01297786  1
  Te2-  Te153  1  0.33454652  0.51090906  0.33241269  1
  Te2-  Te154  1  0.33548532  0.50678651  0.68426937  1
  Te2-  Te155  1  0.33867999  0.83815460  0.00513998  1
  Te2-  Te156  1  0.31898959  0.82513561  0.33298928  1
  Te2-  Te157  1  0.33198534  0.83226183  0.66431302  1
  Te2-  Te158  1  0.68070348  0.16097027  -0.00198030  1
  Te2-  Te159  1  0.66084685  0.15990645  0.34559810  1
  Te2-  Te160  1  0.67099742  0.15994665  0.66137363  1
  Te2-  Te161  1  0.66872895  0.50116953  0.00033478  1
  Te2-  Te162  1  0.66446926  0.49922583  0.32500988  1
  Te2-  Te163  1  0.66972054  0.50600044  0.67759736  1
  Te2-  Te164  1  0.67464803  0.83595495  0.00334639  1
  Te2-  Te165  1  0.66484233  0.83779491  0.33100670  1
  Te2-  Te166  1  0.66919259  0.83281685  0.66760916  1
  Te2-  Te167  1  0.00245049  -0.00041791  0.16675927  1
  Te2-  Te168  1  0.00361650  0.00057018  0.49930866  1
  Te2-  Te169  1  0.00300341  0.00750952  0.83385000  1
  Te2-  Te170  1  -0.00063112  0.32989944  0.16643786  1
  Te2-  Te171  1  0.00164684  0.33858236  0.50479223  1
  Te2-  Te172  1  0.00384743  0.32988306  0.82880004  1
  Te2-  Te173  1  -0.00138263  0.66745001  0.15932354  1
  Te2-  Te174  1  -0.00528666  0.66265670  0.49975255  1
  Te2-  Te175  1  -0.00567722  0.65981764  0.84839219  1
  Te2-  Te176  1  0.33499066  -0.00390362  0.16358294  1
  Te2-  Te177  1  0.34340469  -0.00571145  0.50485045  1
  Te2-  Te178  1  0.33384919  -0.01477565  0.83311205  1
  Te2-  Te179  1  0.33439421  0.33394508  0.16261964  1
  Te2-  Te180  1  0.33520339  0.33355738  0.50604419  1
  Te2-  Te181  1  0.32817832  0.32942857  0.83541946  1
  Te2-  Te182  1  0.33327010  0.67044522  0.16402760  1
  Te2-  Te183  1  0.33431626  0.66730838  0.50113406  1
  Te2-  Te184  1  0.34274944  0.68669578  0.84252117  1
  Te2-  Te185  1  0.65548257  0.01075941  0.16590694  1
  Te2-  Te186  1  0.65147450  -0.01376623  0.50191235  1
  Te2-  Te187  1  0.66139678  -0.01101449  0.82963150  1
  Te2-  Te188  1  0.66525991  0.33029273  0.16248906  1
  Te2-  Te189  1  0.66192842  0.33885715  0.49708362  1
  Te2-  Te190  1  0.67045036  0.34661973  0.83219594  1
  Te2-  Te191  1  0.66714066  0.66540962  0.16070129  1
  Te2-  Te192  1  0.66890401  0.66803232  0.50359580  1
  Te2-  Te193  1  0.66790473  0.67699904  0.83636280  1
  Pb2+  Pb194  1  0.16593342  0.49903538  -0.00494577  1
  Pb2+  Pb195  1  0.16615582  0.32911441  0.16495703  1
  Pb2+  Pb196  1  0.00208174  0.82873570  0.49332790  1
  Pb2+  Pb197  1  0.83246904  0.32505880  0.16273492  1
  Pb2+  Pb198  1  0.33522052  0.50003750  0.50587773  1
  Pb2+  Pb199  1  0.66893173  0.84040701  0.16589187  1
  Pb2+  Pb200  1  0.66661969  0.66899805  0.33416663  1
  Pb2+  Pb201  1  0.00116116  0.00007749  0.66764242  1
  Pb2+  Pb202  1  0.33351763  0.50307303  0.15876038  1
  Pb2+  Pb203  1  0.83273738  0.33087151  0.49875508  1
  Pb2+  Pb204  1  0.49832891  0.82780049  0.67213421  1
  Pb2+  Pb205  1  -0.00078805  0.82882416  0.83727554  1
  Pb2+  Pb206  1  0.65491069  0.32691972  0.32864023  1
  Pb2+  Pb207  1  0.33892065  0.15648170  0.83390476  1
  Pb2+  Pb208  1  0.49952495  0.33301604  0.83316987  1
  Pb2+  Pb209  1  0.01006274  0.33103515  0.33524363  1
  Pb2+  Pb210  1  0.33347754  0.33241542  0.66918049  1
  Pb2+  Pb211  1  0.00802804  0.00090345  0.33256704  1
  Pb2+  Pb212  1  0.49056361  0.83718141  0.33123818  1
  Pb2+  Pb213  1  0.82723606  0.00068884  0.82962585  1
  Pb2+  Pb214  1  0.83490317  0.50482439  0.33351704  1
  Pb2+  Pb215  1  0.00646416  -0.00112598  0.00073048  1
