# generated using pymatgen
data_In22Ag21Sn22Bi21(Te54Pb11)2
_symmetry_space_group_name_H-M   'P 1'
_cell_length_a   19.12328903
_cell_length_b   19.11205832
_cell_length_c   19.14057126
_cell_angle_alpha   89.99316797
_cell_angle_beta   90.00988642
_cell_angle_gamma   90.01663023
_symmetry_Int_Tables_number   1
_chemical_formula_structural   In22Ag21Sn22Bi21(Te54Pb11)2
_chemical_formula_sum   'In22 Ag21 Sn22 Bi21 Te108 Pb22'
_cell_volume   6995.59918800
_cell_formula_units_Z   1
loop_
 _symmetry_equiv_pos_site_id
 _symmetry_equiv_pos_as_xyz
  1  'x, y, z'
loop_
 _atom_type_symbol
 _atom_type_oxidation_number
  In3+  3.0
  Ag+  1.0
  Sn2+  2.0
  Bi3+  3.0
  Te2-  -2.0
  Pb2+  2.0
loop_
 _atom_site_type_symbol
 _atom_site_label
 _atom_site_symmetry_multiplicity
 _atom_site_fract_x
 _atom_site_fract_y
 _atom_site_fract_z
 _atom_site_occupancy
  In3+  In0  1  0.67382555  0.00144025  0.32070342  1
  In3+  In1  1  0.51749255  0.83413546  0.34977352  1
  In3+  In2  1  0.82539957  0.50061107  0.66276234  1
  In3+  In3  1  0.81910681  0.67293433  0.85911981  1
  In3+  In4  1  0.82803849  -0.00635823  0.15569458  1
  In3+  In5  1  0.83209619  0.66982417  0.51354028  1
  In3+  In6  1  0.34629206  0.17265053  0.49535643  1
  In3+  In7  1  0.67188437  0.31486326  0.00159637  1
  In3+  In8  1  0.66541084  0.67069026  0.01077856  1
  In3+  In9  1  0.50455175  0.35811093  0.82691804  1
  In3+  In10  1  0.84395363  0.16594217  0.32409534  1
  In3+  In11  1  0.00329295  0.50009876  0.50878662  1
  In3+  In12  1  0.17918362  0.66396630  0.49765304  1
  In3+  In13  1  0.15270518  0.83926576  0.01462943  1
  In3+  In14  1  0.66022131  0.82006632  0.84395545  1
  In3+  In15  1  0.17912781  0.00006616  0.49818917  1
  In3+  In16  1  0.51261469  0.52298011  0.65848125  1
  In3+  In17  1  0.49581978  0.32052814  0.18137271  1
  In3+  In18  1  -0.00914724  0.14691909  0.50037344  1
  In3+  In19  1  0.17582127  0.17013504  0.65206290  1
  In3+  In20  1  0.83317001  0.32228572  0.49912694  1
  In3+  In21  1  0.66083489  0.83610819  0.51745528  1
  Ag+  Ag22  1  0.48201468  0.66537695  0.51580276  1
  Ag+  Ag23  1  0.47696759  0.67525997  0.81176080  1
  Ag+  Ag24  1  0.34452465  -0.00090687  0.66381552  1
  Ag+  Ag25  1  0.68462602  0.80704877  0.18287872  1
  Ag+  Ag26  1  0.82909596  -0.02171875  0.50005719  1
  Ag+  Ag27  1  0.30819503  -0.01416389  0.02636928  1
  Ag+  Ag28  1  0.16087831  0.64079938  0.13410472  1
  Ag+  Ag29  1  0.48045238  0.01911890  0.49893731  1
  Ag+  Ag30  1  0.85061427  0.84943583  -0.00571942  1
  Ag+  Ag31  1  -0.02550858  -0.00708566  0.02769027  1
  Ag+  Ag32  1  0.02202586  0.30985602  0.64035848  1
  Ag+  Ag33  1  0.82638609  0.14335181  0.02524954  1
  Ag+  Ag34  1  0.65287995  0.67707819  0.67478558  1
  Ag+  Ag35  1  0.14497954  0.15518858  0.35215351  1
  Ag+  Ag36  1  0.64848342  0.52502619  0.84205352  1
  Ag+  Ag37  1  0.70012021  0.17664879  0.18980557  1
  Ag+  Ag38  1  0.33361297  0.35675001  0.35620751  1
  Ag+  Ag39  1  0.49934943  0.84183317  0.64980724  1
  Ag+  Ag40  1  0.80720482  0.69322384  0.16981464  1
  Ag+  Ag41  1  0.13867265  0.54242599  0.01529991  1
  Ag+  Ag42  1  -0.00130168  0.16803356  0.14198834  1
  Sn2+  Sn43  1  0.83123552  0.50473743  0.33484511  1
  Sn2+  Sn44  1  0.33935317  0.84032681  0.50545245  1
  Sn2+  Sn45  1  0.49747653  0.15048695  0.67290944  1
  Sn2+  Sn46  1  -0.00597073  0.00046048  0.33100118  1
  Sn2+  Sn47  1  0.49405708  0.66746311  0.16207458  1
  Sn2+  Sn48  1  0.33646133  0.32596489  0.66928306  1
  Sn2+  Sn49  1  0.18438088  0.84063254  0.66964202  1
  Sn2+  Sn50  1  0.34104654  0.84096154  0.83692084  1
  Sn2+  Sn51  1  0.33125069  0.49479563  0.16261520  1
  Sn2+  Sn52  1  0.66923416  0.66902539  0.34040129  1
  Sn2+  Sn53  1  0.67020069  0.14917961  0.49619371  1
  Sn2+  Sn54  1  0.16610734  0.49962617  0.67898166  1
  Sn2+  Sn55  1  -0.00559343  0.66573733  0.00858695  1
  Sn2+  Sn56  1  0.01338904  0.33182172  0.33185336  1
  Sn2+  Sn57  1  -0.00270204  0.49616289  0.16688376  1
  Sn2+  Sn58  1  0.16346131  0.66351335  0.82225809  1
  Sn2+  Sn59  1  0.33596988  -0.00075823  0.33795980  1
  Sn2+  Sn60  1  0.83279799  0.17048877  0.67447830  1
  Sn2+  Sn61  1  0.00215591  0.31707721  -0.00384913  1
  Sn2+  Sn62  1  0.33413377  0.16110353  0.83304025  1
  Sn2+  Sn63  1  0.33604007  0.66954055  0.32662180  1
  Sn2+  Sn64  1  -0.00077608  0.00132910  0.66354862  1
  Bi3+  Bi65  1  0.66259379  -0.00463656  0.00109764  1
  Bi3+  Bi66  1  -0.00174045  0.66136688  0.32947537  1
  Bi3+  Bi67  1  0.67102542  0.50482167  0.49794252  1
  Bi3+  Bi68  1  0.50117233  0.83352356  0.00268654  1
  Bi3+  Bi69  1  0.17061849  -0.00183745  0.82555041  1
  Bi3+  Bi70  1  0.66647077  -0.00133741  0.66440711  1
  Bi3+  Bi71  1  0.50133490  0.50116640  -0.00127188  1
  Bi3+  Bi72  1  -0.00113513  0.50115350  0.83372304  1
  Bi3+  Bi73  1  0.50004221  0.15935285  0.33606442  1
  Bi3+  Bi74  1  0.83455091  0.49996746  -0.00302761  1
  Bi3+  Bi75  1  0.00029739  0.66496474  0.66784298  1
  Bi3+  Bi76  1  0.16629348  0.33215613  0.16381209  1
  Bi3+  Bi77  1  0.83203837  0.34040897  0.83023149  1
  Bi3+  Bi78  1  0.33752209  0.32720443  -0.00255964  1
  Bi3+  Bi79  1  0.17051548  0.83831828  0.33606314  1
  Bi3+  Bi80  1  0.33322950  0.50064811  0.83356963  1
  Bi3+  Bi81  1  -0.00017613  0.16861468  0.82942206  1
  Bi3+  Bi82  1  -0.00156438  0.83032009  0.50120420  1
  Bi3+  Bi83  1  0.66595588  0.16673156  0.82802267  1
  Bi3+  Bi84  1  0.16290000  0.16392698  -0.00422667  1
  Bi3+  Bi85  1  0.34043217  0.83169954  0.16957898  1
  Te2-  Te86  1  0.15179815  0.16677210  0.15849770  1
  Te2-  Te87  1  0.15597148  0.15914636  0.49855699  1
  Te2-  Te88  1  0.16489110  0.16338280  0.82918094  1
  Te2-  Te89  1  0.16783563  0.49644356  0.15562246  1
  Te2-  Te90  1  0.16119314  0.50205434  0.50203959  1
  Te2-  Te91  1  0.16659368  0.50186803  0.84275524  1
  Te2-  Te92  1  0.17257588  0.83640681  0.17026391  1
  Te2-  Te93  1  0.16400178  0.83841874  0.49810968  1
  Te2-  Te94  1  0.17439648  0.83543752  0.82784657  1
  Te2-  Te95  1  0.49383044  0.16576008  0.17153909  1
  Te2-  Te96  1  0.50196357  0.16739412  0.49999529  1
  Te2-  Te97  1  0.50264646  0.16081908  0.83243895  1
  Te2-  Te98  1  0.49935161  0.49816488  0.16050987  1
  Te2-  Te99  1  0.50427017  0.51235380  0.50272724  1
  Te2-  Te100  1  0.50045037  0.51290448  0.82885734  1
  Te2-  Te101  1  0.50211207  0.83001453  0.16576633  1
  Te2-  Te102  1  0.50859005  0.81596880  0.50140272  1
  Te2-  Te103  1  0.50458112  0.82036176  0.83856872  1
  Te2-  Te104  1  0.84592614  0.16390897  0.16997967  1
  Te2-  Te105  1  0.83643456  0.17126724  0.50737813  1
  Te2-  Te106  1  0.83436511  0.17479104  0.83467601  1
  Te2-  Te107  1  0.83690119  0.49782448  0.16240758  1
  Te2-  Te108  1  0.83310955  0.50952795  0.50038862  1
  Te2-  Te109  1  0.83550140  0.50437800  0.83048924  1
  Te2-  Te110  1  0.82563181  0.83956672  0.15649147  1
  Te2-  Te111  1  0.83301970  0.82829165  0.49672341  1
  Te2-  Te112  1  0.83200884  0.82696942  0.84571848  1
  Te2-  Te113  1  0.16711490  -0.00411836  -0.00908460  1
  Te2-  Te114  1  0.16432752  0.00621513  0.34006719  1
  Te2-  Te115  1  0.16494510  0.00345273  0.65961357  1
  Te2-  Te116  1  0.17134348  0.32877439  0.00080481  1
  Te2-  Te117  1  0.18131542  0.32754601  0.32595566  1
  Te2-  Te118  1  0.16635001  0.32900601  0.66231638  1
  Te2-  Te119  1  0.16438371  0.68476579  -0.00686713  1
  Te2-  Te120  1  0.16271911  0.67164987  0.34276503  1
  Te2-  Te121  1  0.16437532  0.66844921  0.65588608  1
  Te2-  Te122  1  0.50217626  -0.00081596  -0.00125303  1
  Te2-  Te123  1  0.50515166  -0.00679743  0.35018956  1
  Te2-  Te124  1  0.50296418  -0.00730089  0.65082273  1
  Te2-  Te125  1  0.50404066  0.33840682  -0.01071415  1
  Te2-  Te126  1  0.48744086  0.33135473  0.33477704  1
  Te2-  Te127  1  0.49607645  0.32729730  0.67192443  1
  Te2-  Te128  1  0.50907655  0.66580464  -0.00348451  1
  Te2-  Te129  1  0.50344680  0.67796282  0.32950483  1
  Te2-  Te130  1  0.50499984  0.67295696  0.66582214  1
  Te2-  Te131  1  0.82860466  -0.00170781  -0.00003987  1
  Te2-  Te132  1  0.82696053  0.01206133  0.34795047  1
  Te2-  Te133  1  0.82933654  -0.00087222  0.65799112  1
  Te2-  Te134  1  0.83149983  0.33751360  -0.00476001  1
  Te2-  Te135  1  0.83597427  0.32522280  0.33968124  1
  Te2-  Te136  1  0.83518694  0.34255319  0.66556718  1
  Te2-  Te137  1  0.83352934  0.66315578  0.01264169  1
  Te2-  Te138  1  0.83675899  0.66621197  0.31678904  1
  Te2-  Te139  1  0.83936570  0.66139893  0.66786904  1
  Te2-  Te140  1  -0.00208056  0.15703526  -0.00762722  1
  Te2-  Te141  1  -0.00143939  0.17209988  0.34678989  1
  Te2-  Te142  1  0.00019755  0.16723175  0.66388200  1
  Te2-  Te143  1  -0.00115570  0.49596272  -0.00273391  1
  Te2-  Te144  1  -0.00276226  0.49825240  0.33484560  1
  Te2-  Te145  1  0.00234916  0.50350062  0.66864669  1
  Te2-  Te146  1  -0.00143777  0.84448140  0.00213774  1
  Te2-  Te147  1  0.00522562  0.83099214  0.33715009  1
  Te2-  Te148  1  0.00260769  0.82977101  0.66263299  1
  Te2-  Te149  1  0.32988386  0.16415975  -0.00319684  1
  Te2-  Te150  1  0.33875927  0.15853713  0.34191275  1
  Te2-  Te151  1  0.32906863  0.15736046  0.65848960  1
  Te2-  Te152  1  0.33871179  0.49579249  -0.00485534  1
  Te2-  Te153  1  0.33185252  0.50237690  0.33304891  1
  Te2-  Te154  1  0.33143733  0.49759897  0.67245999  1
  Te2-  Te155  1  0.33842272  0.84139223  0.00389270  1
  Te2-  Te156  1  0.33163452  0.83408357  0.33462685  1
  Te2-  Te157  1  0.34518312  0.84242178  0.66500047  1
  Te2-  Te158  1  0.67926989  0.16034706  -0.00739549  1
  Te2-  Te159  1  0.66307942  0.16246935  0.33448809  1
  Te2-  Te160  1  0.66599807  0.16576012  0.66500714  1
  Te2-  Te161  1  0.66783500  0.51226456  -0.01121524  1
  Te2-  Te162  1  0.66791376  0.49796707  0.33232115  1
  Te2-  Te163  1  0.66712640  0.51132369  0.66264134  1
  Te2-  Te164  1  0.66503182  0.83078679  -0.00127881  1
  Te2-  Te165  1  0.66734832  0.84260907  0.32511863  1
  Te2-  Te166  1  0.66129061  0.82969295  0.66965633  1
  Te2-  Te167  1  -0.01371306  0.00529748  0.17373308  1
  Te2-  Te168  1  -0.01267941  -0.00553155  0.49926117  1
  Te2-  Te169  1  0.00471501  0.00288491  0.82654153  1
  Te2-  Te170  1  0.00455145  0.32527756  0.16575060  1
  Te2-  Te171  1  -0.01091177  0.34688826  0.50189915  1
  Te2-  Te172  1  -0.00389847  0.33490787  0.83032682  1
  Te2-  Te173  1  0.01227850  0.66319052  0.16705980  1
  Te2-  Te174  1  -0.00580704  0.66513845  0.49802552  1
  Te2-  Te175  1  0.00011703  0.66359620  0.83423294  1
  Te2-  Te176  1  0.33443552  -0.00407239  0.17025819  1
  Te2-  Te177  1  0.33314712  0.00045171  0.50830943  1
  Te2-  Te178  1  0.33318466  0.00089246  0.81615285  1
  Te2-  Te179  1  0.33681284  0.33207724  0.15944219  1
  Te2-  Te180  1  0.33134815  0.32663614  0.50108233  1
  Te2-  Te181  1  0.33950970  0.33319824  0.83448120  1
  Te2-  Te182  1  0.32487987  0.66732417  0.16640603  1
  Te2-  Te183  1  0.33391114  0.66822133  0.49726268  1
  Te2-  Te184  1  0.33087941  0.66654874  0.83282731  1
  Te2-  Te185  1  0.67393315  0.02034172  0.16571180  1
  Te2-  Te186  1  0.67525593  -0.01013706  0.50335812  1
  Te2-  Te187  1  0.66914254  0.00082587  0.83023920  1
  Te2-  Te188  1  0.66153976  0.31986465  0.15975595  1
  Te2-  Te189  1  0.67400193  0.33879678  0.50038165  1
  Te2-  Te190  1  0.66641518  0.33092111  0.83822548  1
  Te2-  Te191  1  0.66247220  0.66244837  0.16624172  1
  Te2-  Te192  1  0.67778841  0.66852383  0.49642023  1
  Te2-  Te193  1  0.67380474  0.66717121  0.82166257  1
  Pb2+  Pb194  1  -0.00439772  0.83042393  0.16754960  1
  Pb2+  Pb195  1  0.83616728  0.33216395  0.16646898  1
  Pb2+  Pb196  1  0.49925738  0.50930973  0.32956949  1
  Pb2+  Pb197  1  0.83712930  0.00208915  0.82767221  1
  Pb2+  Pb198  1  0.66689842  0.34037134  0.66987832  1
  Pb2+  Pb199  1  0.16730925  0.33325049  0.83180958  1
  Pb2+  Pb200  1  0.83380083  0.83753290  0.32755834  1
  Pb2+  Pb201  1  0.00435862  0.83300178  0.83367324  1
  Pb2+  Pb202  1  0.33728914  0.67270849  0.66584492  1
  Pb2+  Pb203  1  0.33822886  0.67162561  0.00001721  1
  Pb2+  Pb204  1  0.83039271  0.83101561  0.67271014  1
  Pb2+  Pb205  1  0.32099145  0.16447295  0.16950755  1
  Pb2+  Pb206  1  0.15862525  0.33069832  0.49103080  1
  Pb2+  Pb207  1  0.50578542  0.16868192  0.00081135  1
  Pb2+  Pb208  1  0.33146132  0.49872696  0.50415411  1
  Pb2+  Pb209  1  0.66497386  0.32996511  0.33232520  1
  Pb2+  Pb210  1  0.16425347  0.49786856  0.32454097  1
  Pb2+  Pb211  1  0.50391922  0.33997879  0.50409739  1
  Pb2+  Pb212  1  0.50114567  -0.01059937  0.82555045  1
  Pb2+  Pb213  1  0.50511769  -0.00387238  0.17434550  1
  Pb2+  Pb214  1  0.66947042  0.49288995  0.15592325  1
  Pb2+  Pb215  1  0.15788376  0.00134088  0.16484189  1
