# generated using pymatgen
data_In22Ag21Sn22Bi21(Te54Pb11)2
_symmetry_space_group_name_H-M   'P 1'
_cell_length_a   19.11585452
_cell_length_b   19.12419352
_cell_length_c   19.11419379
_cell_angle_alpha   90.00945077
_cell_angle_beta   90.01116870
_cell_angle_gamma   89.99289931
_symmetry_Int_Tables_number   1
_chemical_formula_structural   In22Ag21Sn22Bi21(Te54Pb11)2
_chemical_formula_sum   'In22 Ag21 Sn22 Bi21 Te108 Pb22'
_cell_volume   6987.67686936
_cell_formula_units_Z   1
loop_
 _symmetry_equiv_pos_site_id
 _symmetry_equiv_pos_as_xyz
  1  'x, y, z'
loop_
 _atom_type_symbol
 _atom_type_oxidation_number
  In3+  3.0
  Ag+  1.0
  Sn2+  2.0
  Bi3+  3.0
  Te2-  -2.0
  Pb2+  2.0
loop_
 _atom_site_type_symbol
 _atom_site_label
 _atom_site_symmetry_multiplicity
 _atom_site_fract_x
 _atom_site_fract_y
 _atom_site_fract_z
 _atom_site_occupancy
  In3+  In0  1  0.82485991  0.81955391  0.65957657  1
  In3+  In1  1  0.33543632  0.17762825  0.83609062  1
  In3+  In2  1  0.66800000  0.83164279  0.81580526  1
  In3+  In3  1  0.00064473  0.66236874  0.66381721  1
  In3+  In4  1  0.68974264  0.50299803  0.16485796  1
  In3+  In5  1  0.83241837  0.18955803  0.00783191  1
  In3+  In6  1  0.00503732  0.82988734  0.83431480  1
  In3+  In7  1  0.85479961  0.50257437  -0.00184666  1
  In3+  In8  1  0.35188294  0.66587366  0.65881141  1
  In3+  In9  1  0.00436996  0.66760008  0.00482744  1
  In3+  In10  1  0.65545348  0.16633931  0.82155474  1
  In3+  In11  1  0.32508462  0.33585881  0.00995161  1
  In3+  In12  1  0.16606728  0.66080228  0.82983008  1
  In3+  In13  1  0.00204179  0.49925109  0.83151268  1
  In3+  In14  1  0.01307051  0.31941739  0.00289575  1
  In3+  In15  1  0.34022815  0.49747399  0.17164532  1
  In3+  In16  1  0.52604930  0.50011732  0.65849727  1
  In3+  In17  1  0.17041943  0.66664298  0.13929982  1
  In3+  In18  1  0.33157367  0.49812567  0.51399622  1
  In3+  In19  1  0.81636838  0.66935218  0.50060082  1
  In3+  In20  1  0.63831542  0.82918095  0.49296893  1
  In3+  In21  1  0.18639140  0.17147432  0.34419137  1
  Ag+  Ag22  1  0.48988906  0.80947105  0.36007629  1
  Ag+  Ag23  1  0.64925246  -0.00397850  0.63732444  1
  Ag+  Ag24  1  0.16917399  0.03255580  0.18693243  1
  Ag+  Ag25  1  0.48781254  0.18827231  0.36144211  1
  Ag+  Ag26  1  0.84038869  0.51825956  0.66835391  1
  Ag+  Ag27  1  0.67024003  0.35132210  0.64089071  1
  Ag+  Ag28  1  0.02649859  0.14202192  0.17361466  1
  Ag+  Ag29  1  0.18907677  0.85000366  0.00227644  1
  Ag+  Ag30  1  0.47846730  0.66512427  0.18416729  1
  Ag+  Ag31  1  0.17945392  0.31357088  0.82782727  1
  Ag+  Ag32  1  0.66691345  0.19582601  0.53046959  1
  Ag+  Ag33  1  0.33819097  0.33843998  0.30923561  1
  Ag+  Ag34  1  0.65474421  0.65280247  0.66883000  1
  Ag+  Ag35  1  0.51533071  0.66378213  0.48258448  1
  Ag+  Ag36  1  0.47283302  0.14206325  0.01442617  1
  Ag+  Ag37  1  0.81001705  0.67112197  0.19884884  1
  Ag+  Ag38  1  0.83659095  0.30737878  0.18796515  1
  Ag+  Ag39  1  0.18630832  0.14668496  0.68119976  1
  Ag+  Ag40  1  0.15955287  0.48433605  -0.00348635  1
  Ag+  Ag41  1  0.33169901  0.86127815  0.52748644  1
  Ag+  Ag42  1  0.35460118  0.02649773  0.66860402  1
  Sn2+  Sn43  1  0.33438018  0.66232284  -0.00185437  1
  Sn2+  Sn44  1  0.17891838  0.83022007  0.32152854  1
  Sn2+  Sn45  1  0.15980164  0.48915075  0.67268951  1
  Sn2+  Sn46  1  0.15396770  0.33657517  0.16465809  1
  Sn2+  Sn47  1  0.00413591  0.16705284  0.83216627  1
  Sn2+  Sn48  1  0.82891377  0.00323690  0.83143646  1
  Sn2+  Sn49  1  0.32860596  0.84324613  0.82717790  1
  Sn2+  Sn50  1  0.66946625  0.66850648  -0.00627181  1
  Sn2+  Sn51  1  0.32846620  -0.00360358  -0.00798389  1
  Sn2+  Sn52  1  0.00280429  0.50022854  0.50006383  1
  Sn2+  Sn53  1  0.49877488  0.82837807  0.00615201  1
  Sn2+  Sn54  1  0.00406728  0.01319201  0.32738600  1
  Sn2+  Sn55  1  0.82208883  0.16833890  0.33159074  1
  Sn2+  Sn56  1  0.66113941  0.32327312  0.32748540  1
  Sn2+  Sn57  1  0.66863898  0.50190954  0.49587033  1
  Sn2+  Sn58  1  0.16907612  0.49397309  0.32151429  1
  Sn2+  Sn59  1  0.83023007  0.00051730  0.50714573  1
  Sn2+  Sn60  1  0.01380998  0.83068777  0.50234843  1
  Sn2+  Sn61  1  0.84433041  -0.00896021  0.16794263  1
  Sn2+  Sn62  1  0.33185813  0.66502559  0.33667282  1
  Sn2+  Sn63  1  0.00344194  0.83607864  0.16815043  1
  Sn2+  Sn64  1  0.00903857  0.67712981  0.33150973  1
  Bi3+  Bi65  1  0.66478281  0.33553952  -0.00066646  1
  Bi3+  Bi66  1  0.83420676  0.33261374  0.83304319  1
  Bi3+  Bi67  1  0.49855606  0.33653850  0.83372077  1
  Bi3+  Bi68  1  0.66495297  0.82608937  0.16614181  1
  Bi3+  Bi69  1  0.16843923  0.66525338  0.50371770  1
  Bi3+  Bi70  1  0.83135659  0.82707952  -0.00063178  1
  Bi3+  Bi71  1  0.50094250  0.83058915  0.67002471  1
  Bi3+  Bi72  1  0.66438430  -0.00112753  0.32892662  1
  Bi3+  Bi73  1  0.83573399  0.50203286  0.33726725  1
  Bi3+  Bi74  1  0.16532670  0.33349817  0.50727086  1
  Bi3+  Bi75  1  0.00474694  0.50337249  0.16569359  1
  Bi3+  Bi76  1  0.49279910  0.50036114  -0.00318970  1
  Bi3+  Bi77  1  0.33304076  0.83035063  0.16332749  1
  Bi3+  Bi78  1  0.83170965  0.16396576  0.67006481  1
  Bi3+  Bi79  1  0.32780628  0.50279434  0.83515992  1
  Bi3+  Bi80  1  0.83556712  0.66676935  0.83376890  1
  Bi3+  Bi81  1  -0.00203417  -0.00337902  0.66420811  1
  Bi3+  Bi82  1  0.66536212  0.17000256  0.16238352  1
  Bi3+  Bi83  1  0.33994174  0.17034064  0.50350745  1
  Bi3+  Bi84  1  0.16412363  -0.00223252  0.83177678  1
  Bi3+  Bi85  1  0.66729535  0.00194108  0.00229699  1
  Te2-  Te86  1  0.16810157  0.17929077  0.16971506  1
  Te2-  Te87  1  0.16597665  0.17179089  0.49711389  1
  Te2-  Te88  1  0.16408036  0.16669525  0.82631745  1
  Te2-  Te89  1  0.16549909  0.50025122  0.15285028  1
  Te2-  Te90  1  0.16889050  0.49802610  0.50083769  1
  Te2-  Te91  1  0.16157388  0.50415006  0.83985843  1
  Te2-  Te92  1  0.17064364  0.82175823  0.15390752  1
  Te2-  Te93  1  0.18328632  0.82739057  0.49626805  1
  Te2-  Te94  1  0.16523375  0.83426859  0.84562201  1
  Te2-  Te95  1  0.50392175  0.16953553  0.15582111  1
  Te2-  Te96  1  0.50781170  0.16856522  0.50525132  1
  Te2-  Te97  1  0.49211686  0.17435396  0.84243926  1
  Te2-  Te98  1  0.49070370  0.51235284  0.16101841  1
  Te2-  Te99  1  0.49685567  0.51280143  0.50690923  1
  Te2-  Te100  1  0.49555811  0.49888533  0.82974780  1
  Te2-  Te101  1  0.49984171  0.81776278  0.16377367  1
  Te2-  Te102  1  0.48438295  0.81856281  0.50692180  1
  Te2-  Te103  1  0.50273325  0.83373819  0.83318060  1
  Te2-  Te104  1  0.82781249  0.16144715  0.16137992  1
  Te2-  Te105  1  0.81687603  0.16738987  0.50120446  1
  Te2-  Te106  1  0.84421352  0.17046958  0.84060465  1
  Te2-  Te107  1  0.84058719  0.52229868  0.16938886  1
  Te2-  Te108  1  0.83372421  0.51119773  0.50322764  1
  Te2-  Te109  1  0.84122719  0.50019142  0.82578891  1
  Te2-  Te110  1  0.83135402  0.82103727  0.16611334  1
  Te2-  Te111  1  0.83986735  0.82494613  0.50633844  1
  Te2-  Te112  1  0.82735801  0.83036628  0.83164546  1
  Te2-  Te113  1  0.16869176  -0.00360716  -0.00608829  1
  Te2-  Te114  1  0.16732364  0.00573445  0.33169471  1
  Te2-  Te115  1  0.16064524  0.00243016  0.66819723  1
  Te2-  Te116  1  0.16649303  0.33535514  -0.00862445  1
  Te2-  Te117  1  0.17364664  0.32942132  0.33768775  1
  Te2-  Te118  1  0.16174176  0.33336389  0.67547117  1
  Te2-  Te119  1  0.16210074  0.66854626  -0.01287055  1
  Te2-  Te120  1  0.16880785  0.66395359  0.33954463  1
  Te2-  Te121  1  0.15631802  0.66440420  0.67147737  1
  Te2-  Te122  1  0.50069075  -0.00161820  -0.00037785  1
  Te2-  Te123  1  0.50214951  0.00282298  0.32954814  1
  Te2-  Te124  1  0.49922239  -0.00652859  0.66647716  1
  Te2-  Te125  1  0.49893534  0.33770892  -0.00420333  1
  Te2-  Te126  1  0.49260595  0.33240683  0.32831120  1
  Te2-  Te127  1  0.51773151  0.34281811  0.67109239  1
  Te2-  Te128  1  0.50155833  0.66211575  -0.00032123  1
  Te2-  Te129  1  0.49406137  0.66481370  0.33350536  1
  Te2-  Te130  1  0.50624955  0.66488963  0.66720783  1
  Te2-  Te131  1  0.83172427  -0.01022959  0.00209832  1
  Te2-  Te132  1  0.83201199  0.00053036  0.33153222  1
  Te2-  Te133  1  0.83637663  -0.00109158  0.66934622  1
  Te2-  Te134  1  0.82857814  0.34635488  -0.00496951  1
  Te2-  Te135  1  0.83094593  0.34041952  0.33225154  1
  Te2-  Te136  1  0.81771778  0.32537987  0.67120415  1
  Te2-  Te137  1  0.83664876  0.66400551  -0.00448981  1
  Te2-  Te138  1  0.83593483  0.66674927  0.34526886  1
  Te2-  Te139  1  0.83855324  0.66587079  0.66680065  1
  Te2-  Te140  1  -0.00808766  0.16819620  0.01217261  1
  Te2-  Te141  1  -0.01006291  0.16697886  0.31888065  1
  Te2-  Te142  1  -0.00666717  0.16273475  0.66210656  1
  Te2-  Te143  1  0.01059830  0.50880298  -0.00266974  1
  Te2-  Te144  1  0.00000890  0.50307150  0.33182240  1
  Te2-  Te145  1  -0.00842058  0.50192091  0.66797486  1
  Te2-  Te146  1  -0.00696623  0.82348518  -0.00228917  1
  Te2-  Te147  1  0.00630299  0.83485839  0.33502586  1
  Te2-  Te148  1  -0.00588547  0.83258690  0.67020811  1
  Te2-  Te149  1  0.33059610  0.17055355  -0.00717971  1
  Te2-  Te150  1  0.34078753  0.17344674  0.33983289  1
  Te2-  Te151  1  0.33119419  0.17178856  0.66648289  1
  Te2-  Te152  1  0.32661984  0.49787335  -0.00305920  1
  Te2-  Te153  1  0.32751395  0.49113071  0.32503868  1
  Te2-  Te154  1  0.32782213  0.50736687  0.67227406  1
  Te2-  Te155  1  0.33572733  0.82999464  -0.00266687  1
  Te2-  Te156  1  0.34186251  0.83037815  0.32399896  1
  Te2-  Te157  1  0.33260195  0.82082146  0.66942059  1
  Te2-  Te158  1  0.67507108  0.16823526  -0.00095513  1
  Te2-  Te159  1  0.66284297  0.16427156  0.32483981  1
  Te2-  Te160  1  0.66975810  0.14367758  0.66807249  1
  Te2-  Te161  1  0.65846016  0.50068172  0.00569678  1
  Te2-  Te162  1  0.67114880  0.49779424  0.32626962  1
  Te2-  Te163  1  0.67763250  0.50264223  0.66424051  1
  Te2-  Te164  1  0.66741404  0.83519566  0.00149291  1
  Te2-  Te165  1  0.65478923  0.83230031  0.33392760  1
  Te2-  Te166  1  0.66914612  0.84457857  0.66312909  1
  Te2-  Te167  1  0.01533993  -0.00460762  0.16743758  1
  Te2-  Te168  1  -0.00364249  -0.00336450  0.49909991  1
  Te2-  Te169  1  -0.00056010  -0.00159785  0.83043216  1
  Te2-  Te170  1  -0.01649947  0.34301074  0.15297051  1
  Te2-  Te171  1  0.00228060  0.33284109  0.49875647  1
  Te2-  Te172  1  -0.00258229  0.33792572  0.84522676  1
  Te2-  Te173  1  0.01269425  0.66643757  0.16334092  1
  Te2-  Te174  1  0.00622311  0.66729977  0.50542257  1
  Te2-  Te175  1  -0.00212632  0.66541859  0.83026802  1
  Te2-  Te176  1  0.32030620  -0.00423878  0.16042412  1
  Te2-  Te177  1  0.33378799  0.00839200  0.51196579  1
  Te2-  Te178  1  0.32788778  0.00344229  0.82118919  1
  Te2-  Te179  1  0.32935024  0.33838502  0.16404267  1
  Te2-  Te180  1  0.32896166  0.33720364  0.50295672  1
  Te2-  Te181  1  0.32721447  0.33658635  0.83696884  1
  Te2-  Te182  1  0.32892704  0.66341742  0.16407703  1
  Te2-  Te183  1  0.32895245  0.65252841  0.50564242  1
  Te2-  Te184  1  0.32300054  0.66567473  0.82903579  1
  Te2-  Te185  1  0.67084658  -0.00576047  0.16539752  1
  Te2-  Te186  1  0.67043071  -0.01612849  0.49145968  1
  Te2-  Te187  1  0.66943815  0.00083675  0.84189971  1
  Te2-  Te188  1  0.68406836  0.33700278  0.16153271  1
  Te2-  Te189  1  0.66375264  0.33906142  0.49305010  1
  Te2-  Te190  1  0.66645597  0.32993780  0.83752172  1
  Te2-  Te191  1  0.66684761  0.66443867  0.16339998  1
  Te2-  Te192  1  0.66283603  0.67368162  0.51264085  1
  Te2-  Te193  1  0.67214869  0.67062754  0.82167400  1
  Pb2+  Pb194  1  0.83262667  0.33767539  0.50323421  1
  Pb2+  Pb195  1  0.49791175  0.49890316  0.33281869  1
  Pb2+  Pb196  1  0.66235916  0.66494482  0.33409552  1
  Pb2+  Pb197  1  0.49517213  0.66803939  0.83493350  1
  Pb2+  Pb198  1  0.00014133  -0.00602075  -0.00046694  1
  Pb2+  Pb199  1  0.33569312  -0.00182704  0.33541139  1
  Pb2+  Pb200  1  0.33757616  0.16347758  0.16680831  1
  Pb2+  Pb201  1  0.16565443  -0.00226603  0.49952708  1
  Pb2+  Pb202  1  -0.01197718  0.16355976  0.49065314  1
  Pb2+  Pb203  1  0.16205082  0.16416811  -0.00304091  1
  Pb2+  Pb204  1  -0.00683802  0.33129763  0.67367542  1
  Pb2+  Pb205  1  0.33599173  0.33922435  0.66953835  1
  Pb2+  Pb206  1  0.00504166  0.33182950  0.32260968  1
  Pb2+  Pb207  1  0.16278454  0.83377862  0.67141283  1
  Pb2+  Pb208  1  0.50872635  0.33824433  0.16339909  1
  Pb2+  Pb209  1  0.49986171  0.00233628  0.83220134  1
  Pb2+  Pb210  1  0.83233814  0.83664359  0.33706496  1
  Pb2+  Pb211  1  0.50064531  -0.00356674  0.49482353  1
  Pb2+  Pb212  1  0.50386142  0.17060147  0.67157803  1
  Pb2+  Pb213  1  0.49657704  0.33838076  0.49869705  1
  Pb2+  Pb214  1  0.67180929  0.49881094  0.83662757  1
  Pb2+  Pb215  1  0.49586137  -0.00802688  0.16716715  1
