# generated using pymatgen
data_In22Ag21Sn22Bi21(Te54Pb11)2
_symmetry_space_group_name_H-M   'P 1'
_cell_length_a   19.13760913
_cell_length_b   19.11567577
_cell_length_c   19.11305652
_cell_angle_alpha   89.99436993
_cell_angle_beta   89.99979825
_cell_angle_gamma   89.99205741
_symmetry_Int_Tables_number   1
_chemical_formula_structural   In22Ag21Sn22Bi21(Te54Pb11)2
_chemical_formula_sum   'In22 Ag21 Sn22 Bi21 Te108 Pb22'
_cell_volume   6992.09746716
_cell_formula_units_Z   1
loop_
 _symmetry_equiv_pos_site_id
 _symmetry_equiv_pos_as_xyz
  1  'x, y, z'
loop_
 _atom_type_symbol
 _atom_type_oxidation_number
  In3+  3.0
  Ag+  1.0
  Sn2+  2.0
  Bi3+  3.0
  Te2-  -2.0
  Pb2+  2.0
loop_
 _atom_site_type_symbol
 _atom_site_label
 _atom_site_symmetry_multiplicity
 _atom_site_fract_x
 _atom_site_fract_y
 _atom_site_fract_z
 _atom_site_occupancy
  In3+  In0  1  0.32260371  0.83121276  0.83870953  1
  In3+  In1  1  0.17446723  0.66996796  0.18480458  1
  In3+  In2  1  0.00958194  0.51247662  0.16433945  1
  In3+  In3  1  0.66289904  0.49885397  0.83925347  1
  In3+  In4  1  0.66152305  0.66729051  0.33862279  1
  In3+  In5  1  0.66594233  0.48693525  0.51506396  1
  In3+  In6  1  0.82686348  0.33608436  0.82230762  1
  In3+  In7  1  0.67031153  0.69386330  -0.00528729  1
  In3+  In8  1  0.33534002  0.33805737  0.66785534  1
  In3+  In9  1  0.16441312  -0.01858826  0.16581938  1
  In3+  In10  1  0.16499205  0.34297315  0.81689153  1
  In3+  In11  1  0.33662094  0.84880016  0.16921354  1
  In3+  In12  1  0.31202985  0.49315191  0.49319550  1
  In3+  In13  1  0.16340365  0.32305821  0.50421833  1
  In3+  In14  1  0.47818303  0.18204715  0.66244906  1
  In3+  In15  1  0.01051554  0.67185316  0.67705165  1
  In3+  In16  1  0.66792157  0.67907806  0.66313884  1
  In3+  In17  1  0.66223991  0.51765908  0.16312592  1
  In3+  In18  1  0.48243152  0.84430272  0.66596813  1
  In3+  In19  1  0.83340051  0.49014269  0.00196210  1
  In3+  In20  1  0.67279135  0.83405449  0.83369524  1
  In3+  In21  1  0.31099039  0.67228648  0.00648348  1
  Ag+  Ag22  1  0.17214827  0.51748970  0.30747788  1
  Ag+  Ag23  1  0.69016646  -0.00186076  0.02134115  1
  Ag+  Ag24  1  0.52697781  0.30338235  0.83627698  1
  Ag+  Ag25  1  0.69021171  0.81761548  0.17146904  1
  Ag+  Ag26  1  0.14062780  0.68974491  0.83242852  1
  Ag+  Ag27  1  0.34792863  -0.02156238  0.00059296  1
  Ag+  Ag28  1  0.02814053  -0.03045869  0.66051216  1
  Ag+  Ag29  1  0.32933620  0.18766785  0.83139420  1
  Ag+  Ag30  1  0.16955070  0.51480401  0.67135433  1
  Ag+  Ag31  1  0.16019833  0.16775849  0.68280654  1
  Ag+  Ag32  1  0.80081782  0.31566735  0.50355036  1
  Ag+  Ag33  1  0.49131539  0.34066160  0.47957150  1
  Ag+  Ag34  1  0.17968746  0.83919676  0.66585861  1
  Ag+  Ag35  1  -0.01389316  0.81276034  0.17391458  1
  Ag+  Ag36  1  0.51695332  0.83034220  0.30659353  1
  Ag+  Ag37  1  0.80979883  0.84879218  0.31815186  1
  Ag+  Ag38  1  0.02262541  0.47807943  0.83710945  1
  Ag+  Ag39  1  0.01972265  0.83611091  0.81380950  1
  Ag+  Ag40  1  0.66772169  0.19139342  0.52952667  1
  Ag+  Ag41  1  0.16557386  0.80952747  0.30873227  1
  Ag+  Ag42  1  0.31115118  0.49513778  0.13800329  1
  Sn2+  Sn43  1  0.32679230  0.00719396  0.67915086  1
  Sn2+  Sn44  1  0.67037861  0.83587315  0.49288221  1
  Sn2+  Sn45  1  0.17227999  0.16663334  -0.00702689  1
  Sn2+  Sn46  1  0.83383725  0.00477779  0.83084997  1
  Sn2+  Sn47  1  0.33856302  0.33371727  0.33750981  1
  Sn2+  Sn48  1  0.33297161  0.17639584  0.14801895  1
  Sn2+  Sn49  1  0.01126720  0.15683082  0.83239037  1
  Sn2+  Sn50  1  0.83731071  0.83430749  0.66915595  1
  Sn2+  Sn51  1  0.33276397  0.50400089  0.83244577  1
  Sn2+  Sn52  1  0.16507817  0.49870479  -0.01584852  1
  Sn2+  Sn53  1  0.66709864  0.34063817  0.33476858  1
  Sn2+  Sn54  1  0.49440019  0.33221202  0.15740101  1
  Sn2+  Sn55  1  0.50277908  0.15648212  0.34524003  1
  Sn2+  Sn56  1  -0.00592668  0.67266833  -0.00588930  1
  Sn2+  Sn57  1  0.82641578  0.33700118  0.18142608  1
  Sn2+  Sn58  1  0.84568373  0.16793594  0.66353959  1
  Sn2+  Sn59  1  -0.00837016  0.16336308  0.50725494  1
  Sn2+  Sn60  1  0.00459682  0.34427513  0.00044242  1
  Sn2+  Sn61  1  0.83588758  0.83293051  0.00658375  1
  Sn2+  Sn62  1  0.16511431  -0.00531959  0.50656825  1
  Sn2+  Sn63  1  0.65946042  0.15942997  0.83245852  1
  Sn2+  Sn64  1  0.50116750  0.16431466  -0.00414942  1
  Bi3+  Bi65  1  0.49617322  0.00105025  0.83204914  1
  Bi3+  Bi66  1  0.83512002  0.16952912  -0.00429118  1
  Bi3+  Bi67  1  0.16645503  0.66698327  0.51527664  1
  Bi3+  Bi68  1  0.33140113  0.00029614  0.33150948  1
  Bi3+  Bi69  1  0.66612632  -0.00086035  0.66890376  1
  Bi3+  Bi70  1  0.16618148  0.00176595  0.83488153  1
  Bi3+  Bi71  1  0.83388884  0.66562906  0.49870155  1
  Bi3+  Bi72  1  0.82984832  0.16532573  0.33391955  1
  Bi3+  Bi73  1  0.50510298  0.66555314  0.83340146  1
  Bi3+  Bi74  1  0.17016924  0.17030519  0.33253762  1
  Bi3+  Bi75  1  0.00283166  0.33414891  0.33409392  1
  Bi3+  Bi76  1  0.33242901  0.66648245  0.33488124  1
  Bi3+  Bi77  1  0.49889822  0.49883930  0.66840902  1
  Bi3+  Bi78  1  -0.00168929  -0.00081914  -0.00616372  1
  Bi3+  Bi79  1  0.49850595  0.00167680  0.50084149  1
  Bi3+  Bi80  1  0.00005183  0.33423814  0.66735295  1
  Bi3+  Bi81  1  0.83413676  0.66470004  0.83119457  1
  Bi3+  Bi82  1  0.00246936  0.66747844  0.33406191  1
  Bi3+  Bi83  1  0.00436365  0.17063325  0.16846796  1
  Bi3+  Bi84  1  0.83682630  0.49961968  0.66980641  1
  Bi3+  Bi85  1  0.66425768  0.16456901  0.16594218  1
  Te2-  Te86  1  0.16661240  0.17004400  0.16853924  1
  Te2-  Te87  1  0.16637989  0.16818789  0.49285657  1
  Te2-  Te88  1  0.17569810  0.16304966  0.83279111  1
  Te2-  Te89  1  0.16362158  0.50372238  0.15928858  1
  Te2-  Te90  1  0.16426747  0.50063541  0.52260174  1
  Te2-  Te91  1  0.16885149  0.49504397  0.82057822  1
  Te2-  Te92  1  0.17562197  0.82467683  0.16097219  1
  Te2-  Te93  1  0.16617488  0.83142424  0.51740814  1
  Te2-  Te94  1  0.16853068  0.83658618  0.81803960  1
  Te2-  Te95  1  0.49897914  0.17245476  0.16629203  1
  Te2-  Te96  1  0.50954290  0.16692285  0.50855075  1
  Te2-  Te97  1  0.48652532  0.16133149  0.82447420  1
  Te2-  Te98  1  0.50905075  0.49889073  0.16862580  1
  Te2-  Te99  1  0.51065818  0.48987882  0.50414979  1
  Te2-  Te100  1  0.50164225  0.50253270  0.82992011  1
  Te2-  Te101  1  0.48891547  0.83561853  0.16223429  1
  Te2-  Te102  1  0.50102015  0.83397317  0.51349074  1
  Te2-  Te103  1  0.51046935  0.83210799  0.82408178  1
  Te2-  Te104  1  0.83557072  0.16965246  0.16673989  1
  Te2-  Te105  1  0.82026194  0.17019932  0.49520785  1
  Te2-  Te106  1  0.83690646  0.17633983  0.83415386  1
  Te2-  Te107  1  0.83515702  0.49639083  0.16131932  1
  Te2-  Te108  1  0.82455112  0.50224728  0.50261083  1
  Te2-  Te109  1  0.82616082  0.49844514  0.83308315  1
  Te2-  Te110  1  0.83828229  0.83406724  0.17306676  1
  Te2-  Te111  1  0.83095946  0.82772443  0.50013649  1
  Te2-  Te112  1  0.82485154  0.82902915  0.83804438  1
  Te2-  Te113  1  0.16040520  -0.00009748  0.00084368  1
  Te2-  Te114  1  0.17161806  0.00610372  0.33641595  1
  Te2-  Te115  1  0.16820004  0.01366783  0.66954279  1
  Te2-  Te116  1  0.16313979  0.33403800  -0.00253129  1
  Te2-  Te117  1  0.16844229  0.33334148  0.34513533  1
  Te2-  Te118  1  0.16603629  0.32043031  0.66219478  1
  Te2-  Te119  1  0.16288586  0.66243925  -0.01918831  1
  Te2-  Te120  1  0.16749819  0.66084844  0.34756720  1
  Te2-  Te121  1  0.16427381  0.66440361  0.67995978  1
  Te2-  Te122  1  0.49319372  0.00426022  -0.00551359  1
  Te2-  Te123  1  0.49193818  -0.01574115  0.33821002  1
  Te2-  Te124  1  0.49910934  0.00341216  0.66742048  1
  Te2-  Te125  1  0.49921206  0.32715134  -0.01429059  1
  Te2-  Te126  1  0.49560605  0.32963375  0.33163654  1
  Te2-  Te127  1  0.49441139  0.33367214  0.68729540  1
  Te2-  Te128  1  0.51681619  0.66582177  -0.00392395  1
  Te2-  Te129  1  0.49534083  0.67988870  0.33404978  1
  Te2-  Te130  1  0.50599544  0.66331200  0.66981744  1
  Te2-  Te131  1  0.83478800  0.00527336  -0.00558681  1
  Te2-  Te132  1  0.83710413  -0.00418770  0.33614424  1
  Te2-  Te133  1  0.82883709  0.00292045  0.67296830  1
  Te2-  Te134  1  0.83821119  0.33271482  -0.00287374  1
  Te2-  Te135  1  0.83807951  0.33048593  0.34951539  1
  Te2-  Te136  1  0.83409590  0.33582320  0.65482344  1
  Te2-  Te137  1  0.82738033  0.66325490  -0.00461875  1
  Te2-  Te138  1  0.84042855  0.66855872  0.33480785  1
  Te2-  Te139  1  0.83010302  0.66260456  0.66521566  1
  Te2-  Te140  1  -0.00155368  0.16589549  0.00254375  1
  Te2-  Te141  1  -0.00250294  0.16808364  0.33415688  1
  Te2-  Te142  1  0.00622793  0.17188147  0.66796432  1
  Te2-  Te143  1  -0.00691542  0.50327448  -0.01268819  1
  Te2-  Te144  1  0.01373187  0.49941924  0.32691433  1
  Te2-  Te145  1  -0.00272980  0.49770605  0.68362752  1
  Te2-  Te146  1  -0.00545154  0.83848032  0.01888271  1
  Te2-  Te147  1  0.01713072  0.82754874  0.32380232  1
  Te2-  Te148  1  -0.00703375  0.82721455  0.66833739  1
  Te2-  Te149  1  0.33181273  0.16588784  -0.00931764  1
  Te2-  Te150  1  0.33614177  0.16442723  0.32651478  1
  Te2-  Te151  1  0.32742210  0.16834095  0.67370511  1
  Te2-  Te152  1  0.33370025  0.50922074  -0.00682302  1
  Te2-  Te153  1  0.32296240  0.50307229  0.34024052  1
  Te2-  Te154  1  0.33619680  0.49386181  0.66265093  1
  Te2-  Te155  1  0.32955282  0.83141299  0.00530111  1
  Te2-  Te156  1  0.31646784  0.83226706  0.32442599  1
  Te2-  Te157  1  0.32906346  0.83398732  0.67216105  1
  Te2-  Te158  1  0.67123643  0.15437487  -0.00090831  1
  Te2-  Te159  1  0.66724741  0.16714388  0.32876362  1
  Te2-  Te160  1  0.67483384  0.16221693  0.67468489  1
  Te2-  Te161  1  0.67681118  0.49408762  0.00673107  1
  Te2-  Te162  1  0.66716685  0.51026782  0.32046393  1
  Te2-  Te163  1  0.66743429  0.50087480  0.67033997  1
  Te2-  Te164  1  0.67170748  0.84570845  0.01410482  1
  Te2-  Te165  1  0.66583158  0.82295546  0.32510645  1
  Te2-  Te166  1  0.67134694  0.83521345  0.66700305  1
  Te2-  Te167  1  0.01015990  0.00814100  0.16293985  1
  Te2-  Te168  1  0.00179045  0.00309849  0.51501056  1
  Te2-  Te169  1  0.00199072  -0.00998704  0.83054483  1
  Te2-  Te170  1  -0.00432572  0.33454642  0.17123240  1
  Te2-  Te171  1  0.00661925  0.33078097  0.49972110  1
  Te2-  Te172  1  0.00920893  0.32966660  0.82978029  1
  Te2-  Te173  1  0.01120539  0.66646232  0.16615509  1
  Te2-  Te174  1  0.00047027  0.66235321  0.50246924  1
  Te2-  Te175  1  -0.00733364  0.68376450  0.83333029  1
  Te2-  Te176  1  0.32395204  0.00523758  0.16054489  1
  Te2-  Te177  1  0.33618528  0.00223026  0.50169645  1
  Te2-  Te178  1  0.33198373  -0.01365955  0.84640828  1
  Te2-  Te179  1  0.33552362  0.34699318  0.16601735  1
  Te2-  Te180  1  0.34545184  0.33707127  0.50757312  1
  Te2-  Te181  1  0.31980311  0.33513414  0.82421703  1
  Te2-  Te182  1  0.32535557  0.64740602  0.16691436  1
  Te2-  Te183  1  0.33126035  0.66177296  0.50182748  1
  Te2-  Te184  1  0.34358658  0.67574451  0.84470422  1
  Te2-  Te185  1  0.66353795  0.00257980  0.16730578  1
  Te2-  Te186  1  0.66046156  -0.00273904  0.50334211  1
  Te2-  Te187  1  0.66163815  -0.00661320  0.83119795  1
  Te2-  Te188  1  0.66533777  0.32659832  0.17226492  1
  Te2-  Te189  1  0.65342246  0.33339002  0.49544390  1
  Te2-  Te190  1  0.67200648  0.33275145  0.83456572  1
  Te2-  Te191  1  0.66731146  0.67197123  0.15952665  1
  Te2-  Te192  1  0.67082496  0.66468107  0.49489269  1
  Te2-  Te193  1  0.66982131  0.66816531  0.83439440  1
  Pb2+  Pb194  1  0.49484348  0.50105176  0.33566353  1
  Pb2+  Pb195  1  0.50086760  0.83572008  -0.00790616  1
  Pb2+  Pb196  1  0.83059822  0.00175681  0.50538988  1
  Pb2+  Pb197  1  0.83672800  0.66750906  0.16525868  1
  Pb2+  Pb198  1  0.83490724  -0.00038911  0.16568508  1
  Pb2+  Pb199  1  0.50198784  0.66141872  0.50107138  1
  Pb2+  Pb200  1  0.00548068  -0.00641676  0.33579431  1
  Pb2+  Pb201  1  0.66749887  0.32664920  0.00444428  1
  Pb2+  Pb202  1  0.33618833  0.17055568  0.49882581  1
  Pb2+  Pb203  1  0.50348567  0.49669512  0.00059104  1
  Pb2+  Pb204  1  0.49591466  0.00458151  0.16504531  1
  Pb2+  Pb205  1  0.66203556  0.32998570  0.66688817  1
  Pb2+  Pb206  1  0.33183620  0.83396395  0.49361348  1
  Pb2+  Pb207  1  0.15826671  0.83133525  -0.00968814  1
  Pb2+  Pb208  1  0.33361565  0.66387364  0.67606622  1
  Pb2+  Pb209  1  0.33094950  0.33208545  -0.00499318  1
  Pb2+  Pb210  1  -0.00287895  0.49673205  0.50714236  1
  Pb2+  Pb211  1  0.16598263  0.33550525  0.17022211  1
  Pb2+  Pb212  1  0.00099127  0.83271802  0.49256238  1
  Pb2+  Pb213  1  0.66467236  -0.00292116  0.33268102  1
  Pb2+  Pb214  1  0.49407744  0.66873329  0.16587666  1
  Pb2+  Pb215  1  0.83912351  0.50195479  0.33245315  1
