# generated using pymatgen
data_In22Ag21Sn22Bi21(Te54Pb11)2
_symmetry_space_group_name_H-M   'P 1'
_cell_length_a   19.14927637
_cell_length_b   19.17939621
_cell_length_c   19.15203220
_cell_angle_alpha   90.00577641
_cell_angle_beta   90.00621693
_cell_angle_gamma   90.02774396
_symmetry_Int_Tables_number   1
_chemical_formula_structural   In22Ag21Sn22Bi21(Te54Pb11)2
_chemical_formula_sum   'In22 Ag21 Sn22 Bi21 Te108 Pb22'
_cell_volume   7033.99581407
_cell_formula_units_Z   1
loop_
 _symmetry_equiv_pos_site_id
 _symmetry_equiv_pos_as_xyz
  1  'x, y, z'
loop_
 _atom_type_symbol
 _atom_type_oxidation_number
  In3+  3.0
  Ag+  1.0
  Sn2+  2.0
  Bi3+  3.0
  Te2-  -2.0
  Pb2+  2.0
loop_
 _atom_site_type_symbol
 _atom_site_label
 _atom_site_symmetry_multiplicity
 _atom_site_fract_x
 _atom_site_fract_y
 _atom_site_fract_z
 _atom_site_occupancy
  In3+  In0  1  0.16837025  0.64750945  0.15584318  1
  In3+  In1  1  0.00726817  0.82224398  0.49308547  1
  In3+  In2  1  0.00820040  0.17481906  0.49618882  1
  In3+  In3  1  0.01727904  0.32415046  0.33211604  1
  In3+  In4  1  0.31910655  0.34535807  0.66893318  1
  In3+  In5  1  0.33626667  0.16630626  0.17195806  1
  In3+  In6  1  0.00805607  0.17439628  0.83903452  1
  In3+  In7  1  0.16541758  0.81173092  0.67053065  1
  In3+  In8  1  0.49823431  0.16952262  0.65705112  1
  In3+  In9  1  0.66194901  0.01412846  0.32039646  1
  In3+  In10  1  0.82315670  0.81494589  0.66709899  1
  In3+  In11  1  0.65687140  0.00116452  -0.01297008  1
  In3+  In12  1  0.83920188  0.66799041  0.47619411  1
  In3+  In13  1  0.67380810  0.33580362  0.67387599  1
  In3+  In14  1  0.47940423  0.82931103  0.01471519  1
  In3+  In15  1  0.00208719  0.82211414  0.14453228  1
  In3+  In16  1  0.01050142  0.34161900  0.00035250  1
  In3+  In17  1  0.65023300  0.66224470  0.66515652  1
  In3+  In18  1  0.83730857  0.82582862  0.01656466  1
  In3+  In19  1  0.17982212  0.16017159  0.00358189  1
  In3+  In20  1  0.17551785  -0.00351900  0.52138942  1
  In3+  In21  1  0.17747715  0.34063135  0.15888223  1
  Ag+  Ag22  1  0.35686346  0.68846477  0.31559817  1
  Ag+  Ag23  1  0.36331544  0.63274701  0.03120754  1
  Ag+  Ag24  1  0.16698962  0.50954186  0.64870859  1
  Ag+  Ag25  1  0.86157555  0.31030899  0.16698270  1
  Ag+  Ag26  1  0.31012812  0.36484088  0.30814102  1
  Ag+  Ag27  1  0.33119665  0.52103637  0.13256259  1
  Ag+  Ag28  1  0.18506147  0.52094999  -0.01207785  1
  Ag+  Ag29  1  0.18443629  0.35479120  0.51664816  1
  Ag+  Ag30  1  0.64317303  0.51918356  0.80530970  1
  Ag+  Ag31  1  0.30698432  0.35875068  0.02785183  1
  Ag+  Ag32  1  0.18524112  0.81051098  0.02507757  1
  Ag+  Ag33  1  0.64156251  0.15592760  0.16307229  1
  Ag+  Ag34  1  0.02564087  0.66583919  0.31499601  1
  Ag+  Ag35  1  0.02162149  0.63872834  0.01942586  1
  Ag+  Ag36  1  0.48774500  0.16633702  0.31862268  1
  Ag+  Ag37  1  0.47150059  0.79935320  0.30772232  1
  Ag+  Ag38  1  0.66686598  0.02984482  0.66986733  1
  Ag+  Ag39  1  0.30823152  -0.02406118  0.01194655  1
  Ag+  Ag40  1  0.80642556  0.65564380  0.15751764  1
  Ag+  Ag41  1  0.31136658  0.64558352  0.66720071  1
  Ag+  Ag42  1  0.30915829  0.53035009  0.83404771  1
  Sn2+  Sn43  1  0.48848371  0.33538456  0.49445324  1
  Sn2+  Sn44  1  0.17048319  -0.00457426  0.83320703  1
  Sn2+  Sn45  1  0.33751680  0.00058605  0.67793292  1
  Sn2+  Sn46  1  0.49196807  0.16395655  -0.00184783  1
  Sn2+  Sn47  1  0.17924754  0.16759092  0.33271343  1
  Sn2+  Sn48  1  0.48788968  0.48344724  0.33030896  1
  Sn2+  Sn49  1  0.16860880  0.66566963  0.49393311  1
  Sn2+  Sn50  1  0.00655420  0.50396995  0.49684117  1
  Sn2+  Sn51  1  0.16899170  0.17482859  0.66479071  1
  Sn2+  Sn52  1  0.00467125  0.66432556  0.67631709  1
  Sn2+  Sn53  1  0.83094950  0.33822247  0.84963816  1
  Sn2+  Sn54  1  0.83104768  0.00273172  0.16283630  1
  Sn2+  Sn55  1  -0.00356567  0.33520647  0.66298274  1
  Sn2+  Sn56  1  0.17249492  0.66075192  0.84514540  1
  Sn2+  Sn57  1  0.83957780  0.66646076  0.84286035  1
  Sn2+  Sn58  1  0.66288407  0.49278473  0.16518162  1
  Sn2+  Sn59  1  0.66590135  0.67564138  0.33458460  1
  Sn2+  Sn60  1  0.33732797  0.82507564  0.49873285  1
  Sn2+  Sn61  1  -0.01099804  -0.00028097  0.66186745  1
  Sn2+  Sn62  1  0.66572011  0.82753310  0.83843529  1
  Sn2+  Sn63  1  0.49293054  0.67086095  0.49782487  1
  Sn2+  Sn64  1  0.83340724  0.33712967  0.48647445  1
  Bi3+  Bi65  1  0.50156180  -0.00207454  0.83003870  1
  Bi3+  Bi66  1  0.83439176  0.00024078  0.83203754  1
  Bi3+  Bi67  1  0.50456766  0.00023082  0.50059683  1
  Bi3+  Bi68  1  0.50041305  0.33444637  0.16744817  1
  Bi3+  Bi69  1  0.82935432  0.50231916  0.33049494  1
  Bi3+  Bi70  1  0.83288145  -0.00026254  0.50391616  1
  Bi3+  Bi71  1  0.00380963  0.16588820  0.16617325  1
  Bi3+  Bi72  1  0.83838442  0.16789830  0.66633567  1
  Bi3+  Bi73  1  0.66632079  0.33649466  0.33170370  1
  Bi3+  Bi74  1  0.16438888  0.00629452  0.16920080  1
  Bi3+  Bi75  1  0.50341191  0.33012747  0.83096842  1
  Bi3+  Bi76  1  0.00187200  0.00496369  -0.00046790  1
  Bi3+  Bi77  1  0.83004661  0.83344065  0.33889016  1
  Bi3+  Bi78  1  0.33132242  0.16274323  0.50089529  1
  Bi3+  Bi79  1  0.83035052  0.50288618  0.00445648  1
  Bi3+  Bi80  1  0.66838575  0.83056100  0.50040623  1
  Bi3+  Bi81  1  0.33135962  0.83557802  0.82832517  1
  Bi3+  Bi82  1  0.66956292  0.49747700  0.49903166  1
  Bi3+  Bi83  1  -0.00216579  0.83770340  0.82655167  1
  Bi3+  Bi84  1  0.66846889  0.33077941  0.00424777  1
  Bi3+  Bi85  1  0.33199570  0.16495687  0.83463798  1
  Te2-  Te86  1  0.16714905  0.17023094  0.16487625  1
  Te2-  Te87  1  0.16419478  0.15488770  0.49929991  1
  Te2-  Te88  1  0.16633635  0.16690302  0.83614934  1
  Te2-  Te89  1  0.18118007  0.49366370  0.15727340  1
  Te2-  Te90  1  0.16414654  0.49829666  0.50049146  1
  Te2-  Te91  1  0.16562831  0.50077111  0.84198031  1
  Te2-  Te92  1  0.15547756  0.84350226  0.16494651  1
  Te2-  Te93  1  0.16378012  0.84143288  0.50705356  1
  Te2-  Te94  1  0.16369148  0.83559567  0.82561978  1
  Te2-  Te95  1  0.49365137  0.16997350  0.16924521  1
  Te2-  Te96  1  0.49837021  0.16487471  0.50181765  1
  Te2-  Te97  1  0.49919049  0.16226377  0.83003167  1
  Te2-  Te98  1  0.48300910  0.49421339  0.16616099  1
  Te2-  Te99  1  0.50692671  0.49873191  0.50059821  1
  Te2-  Te100  1  0.50198051  0.49243731  0.83125591  1
  Te2-  Te101  1  0.50017632  0.83588539  0.16855919  1
  Te2-  Te102  1  0.50607827  0.83809455  0.49524994  1
  Te2-  Te103  1  0.50020133  0.83698176  0.82959401  1
  Te2-  Te104  1  0.84216757  0.16364350  0.16715555  1
  Te2-  Te105  1  0.83935928  0.16545455  0.50291312  1
  Te2-  Te106  1  0.83809991  0.16609309  0.83051672  1
  Te2-  Te107  1  0.83135568  0.51100526  0.16805164  1
  Te2-  Te108  1  0.83205943  0.50255244  0.49756800  1
  Te2-  Te109  1  0.83522771  0.49704962  0.84118947  1
  Te2-  Te110  1  0.84342047  0.83389452  0.17240893  1
  Te2-  Te111  1  0.83374551  0.83394603  0.50563635  1
  Te2-  Te112  1  0.83355545  0.83758330  0.82387338  1
  Te2-  Te113  1  0.16338392  0.00411478  0.00236425  1
  Te2-  Te114  1  0.16501375  -0.00002229  0.33041776  1
  Te2-  Te115  1  0.16330459  0.00826670  0.67005212  1
  Te2-  Te116  1  0.16532636  0.32662219  0.00420679  1
  Te2-  Te117  1  0.17134934  0.32858189  0.33799859  1
  Te2-  Te118  1  0.16462317  0.33209020  0.66127728  1
  Te2-  Te119  1  0.16483829  0.66762017  0.00545879  1
  Te2-  Te120  1  0.16997926  0.66534425  0.34152213  1
  Te2-  Te121  1  0.16325724  0.66078218  0.66478846  1
  Te2-  Te122  1  0.50621873  -0.00748040  -0.00460674  1
  Te2-  Te123  1  0.50766813  0.01224535  0.33903603  1
  Te2-  Te124  1  0.51145269  0.00736098  0.66629950  1
  Te2-  Te125  1  0.50534401  0.32589001  -0.00156156  1
  Te2-  Te126  1  0.50340668  0.32218836  0.33334579  1
  Te2-  Te127  1  0.51302668  0.32518260  0.66597022  1
  Te2-  Te128  1  0.49914437  0.67639942  -0.00074970  1
  Te2-  Te129  1  0.49914971  0.66002373  0.34138679  1
  Te2-  Te130  1  0.49853795  0.66526410  0.66364481  1
  Te2-  Te131  1  0.83978864  -0.00438477  -0.00512968  1
  Te2-  Te132  1  0.82782162  -0.00217186  0.33960338  1
  Te2-  Te133  1  0.82200523  0.00512354  0.66854414  1
  Te2-  Te134  1  0.83151533  0.33701017  0.01668558  1
  Te2-  Te135  1  0.83168582  0.34090002  0.31855429  1
  Te2-  Te136  1  0.83283136  0.33196715  0.66617238  1
  Te2-  Te137  1  0.83666625  0.67134102  0.01027403  1
  Te2-  Te138  1  0.82653736  0.66935938  0.32375880  1
  Te2-  Te139  1  0.84253151  0.66601401  0.67536475  1
  Te2-  Te140  1  0.00485137  0.17040493  0.00064220  1
  Te2-  Te141  1  0.00385768  0.16665155  0.33304948  1
  Te2-  Te142  1  0.00014912  0.17006847  0.66502525  1
  Te2-  Te143  1  -0.00491718  0.49521358  0.00521962  1
  Te2-  Te144  1  -0.00726639  0.51756477  0.33681817  1
  Te2-  Te145  1  0.01275028  0.49281405  0.66345996  1
  Te2-  Te146  1  -0.00568896  0.84082556  -0.00802996  1
  Te2-  Te147  1  -0.00741795  0.81709296  0.34111454  1
  Te2-  Te148  1  0.00761320  0.83725343  0.66621790  1
  Te2-  Te149  1  0.33285325  0.17309332  -0.00403402  1
  Te2-  Te150  1  0.33979416  0.16737658  0.33846793  1
  Te2-  Te151  1  0.33687507  0.16136723  0.66680004  1
  Te2-  Te152  1  0.33067512  0.49713903  -0.01642101  1
  Te2-  Te153  1  0.33620997  0.50231050  0.34083369  1
  Te2-  Te154  1  0.31900569  0.49787039  0.67703075  1
  Te2-  Te155  1  0.32735028  0.83227617  -0.00779470  1
  Te2-  Te156  1  0.33282027  0.83343661  0.33744050  1
  Te2-  Te157  1  0.32311659  0.84292675  0.66693330  1
  Te2-  Te158  1  0.66461556  0.16295998  0.01110114  1
  Te2-  Te159  1  0.66639812  0.16883055  0.32241768  1
  Te2-  Te160  1  0.67304876  0.17855411  0.66555954  1
  Te2-  Te161  1  0.66809282  0.49661842  0.00484691  1
  Te2-  Te162  1  0.66487368  0.50174985  0.33435005  1
  Te2-  Te163  1  0.67083436  0.49755546  0.66311844  1
  Te2-  Te164  1  0.67950171  0.84054630  -0.00095672  1
  Te2-  Te165  1  0.66885164  0.83999730  0.33841640  1
  Te2-  Te166  1  0.66883455  0.81984704  0.66501448  1
  Te2-  Te167  1  -0.00108457  0.00223361  0.16524317  1
  Te2-  Te168  1  -0.00539418  -0.00231335  0.50189924  1
  Te2-  Te169  1  -0.00129154  0.00469869  0.83357836  1
  Te2-  Te170  1  0.00839165  0.33043954  0.17279178  1
  Te2-  Te171  1  -0.00388685  0.32950478  0.48751010  1
  Te2-  Te172  1  -0.00071403  0.32884162  0.83939866  1
  Te2-  Te173  1  0.01437415  0.67147178  0.16480805  1
  Te2-  Te174  1  -0.00483915  0.67148144  0.50996946  1
  Te2-  Te175  1  -0.00097837  0.67728433  0.84078197  1
  Te2-  Te176  1  0.32953941  0.00807897  0.15637404  1
  Te2-  Te177  1  0.33593291  -0.00058817  0.50535168  1
  Te2-  Te178  1  0.33822433  0.00225887  0.84551526  1
  Te2-  Te179  1  0.33298784  0.32192095  0.16857661  1
  Te2-  Te180  1  0.32950989  0.32410845  0.51184324  1
  Te2-  Te181  1  0.34151821  0.32497420  0.82103294  1
  Te2-  Te182  1  0.31994359  0.66863278  0.16996861  1
  Te2-  Te183  1  0.33246307  0.67033158  0.51692365  1
  Te2-  Te184  1  0.32846926  0.67622710  0.81915641  1
  Te2-  Te185  1  0.67066160  0.00838169  0.16536846  1
  Te2-  Te186  1  0.66907040  -0.00483282  0.51850679  1
  Te2-  Te187  1  0.66835120  -0.00089706  0.82756722  1
  Te2-  Te188  1  0.66160074  0.33286807  0.16809087  1
  Te2-  Te189  1  0.66776132  0.33428392  0.49372972  1
  Te2-  Te190  1  0.66873162  0.33555894  0.83847343  1
  Te2-  Te191  1  0.66056822  0.66675167  0.16801377  1
  Te2-  Te192  1  0.67173027  0.66456871  0.50619554  1
  Te2-  Te193  1  0.66994238  0.66291398  0.82504637  1
  Pb2+  Pb194  1  0.84234633  0.50125552  0.66906565  1
  Pb2+  Pb195  1  0.49986619  0.00306960  0.16833291  1
  Pb2+  Pb196  1  0.00034883  0.50031033  0.17197790  1
  Pb2+  Pb197  1  0.00306425  0.50643919  0.83335143  1
  Pb2+  Pb198  1  0.49541605  0.83555994  0.66183465  1
  Pb2+  Pb199  1  0.33403135  0.50186806  0.50373448  1
  Pb2+  Pb200  1  0.17254536  0.33655134  0.83418139  1
  Pb2+  Pb201  1  0.67260194  0.83509110  0.16892686  1
  Pb2+  Pb202  1  0.16765765  0.49879545  0.33025919  1
  Pb2+  Pb203  1  0.16245569  0.82909326  0.33415729  1
  Pb2+  Pb204  1  0.83399066  0.16740858  0.00030354  1
  Pb2+  Pb205  1  0.83306888  0.17299741  0.33339959  1
  Pb2+  Pb206  1  0.49347646  0.66398085  0.83223272  1
  Pb2+  Pb207  1  0.67010099  0.66795772  -0.00295065  1
  Pb2+  Pb208  1  0.48978373  0.49404813  0.66729308  1
  Pb2+  Pb209  1  0.33535321  0.00194991  0.33339681  1
  Pb2+  Pb210  1  -0.00236641  -0.00972235  0.33514514  1
  Pb2+  Pb211  1  0.49341035  0.49473390  -0.00219894  1
  Pb2+  Pb212  1  0.32448028  0.83662300  0.16410882  1
  Pb2+  Pb213  1  0.66771291  0.16878932  0.84000462  1
  Pb2+  Pb214  1  0.49429359  0.66051038  0.17186595  1
  Pb2+  Pb215  1  0.66713022  0.16242541  0.49298227  1
