# generated using pymatgen
data_In22Ag21Sn22Bi21(Te54Pb11)2
_symmetry_space_group_name_H-M   'P 1'
_cell_length_a   19.14823481
_cell_length_b   19.13882674
_cell_length_c   19.13296806
_cell_angle_alpha   89.99168363
_cell_angle_beta   90.00214975
_cell_angle_gamma   89.98946848
_symmetry_Int_Tables_number   1
_chemical_formula_structural   In22Ag21Sn22Bi21(Te54Pb11)2
_chemical_formula_sum   'In22 Ag21 Sn22 Bi21 Te108 Pb22'
_cell_volume   7011.74945820
_cell_formula_units_Z   1
loop_
 _symmetry_equiv_pos_site_id
 _symmetry_equiv_pos_as_xyz
  1  'x, y, z'
loop_
 _atom_type_symbol
 _atom_type_oxidation_number
  In3+  3.0
  Ag+  1.0
  Sn2+  2.0
  Bi3+  3.0
  Te2-  -2.0
  Pb2+  2.0
loop_
 _atom_site_type_symbol
 _atom_site_label
 _atom_site_symmetry_multiplicity
 _atom_site_fract_x
 _atom_site_fract_y
 _atom_site_fract_z
 _atom_site_occupancy
  In3+  In0  1  0.49370118  0.00437637  0.15168594  1
  In3+  In1  1  -0.00085127  0.49732576  0.83120106  1
  In3+  In2  1  0.50422521  0.83435122  0.32802547  1
  In3+  In3  1  0.65679982  0.33725141  0.00055798  1
  In3+  In4  1  0.49946462  0.48742409  0.33452923  1
  In3+  In5  1  0.66574606  -0.00115286  0.33461063  1
  In3+  In6  1  0.82633377  0.83180992  0.65382576  1
  In3+  In7  1  0.17693129  0.33282315  0.80552333  1
  In3+  In8  1  0.66794799  0.33564633  0.35749517  1
  In3+  In9  1  0.18742352  0.00253476  0.17785054  1
  In3+  In10  1  0.49562777  0.66405903  0.17573863  1
  In3+  In11  1  0.17059201  0.02830944  0.50597590  1
  In3+  In12  1  0.66662115  0.50162138  0.51577202  1
  In3+  In13  1  0.50382512  0.67138089  0.51818908  1
  In3+  In14  1  0.17874560  0.49766546  0.66123865  1
  In3+  In15  1  0.47356502  0.51539867  -0.00040374  1
  In3+  In16  1  0.32201630  0.50256747  0.82307737  1
  In3+  In17  1  0.00012736  0.00662476  0.00357923  1
  In3+  In18  1  0.01028315  0.67358669  0.32190540  1
  In3+  In19  1  0.01701513  0.49945415  0.50992013  1
  In3+  In20  1  0.33275932  0.81586363  0.50196881  1
  In3+  In21  1  0.83712975  0.50781639  0.33725606  1
  Ag+  Ag22  1  0.30621129  0.33655811  0.63565548  1
  Ag+  Ag23  1  0.64382875  0.30361707  0.65409409  1
  Ag+  Ag24  1  0.47940745  0.19351250  0.64702586  1
  Ag+  Ag25  1  0.83088482  0.34980952  0.19093341  1
  Ag+  Ag26  1  0.82354196  0.64722570  0.15953344  1
  Ag+  Ag27  1  0.83237634  0.66922867  0.80676182  1
  Ag+  Ag28  1  0.17045984  0.47748104  0.02519264  1
  Ag+  Ag29  1  0.19126356  0.33650335  0.50008025  1
  Ag+  Ag30  1  0.64072798  0.14110342  0.51661580  1
  Ag+  Ag31  1  0.34430059  0.68539952  0.67330905  1
  Ag+  Ag32  1  0.80531265  0.80528833  0.34118160  1
  Ag+  Ag33  1  0.52077190  0.81266176  0.03115218  1
  Ag+  Ag34  1  0.36234409  0.17465789  0.18968996  1
  Ag+  Ag35  1  0.13229353  0.47490362  0.31755132  1
  Ag+  Ag36  1  0.20202697  0.13470524  0.63237052  1
  Ag+  Ag37  1  0.35321815  0.04334130  0.65871343  1
  Ag+  Ag38  1  0.34478091  0.15829034  0.53565755  1
  Ag+  Ag39  1  0.19738912  0.64219462  0.14856145  1
  Ag+  Ag40  1  0.47166889  0.85122170  0.66180181  1
  Ag+  Ag41  1  0.69221294  0.66787400  0.65771548  1
  Ag+  Ag42  1  0.01120507  0.35350401  0.65420432  1
  Sn2+  Sn43  1  0.82975331  0.82585784  0.01250371  1
  Sn2+  Sn44  1  0.00128379  0.33407419  0.33891046  1
  Sn2+  Sn45  1  0.83272173  0.50158549  0.66526463  1
  Sn2+  Sn46  1  0.32854892  0.66646009  0.33838607  1
  Sn2+  Sn47  1  0.84276264  0.50014964  0.00240711  1
  Sn2+  Sn48  1  0.33276766  0.33187474  0.33460283  1
  Sn2+  Sn49  1  0.50159625  0.33002279  0.83005662  1
  Sn2+  Sn50  1  0.66695557  0.66174343  -0.00555313  1
  Sn2+  Sn51  1  0.66539971  0.17303216  0.18184651  1
  Sn2+  Sn52  1  0.32972790  0.67002532  -0.00534534  1
  Sn2+  Sn53  1  0.83964506  0.00815483  0.49481504  1
  Sn2+  Sn54  1  0.32935871  0.83286680  0.16737384  1
  Sn2+  Sn55  1  0.17506517  0.17239718  0.33746090  1
  Sn2+  Sn56  1  0.00882899  0.66411404  0.66768742  1
  Sn2+  Sn57  1  0.49674191  0.33243757  0.50426303  1
  Sn2+  Sn58  1  0.83195347  0.67597613  0.49469068  1
  Sn2+  Sn59  1  0.49700980  0.15955978  0.34465139  1
  Sn2+  Sn60  1  0.50024409  0.16278379  -0.01230424  1
  Sn2+  Sn61  1  0.49272829  0.00251683  0.50511304  1
  Sn2+  Sn62  1  0.33894240  0.00470028  0.35205578  1
  Sn2+  Sn63  1  0.16778827  0.82938861  0.66616994  1
  Sn2+  Sn64  1  -0.00319114  0.17439421  0.16840414  1
  Bi3+  Bi65  1  0.83120859  0.16953421  0.33204935  1
  Bi3+  Bi66  1  0.17304075  0.83327649  0.33426530  1
  Bi3+  Bi67  1  -0.00202237  0.66874183  0.00294590  1
  Bi3+  Bi68  1  0.82894691  0.00061018  0.16726467  1
  Bi3+  Bi69  1  -0.00320371  0.83694318  0.16477115  1
  Bi3+  Bi70  1  0.83307567  0.33997899  0.50516891  1
  Bi3+  Bi71  1  0.49759981  -0.00387053  0.82771336  1
  Bi3+  Bi72  1  0.66831087  0.49862834  0.16246116  1
  Bi3+  Bi73  1  0.33347684  0.33353870  0.00383910  1
  Bi3+  Bi74  1  -0.00012542  0.00288001  0.66416307  1
  Bi3+  Bi75  1  0.67043547  0.49998617  0.83278082  1
  Bi3+  Bi76  1  0.33475800  0.17180404  0.83856717  1
  Bi3+  Bi77  1  0.16752758  0.16903279  0.00082297  1
  Bi3+  Bi78  1  0.00140462  0.33785029  -0.00130656  1
  Bi3+  Bi79  1  0.50209034  0.49803431  0.66871523  1
  Bi3+  Bi80  1  0.83489944  0.34215695  0.82960528  1
  Bi3+  Bi81  1  -0.00206834  0.82789438  0.83253638  1
  Bi3+  Bi82  1  0.16689810  0.83537908  0.00270963  1
  Bi3+  Bi83  1  0.16660153  0.66039004  0.49766895  1
  Bi3+  Bi84  1  0.66871077  0.82738325  0.83121636  1
  Bi3+  Bi85  1  0.66377643  0.16990759  0.82336323  1
  Te2-  Te86  1  0.16009078  0.15601062  0.16492860  1
  Te2-  Te87  1  0.16850223  0.18189293  0.49630721  1
  Te2-  Te88  1  0.16920101  0.17657480  0.83580242  1
  Te2-  Te89  1  0.16778477  0.50182168  0.17623971  1
  Te2-  Te90  1  0.16952713  0.49359711  0.50057083  1
  Te2-  Te91  1  0.16398315  0.49397714  0.82119904  1
  Te2-  Te92  1  0.16250550  0.84310243  0.16876680  1
  Te2-  Te93  1  0.17304435  0.82450189  0.49676635  1
  Te2-  Te94  1  0.16434084  0.83222468  0.83692678  1
  Te2-  Te95  1  0.50528385  0.15906105  0.16292120  1
  Te2-  Te96  1  0.49664447  0.16634719  0.50412558  1
  Te2-  Te97  1  0.50129739  0.16171944  0.82540555  1
  Te2-  Te98  1  0.50509603  0.50459875  0.16329429  1
  Te2-  Te99  1  0.50857663  0.50463743  0.49368654  1
  Te2-  Te100  1  0.50805874  0.49865596  0.84038042  1
  Te2-  Te101  1  0.49651468  0.83946518  0.17310261  1
  Te2-  Te102  1  0.48980642  0.82642118  0.51019175  1
  Te2-  Te103  1  0.50348830  0.83366343  0.81488474  1
  Te2-  Te104  1  0.83046288  0.16375932  0.16909192  1
  Te2-  Te105  1  0.83039701  0.17220802  0.49411810  1
  Te2-  Te106  1  0.82657775  0.16735372  0.83362291  1
  Te2-  Te107  1  0.83023624  0.49823665  0.17099064  1
  Te2-  Te108  1  0.82091316  0.50355196  0.49405456  1
  Te2-  Te109  1  0.83424154  0.50899367  0.83385064  1
  Te2-  Te110  1  0.83556487  0.84017369  0.18048184  1
  Te2-  Te111  1  0.83463691  0.83550276  0.48707932  1
  Te2-  Te112  1  0.83420785  0.82107018  0.83934642  1
  Te2-  Te113  1  0.16303279  0.00159183  0.00123427  1
  Te2-  Te114  1  0.17027459  -0.00189919  0.33566803  1
  Te2-  Te115  1  0.16161846  -0.00296979  0.65867431  1
  Te2-  Te116  1  0.16500916  0.33139908  0.00511783  1
  Te2-  Te117  1  0.16337219  0.33526305  0.34341921  1
  Te2-  Te118  1  0.15903659  0.34232212  0.65753695  1
  Te2-  Te119  1  0.16302933  0.67378362  0.00863989  1
  Te2-  Te120  1  0.16583241  0.66959834  0.33568238  1
  Te2-  Te121  1  0.16741393  0.65664153  0.66334468  1
  Te2-  Te122  1  0.49680684  -0.00631928  -0.00188189  1
  Te2-  Te123  1  0.50580744  -0.00485416  0.34065489  1
  Te2-  Te124  1  0.49464737  -0.00299873  0.66347469  1
  Te2-  Te125  1  0.49797651  0.33385284  -0.00069363  1
  Te2-  Te126  1  0.50714826  0.33231507  0.33331793  1
  Te2-  Te127  1  0.50313879  0.33939452  0.66846675  1
  Te2-  Te128  1  0.49675040  0.67028176  0.00459602  1
  Te2-  Te129  1  0.49566217  0.67547902  0.32810290  1
  Te2-  Te130  1  0.48886148  0.65654026  0.66681475  1
  Te2-  Te131  1  0.83302662  -0.00263651  0.00210891  1
  Te2-  Te132  1  0.82650158  0.00610139  0.33326474  1
  Te2-  Te133  1  0.83479749  -0.00953182  0.66021503  1
  Te2-  Te134  1  0.84112193  0.33873928  -0.00934281  1
  Te2-  Te135  1  0.83085932  0.33412387  0.33796601  1
  Te2-  Te136  1  0.83491101  0.34005395  0.66801876  1
  Te2-  Te137  1  0.83666103  0.66653131  0.01349770  1
  Te2-  Te138  1  0.83394807  0.66220827  0.33437523  1
  Te2-  Te139  1  0.83785222  0.67276156  0.65725316  1
  Te2-  Te140  1  0.00232675  0.17088322  -0.00094130  1
  Te2-  Te141  1  -0.00264589  0.16977756  0.33177922  1
  Te2-  Te142  1  -0.00101086  0.16281812  0.66643594  1
  Te2-  Te143  1  0.01576511  0.50336931  -0.00670282  1
  Te2-  Te144  1  -0.00778343  0.50217319  0.33783714  1
  Te2-  Te145  1  -0.00302761  0.49968792  0.66581221  1
  Te2-  Te146  1  -0.00000849  0.83383276  -0.00129571  1
  Te2-  Te147  1  0.00623872  0.82915832  0.33064560  1
  Te2-  Te148  1  -0.00108846  0.83253363  0.67087041  1
  Te2-  Te149  1  0.33187020  0.16925641  0.00134045  1
  Te2-  Te150  1  0.33457414  0.16524455  0.33140199  1
  Te2-  Te151  1  0.33216240  0.18913885  0.67921281  1
  Te2-  Te152  1  0.31850008  0.49950032  -0.00363417  1
  Te2-  Te153  1  0.34522645  0.50036385  0.33400287  1
  Te2-  Te154  1  0.33497004  0.48146743  0.67062972  1
  Te2-  Te155  1  0.32898395  0.83053123  -0.00087780  1
  Te2-  Te156  1  0.33552396  0.83542650  0.33857144  1
  Te2-  Te157  1  0.32505941  0.83052876  0.65710675  1
  Te2-  Te158  1  0.66021400  0.17520256  -0.00826788  1
  Te2-  Te159  1  0.66582045  0.17885045  0.34026363  1
  Te2-  Te160  1  0.66517733  0.15979219  0.66139900  1
  Te2-  Te161  1  0.67231777  0.49594663  -0.00233968  1
  Te2-  Te162  1  0.66283359  0.48831140  0.32526020  1
  Te2-  Te163  1  0.66400457  0.51609639  0.67008391  1
  Te2-  Te164  1  0.66245928  0.83109674  -0.00493707  1
  Te2-  Te165  1  0.65987077  0.83043027  0.33388828  1
  Te2-  Te166  1  0.67397253  0.81994339  0.66957722  1
  Te2-  Te167  1  -0.00677916  0.00072533  0.16247130  1
  Te2-  Te168  1  0.00724035  -0.00177790  0.49979539  1
  Te2-  Te169  1  -0.00047848  -0.00572590  0.83136578  1
  Te2-  Te170  1  -0.01289957  0.33552005  0.16473280  1
  Te2-  Te171  1  -0.00687774  0.34654321  0.50565308  1
  Te2-  Te172  1  -0.00066521  0.34175225  0.83330592  1
  Te2-  Te173  1  -0.01103491  0.67268104  0.16829700  1
  Te2-  Te174  1  0.00381357  0.65506686  0.49776009  1
  Te2-  Te175  1  -0.00960639  0.66496501  0.83579155  1
  Te2-  Te176  1  0.34036598  0.00611185  0.17080592  1
  Te2-  Te177  1  0.32540911  0.01345295  0.51073886  1
  Te2-  Te178  1  0.33452457  0.00442698  0.81983025  1
  Te2-  Te179  1  0.33575991  0.32194128  0.16699015  1
  Te2-  Te180  1  0.33941770  0.32300894  0.49118030  1
  Te2-  Te181  1  0.33249481  0.34002373  0.84298084  1
  Te2-  Te182  1  0.34030998  0.66886942  0.16621045  1
  Te2-  Te183  1  0.33177373  0.66204709  0.50973345  1
  Te2-  Te184  1  0.33100871  0.65736130  0.82445783  1
  Te2-  Te185  1  0.66217522  0.00194388  0.17509725  1
  Te2-  Te186  1  0.66770279  -0.00037918  0.48962631  1
  Te2-  Te187  1  0.66356388  -0.00143974  0.83415927  1
  Te2-  Te188  1  0.68179142  0.33397524  0.15453324  1
  Te2-  Te189  1  0.66888535  0.34355326  0.51218914  1
  Te2-  Te190  1  0.67164090  0.33428879  0.82813831  1
  Te2-  Te191  1  0.67195318  0.66277716  0.16400966  1
  Te2-  Te192  1  0.65987929  0.66313227  0.50573615  1
  Te2-  Te193  1  0.67982037  0.66463364  0.83379422  1
  Pb2+  Pb194  1  0.50973552  0.33119223  0.16659293  1
  Pb2+  Pb195  1  0.66121744  0.83206088  0.50191874  1
  Pb2+  Pb196  1  0.65988135  -0.00735953  0.66323804  1
  Pb2+  Pb197  1  0.83296448  -0.01235645  0.82962379  1
  Pb2+  Pb198  1  0.50665877  0.66689989  0.83325940  1
  Pb2+  Pb199  1  0.66407740  0.00417935  0.00532398  1
  Pb2+  Pb200  1  -0.00122280  0.17208367  0.82908610  1
  Pb2+  Pb201  1  0.83062768  0.16970828  0.00228290  1
  Pb2+  Pb202  1  0.33809658  0.83092591  0.82765548  1
  Pb2+  Pb203  1  0.33005285  0.00019152  -0.00429165  1
  Pb2+  Pb204  1  0.66986661  0.83035363  0.16482308  1
  Pb2+  Pb205  1  0.66395358  0.65542447  0.33324638  1
  Pb2+  Pb206  1  0.00017168  0.17333083  0.50246072  1
  Pb2+  Pb207  1  0.16152624  0.66287138  0.83931648  1
  Pb2+  Pb208  1  0.00037480  0.50422352  0.16293543  1
  Pb2+  Pb209  1  0.83201069  0.17072152  0.66297566  1
  Pb2+  Pb210  1  0.16184258  0.32807866  0.17454945  1
  Pb2+  Pb211  1  0.00361478  0.82513761  0.50152517  1
  Pb2+  Pb212  1  0.33361343  0.49428983  0.16834937  1
  Pb2+  Pb213  1  -0.00011605  0.00080766  0.32908482  1
  Pb2+  Pb214  1  0.33930780  0.49304381  0.50109708  1
  Pb2+  Pb215  1  0.16793498  0.00643866  0.82867033  1
