# generated using pymatgen
data_In22Ag21Sn22Bi21(Te54Pb11)2
_symmetry_space_group_name_H-M   'P 1'
_cell_length_a   19.13558896
_cell_length_b   19.11694823
_cell_length_c   19.09719728
_cell_angle_alpha   90.00042402
_cell_angle_beta   89.99575896
_cell_angle_gamma   89.99681309
_symmetry_Int_Tables_number   1
_chemical_formula_structural   In22Ag21Sn22Bi21(Te54Pb11)2
_chemical_formula_sum   'In22 Ag21 Sn22 Bi21 Te108 Pb22'
_cell_volume   6986.02330584
_cell_formula_units_Z   1
loop_
 _symmetry_equiv_pos_site_id
 _symmetry_equiv_pos_as_xyz
  1  'x, y, z'
loop_
 _atom_type_symbol
 _atom_type_oxidation_number
  In3+  3.0
  Ag+  1.0
  Sn2+  2.0
  Bi3+  3.0
  Te2-  -2.0
  Pb2+  2.0
loop_
 _atom_site_type_symbol
 _atom_site_label
 _atom_site_symmetry_multiplicity
 _atom_site_fract_x
 _atom_site_fract_y
 _atom_site_fract_z
 _atom_site_occupancy
  In3+  In0  1  0.67795791  0.83474852  0.16616495  1
  In3+  In1  1  0.48822794  -0.01078267  0.51099639  1
  In3+  In2  1  0.49149582  0.16728898  -0.01936218  1
  In3+  In3  1  0.17253046  0.83488494  0.31158376  1
  In3+  In4  1  0.83348546  0.15653013  0.35037585  1
  In3+  In5  1  0.49479012  0.81860591  0.00266052  1
  In3+  In6  1  0.17622321  0.52081606  0.33221177  1
  In3+  In7  1  0.66775570  0.16271883  0.15685570  1
  In3+  In8  1  -0.00221998  0.15171788  0.83498578  1
  In3+  In9  1  0.33788112  0.67111653  0.32300751  1
  In3+  In10  1  0.49295272  0.67727054  0.17317283  1
  In3+  In11  1  0.32091179  0.82945840  0.51166771  1
  In3+  In12  1  0.84815278  0.31788468  0.84229325  1
  In3+  In13  1  0.50653047  0.33276346  0.16063783  1
  In3+  In14  1  0.66069081  0.16711809  0.50355647  1
  In3+  In15  1  -0.00004828  0.34020332  0.30536885  1
  In3+  In16  1  0.66570381  0.52342525  0.16546748  1
  In3+  In17  1  0.49318655  0.31785187  0.50459342  1
  In3+  In18  1  0.18926836  0.14516308  0.66910961  1
  In3+  In19  1  0.84404779  -0.01300454  0.82905849  1
  In3+  In20  1  0.00480501  0.17201479  0.50913893  1
  In3+  In21  1  0.17487077  -0.00352092  0.83557420  1
  Ag+  Ag22  1  0.30735329  0.69303197  0.68021153  1
  Ag+  Ag23  1  0.00017904  0.68425862  0.02356810  1
  Ag+  Ag24  1  0.84354708  0.80954953  0.67402554  1
  Ag+  Ag25  1  0.48533932  0.82047751  0.66627421  1
  Ag+  Ag26  1  0.85507273  0.66741514  0.18316225  1
  Ag+  Ag27  1  0.18850605  0.83665242  0.68048022  1
  Ag+  Ag28  1  0.19279880  0.14556955  0.02567660  1
  Ag+  Ag29  1  0.30970667  0.13809912  0.49096562  1
  Ag+  Ag30  1  0.85604659  0.17009977  0.66767956  1
  Ag+  Ag31  1  0.66530806  0.68344214  0.31007218  1
  Ag+  Ag32  1  0.35269355  0.83845468  0.16561330  1
  Ag+  Ag33  1  0.01964884  0.30823714  -0.00314889  1
  Ag+  Ag34  1  0.64820441  0.69766798  0.66538012  1
  Ag+  Ag35  1  0.49463571  0.13716841  0.65045179  1
  Ag+  Ag36  1  0.31328985  -0.01583227  0.66752964  1
  Ag+  Ag37  1  0.02067142  0.51811040  0.16299058  1
  Ag+  Ag38  1  0.31412440  0.47610186  0.16601975  1
  Ag+  Ag39  1  0.17602561  -0.02264656  0.15088514  1
  Ag+  Ag40  1  0.02009318  0.83951607  0.85618562  1
  Ag+  Ag41  1  0.35610263  0.83677547  0.81116984  1
  Ag+  Ag42  1  0.67799043  0.31153865  0.02073103  1
  Sn2+  Sn43  1  0.66437564  0.51190268  0.49912154  1
  Sn2+  Sn44  1  0.49974680  0.66948629  0.50272123  1
  Sn2+  Sn45  1  0.83021653  -0.00136358  0.51271539  1
  Sn2+  Sn46  1  0.33485487  -0.00030659  0.33048976  1
  Sn2+  Sn47  1  0.15062237  0.49217418  0.00520229  1
  Sn2+  Sn48  1  0.00536580  -0.00324613  0.00637592  1
  Sn2+  Sn49  1  0.83947362  0.83128441  0.33690631  1
  Sn2+  Sn50  1  -0.00092940  0.82768653  0.16080475  1
  Sn2+  Sn51  1  0.66690676  -0.01128076  0.33550843  1
  Sn2+  Sn52  1  0.17005095  0.83509547  -0.00951637  1
  Sn2+  Sn53  1  0.32470104  0.67090366  -0.00477460  1
  Sn2+  Sn54  1  -0.01430390  0.66512485  0.32649269  1
  Sn2+  Sn55  1  0.49742512  0.67198075  0.82831106  1
  Sn2+  Sn56  1  0.66852801  0.16830863  0.82659853  1
  Sn2+  Sn57  1  0.66155313  0.83279907  0.50825002  1
  Sn2+  Sn58  1  0.17404433  0.66554458  0.15479146  1
  Sn2+  Sn59  1  0.83101774  0.16691111  0.00380625  1
  Sn2+  Sn60  1  -0.00068842  0.32875730  0.67569964  1
  Sn2+  Sn61  1  0.16625279  0.32947078  0.50316382  1
  Sn2+  Sn62  1  0.82936964  0.83058831  -0.00683503  1
  Sn2+  Sn63  1  0.16281988  0.16175861  0.32846922  1
  Sn2+  Sn64  1  0.66550821  0.83517745  0.82616608  1
  Bi3+  Bi65  1  0.00130805  0.00147106  0.33159855  1
  Bi3+  Bi66  1  0.16398767  0.33187704  0.16715961  1
  Bi3+  Bi67  1  0.32851935  0.16240171  0.82420883  1
  Bi3+  Bi68  1  -0.00037022  0.83679372  0.49739458  1
  Bi3+  Bi69  1  0.66626235  0.00251553  0.66614568  1
  Bi3+  Bi70  1  0.16439838  0.33124460  0.83422477  1
  Bi3+  Bi71  1  0.50245683  0.33464397  0.83335662  1
  Bi3+  Bi72  1  0.16309873  0.67469338  0.83447930  1
  Bi3+  Bi73  1  -0.00212434  0.67041719  0.66559776  1
  Bi3+  Bi74  1  0.49679055  0.50040926  0.00497000  1
  Bi3+  Bi75  1  0.83478247  0.67005405  0.83148274  1
  Bi3+  Bi76  1  0.50189211  0.16730404  0.34154132  1
  Bi3+  Bi77  1  0.50304715  0.50062178  0.33084470  1
  Bi3+  Bi78  1  0.83192176  0.50012869  0.32855356  1
  Bi3+  Bi79  1  0.66562465  0.50035782  0.83484620  1
  Bi3+  Bi80  1  0.50079278  0.50780420  0.66412750  1
  Bi3+  Bi81  1  0.33105624  0.33505503  0.66716390  1
  Bi3+  Bi82  1  0.83393117  0.50556817  0.00137745  1
  Bi3+  Bi83  1  0.66681512  0.00114338  0.00001676  1
  Bi3+  Bi84  1  0.66507893  0.33048299  0.66658263  1
  Bi3+  Bi85  1  0.83428865  0.32924631  0.50310028  1
  Te2-  Te86  1  0.16701843  0.17050644  0.16854606  1
  Te2-  Te87  1  0.16494859  0.17020781  0.50455780  1
  Te2-  Te88  1  0.16418256  0.16729601  0.82689686  1
  Te2-  Te89  1  0.16775138  0.49580325  0.17657992  1
  Te2-  Te90  1  0.16783078  0.49902976  0.48693163  1
  Te2-  Te91  1  0.16800806  0.50106669  0.83756052  1
  Te2-  Te92  1  0.15999055  0.83124322  0.15946900  1
  Te2-  Te93  1  0.16727512  0.83705892  0.51095809  1
  Te2-  Te94  1  0.16669165  0.84080582  0.83024283  1
  Te2-  Te95  1  0.50728868  0.17242593  0.17911015  1
  Te2-  Te96  1  0.50168844  0.16148838  0.50343053  1
  Te2-  Te97  1  0.49418723  0.17223998  0.82581000  1
  Te2-  Te98  1  0.50738546  0.49303208  0.16734804  1
  Te2-  Te99  1  0.50366791  0.50272023  0.49727116  1
  Te2-  Te100  1  0.50084826  0.50014794  0.83760462  1
  Te2-  Te101  1  0.50206874  0.83243968  0.16664768  1
  Te2-  Te102  1  0.50025406  0.83483118  0.50984844  1
  Te2-  Te103  1  0.50071667  0.83017810  0.83772041  1
  Te2-  Te104  1  0.82368881  0.16682548  0.16999941  1
  Te2-  Te105  1  0.83941121  0.16828431  0.50584936  1
  Te2-  Te106  1  0.83878443  0.16815894  0.82936829  1
  Te2-  Te107  1  0.82167743  0.51275903  0.16475186  1
  Te2-  Te108  1  0.83138508  0.49489247  0.49448536  1
  Te2-  Te109  1  0.82962177  0.50258566  0.83659365  1
  Te2-  Te110  1  0.83075951  0.82060331  0.16662456  1
  Te2-  Te111  1  0.83473852  0.83943363  0.49942173  1
  Te2-  Te112  1  0.82671499  0.83381147  0.82237010  1
  Te2-  Te113  1  0.16343193  0.00321980  0.00359203  1
  Te2-  Te114  1  0.16651075  -0.00311073  0.32442383  1
  Te2-  Te115  1  0.16616551  -0.00631965  0.67174379  1
  Te2-  Te116  1  0.16573583  0.33275878  -0.00141418  1
  Te2-  Te117  1  0.15529686  0.32725162  0.33212074  1
  Te2-  Te118  1  0.16741369  0.33780935  0.67118566  1
  Te2-  Te119  1  0.15487115  0.66674274  -0.00404255  1
  Te2-  Te120  1  0.16890632  0.67272369  0.32833076  1
  Te2-  Te121  1  0.16223443  0.67653848  0.67027288  1
  Te2-  Te122  1  0.50280180  0.00887685  0.00270780  1
  Te2-  Te123  1  0.49895771  0.00194722  0.34110463  1
  Te2-  Te124  1  0.50546977  -0.01050102  0.66248623  1
  Te2-  Te125  1  0.50308074  0.33245460  0.00021193  1
  Te2-  Te126  1  0.49819619  0.33436167  0.34088017  1
  Te2-  Te127  1  0.49868130  0.34158066  0.66750465  1
  Te2-  Te128  1  0.49694724  0.66530711  0.00190257  1
  Te2-  Te129  1  0.51146789  0.66320951  0.32986042  1
  Te2-  Te130  1  0.49953160  0.67012569  0.66918034  1
  Te2-  Te131  1  0.82912783  -0.00268255  -0.00911457  1
  Te2-  Te132  1  0.83580166  0.00040596  0.33286453  1
  Te2-  Te133  1  0.82919994  0.02021901  0.67632633  1
  Te2-  Te134  1  0.82256549  0.33842127  -0.00704069  1
  Te2-  Te135  1  0.84079422  0.33321961  0.33593648  1
  Te2-  Te136  1  0.83066236  0.31973464  0.66904018  1
  Te2-  Te137  1  0.84141426  0.67028401  -0.00555492  1
  Te2-  Te138  1  0.81886211  0.66346296  0.32739465  1
  Te2-  Te139  1  0.83663965  0.66110248  0.66685079  1
  Te2-  Te140  1  -0.01215336  0.16371855  -0.01116096  1
  Te2-  Te141  1  -0.00511938  0.16549820  0.33788240  1
  Te2-  Te142  1  0.00589263  0.16897030  0.66994982  1
  Te2-  Te143  1  -0.00403790  0.50842485  0.01144801  1
  Te2-  Te144  1  -0.00505851  0.49673873  0.31828396  1
  Te2-  Te145  1  0.00224800  0.49968178  0.66534259  1
  Te2-  Te146  1  -0.00325828  0.83166232  0.00049162  1
  Te2-  Te147  1  0.00617118  0.83546372  0.33493701  1
  Te2-  Te148  1  -0.01097809  0.83306481  0.65545109  1
  Te2-  Te149  1  0.33466936  0.16384932  -0.00616017  1
  Te2-  Te150  1  0.33590828  0.16441544  0.34667207  1
  Te2-  Te151  1  0.34125423  0.16987683  0.66284075  1
  Te2-  Te152  1  0.33405337  0.50731170  0.01510811  1
  Te2-  Te153  1  0.33810086  0.51074184  0.31653787  1
  Te2-  Te154  1  0.33805742  0.50321556  0.66864381  1
  Te2-  Te155  1  0.33969498  0.82890206  0.01243187  1
  Te2-  Te156  1  0.32671699  0.82873935  0.32763844  1
  Te2-  Te157  1  0.33846837  0.83637303  0.66251668  1
  Te2-  Te158  1  0.66184030  0.16595699  -0.00090965  1
  Te2-  Te159  1  0.66879710  0.16182345  0.34674322  1
  Te2-  Te160  1  0.64871259  0.16749078  0.66110706  1
  Te2-  Te161  1  0.66102641  0.50292904  0.00085244  1
  Te2-  Te162  1  0.66544634  0.50066065  0.32866797  1
  Te2-  Te163  1  0.66279256  0.49598930  0.66855057  1
  Te2-  Te164  1  0.65887751  0.83885507  0.00213778  1
  Te2-  Te165  1  0.66780932  0.83096865  0.32991311  1
  Te2-  Te166  1  0.67858983  0.84125718  0.66694386  1
  Te2-  Te167  1  0.00612272  -0.00108153  0.16985725  1
  Te2-  Te168  1  -0.00155769  0.00738741  0.49460967  1
  Te2-  Te169  1  -0.00095238  -0.00832079  0.83646821  1
  Te2-  Te170  1  -0.00089587  0.33029892  0.15018125  1
  Te2-  Te171  1  -0.00194031  0.32767471  0.50558531  1
  Te2-  Te172  1  0.00148581  0.33732290  0.84539033  1
  Te2-  Te173  1  0.00231967  0.66381306  0.16983382  1
  Te2-  Te174  1  -0.00138737  0.66829059  0.49204666  1
  Te2-  Te175  1  0.00004070  0.68319718  0.82855753  1
  Te2-  Te176  1  0.32527828  -0.00911683  0.17124798  1
  Te2-  Te177  1  0.33593577  -0.00484198  0.50845988  1
  Te2-  Te178  1  0.32812551  -0.00347002  0.82141121  1
  Te2-  Te179  1  0.33169004  0.32818716  0.17059091  1
  Te2-  Te180  1  0.33463922  0.33948538  0.50482306  1
  Te2-  Te181  1  0.33269548  0.33301345  0.83174777  1
  Te2-  Te182  1  0.33824128  0.68205556  0.17027287  1
  Te2-  Te183  1  0.33667411  0.67643828  0.49968052  1
  Te2-  Te184  1  0.32643076  0.68420490  0.82843771  1
  Te2-  Te185  1  0.66953922  0.00032746  0.16626820  1
  Te2-  Te186  1  0.67058524  0.00366440  0.49995242  1
  Te2-  Te187  1  0.66766249  0.00534088  0.83588437  1
  Te2-  Te188  1  0.66213808  0.32245284  0.16664457  1
  Te2-  Te189  1  0.67066091  0.33316772  0.50422855  1
  Te2-  Te190  1  0.66401967  0.33504876  0.82963528  1
  Te2-  Te191  1  0.65476523  0.67701725  0.16192740  1
  Te2-  Te192  1  0.66414037  0.67166275  0.51548455  1
  Te2-  Te193  1  0.66881233  0.66479168  0.82007169  1
  Pb2+  Pb194  1  0.66754791  0.33178598  0.33495955  1
  Pb2+  Pb195  1  0.83131077  0.33914612  0.16249197  1
  Pb2+  Pb196  1  -0.00007640  0.51237804  0.84192320  1
  Pb2+  Pb197  1  0.17044455  0.50603987  0.66526523  1
  Pb2+  Pb198  1  0.83972799  -0.00741807  0.16154638  1
  Pb2+  Pb199  1  0.16750555  0.67218876  0.49893554  1
  Pb2+  Pb200  1  0.49804994  0.00161584  0.17070417  1
  Pb2+  Pb201  1  0.49893534  -0.00051674  0.83019261  1
  Pb2+  Pb202  1  0.33360005  0.51478925  0.84114405  1
  Pb2+  Pb203  1  0.83000645  0.67151677  0.49684024  1
  Pb2+  Pb204  1  0.49712423  0.83182320  0.34066140  1
  Pb2+  Pb205  1  0.67117518  0.67039717  -0.00986848  1
  Pb2+  Pb206  1  0.16757977  0.00065549  0.49245451  1
  Pb2+  Pb207  1  0.83285205  0.49075477  0.66705156  1
  Pb2+  Pb208  1  0.32657992  0.33563474  0.33744583  1
  Pb2+  Pb209  1  0.33504937  0.15843821  0.17420484  1
  Pb2+  Pb210  1  0.33753770  0.50981441  0.49251182  1
  Pb2+  Pb211  1  -0.00047320  0.49599475  0.49017727  1
  Pb2+  Pb212  1  0.33331106  -0.00641091  -0.00385926  1
  Pb2+  Pb213  1  -0.00316623  -0.00321424  0.66626708  1
  Pb2+  Pb214  1  0.33313890  0.33919143  0.00331668  1
  Pb2+  Pb215  1  -0.00391274  0.16483178  0.16443695  1
