# generated using pymatgen
data_In22Ag21Sn22Bi21(Te54Pb11)2
_symmetry_space_group_name_H-M   'P 1'
_cell_length_a   19.13732673
_cell_length_b   19.11066363
_cell_length_c   19.12176994
_cell_angle_alpha   89.99595673
_cell_angle_beta   90.01343671
_cell_angle_gamma   89.99997791
_symmetry_Int_Tables_number   1
_chemical_formula_structural   In22Ag21Sn22Bi21(Te54Pb11)2
_chemical_formula_sum   'In22 Ag21 Sn22 Bi21 Te108 Pb22'
_cell_volume   6993.34761077
_cell_formula_units_Z   1
loop_
 _symmetry_equiv_pos_site_id
 _symmetry_equiv_pos_as_xyz
  1  'x, y, z'
loop_
 _atom_type_symbol
 _atom_type_oxidation_number
  In3+  3.0
  Ag+  1.0
  Sn2+  2.0
  Bi3+  3.0
  Te2-  -2.0
  Pb2+  2.0
loop_
 _atom_site_type_symbol
 _atom_site_label
 _atom_site_symmetry_multiplicity
 _atom_site_fract_x
 _atom_site_fract_y
 _atom_site_fract_z
 _atom_site_occupancy
  In3+  In0  1  0.83472576  0.31505227  0.83018856  1
  In3+  In1  1  0.50659770  0.66567074  0.48752778  1
  In3+  In2  1  -0.02749674  0.51273841  0.49995474  1
  In3+  In3  1  0.66548347  0.82965421  0.81187482  1
  In3+  In4  1  0.17834357  0.65912190  0.19113528  1
  In3+  In5  1  0.83071749  0.32069229  0.51213711  1
  In3+  In6  1  0.17029794  0.53756500  0.65206878  1
  In3+  In7  1  0.83411655  0.32255131  0.15894008  1
  In3+  In8  1  0.66787426  0.51536363  0.83401964  1
  In3+  In9  1  0.49456926  0.83030911  0.65188100  1
  In3+  In10  1  0.49588992  0.32528233  0.17715693  1
  In3+  In11  1  0.83737132  0.16004319  0.34412706  1
  In3+  In12  1  0.34107506  0.82435935  0.82300120  1
  In3+  In13  1  0.00395341  0.16337266  0.84930134  1
  In3+  In14  1  0.66441815  0.50155599  0.17595510  1
  In3+  In15  1  0.66052752  0.66153629  0.64924919  1
  In3+  In16  1  0.18372742  0.32696038  0.50656012  1
  In3+  In17  1  0.32105437  -0.00422126  0.00119188  1
  In3+  In18  1  0.31101652  0.16743343  0.16487254  1
  In3+  In19  1  0.16203698  0.15099876  0.65847863  1
  In3+  In20  1  0.02032637  0.83553140  0.83673829  1
  In3+  In21  1  0.14174978  -0.00161342  0.18409859  1
  Ag+  Ag22  1  0.36553602  0.66888561  0.65379421  1
  Ag+  Ag23  1  0.16211533  0.16405883  0.01769604  1
  Ag+  Ag24  1  0.47472406  0.83715670  0.35694673  1
  Ag+  Ag25  1  0.19737182  0.68983242  0.48877881  1
  Ag+  Ag26  1  0.48422972  0.31377357  0.47537951  1
  Ag+  Ag27  1  0.65349885  0.49803908  0.47979081  1
  Ag+  Ag28  1  0.00178274  0.00393759  0.35511488  1
  Ag+  Ag29  1  0.82128490  0.14241861  0.66575241  1
  Ag+  Ag30  1  -0.00338167  0.17424996  0.15698313  1
  Ag+  Ag31  1  0.64532802  0.00369335  0.34795009  1
  Ag+  Ag32  1  0.02141248  0.02575949  -0.00390542  1
  Ag+  Ag33  1  0.36605804  0.52781964  0.19285026  1
  Ag+  Ag34  1  0.65295188  0.64046528  -0.01066335  1
  Ag+  Ag35  1  0.51072154  -0.02988091  0.49155518  1
  Ag+  Ag36  1  0.52081811  0.69072294  0.83670412  1
  Ag+  Ag37  1  -0.00417761  0.33074375  0.01238511  1
  Ag+  Ag38  1  0.14241816  0.84005982  0.64078199  1
  Ag+  Ag39  1  0.81009127  0.01998036  0.50630514  1
  Ag+  Ag40  1  0.67364988  0.85518346  0.51252398  1
  Ag+  Ag41  1  0.14121031  0.01848253  0.50640220  1
  Ag+  Ag42  1  0.80759015  0.66769179  0.47668392  1
  Sn2+  Sn43  1  0.83489907  0.49980379  0.00001214  1
  Sn2+  Sn44  1  0.66942677  0.32573717  0.34402221  1
  Sn2+  Sn45  1  -0.00370061  0.49398364  0.16433050  1
  Sn2+  Sn46  1  0.83594742  -0.00558575  0.82734421  1
  Sn2+  Sn47  1  0.34254151  0.15066411  0.50053455  1
  Sn2+  Sn48  1  0.83673600  0.50716627  0.66307670  1
  Sn2+  Sn49  1  0.66481473  0.33279453  0.66130951  1
  Sn2+  Sn50  1  -0.00762901  0.83557325  0.50201377  1
  Sn2+  Sn51  1  0.32742570  0.83861335  0.50111689  1
  Sn2+  Sn52  1  0.83205226  0.83533621  -0.00615762  1
  Sn2+  Sn53  1  0.32595409  0.16722094  0.83237408  1
  Sn2+  Sn54  1  0.33872778  0.67038992  0.34492704  1
  Sn2+  Sn55  1  0.33625108  0.66634269  -0.00776921  1
  Sn2+  Sn56  1  0.83551941  0.83389355  0.65184262  1
  Sn2+  Sn57  1  0.49905158  -0.00499901  0.82927783  1
  Sn2+  Sn58  1  0.50736837  0.83105142  0.00434376  1
  Sn2+  Sn59  1  0.67725637  0.17046117  0.17231932  1
  Sn2+  Sn60  1  0.16275844  0.83783759  0.34053443  1
  Sn2+  Sn61  1  0.84457405  0.16226686  -0.00484673  1
  Sn2+  Sn62  1  0.33649036  0.83669113  0.16122131  1
  Sn2+  Sn63  1  0.66790722  0.68465402  0.33063565  1
  Sn2+  Sn64  1  0.66367229  0.16040464  0.50217667  1
  Bi3+  Bi65  1  0.16475784  0.49691290  0.33964295  1
  Bi3+  Bi66  1  -0.00637857  0.66927560  0.66622391  1
  Bi3+  Bi67  1  0.83268484  0.66969273  0.83796703  1
  Bi3+  Bi68  1  0.33681019  0.50444260  0.50139034  1
  Bi3+  Bi69  1  -0.00491936  0.32857599  0.33155494  1
  Bi3+  Bi70  1  0.32686612  0.32878937  -0.00046345  1
  Bi3+  Bi71  1  0.16697802  0.66649101  0.83354347  1
  Bi3+  Bi72  1  0.00291247  0.83307089  0.16394406  1
  Bi3+  Bi73  1  0.66834461  0.83338235  0.17086487  1
  Bi3+  Bi74  1  0.66738973  0.00135566  0.00463562  1
  Bi3+  Bi75  1  0.33065131  0.50213783  0.83467248  1
  Bi3+  Bi76  1  -0.00170360  0.33354090  0.66491108  1
  Bi3+  Bi77  1  0.83337047  0.66556559  0.16716515  1
  Bi3+  Bi78  1  0.67326245  0.33048048  0.00029333  1
  Bi3+  Bi79  1  0.50410865  0.00078885  0.16960799  1
  Bi3+  Bi80  1  0.16332893  0.16676898  0.33153600  1
  Bi3+  Bi81  1  0.50676469  0.33050758  0.83416384  1
  Bi3+  Bi82  1  0.83419990  0.00304232  0.17152042  1
  Bi3+  Bi83  1  0.83473383  0.84101018  0.33600403  1
  Bi3+  Bi84  1  0.16318536  0.33099923  0.83128059  1
  Bi3+  Bi85  1  0.16689507  0.83624472  0.00418081  1
  Te2-  Te86  1  0.15227119  0.15743759  0.16590424  1
  Te2-  Te87  1  0.17455636  0.16339611  0.49761264  1
  Te2-  Te88  1  0.16224505  0.16853151  0.82814311  1
  Te2-  Te89  1  0.16117648  0.50371442  0.17350115  1
  Te2-  Te90  1  0.17477141  0.48735684  0.50243379  1
  Te2-  Te91  1  0.16637099  0.49724055  0.82714408  1
  Te2-  Te92  1  0.16672880  0.83644522  0.16734578  1
  Te2-  Te93  1  0.16830432  0.83287225  0.49685063  1
  Te2-  Te94  1  0.18041352  0.83257995  0.83992268  1
  Te2-  Te95  1  0.50900346  0.16787723  0.17067971  1
  Te2-  Te96  1  0.50252122  0.17140418  0.50094841  1
  Te2-  Te97  1  0.49718843  0.16551129  0.83296762  1
  Te2-  Te98  1  0.50509107  0.49511686  0.16648201  1
  Te2-  Te99  1  0.50262653  0.50782831  0.50179914  1
  Te2-  Te100  1  0.49660062  0.49396335  0.83276747  1
  Te2-  Te101  1  0.50370577  0.83831474  0.16969326  1
  Te2-  Te102  1  0.51247135  0.82106203  0.49879815  1
  Te2-  Te103  1  0.49841778  0.83815402  0.83688903  1
  Te2-  Te104  1  0.84366113  0.16474998  0.16406535  1
  Te2-  Te105  1  0.83203340  0.16583524  0.50957522  1
  Te2-  Te106  1  0.84166551  0.16240896  0.81854931  1
  Te2-  Te107  1  0.83215856  0.50220633  0.16482121  1
  Te2-  Te108  1  0.82301448  0.51607222  0.50315238  1
  Te2-  Te109  1  0.82650819  0.50646163  0.83515745  1
  Te2-  Te110  1  0.83622237  0.83235952  0.16711024  1
  Te2-  Te111  1  0.82338260  0.81928033  0.49470212  1
  Te2-  Te112  1  0.82219021  0.83385464  0.82820824  1
  Te2-  Te113  1  0.16773923  0.00288398  0.00080841  1
  Te2-  Te114  1  0.15741298  0.00513410  0.33940000  1
  Te2-  Te115  1  0.16831439  -0.00720857  0.65580106  1
  Te2-  Te116  1  0.16186974  0.32325808  -0.00389750  1
  Te2-  Te117  1  0.15922614  0.33105025  0.33430234  1
  Te2-  Te118  1  0.16112929  0.32381747  0.66845218  1
  Te2-  Te119  1  0.16662685  0.67075649  -0.00343308  1
  Te2-  Te120  1  0.16787638  0.66190902  0.34542969  1
  Te2-  Te121  1  0.15763041  0.68695898  0.67263030  1
  Te2-  Te122  1  0.50508584  -0.00023262  0.00277271  1
  Te2-  Te123  1  0.49861904  -0.01093168  0.33512845  1
  Te2-  Te124  1  0.50188121  -0.01211399  0.65795732  1
  Te2-  Te125  1  0.50181807  0.33014828  -0.00249210  1
  Te2-  Te126  1  0.50659267  0.33344043  0.33218376  1
  Te2-  Te127  1  0.50156169  0.33168446  0.67330406  1
  Te2-  Te128  1  0.50637227  0.67062796  -0.01028360  1
  Te2-  Te129  1  0.50010756  0.68184337  0.33179726  1
  Te2-  Te130  1  0.51013020  0.67765065  0.68630455  1
  Te2-  Te131  1  0.82887969  0.00142942  0.00135365  1
  Te2-  Te132  1  0.84788658  0.00583303  0.33454684  1
  Te2-  Te133  1  0.83307336  -0.00457683  0.65417084  1
  Te2-  Te134  1  0.83890801  0.32947238  -0.00225678  1
  Te2-  Te135  1  0.83441462  0.32250621  0.32645331  1
  Te2-  Te136  1  0.83674369  0.34263297  0.66924592  1
  Te2-  Te137  1  0.82804238  0.66779345  0.00321104  1
  Te2-  Te138  1  0.83262078  0.66726623  0.32955500  1
  Te2-  Te139  1  0.83002252  0.66771500  0.67596265  1
  Te2-  Te140  1  0.00452742  0.17490088  0.00193676  1
  Te2-  Te141  1  -0.00011750  0.16441224  0.32894508  1
  Te2-  Te142  1  0.00764849  0.17190092  0.66272818  1
  Te2-  Te143  1  -0.00079916  0.48777848  0.00167392  1
  Te2-  Te144  1  0.00227976  0.49577172  0.33845529  1
  Te2-  Te145  1  0.00946095  0.49962070  0.65840400  1
  Te2-  Te146  1  0.00288029  0.83291369  -0.00047727  1
  Te2-  Te147  1  0.00030745  0.84631880  0.32828798  1
  Te2-  Te148  1  -0.00084366  0.83220219  0.67576190  1
  Te2-  Te149  1  0.31923658  0.16658024  0.00182204  1
  Te2-  Te150  1  0.32840895  0.16644941  0.32830287  1
  Te2-  Te151  1  0.32692787  0.16571231  0.66654000  1
  Te2-  Te152  1  0.33019974  0.49516585  -0.00138290  1
  Te2-  Te153  1  0.32852600  0.50178109  0.33332399  1
  Te2-  Te154  1  0.32763981  0.51464997  0.66728343  1
  Te2-  Te155  1  0.33187369  0.83624801  0.00044842  1
  Te2-  Te156  1  0.32965304  0.82795443  0.33059152  1
  Te2-  Te157  1  0.34207374  0.81993834  0.66909320  1
  Te2-  Te158  1  0.67069646  0.16852255  0.00381834  1
  Te2-  Te159  1  0.67758219  0.15855982  0.33474238  1
  Te2-  Te160  1  0.67586351  0.16952609  0.66579207  1
  Te2-  Te161  1  0.67030883  0.49287116  -0.00445753  1
  Te2-  Te162  1  0.66663133  0.49986512  0.33001787  1
  Te2-  Te163  1  0.66845359  0.50793752  0.67893917  1
  Te2-  Te164  1  0.66949325  0.83976062  0.00885109  1
  Te2-  Te165  1  0.67457707  0.84302014  0.33109839  1
  Te2-  Te166  1  0.66463776  0.82151231  0.65698571  1
  Te2-  Te167  1  -0.00501285  -0.00306071  0.14823185  1
  Te2-  Te168  1  -0.00228800  -0.00883823  0.50214277  1
  Te2-  Te169  1  -0.00462944  0.00400120  0.84597910  1
  Te2-  Te170  1  -0.00788861  0.32660691  0.16402558  1
  Te2-  Te171  1  -0.01603070  0.33939008  0.49679004  1
  Te2-  Te172  1  -0.00333011  0.32808718  0.83068328  1
  Te2-  Te173  1  -0.00066631  0.66765272  0.17109207  1
  Te2-  Te174  1  0.00168492  0.66561361  0.50693253  1
  Te2-  Te175  1  -0.00168369  0.66734159  0.83265639  1
  Te2-  Te176  1  0.34201469  0.00524556  0.15760293  1
  Te2-  Te177  1  0.35384191  -0.00533535  0.49704858  1
  Te2-  Te178  1  0.33812793  0.00139820  0.84034700  1
  Te2-  Te179  1  0.33655760  0.32894757  0.16086060  1
  Te2-  Te180  1  0.34209436  0.33870239  0.50054238  1
  Te2-  Te181  1  0.33407166  0.33594947  0.83576271  1
  Te2-  Te182  1  0.32884297  0.66599549  0.16380238  1
  Te2-  Te183  1  0.34061264  0.66643716  0.50801401  1
  Te2-  Te184  1  0.32868402  0.66534836  0.83393584  1
  Te2-  Te185  1  0.67011212  0.00048768  0.17068753  1
  Te2-  Te186  1  0.66396432  0.00143809  0.49388916  1
  Te2-  Te187  1  0.66682590  -0.00661362  0.83738527  1
  Te2-  Te188  1  0.67446272  0.33844229  0.16374519  1
  Te2-  Te189  1  0.67864908  0.34652401  0.50149237  1
  Te2-  Te190  1  0.67251316  0.33159391  0.83569572  1
  Te2-  Te191  1  0.66975106  0.66350570  0.16298793  1
  Te2-  Te192  1  0.66088299  0.65214157  0.49764640  1
  Te2-  Te193  1  0.66912437  0.67325744  0.84538484  1
  Pb2+  Pb194  1  0.66780648  -0.00468993  0.66293292  1
  Pb2+  Pb195  1  0.16301580  0.33318459  0.16363691  1
  Pb2+  Pb196  1  0.33429679  -0.00636531  0.66600266  1
  Pb2+  Pb197  1  -0.00003455  0.00313157  0.67109793  1
  Pb2+  Pb198  1  0.33218169  0.33354010  0.33010449  1
  Pb2+  Pb199  1  0.50116766  0.67055035  0.15867949  1
  Pb2+  Pb200  1  0.16723096  0.00040358  0.83021654  1
  Pb2+  Pb201  1  0.50068270  0.50955187  0.33614918  1
  Pb2+  Pb202  1  0.50160137  0.16180057  0.66575603  1
  Pb2+  Pb203  1  -0.00006783  0.67572223  0.34112789  1
  Pb2+  Pb204  1  0.32967875  -0.00339300  0.32837695  1
  Pb2+  Pb205  1  -0.00647926  0.49653492  0.82820388  1
  Pb2+  Pb206  1  -0.00366129  0.66319923  0.00385399  1
  Pb2+  Pb207  1  0.48950141  0.16496000  0.00393094  1
  Pb2+  Pb208  1  0.50470846  0.15619657  0.33650994  1
  Pb2+  Pb209  1  0.16609887  0.49895849  -0.00035583  1
  Pb2+  Pb210  1  0.50084213  0.50336304  0.66654953  1
  Pb2+  Pb211  1  0.83143460  0.49252715  0.33523338  1
  Pb2+  Pb212  1  0.49812222  0.50237344  -0.00202036  1
  Pb2+  Pb213  1  0.67008846  0.16266997  0.83455166  1
  Pb2+  Pb214  1  0.00107131  0.16540543  0.49646564  1
  Pb2+  Pb215  1  0.32951283  0.33904735  0.66692570  1
