# generated using pymatgen
data_In22Ag21Sn22Bi21(Te54Pb11)2
_symmetry_space_group_name_H-M   'P 1'
_cell_length_a   19.12013539
_cell_length_b   19.13153306
_cell_length_c   19.14411731
_cell_angle_alpha   90.00593902
_cell_angle_beta   90.00119603
_cell_angle_gamma   90.00374576
_symmetry_Int_Tables_number   1
_chemical_formula_structural   In22Ag21Sn22Bi21(Te54Pb11)2
_chemical_formula_sum   'In22 Ag21 Sn22 Bi21 Te108 Pb22'
_cell_volume   7002.87024648
_cell_formula_units_Z   1
loop_
 _symmetry_equiv_pos_site_id
 _symmetry_equiv_pos_as_xyz
  1  'x, y, z'
loop_
 _atom_type_symbol
 _atom_type_oxidation_number
  In3+  3.0
  Ag+  1.0
  Sn2+  2.0
  Bi3+  3.0
  Te2-  -2.0
  Pb2+  2.0
loop_
 _atom_site_type_symbol
 _atom_site_label
 _atom_site_symmetry_multiplicity
 _atom_site_fract_x
 _atom_site_fract_y
 _atom_site_fract_z
 _atom_site_occupancy
  In3+  In0  1  0.00895268  0.66433607  0.67768753  1
  In3+  In1  1  0.82579516  0.82440554  0.34403758  1
  In3+  In2  1  0.19188496  0.66550687  0.17114100  1
  In3+  In3  1  0.50238616  0.17534101  0.32114918  1
  In3+  In4  1  0.51061020  0.16141927  -0.00830035  1
  In3+  In5  1  0.85913873  0.50061727  0.33337852  1
  In3+  In6  1  0.33716274  0.65995283  0.32982037  1
  In3+  In7  1  0.64192826  0.66811867  -0.01454795  1
  In3+  In8  1  0.66904977  -0.02013176  0.68354464  1
  In3+  In9  1  -0.00787235  0.66168263  0.33341552  1
  In3+  In10  1  0.18386724  0.33272381  0.83445541  1
  In3+  In11  1  0.83018244  0.49865446  0.68031034  1
  In3+  In12  1  0.00206816  0.32233691  -0.00875363  1
  In3+  In13  1  0.01156037  0.66717628  -0.00786553  1
  In3+  In14  1  0.65905447  0.66450519  0.67281210  1
  In3+  In15  1  0.50508243  0.82949475  0.31244293  1
  In3+  In16  1  0.48812122  0.66352922  0.51005382  1
  In3+  In17  1  0.66515783  0.15052377  0.50707790  1
  In3+  In18  1  0.66271383  0.83037316  0.13765789  1
  In3+  In19  1  0.32710117  -0.02001800  0.66735962  1
  In3+  In20  1  0.49299518  0.34732331  0.83662349  1
  In3+  In21  1  0.84165023  0.82526947  0.67057366  1
  Ag+  Ag22  1  0.83035371  0.00162081  0.85724205  1
  Ag+  Ag23  1  0.49823130  0.64672107  0.86606784  1
  Ag+  Ag24  1  0.66696831  0.02024956  0.01776587  1
  Ag+  Ag25  1  0.31036610  0.50244262  0.51771376  1
  Ag+  Ag26  1  0.36068833  0.35303070  0.01010532  1
  Ag+  Ag27  1  0.80080991  0.15546780  0.30088441  1
  Ag+  Ag28  1  0.15039097  0.86206629  0.67070324  1
  Ag+  Ag29  1  0.48267230  0.50512831  0.68844137  1
  Ag+  Ag30  1  0.49860637  0.65746684  0.16844322  1
  Ag+  Ag31  1  0.50094066  0.01136550  0.13965153  1
  Ag+  Ag32  1  0.35070162  0.64301889  -0.02913016  1
  Ag+  Ag33  1  -0.01943514  0.18724176  0.83338457  1
  Ag+  Ag34  1  0.83840066  0.64254955  0.52524015  1
  Ag+  Ag35  1  0.48271949  0.82125980  0.01383210  1
  Ag+  Ag36  1  0.49509700  0.36254154  0.12832637  1
  Ag+  Ag37  1  0.64454789  0.83795371  0.83472281  1
  Ag+  Ag38  1  0.82838255  0.35913805  0.85944349  1
  Ag+  Ag39  1  0.18800436  0.50067833  0.69054655  1
  Ag+  Ag40  1  0.49411570  0.52708391  -0.01731166  1
  Ag+  Ag41  1  0.32563339  0.50803470  0.85403391  1
  Ag+  Ag42  1  0.16573778  0.51355319  0.34890980  1
  Sn2+  Sn43  1  -0.00206009  0.50170137  0.16080346  1
  Sn2+  Sn44  1  0.00704262  0.50442748  0.50576401  1
  Sn2+  Sn45  1  0.18388459  0.66913952  0.83439351  1
  Sn2+  Sn46  1  0.82411042  0.50210778  0.00204225  1
  Sn2+  Sn47  1  0.83698752  0.16453943  -0.01080837  1
  Sn2+  Sn48  1  0.33099491  0.34161833  0.32152698  1
  Sn2+  Sn49  1  0.33528591  0.49492028  0.16062310  1
  Sn2+  Sn50  1  -0.00998302  -0.00257362  0.67504297  1
  Sn2+  Sn51  1  0.00713308  0.49159882  0.83582668  1
  Sn2+  Sn52  1  0.34119206  0.00297566  0.33027334  1
  Sn2+  Sn53  1  0.32898329  0.65662349  0.66853608  1
  Sn2+  Sn54  1  0.65977650  0.50587297  0.16601479  1
  Sn2+  Sn55  1  -0.01174034  0.00265500  -0.00591368  1
  Sn2+  Sn56  1  0.82170399  -0.00225141  0.16472412  1
  Sn2+  Sn57  1  0.16727427  0.18229448  0.66893697  1
  Sn2+  Sn58  1  0.17440909  0.33691994  0.50125414  1
  Sn2+  Sn59  1  0.33890182  0.82602227  0.83725429  1
  Sn2+  Sn60  1  0.66768760  0.82324625  0.50601212  1
  Sn2+  Sn61  1  0.83596094  0.16381790  0.67431906  1
  Sn2+  Sn62  1  0.33357549  0.17033565  0.83845659  1
  Sn2+  Sn63  1  0.65889340  0.49679917  0.83245634  1
  Sn2+  Sn64  1  0.17263677  0.16487287  -0.00341225  1
  Bi3+  Bi65  1  0.66414417  0.33618776  0.33060119  1
  Bi3+  Bi66  1  0.82587569  0.66609434  0.16616721  1
  Bi3+  Bi67  1  0.83396519  0.33455986  0.49710744  1
  Bi3+  Bi68  1  0.17089118  0.17110267  0.33369778  1
  Bi3+  Bi69  1  0.33490143  0.16504612  0.16498922  1
  Bi3+  Bi70  1  -0.00066412  0.83157056  0.49912488  1
  Bi3+  Bi71  1  -0.00319429  0.33481064  0.67057329  1
  Bi3+  Bi72  1  0.17004417  0.50252306  -0.00023989  1
  Bi3+  Bi73  1  0.50007950  -0.00421472  0.50219778  1
  Bi3+  Bi74  1  0.67072707  0.50389972  0.49847271  1
  Bi3+  Bi75  1  0.49750709  0.82721091  0.66888516  1
  Bi3+  Bi76  1  0.82871341  0.33612136  0.16876227  1
  Bi3+  Bi77  1  0.33250200  0.33965900  0.66731195  1
  Bi3+  Bi78  1  0.00363871  0.82972211  0.83261745  1
  Bi3+  Bi79  1  0.50426847  -0.00262065  0.83010845  1
  Bi3+  Bi80  1  0.49483271  0.50046615  0.32784125  1
  Bi3+  Bi81  1  0.17141259  0.83024928  -0.00823348  1
  Bi3+  Bi82  1  0.83262921  0.00278411  0.49747972  1
  Bi3+  Bi83  1  -0.00073277  0.00196905  0.33221845  1
  Bi3+  Bi84  1  0.66814104  0.33949618  0.66850431  1
  Bi3+  Bi85  1  0.33478258  0.82420038  0.50266440  1
  Te2-  Te86  1  0.17018272  0.16848429  0.16733996  1
  Te2-  Te87  1  0.16755470  0.16999786  0.49807274  1
  Te2-  Te88  1  0.16952990  0.17596104  0.83635519  1
  Te2-  Te89  1  0.16551859  0.50940525  0.15963419  1
  Te2-  Te90  1  0.16550126  0.49571368  0.49427971  1
  Te2-  Te91  1  0.17527915  0.49831701  0.83987396  1
  Te2-  Te92  1  0.16718705  0.82418753  0.16337412  1
  Te2-  Te93  1  0.16908371  0.82920220  0.51296151  1
  Te2-  Te94  1  0.16919280  0.83235379  0.82361831  1
  Te2-  Te95  1  0.49645013  0.15669510  0.17023318  1
  Te2-  Te96  1  0.50350132  0.16231066  0.49900828  1
  Te2-  Te97  1  0.50046742  0.16177481  0.83330028  1
  Te2-  Te98  1  0.50150683  0.50268855  0.16770228  1
  Te2-  Te99  1  0.50836240  0.51171685  0.48998045  1
  Te2-  Te100  1  0.50135417  0.50040324  0.83543224  1
  Te2-  Te101  1  0.50962319  0.83580937  0.15857170  1
  Te2-  Te102  1  0.49863593  0.82550433  0.50653474  1
  Te2-  Te103  1  0.49537726  0.83588703  0.82812174  1
  Te2-  Te104  1  0.83249759  0.17098414  0.15879822  1
  Te2-  Te105  1  0.82640504  0.16858755  0.50435470  1
  Te2-  Te106  1  0.83728967  0.14921384  0.83306480  1
  Te2-  Te107  1  0.82856711  0.49905026  0.16885512  1
  Te2-  Te108  1  0.83586790  0.49722181  0.49075158  1
  Te2-  Te109  1  0.83032635  0.50565253  0.83502548  1
  Te2-  Te110  1  0.82122155  0.83185385  0.17168133  1
  Te2-  Te111  1  0.83666374  0.84074490  0.50548245  1
  Te2-  Te112  1  0.84151852  0.83706402  0.82555061  1
  Te2-  Te113  1  0.16529443  -0.00627302  -0.00071288  1
  Te2-  Te114  1  0.16646322  0.00002123  0.33174314  1
  Te2-  Te115  1  0.16791895  0.00816119  0.66836237  1
  Te2-  Te116  1  0.15820041  0.33620171  -0.00762427  1
  Te2-  Te117  1  0.17078292  0.33250222  0.32900252  1
  Te2-  Te118  1  0.16081290  0.34922214  0.67414566  1
  Te2-  Te119  1  0.17025379  0.66900346  0.00243558  1
  Te2-  Te120  1  0.17407154  0.65996094  0.32712938  1
  Te2-  Te121  1  0.15977758  0.64631359  0.66941733  1
  Te2-  Te122  1  0.51391218  0.00564621  -0.00912708  1
  Te2-  Te123  1  0.49858624  -0.01258937  0.34187171  1
  Te2-  Te124  1  0.50701181  -0.00205353  0.66483823  1
  Te2-  Te125  1  0.50202934  0.31800893  -0.01093043  1
  Te2-  Te126  1  0.49983545  0.33120364  0.33468638  1
  Te2-  Te127  1  0.50279086  0.34905140  0.67580568  1
  Te2-  Te128  1  0.49229750  0.67264334  0.01186924  1
  Te2-  Te129  1  0.49600336  0.67020023  0.32080849  1
  Te2-  Te130  1  0.50457371  0.65821822  0.66235995  1
  Te2-  Te131  1  0.82158445  -0.00319428  0.00687205  1
  Te2-  Te132  1  0.83765040  0.01457455  0.33284174  1
  Te2-  Te133  1  0.82654289  -0.00415492  0.65864994  1
  Te2-  Te134  1  0.83904584  0.33527384  0.00629353  1
  Te2-  Te135  1  0.82954025  0.32950901  0.33121834  1
  Te2-  Te136  1  0.83419587  0.33576595  0.66119768  1
  Te2-  Te137  1  0.84418387  0.66240570  0.00494939  1
  Te2-  Te138  1  0.83366384  0.66553298  0.32844425  1
  Te2-  Te139  1  0.83916221  0.67177513  0.66847909  1
  Te2-  Te140  1  0.00281967  0.16514320  -0.01338360  1
  Te2-  Te141  1  0.00815874  0.16434166  0.33398134  1
  Te2-  Te142  1  0.00372656  0.17082364  0.68021597  1
  Te2-  Te143  1  0.00209048  0.50622111  -0.00255076  1
  Te2-  Te144  1  0.01494934  0.50320088  0.33275735  1
  Te2-  Te145  1  -0.01323303  0.50091770  0.66755617  1
  Te2-  Te146  1  0.00507701  0.83079262  -0.00231159  1
  Te2-  Te147  1  0.00107511  0.83700589  0.33729119  1
  Te2-  Te148  1  0.00616877  0.82735777  0.66482886  1
  Te2-  Te149  1  0.33068044  0.16501631  -0.00003474  1
  Te2-  Te150  1  0.33478364  0.16890291  0.33302005  1
  Te2-  Te151  1  0.33066419  0.18021264  0.66972995  1
  Te2-  Te152  1  0.33812340  0.49842177  0.00120346  1
  Te2-  Te153  1  0.33312643  0.50151388  0.32637380  1
  Te2-  Te154  1  0.33756029  0.49773196  0.66224403  1
  Te2-  Te155  1  0.33383120  0.83087474  -0.00285637  1
  Te2-  Te156  1  0.33743323  0.83091015  0.34141883  1
  Te2-  Te157  1  0.33541020  0.82402369  0.66457214  1
  Te2-  Te158  1  0.66694748  0.16754739  -0.00155094  1
  Te2-  Te159  1  0.65989555  0.17090724  0.33855436  1
  Te2-  Te160  1  0.66663134  0.17632870  0.66208851  1
  Te2-  Te161  1  0.65210427  0.51207222  -0.00169102  1
  Te2-  Te162  1  0.66099430  0.49776830  0.33456756  1
  Te2-  Te163  1  0.67290022  0.50350435  0.66268177  1
  Te2-  Te164  1  0.66198631  0.81928392  -0.01522017  1
  Te2-  Te165  1  0.66333441  0.83110199  0.34143308  1
  Te2-  Te166  1  0.66252586  0.82376489  0.67703676  1
  Te2-  Te167  1  -0.00282427  -0.00222845  0.16627912  1
  Te2-  Te168  1  -0.00165102  -0.00237680  0.50210196  1
  Te2-  Te169  1  -0.01344643  -0.00920426  0.83320662  1
  Te2-  Te170  1  -0.00295546  0.33625707  0.15989146  1
  Te2-  Te171  1  -0.00179720  0.33543692  0.50431653  1
  Te2-  Te172  1  -0.02070711  0.33518100  0.83540310  1
  Te2-  Te173  1  -0.00977736  0.66296565  0.17888176  1
  Te2-  Te174  1  -0.01364205  0.67071079  0.48930102  1
  Te2-  Te175  1  0.00342082  0.66505079  0.83318845  1
  Te2-  Te176  1  0.34723142  0.00019252  0.16710219  1
  Te2-  Te177  1  0.33821017  -0.00434106  0.50599269  1
  Te2-  Te178  1  0.33502352  0.00197044  0.82269082  1
  Te2-  Te179  1  0.34776624  0.32691201  0.15596848  1
  Te2-  Te180  1  0.33430852  0.34784551  0.50187011  1
  Te2-  Te181  1  0.33815654  0.34291024  0.83615884  1
  Te2-  Te182  1  0.34450917  0.66609285  0.17181225  1
  Te2-  Te183  1  0.33347993  0.65754854  0.49403124  1
  Te2-  Te184  1  0.34368875  0.65659204  0.82665669  1
  Te2-  Te185  1  0.65497334  -0.01083161  0.16247926  1
  Te2-  Te186  1  0.66600086  -0.00510172  0.50027731  1
  Te2-  Te187  1  0.67371569  -0.01252902  0.83265222  1
  Te2-  Te188  1  0.65993170  0.33574767  0.16756103  1
  Te2-  Te189  1  0.67007259  0.33816313  0.50003761  1
  Te2-  Te190  1  0.68277154  0.33276296  0.82878010  1
  Te2-  Te191  1  0.66439516  0.67369905  0.16257621  1
  Te2-  Te192  1  0.68723667  0.66579851  0.50777813  1
  Te2-  Te193  1  0.65256147  0.66638033  0.83026279  1
  Pb2+  Pb194  1  0.66791801  0.34335261  -0.00346455  1
  Pb2+  Pb195  1  0.16973352  0.82405742  0.33792623  1
  Pb2+  Pb196  1  0.17210510  -0.00298656  0.16492001  1
  Pb2+  Pb197  1  -0.00104522  0.16637472  0.15993199  1
  Pb2+  Pb198  1  0.50159577  0.34203189  0.50435786  1
  Pb2+  Pb199  1  -0.00694160  0.82844823  0.16767120  1
  Pb2+  Pb200  1  0.33532575  0.17428142  0.50173289  1
  Pb2+  Pb201  1  0.49876083  0.17447064  0.66743613  1
  Pb2+  Pb202  1  0.15891394  0.00319900  0.83352061  1
  Pb2+  Pb203  1  0.00015770  0.33318901  0.33103998  1
  Pb2+  Pb204  1  0.82851247  0.83037408  -0.00335765  1
  Pb2+  Pb205  1  0.16885313  -0.00215574  0.50071838  1
  Pb2+  Pb206  1  0.67117530  0.15852496  0.83063606  1
  Pb2+  Pb207  1  0.17716994  0.34090518  0.16028865  1
  Pb2+  Pb208  1  -0.00581876  0.16763700  0.50885281  1
  Pb2+  Pb209  1  0.82438804  0.67197762  0.83522783  1
  Pb2+  Pb210  1  0.66355508  0.66511406  0.33544928  1
  Pb2+  Pb211  1  0.66361176  0.16504781  0.16612021  1
  Pb2+  Pb212  1  0.66741184  -0.00281478  0.32742039  1
  Pb2+  Pb213  1  0.15999769  0.66238521  0.50316629  1
  Pb2+  Pb214  1  0.34034793  0.83151944  0.16746480  1
  Pb2+  Pb215  1  0.34336135  -0.00220104  -0.00732789  1
