# generated using pymatgen
data_In22Ag21Sn22Bi21(Te54Pb11)2
_symmetry_space_group_name_H-M   'P 1'
_cell_length_a   19.10948713
_cell_length_b   19.10482355
_cell_length_c   19.10952811
_cell_angle_alpha   90.00965810
_cell_angle_beta   90.00187358
_cell_angle_gamma   89.99756525
_symmetry_Int_Tables_number   1
_chemical_formula_structural   In22Ag21Sn22Bi21(Te54Pb11)2
_chemical_formula_sum   'In22 Ag21 Sn22 Bi21 Te108 Pb22'
_cell_volume   6976.57100018
_cell_formula_units_Z   1
loop_
 _symmetry_equiv_pos_site_id
 _symmetry_equiv_pos_as_xyz
  1  'x, y, z'
loop_
 _atom_type_symbol
 _atom_type_oxidation_number
  In3+  3.0
  Ag+  1.0
  Sn2+  2.0
  Bi3+  3.0
  Te2-  -2.0
  Pb2+  2.0
loop_
 _atom_site_type_symbol
 _atom_site_label
 _atom_site_symmetry_multiplicity
 _atom_site_fract_x
 _atom_site_fract_y
 _atom_site_fract_z
 _atom_site_occupancy
  In3+  In0  1  0.32041192  0.50063011  0.50973958  1
  In3+  In1  1  0.51078835  0.50009155  0.68279578  1
  In3+  In2  1  0.16481444  0.00761213  0.82379847  1
  In3+  In3  1  0.82954676  0.65435134  0.16104285  1
  In3+  In4  1  0.14887890  0.80516759  0.66263200  1
  In3+  In5  1  0.83564298  0.82099029  0.33987759  1
  In3+  In6  1  0.31570393  0.81866691  0.17227543  1
  In3+  In7  1  0.17155083  0.50470268  -0.01010329  1
  In3+  In8  1  -0.01058871  0.50299344  0.16525158  1
  In3+  In9  1  -0.00962256  0.35771425  0.33933923  1
  In3+  In10  1  -0.00423467  0.84015295  0.18113388  1
  In3+  In11  1  -0.01155294  0.66653097  0.65827770  1
  In3+  In12  1  0.82679791  0.33370697  0.82186571  1
  In3+  In13  1  0.00338765  0.35821296  0.65987781  1
  In3+  In14  1  0.16167823  0.19725093  0.33336291  1
  In3+  In15  1  0.66543451  0.00311943  0.32415472  1
  In3+  In16  1  0.82067834  0.49876559  0.00086187  1
  In3+  In17  1  0.67353067  -0.01741057  -0.00478415  1
  In3+  In18  1  0.68996621  -0.00658776  0.67137966  1
  In3+  In19  1  0.14127261  0.34176221  0.16668319  1
  In3+  In20  1  0.50904579  0.82761215  0.33383890  1
  In3+  In21  1  0.69251974  0.83139371  0.50081452  1
  Ag+  Ag22  1  0.83846402  0.65564563  0.49533703  1
  Ag+  Ag23  1  0.01168010  0.01811362  0.65517494  1
  Ag+  Ag24  1  0.35559581  0.66440648  0.35884706  1
  Ag+  Ag25  1  0.69098355  0.16441262  0.14074564  1
  Ag+  Ag26  1  0.18830872  0.50055989  0.66674010  1
  Ag+  Ag27  1  -0.00390848  0.66593768  0.31356498  1
  Ag+  Ag28  1  0.18486805  0.51120304  0.30973884  1
  Ag+  Ag29  1  0.69020768  0.51526215  0.83112604  1
  Ag+  Ag30  1  0.82582384  0.81320360  0.68317009  1
  Ag+  Ag31  1  0.83911920  0.33999797  0.16559187  1
  Ag+  Ag32  1  0.82746227  0.51538689  0.63971658  1
  Ag+  Ag33  1  0.52604567  0.19167820  0.33163545  1
  Ag+  Ag34  1  0.65539392  0.52402024  0.19164549  1
  Ag+  Ag35  1  0.52590148  0.68738620  0.83698282  1
  Ag+  Ag36  1  0.84672231  0.36023936  0.52357456  1
  Ag+  Ag37  1  -0.00231834  0.82873541  0.52041244  1
  Ag+  Ag38  1  0.52157985  0.33182147  0.82578724  1
  Ag+  Ag39  1  0.37419679  0.64840678  0.01479717  1
  Ag+  Ag40  1  0.35636469  0.33304888  0.67238238  1
  Ag+  Ag41  1  0.67003684  0.64544170  0.01767560  1
  Ag+  Ag42  1  0.83275930  0.85194055  0.02750964  1
  Sn2+  Sn43  1  -0.01249427  0.66684868  0.00123288  1
  Sn2+  Sn44  1  0.00178367  -0.01004730  0.34641254  1
  Sn2+  Sn45  1  0.33851303  0.17513543  0.82752797  1
  Sn2+  Sn46  1  0.16301776  0.16609417  0.00512008  1
  Sn2+  Sn47  1  0.33718748  0.17619011  0.49506414  1
  Sn2+  Sn48  1  0.16003835  0.82740674  -0.00726542  1
  Sn2+  Sn49  1  0.15443333  0.66229045  0.48979506  1
  Sn2+  Sn50  1  -0.00341134  0.49693022  0.83701409  1
  Sn2+  Sn51  1  0.67223258  0.82181709  0.83542509  1
  Sn2+  Sn52  1  0.65886083  0.16834604  0.83606534  1
  Sn2+  Sn53  1  0.00217999  0.51380369  0.49933629  1
  Sn2+  Sn54  1  0.32093514  0.00387397  0.66649883  1
  Sn2+  Sn55  1  0.50242714  0.66074178  0.50516284  1
  Sn2+  Sn56  1  -0.00256826  0.16351092  0.82985917  1
  Sn2+  Sn57  1  0.83719338  0.16667908  0.33155804  1
  Sn2+  Sn58  1  -0.00474612  0.16518015  0.16947481  1
  Sn2+  Sn59  1  -0.00736919  0.33689689  -0.00118529  1
  Sn2+  Sn60  1  0.48929626  0.50150268  0.33245627  1
  Sn2+  Sn61  1  0.16509942  0.00859109  0.16359248  1
  Sn2+  Sn62  1  0.32834232  0.34366378  0.33752408  1
  Sn2+  Sn63  1  0.83709538  -0.00260160  0.82881456  1
  Sn2+  Sn64  1  -0.00091008  -0.00829113  -0.00451056  1
  Bi3+  Bi65  1  0.15874453  0.33334134  0.83645190  1
  Bi3+  Bi66  1  0.49920662  0.00048919  0.16885345  1
  Bi3+  Bi67  1  0.67317323  0.33053788  0.32819064  1
  Bi3+  Bi68  1  0.15940462  0.33856313  0.50092780  1
  Bi3+  Bi69  1  0.16502421  0.66609007  0.83283176  1
  Bi3+  Bi70  1  0.33210376  0.83098243  0.83383287  1
  Bi3+  Bi71  1  0.67054578  0.33352346  0.66359971  1
  Bi3+  Bi72  1  0.83293434  0.50226932  0.32951442  1
  Bi3+  Bi73  1  0.49961758  -0.00350971  0.49953832  1
  Bi3+  Bi74  1  0.16135813  0.82094043  0.33444788  1
  Bi3+  Bi75  1  0.66927454  0.66591656  0.66432218  1
  Bi3+  Bi76  1  0.50384921  0.33240156  0.16567177  1
  Bi3+  Bi77  1  -0.00215655  0.83232999  0.83509016  1
  Bi3+  Bi78  1  0.50183252  0.49942813  -0.00619253  1
  Bi3+  Bi79  1  0.83127616  0.00174119  0.49757728  1
  Bi3+  Bi80  1  0.83378699  0.16188595  0.66675067  1
  Bi3+  Bi81  1  0.33113110  -0.00524405  -0.00012115  1
  Bi3+  Bi82  1  0.66685291  0.33642239  0.00312513  1
  Bi3+  Bi83  1  0.33092084  0.16587510  0.16881258  1
  Bi3+  Bi84  1  0.66542967  0.16177662  0.50183115  1
  Bi3+  Bi85  1  0.32955917  0.50071795  0.83004255  1
  Te2-  Te86  1  0.16809984  0.17881196  0.17358389  1
  Te2-  Te87  1  0.16688412  0.17378140  0.49457546  1
  Te2-  Te88  1  0.16683775  0.16803066  0.83601867  1
  Te2-  Te89  1  0.16375332  0.49164094  0.16417922  1
  Te2-  Te90  1  0.16308401  0.49784804  0.51555017  1
  Te2-  Te91  1  0.16329355  0.49884466  0.82732185  1
  Te2-  Te92  1  0.15616379  0.83231896  0.16363420  1
  Te2-  Te93  1  0.15435170  0.82820900  0.50570907  1
  Te2-  Te94  1  0.16569425  0.83286189  0.82490793  1
  Te2-  Te95  1  0.49167000  0.16385510  0.18508464  1
  Te2-  Te96  1  0.50083861  0.16169592  0.48241286  1
  Te2-  Te97  1  0.49689557  0.17816743  0.83285217  1
  Te2-  Te98  1  0.51154504  0.49813910  0.16158045  1
  Te2-  Te99  1  0.49830830  0.50405643  0.49495675  1
  Te2-  Te100  1  0.48981439  0.48295882  0.83279849  1
  Te2-  Te101  1  0.50356380  0.83581111  0.17287079  1
  Te2-  Te102  1  0.49489866  0.83047911  0.49202903  1
  Te2-  Te103  1  0.49831377  0.83243130  0.83090800  1
  Te2-  Te104  1  0.83618328  0.17141686  0.16905287  1
  Te2-  Te105  1  0.82865109  0.16488042  0.50107239  1
  Te2-  Te106  1  0.83147237  0.16944173  0.83002123  1
  Te2-  Te107  1  0.82974392  0.49578333  0.16626683  1
  Te2-  Te108  1  0.83566329  0.50253740  0.49165044  1
  Te2-  Te109  1  0.83745643  0.49102201  0.84481612  1
  Te2-  Te110  1  0.84044302  0.83042223  0.17419881  1
  Te2-  Te111  1  0.84423407  0.83903578  0.49444907  1
  Te2-  Te112  1  0.83409235  0.83517729  0.82902764  1
  Te2-  Te113  1  0.16681387  -0.00427157  -0.00166749  1
  Te2-  Te114  1  0.16413950  -0.01591394  0.32981548  1
  Te2-  Te115  1  0.16082321  0.00483541  0.66925774  1
  Te2-  Te116  1  0.16288312  0.33846749  0.00063093  1
  Te2-  Te117  1  0.16061749  0.35430835  0.33746922  1
  Te2-  Te118  1  0.15357539  0.34733158  0.66727768  1
  Te2-  Te119  1  0.15883001  0.66137254  -0.00396909  1
  Te2-  Te120  1  0.15047260  0.65863308  0.33297294  1
  Te2-  Te121  1  0.15936499  0.65336077  0.66689497  1
  Te2-  Te122  1  0.50012628  -0.00139788  0.00234844  1
  Te2-  Te123  1  0.50076161  -0.01372684  0.33406651  1
  Te2-  Te124  1  0.49134616  -0.00033684  0.66205555  1
  Te2-  Te125  1  0.50013283  0.33368090  -0.00199740  1
  Te2-  Te126  1  0.50012038  0.33817393  0.33133577  1
  Te2-  Te127  1  0.50637577  0.33957988  0.67061083  1
  Te2-  Te128  1  0.51730475  0.66286613  -0.01183409  1
  Te2-  Te129  1  0.50132199  0.66996982  0.33292338  1
  Te2-  Te130  1  0.50472242  0.65761643  0.67433922  1
  Te2-  Te131  1  0.82918244  -0.00270150  -0.00146781  1
  Te2-  Te132  1  0.83525338  -0.00102590  0.33567069  1
  Te2-  Te133  1  0.84429985  -0.00056521  0.66275066  1
  Te2-  Te134  1  0.83110322  0.34106736  0.01222765  1
  Te2-  Te135  1  0.83651034  0.33540398  0.32193720  1
  Te2-  Te136  1  0.83543592  0.32790433  0.66658624  1
  Te2-  Te137  1  0.82303522  0.65577320  0.00398170  1
  Te2-  Te138  1  0.84228740  0.66728685  0.34174721  1
  Te2-  Te139  1  0.83378399  0.66788781  0.65648323  1
  Te2-  Te140  1  0.00495020  0.16254437  0.00063404  1
  Te2-  Te141  1  0.00872860  0.15928398  0.32982954  1
  Te2-  Te142  1  -0.00358943  0.16478870  0.66847398  1
  Te2-  Te143  1  0.00063967  0.49647040  0.01015697  1
  Te2-  Te144  1  -0.00422766  0.51017052  0.32428137  1
  Te2-  Te145  1  -0.02408203  0.50546042  0.66895865  1
  Te2-  Te146  1  -0.01356506  0.83177321  -0.00334576  1
  Te2-  Te147  1  -0.00103357  0.82192026  0.33233616  1
  Te2-  Te148  1  -0.00357468  0.82310391  0.67124355  1
  Te2-  Te149  1  0.33013875  0.16209908  0.00189306  1
  Te2-  Te150  1  0.31647467  0.16989654  0.33235936  1
  Te2-  Te151  1  0.33317294  0.17962990  0.66313509  1
  Te2-  Te152  1  0.33270866  0.50572631  -0.00231965  1
  Te2-  Te153  1  0.33024344  0.51231038  0.33932647  1
  Te2-  Te154  1  0.33956477  0.48907330  0.66473975  1
  Te2-  Te155  1  0.32949533  0.83408669  -0.00182857  1
  Te2-  Te156  1  0.32353005  0.81406335  0.32795929  1
  Te2-  Te157  1  0.33079875  0.83449455  0.67009630  1
  Te2-  Te158  1  0.66771148  0.17321861  -0.00513701  1
  Te2-  Te159  1  0.67130937  0.16515002  0.33990313  1
  Te2-  Te160  1  0.66781947  0.16686504  0.66782550  1
  Te2-  Te161  1  0.66702141  0.49797307  -0.01416359  1
  Te2-  Te162  1  0.66684510  0.49472583  0.33500048  1
  Te2-  Te163  1  0.67733062  0.49651214  0.67635250  1
  Te2-  Te164  1  0.68102351  0.83253411  -0.00243252  1
  Te2-  Te165  1  0.67382608  0.83756175  0.33899823  1
  Te2-  Te166  1  0.67680475  0.83232148  0.66455084  1
  Te2-  Te167  1  0.00227086  -0.00470040  0.16601609  1
  Te2-  Te168  1  -0.00335354  -0.00986936  0.50726630  1
  Te2-  Te169  1  0.00570060  -0.00459730  0.83020048  1
  Te2-  Te170  1  -0.00836358  0.33470759  0.17366577  1
  Te2-  Te171  1  -0.00701508  0.33651711  0.49643486  1
  Te2-  Te172  1  -0.00317950  0.33003555  0.83354351  1
  Te2-  Te173  1  -0.01222645  0.66528732  0.16273435  1
  Te2-  Te174  1  -0.00966629  0.67297921  0.50673012  1
  Te2-  Te175  1  0.00219593  0.66640250  0.83418916  1
  Te2-  Te176  1  0.33325407  -0.00314339  0.16328995  1
  Te2-  Te177  1  0.33427074  0.00136869  0.49963807  1
  Te2-  Te178  1  0.32809835  -0.00023340  0.83440726  1
  Te2-  Te179  1  0.33933127  0.33052119  0.16861338  1
  Te2-  Te180  1  0.32694669  0.34110579  0.50369386  1
  Te2-  Te181  1  0.31968459  0.33508781  0.82358800  1
  Te2-  Te182  1  0.33103361  0.66843323  0.15487931  1
  Te2-  Te183  1  0.33117559  0.65819927  0.50406066  1
  Te2-  Te184  1  0.32629489  0.66649887  0.83810838  1
  Te2-  Te185  1  0.66176621  0.01423518  0.16205507  1
  Te2-  Te186  1  0.66373246  -0.00508051  0.50718161  1
  Te2-  Te187  1  0.66737435  -0.00186304  0.83426852  1
  Te2-  Te188  1  0.66452470  0.31671751  0.16673325  1
  Te2-  Te189  1  0.67182336  0.32762642  0.49734989  1
  Te2-  Te190  1  0.67140810  0.33546230  0.83151301  1
  Te2-  Te191  1  0.67614224  0.66758839  0.16468883  1
  Te2-  Te192  1  0.67331044  0.67515271  0.50246727  1
  Te2-  Te193  1  0.66912135  0.66169570  0.82500679  1
  Pb2+  Pb194  1  0.83506935  0.66399839  0.83144538  1
  Pb2+  Pb195  1  0.67362620  0.66545642  0.33325651  1
  Pb2+  Pb196  1  0.50000027  0.00367035  0.83046339  1
  Pb2+  Pb197  1  0.50360775  0.82813197  -0.00083424  1
  Pb2+  Pb198  1  0.49909885  0.16599747  0.65890921  1
  Pb2+  Pb199  1  0.50174152  0.33487610  0.50110204  1
  Pb2+  Pb200  1  0.16080910  0.66233893  0.16586454  1
  Pb2+  Pb201  1  0.33062027  0.66343432  0.67242589  1
  Pb2+  Pb202  1  0.83745228  0.17002586  -0.00048924  1
  Pb2+  Pb203  1  0.67129108  0.84158349  0.16759284  1
  Pb2+  Pb204  1  0.50570205  0.82974641  0.66094674  1
  Pb2+  Pb205  1  0.83360124  0.00304794  0.16791673  1
  Pb2+  Pb206  1  0.49934204  0.66624539  0.16152574  1
  Pb2+  Pb207  1  0.32466181  0.82817728  0.49925994  1
  Pb2+  Pb208  1  -0.00320382  0.16314088  0.49668698  1
  Pb2+  Pb209  1  0.33206343  -0.00553545  0.33103320  1
  Pb2+  Pb210  1  0.66581141  0.50142581  0.50829229  1
  Pb2+  Pb211  1  0.50005389  0.16633199  0.01230181  1
  Pb2+  Pb212  1  0.33858392  0.49762955  0.17121747  1
  Pb2+  Pb213  1  0.33054171  0.33483059  -0.00588960  1
  Pb2+  Pb214  1  0.16528216  0.17623296  0.66731231  1
  Pb2+  Pb215  1  0.16400354  -0.00123861  0.49818903  1
