# generated using pymatgen
data_In22Ag21Sn22Bi21(Te54Pb11)2
_symmetry_space_group_name_H-M   'P 1'
_cell_length_a   19.12450597
_cell_length_b   19.13606724
_cell_length_c   19.14944022
_cell_angle_alpha   89.98777427
_cell_angle_beta   89.98901091
_cell_angle_gamma   90.02244739
_symmetry_Int_Tables_number   1
_chemical_formula_structural   In22Ag21Sn22Bi21(Te54Pb11)2
_chemical_formula_sum   'In22 Ag21 Sn22 Bi21 Te108 Pb22'
_cell_volume   7008.07829623
_cell_formula_units_Z   1
loop_
 _symmetry_equiv_pos_site_id
 _symmetry_equiv_pos_as_xyz
  1  'x, y, z'
loop_
 _atom_type_symbol
 _atom_type_oxidation_number
  In3+  3.0
  Ag+  1.0
  Sn2+  2.0
  Bi3+  3.0
  Te2-  -2.0
  Pb2+  2.0
loop_
 _atom_site_type_symbol
 _atom_site_label
 _atom_site_symmetry_multiplicity
 _atom_site_fract_x
 _atom_site_fract_y
 _atom_site_fract_z
 _atom_site_occupancy
  In3+  In0  1  0.33057424  0.84797008  0.15707312  1
  In3+  In1  1  0.16604469  0.33669297  0.20339606  1
  In3+  In2  1  0.17167842  0.84675135  0.34568828  1
  In3+  In3  1  0.18255638  0.00903365  0.16295442  1
  In3+  In4  1  0.85570818  0.66187006  0.83711449  1
  In3+  In5  1  0.84368608  0.84152280  -0.00347020  1
  In3+  In6  1  0.00605188  0.17210385  0.81851795  1
  In3+  In7  1  0.84151841  0.33857555  0.51082657  1
  In3+  In8  1  0.81508821  0.66859877  0.15792116  1
  In3+  In9  1  0.49036193  0.68799754  0.49986742  1
  In3+  In10  1  0.00524969  0.82803465  0.17826884  1
  In3+  In11  1  0.16119452  0.48656194  -0.00164945  1
  In3+  In12  1  0.50201742  0.16260145  -0.01183432  1
  In3+  In13  1  0.49712011  0.15731971  0.66357598  1
  In3+  In14  1  0.83394128  0.15330600  0.66630892  1
  In3+  In15  1  0.83321904  -0.01336271  0.49120385  1
  In3+  In16  1  0.49696205  0.66415563  0.14798406  1
  In3+  In17  1  0.33635068  -0.01136556  0.64638476  1
  In3+  In18  1  0.84339735  0.49933953  0.68096250  1
  In3+  In19  1  0.83789714  0.00577636  0.16694547  1
  In3+  In20  1  0.48417860  0.17166428  0.33784507  1
  In3+  In21  1  0.65447268  0.17357591  0.18257995  1
  Ag+  Ag22  1  0.30760264  0.85676173  0.81959865  1
  Ag+  Ag23  1  0.69266584  0.33326944  0.31099517  1
  Ag+  Ag24  1  0.48252136  -0.00840112  0.49706055  1
  Ag+  Ag25  1  0.82317554  0.31234226  0.84121873  1
  Ag+  Ag26  1  0.32262490  -0.01875211  0.34235249  1
  Ag+  Ag27  1  0.68986117  0.67037826  -0.01849409  1
  Ag+  Ag28  1  0.52520223  0.30942998  0.14078544  1
  Ag+  Ag29  1  0.67118980  0.30953217  -0.02545051  1
  Ag+  Ag30  1  0.17145806  0.14070471  0.34474827  1
  Ag+  Ag31  1  0.14229739  0.35259381  0.50748269  1
  Ag+  Ag32  1  0.14824569  0.52226559  0.36532714  1
  Ag+  Ag33  1  0.14180274  0.64342721  0.47752925  1
  Ag+  Ag34  1  0.32699840  0.68949132  -0.02082952  1
  Ag+  Ag35  1  0.01487417  0.86180779  0.82979853  1
  Ag+  Ag36  1  -0.02178900  0.67153108  0.65617777  1
  Ag+  Ag37  1  -0.00886140  0.52630366  0.52091385  1
  Ag+  Ag38  1  0.01197837  0.51234445  0.81530239  1
  Ag+  Ag39  1  0.46724317  0.00175462  0.86415094  1
  Ag+  Ag40  1  0.31972301  0.81772562  0.47449354  1
  Ag+  Ag41  1  0.34023232  -0.01696957  -0.02871990  1
  Ag+  Ag42  1  0.18635257  -0.00185129  0.52585360  1
  Sn2+  Sn43  1  0.65639191  -0.00072173  0.66455025  1
  Sn2+  Sn44  1  0.84430146  0.83125145  0.67213596  1
  Sn2+  Sn45  1  0.84095825  0.50005564  0.33787554  1
  Sn2+  Sn46  1  0.66603319  0.66711555  0.67631359  1
  Sn2+  Sn47  1  0.16622589  0.66638988  0.82412724  1
  Sn2+  Sn48  1  0.16490370  0.50770975  0.66692488  1
  Sn2+  Sn49  1  0.01284227  0.66955807  -0.00948454  1
  Sn2+  Sn50  1  0.50036994  -0.00160862  0.17636186  1
  Sn2+  Sn51  1  0.16440147  0.82529117  0.00191329  1
  Sn2+  Sn52  1  0.17083281  0.16562591  0.00411931  1
  Sn2+  Sn53  1  0.49716380  0.68287919  0.83029957  1
  Sn2+  Sn54  1  0.32946734  0.33122916  0.66185303  1
  Sn2+  Sn55  1  0.49175523  0.84026881  0.33560442  1
  Sn2+  Sn56  1  0.01121797  0.16796677  0.49421210  1
  Sn2+  Sn57  1  0.65536610  0.00673425  0.33510745  1
  Sn2+  Sn58  1  0.16793371  -0.00634039  0.84155841  1
  Sn2+  Sn59  1  0.67182358  0.50086835  0.84322263  1
  Sn2+  Sn60  1  0.32976814  0.66542127  0.33376049  1
  Sn2+  Sn61  1  0.50933878  0.49289218  0.66575426  1
  Sn2+  Sn62  1  0.66891111  0.33465943  0.66443664  1
  Sn2+  Sn63  1  0.00876044  0.00357096  0.33513659  1
  Sn2+  Sn64  1  0.34349956  0.33587377  0.00224780  1
  Bi3+  Bi65  1  0.49642822  0.49785133  0.33552725  1
  Bi3+  Bi66  1  0.66246342  0.49836530  0.16732472  1
  Bi3+  Bi67  1  0.33404857  0.17164791  0.16895062  1
  Bi3+  Bi68  1  0.33315988  0.16588247  0.49801769  1
  Bi3+  Bi69  1  0.66671028  0.16268175  0.82974767  1
  Bi3+  Bi70  1  0.16428036  0.33389316  0.82552885  1
  Bi3+  Bi71  1  0.32853647  0.49904129  0.83380645  1
  Bi3+  Bi72  1  0.33474029  0.66737586  0.67129005  1
  Bi3+  Bi73  1  0.17008329  0.66641572  0.16706589  1
  Bi3+  Bi74  1  0.66202007  0.83133393  0.83563048  1
  Bi3+  Bi75  1  0.49779542  0.32924589  0.50071135  1
  Bi3+  Bi76  1  0.33201540  0.50034274  0.16660225  1
  Bi3+  Bi77  1  0.00413380  0.16241897  0.16716334  1
  Bi3+  Bi78  1  0.00283328  0.33197610  0.33349042  1
  Bi3+  Bi79  1  0.49746994  0.83301831  0.00055738  1
  Bi3+  Bi80  1  0.66712672  0.16975423  0.49926845  1
  Bi3+  Bi81  1  0.83168905  0.50114127  0.00020706  1
  Bi3+  Bi82  1  0.50347307  0.83299499  0.67122820  1
  Bi3+  Bi83  1  0.50046200  0.49994509  -0.00175092  1
  Bi3+  Bi84  1  0.33222423  0.33255339  0.33455877  1
  Bi3+  Bi85  1  0.00174266  0.50157660  0.16581554  1
  Te2-  Te86  1  0.16771815  0.16774548  0.16477401  1
  Te2-  Te87  1  0.17000258  0.14797240  0.49359921  1
  Te2-  Te88  1  0.16125246  0.16987511  0.83343342  1
  Te2-  Te89  1  0.16657020  0.49979862  0.15843217  1
  Te2-  Te90  1  0.15958009  0.50080016  0.50960287  1
  Te2-  Te91  1  0.16099565  0.49522619  0.83724290  1
  Te2-  Te92  1  0.16671238  0.82929792  0.16611484  1
  Te2-  Te93  1  0.17581295  0.85082429  0.49474174  1
  Te2-  Te94  1  0.16456368  0.83464691  0.83996126  1
  Te2-  Te95  1  0.49942997  0.16870379  0.17565311  1
  Te2-  Te96  1  0.50227832  0.16259559  0.50094083  1
  Te2-  Te97  1  0.50272400  0.15081710  0.83330384  1
  Te2-  Te98  1  0.49777883  0.50049893  0.16927404  1
  Te2-  Te99  1  0.49777966  0.49327375  0.49924122  1
  Te2-  Te100  1  0.49682195  0.50184706  0.83592969  1
  Te2-  Te101  1  0.49285082  0.82768606  0.16675969  1
  Te2-  Te102  1  0.49306972  0.84212078  0.50504290  1
  Te2-  Te103  1  0.50054878  0.84964506  0.83569975  1
  Te2-  Te104  1  0.83971273  0.16116630  0.16863998  1
  Te2-  Te105  1  0.83049735  0.18111190  0.51058118  1
  Te2-  Te106  1  0.83108301  0.16629384  0.82449241  1
  Te2-  Te107  1  0.83364532  0.50460781  0.16634100  1
  Te2-  Te108  1  0.84370350  0.49442771  0.49997854  1
  Te2-  Te109  1  0.83880744  0.50584015  0.83614338  1
  Te2-  Te110  1  0.84026386  0.82988706  0.15568577  1
  Te2-  Te111  1  0.83363269  0.83233709  0.50190294  1
  Te2-  Te112  1  0.82430915  0.82371401  0.83887948  1
  Te2-  Te113  1  0.18580506  0.00000189  0.00843055  1
  Te2-  Te114  1  0.17383166  -0.00211915  0.31881876  1
  Te2-  Te115  1  0.16960032  -0.00070214  0.67264234  1
  Te2-  Te116  1  0.17070043  0.33280157  -0.01013322  1
  Te2-  Te117  1  0.16677626  0.33976540  0.35391925  1
  Te2-  Te118  1  0.16833116  0.33496636  0.65919259  1
  Te2-  Te119  1  0.17707457  0.66684143  0.00306632  1
  Te2-  Te120  1  0.16918782  0.66755648  0.33414300  1
  Te2-  Te121  1  0.17475953  0.66634900  0.66391314  1
  Te2-  Te122  1  0.48920790  -0.00158007  0.01034982  1
  Te2-  Te123  1  0.49967299  0.00425497  0.34280171  1
  Te2-  Te124  1  0.49542985  -0.00284832  0.65389983  1
  Te2-  Te125  1  0.51259056  0.33649357  -0.00209514  1
  Te2-  Te126  1  0.49474562  0.33231168  0.33794006  1
  Te2-  Te127  1  0.49823084  0.32729145  0.66570333  1
  Te2-  Te128  1  0.48169562  0.66717108  -0.00277538  1
  Te2-  Te129  1  0.49669353  0.66315400  0.34632663  1
  Te2-  Te130  1  0.49891466  0.66763078  0.66356156  1
  Te2-  Te131  1  0.83262246  -0.00323612  0.00513299  1
  Te2-  Te132  1  0.83280660  -0.00005383  0.33367776  1
  Te2-  Te133  1  0.83181814  -0.00008128  0.65851405  1
  Te2-  Te134  1  0.82236854  0.33758616  -0.01109141  1
  Te2-  Te135  1  0.83876875  0.33483557  0.33666660  1
  Te2-  Te136  1  0.83178192  0.34534155  0.66866548  1
  Te2-  Te137  1  0.83685969  0.66257223  -0.00291647  1
  Te2-  Te138  1  0.83239414  0.66435992  0.33036544  1
  Te2-  Te139  1  0.83129721  0.66164293  0.67847982  1
  Te2-  Te140  1  0.00066625  0.16333481  0.00667122  1
  Te2-  Te141  1  0.01646907  0.16820762  0.32763110  1
  Te2-  Te142  1  -0.00567959  0.16726685  0.66358000  1
  Te2-  Te143  1  -0.00161846  0.50048322  0.00476617  1
  Te2-  Te144  1  0.00704851  0.49481403  0.32761081  1
  Te2-  Te145  1  -0.00430028  0.51147104  0.66785490  1
  Te2-  Te146  1  -0.00593571  0.83130592  -0.02194397  1
  Te2-  Te147  1  0.00417663  0.83402807  0.33117759  1
  Te2-  Te148  1  -0.00272402  0.82427148  0.68259953  1
  Te2-  Te149  1  0.34455065  0.17005006  0.00746795  1
  Te2-  Te150  1  0.32470526  0.16948569  0.33151600  1
  Te2-  Te151  1  0.34076058  0.16122304  0.66360092  1
  Te2-  Te152  1  0.33607793  0.49723524  0.00059433  1
  Te2-  Te153  1  0.33259996  0.49633293  0.33086382  1
  Te2-  Te154  1  0.33779583  0.50068320  0.67052745  1
  Te2-  Te155  1  0.33563696  0.83640817  0.00672495  1
  Te2-  Te156  1  0.33321180  0.83508604  0.32911539  1
  Te2-  Te157  1  0.34094182  0.83494379  0.67651201  1
  Te2-  Te158  1  0.65842717  0.16339599  -0.00533334  1
  Te2-  Te159  1  0.67065846  0.17952351  0.33382257  1
  Te2-  Te160  1  0.66522320  0.16475734  0.66568485  1
  Te2-  Te161  1  0.66425119  0.51644866  0.00679890  1
  Te2-  Te162  1  0.66578543  0.48628758  0.32895255  1
  Te2-  Te163  1  0.66794251  0.50284397  0.67344875  1
  Te2-  Te164  1  0.66158416  0.82105441  0.00095428  1
  Te2-  Te165  1  0.66228240  0.83553721  0.33169165  1
  Te2-  Te166  1  0.66855994  0.83350112  0.66925258  1
  Te2-  Te167  1  -0.00607235  -0.00630825  0.16929439  1
  Te2-  Te168  1  -0.01188740  0.00395083  0.49458060  1
  Te2-  Te169  1  0.00047558  0.01034316  0.83498656  1
  Te2-  Te170  1  0.00433356  0.33238124  0.16698581  1
  Te2-  Te171  1  -0.00297485  0.32842430  0.49684014  1
  Te2-  Te172  1  -0.00130487  0.32671733  0.83198747  1
  Te2-  Te173  1  0.00744654  0.66836342  0.16242681  1
  Te2-  Te174  1  0.00018053  0.67197406  0.50777939  1
  Te2-  Te175  1  0.00630295  0.65854266  0.82965935  1
  Te2-  Te176  1  0.33541514  0.00451885  0.18094809  1
  Te2-  Te177  1  0.33415186  0.00501872  0.49350249  1
  Te2-  Te178  1  0.32565008  0.00214937  0.82577005  1
  Te2-  Te179  1  0.32686025  0.33501083  0.16763013  1
  Te2-  Te180  1  0.33465789  0.33027803  0.50028785  1
  Te2-  Te181  1  0.33099990  0.33577046  0.83143303  1
  Te2-  Te182  1  0.33387487  0.66121148  0.17151508  1
  Te2-  Te183  1  0.33593756  0.67446791  0.50657744  1
  Te2-  Te184  1  0.33048630  0.65999029  0.83434905  1
  Te2-  Te185  1  0.66965635  0.01077672  0.17001345  1
  Te2-  Te186  1  0.68036192  0.00785489  0.49647464  1
  Te2-  Te187  1  0.66764983  -0.00206214  0.83105656  1
  Te2-  Te188  1  0.66801339  0.32828796  0.16589330  1
  Te2-  Te189  1  0.66212591  0.33037130  0.50326478  1
  Te2-  Te190  1  0.67333219  0.32876483  0.82843783  1
  Te2-  Te191  1  0.65921124  0.66452922  0.16897322  1
  Te2-  Te192  1  0.66317228  0.66479107  0.50478546  1
  Te2-  Te193  1  0.65750447  0.66794206  0.83786196  1
  Pb2+  Pb194  1  0.65958395  0.83572838  0.49947101  1
  Pb2+  Pb195  1  0.00112868  0.66200518  0.33361825  1
  Pb2+  Pb196  1  0.00978464  0.83619515  0.50511399  1
  Pb2+  Pb197  1  0.66548879  0.83948295  0.16601323  1
  Pb2+  Pb198  1  0.32572922  0.50813030  0.49983341  1
  Pb2+  Pb199  1  0.50576912  0.32862217  0.83298669  1
  Pb2+  Pb200  1  0.00059861  0.34317997  0.66632263  1
  Pb2+  Pb201  1  0.83383385  0.33524318  0.16242030  1
  Pb2+  Pb202  1  0.83080269  0.17006069  -0.00257870  1
  Pb2+  Pb203  1  0.33047686  0.16635569  0.83706130  1
  Pb2+  Pb204  1  0.00305155  -0.00553897  0.66445376  1
  Pb2+  Pb205  1  0.17032319  0.83140877  0.66550666  1
  Pb2+  Pb206  1  0.66986773  0.49757097  0.50230338  1
  Pb2+  Pb207  1  0.83225744  0.66266691  0.50537064  1
  Pb2+  Pb208  1  -0.00032698  0.33278557  -0.00308733  1
  Pb2+  Pb209  1  0.66309362  0.65854940  0.33598899  1
  Pb2+  Pb210  1  0.01339752  -0.00454439  0.00338784  1
  Pb2+  Pb211  1  0.84076696  0.16609308  0.34170513  1
  Pb2+  Pb212  1  0.65895808  -0.00683370  -0.00083740  1
  Pb2+  Pb213  1  0.83373899  -0.00658748  0.82829541  1
  Pb2+  Pb214  1  0.83168730  0.83316487  0.32690019  1
  Pb2+  Pb215  1  0.16884733  0.16659106  0.65716897  1
