# generated using pymatgen
data_In22Ag21Sn22Bi21(Te54Pb11)2
_symmetry_space_group_name_H-M   'P 1'
_cell_length_a   19.18609236
_cell_length_b   19.16359412
_cell_length_c   19.16415903
_cell_angle_alpha   90.00977185
_cell_angle_beta   90.01413503
_cell_angle_gamma   89.99849505
_symmetry_Int_Tables_number   1
_chemical_formula_structural   In22Ag21Sn22Bi21(Te54Pb11)2
_chemical_formula_sum   'In22 Ag21 Sn22 Bi21 Te108 Pb22'
_cell_volume   7046.17201454
_cell_formula_units_Z   1
loop_
 _symmetry_equiv_pos_site_id
 _symmetry_equiv_pos_as_xyz
  1  'x, y, z'
loop_
 _atom_type_symbol
 _atom_type_oxidation_number
  In3+  3.0
  Ag+  1.0
  Sn2+  2.0
  Bi3+  3.0
  Te2-  -2.0
  Pb2+  2.0
loop_
 _atom_site_type_symbol
 _atom_site_label
 _atom_site_symmetry_multiplicity
 _atom_site_fract_x
 _atom_site_fract_y
 _atom_site_fract_z
 _atom_site_occupancy
  In3+  In0  1  -0.00196025  0.16004379  0.81633842  1
  In3+  In1  1  0.83193964  0.00601057  0.52113410  1
  In3+  In2  1  -0.02000638  0.48453850  0.83492737  1
  In3+  In3  1  0.14728418  0.16915324  -0.01493104  1
  In3+  In4  1  0.34565700  0.32663148  -0.00341807  1
  In3+  In5  1  0.50467007  0.32866750  0.17216751  1
  In3+  In6  1  0.33566037  0.29955809  0.68039521  1
  In3+  In7  1  0.83223479  -0.01489120  0.16840346  1
  In3+  In8  1  0.68982469  0.67423388  0.00450396  1
  In3+  In9  1  0.68804839  0.16237065  0.16902615  1
  In3+  In10  1  0.81828961  0.33912471  0.82016926  1
  In3+  In11  1  0.81958871  0.16718757  0.00351350  1
  In3+  In12  1  0.66819554  0.34846697  0.00116097  1
  In3+  In13  1  0.13341592  0.81459652  0.33086290  1
  In3+  In14  1  0.50182029  0.00133881  0.52696141  1
  In3+  In15  1  0.33814344  0.47396925  0.80716421  1
  In3+  In16  1  0.52586185  0.83525424  -0.01968802  1
  In3+  In17  1  0.67851601  0.83869115  0.16954177  1
  In3+  In18  1  0.15052556  0.00405992  0.16621325  1
  In3+  In19  1  0.16172851  0.65314222  0.16704613  1
  In3+  In20  1  0.67213456  0.83726831  0.81847406  1
  In3+  In21  1  0.15187064  0.50868151  0.33700955  1
  Ag+  Ag22  1  0.80211541  0.50290547  0.64978179  1
  Ag+  Ag23  1  0.68360531  0.33179926  0.64728128  1
  Ag+  Ag24  1  -0.00330379  0.02659679  0.64015423  1
  Ag+  Ag25  1  0.82141527  0.85751079  -0.01409700  1
  Ag+  Ag26  1  0.51279543  0.02158346  0.84365624  1
  Ag+  Ag27  1  0.85295932  0.49556297  0.35579006  1
  Ag+  Ag28  1  0.83571050  0.86074856  0.35592237  1
  Ag+  Ag29  1  -0.02997368  0.66607674  0.34842824  1
  Ag+  Ag30  1  -0.01688355  0.35727943  0.66730369  1
  Ag+  Ag31  1  0.68408068  0.01512666  -0.00149381  1
  Ag+  Ag32  1  0.47819216  0.16958220  0.69409937  1
  Ag+  Ag33  1  0.18180003  0.15385689  0.68557230  1
  Ag+  Ag34  1  0.69041920  0.33168632  0.35247294  1
  Ag+  Ag35  1  0.52626470  0.86959539  0.69442489  1
  Ag+  Ag36  1  0.36053483  0.14358345  0.84338750  1
  Ag+  Ag37  1  -0.00671181  0.18685002  0.16774743  1
  Ag+  Ag38  1  0.35732817  -0.00450910  0.65675724  1
  Ag+  Ag39  1  0.52328348  0.31701532  0.81963339  1
  Ag+  Ag40  1  0.80318248  0.46670022  -0.00091281  1
  Ag+  Ag41  1  0.66331480  0.47299294  0.47393830  1
  Ag+  Ag42  1  -0.02982920  0.47959322  0.19312665  1
  Sn2+  Sn43  1  0.16901683  0.47638036  0.66441969  1
  Sn2+  Sn44  1  0.82466851  0.00596668  0.84148056  1
  Sn2+  Sn45  1  0.16818159  0.00422962  0.50646148  1
  Sn2+  Sn46  1  0.34171184  0.66839727  0.33638666  1
  Sn2+  Sn47  1  0.67139115  0.65270586  0.33651118  1
  Sn2+  Sn48  1  0.66478839  0.16807941  0.50595343  1
  Sn2+  Sn49  1  0.16314360  0.67044204  0.50456938  1
  Sn2+  Sn50  1  0.49638435  0.65983506  0.82986006  1
  Sn2+  Sn51  1  -0.00538959  0.83669874  0.83611612  1
  Sn2+  Sn52  1  0.50306059  0.16636408  0.33823094  1
  Sn2+  Sn53  1  0.33576885  0.16624176  0.51698871  1
  Sn2+  Sn54  1  0.32713183  0.16520487  0.16088085  1
  Sn2+  Sn55  1  0.16166695  0.66806888  0.83132410  1
  Sn2+  Sn56  1  -0.00084626  0.00748011  -0.00492563  1
  Sn2+  Sn57  1  0.65854853  0.50789422  0.83162326  1
  Sn2+  Sn58  1  0.33243482  0.00051027  0.33937723  1
  Sn2+  Sn59  1  0.32979909  0.50078683  0.16691552  1
  Sn2+  Sn60  1  0.83137096  0.33773613  0.50101811  1
  Sn2+  Sn61  1  0.50078469  0.00272364  0.15361967  1
  Sn2+  Sn62  1  0.50546195  0.48471038  0.66613327  1
  Sn2+  Sn63  1  0.16413946  0.32757962  0.16518089  1
  Sn2+  Sn64  1  -0.00162472  0.66524111  0.66245352  1
  Bi3+  Bi65  1  0.49523114  0.50231838  -0.00273278  1
  Bi3+  Bi66  1  0.49748014  0.16611032  0.00248076  1
  Bi3+  Bi67  1  0.34153661  0.49867203  0.49619629  1
  Bi3+  Bi68  1  0.16858088  0.16615508  0.33068374  1
  Bi3+  Bi69  1  0.33162178  0.33101662  0.32807274  1
  Bi3+  Bi70  1  0.33297082  0.83902540  0.83171518  1
  Bi3+  Bi71  1  0.33464209  0.66871146  0.00246792  1
  Bi3+  Bi72  1  0.00070153  0.82910996  0.16273635  1
  Bi3+  Bi73  1  0.83200569  0.17176445  0.66900947  1
  Bi3+  Bi74  1  0.82925001  0.65988824  0.50068944  1
  Bi3+  Bi75  1  0.33749765  0.83852407  0.16757833  1
  Bi3+  Bi76  1  0.66602642  0.83576672  0.49226053  1
  Bi3+  Bi77  1  0.00286614  0.66888690  -0.00160092  1
  Bi3+  Bi78  1  0.83322762  0.33595342  0.16434873  1
  Bi3+  Bi79  1  0.50718358  0.83995210  0.32914315  1
  Bi3+  Bi80  1  0.16850147  0.33309052  0.50066713  1
  Bi3+  Bi81  1  0.17113385  0.49767556  -0.00178563  1
  Bi3+  Bi82  1  0.16632445  0.33811707  0.83055736  1
  Bi3+  Bi83  1  0.49901949  0.50017018  0.33083506  1
  Bi3+  Bi84  1  0.16497917  0.84002347  0.66320631  1
  Bi3+  Bi85  1  0.33483925  0.00068868  -0.00052940  1
  Te2-  Te86  1  0.16289928  0.16077532  0.16914875  1
  Te2-  Te87  1  0.17003018  0.17003963  0.49401559  1
  Te2-  Te88  1  0.15566487  0.17262684  0.83047481  1
  Te2-  Te89  1  0.16825799  0.49898054  0.16316061  1
  Te2-  Te90  1  0.17215832  0.49956539  0.49687837  1
  Te2-  Te91  1  0.18448441  0.50000620  0.83279227  1
  Te2-  Te92  1  0.16816970  0.84419813  0.17518562  1
  Te2-  Te93  1  0.16608928  0.83646453  0.49268891  1
  Te2-  Te94  1  0.16423602  0.83656485  0.83024162  1
  Te2-  Te95  1  0.49304619  0.17285204  0.16160170  1
  Te2-  Te96  1  0.50445564  0.15840766  0.49756855  1
  Te2-  Te97  1  0.50514370  0.17042361  0.84064705  1
  Te2-  Te98  1  0.49778083  0.49212873  0.16347941  1
  Te2-  Te99  1  0.50791409  0.49809420  0.49703830  1
  Te2-  Te100  1  0.48897950  0.49309352  0.83585014  1
  Te2-  Te101  1  0.50072397  0.83617015  0.16795069  1
  Te2-  Te102  1  0.50469060  0.84429445  0.49438207  1
  Te2-  Te103  1  0.49440469  0.82864919  0.82956120  1
  Te2-  Te104  1  0.84210969  0.17097306  0.16130597  1
  Te2-  Te105  1  0.83173035  0.16621359  0.50195547  1
  Te2-  Te106  1  0.83972068  0.17280008  0.83668265  1
  Te2-  Te107  1  0.83481047  0.49525101  0.14463719  1
  Te2-  Te108  1  0.82082979  0.49549260  0.50335440  1
  Te2-  Te109  1  0.82864014  0.49129426  0.85138532  1
  Te2-  Te110  1  0.83290547  0.83314697  0.15690286  1
  Te2-  Te111  1  0.82798681  0.82935800  0.49923207  1
  Te2-  Te112  1  0.82591848  0.83661777  0.83776914  1
  Te2-  Te113  1  0.17032937  0.01005960  0.00291764  1
  Te2-  Te114  1  0.17180472  0.00425774  0.33668104  1
  Te2-  Te115  1  0.14954205  0.00482354  0.66013427  1
  Te2-  Te116  1  0.17322377  0.33170336  -0.00299411  1
  Te2-  Te117  1  0.16862127  0.33622262  0.33382565  1
  Te2-  Te118  1  0.18078011  0.31416686  0.66407616  1
  Te2-  Te119  1  0.16935476  0.66498103  0.00318636  1
  Te2-  Te120  1  0.17207642  0.66706026  0.33164736  1
  Te2-  Te121  1  0.16460128  0.67297320  0.66311695  1
  Te2-  Te122  1  0.49596901  -0.00290317  -0.00740909  1
  Te2-  Te123  1  0.50050883  0.00085699  0.32334485  1
  Te2-  Te124  1  0.50453955  0.01402161  0.67607316  1
  Te2-  Te125  1  0.49774222  0.33580766  -0.00317287  1
  Te2-  Te126  1  0.49294119  0.33442506  0.32832390  1
  Te2-  Te127  1  0.48445058  0.31874337  0.67628645  1
  Te2-  Te128  1  0.49534767  0.66795738  -0.00276966  1
  Te2-  Te129  1  0.50624402  0.66854357  0.33187358  1
  Te2-  Te130  1  0.49936738  0.66018251  0.67020790  1
  Te2-  Te131  1  0.83103358  0.00551655  0.00103048  1
  Te2-  Te132  1  0.83040222  0.00252829  0.31977984  1
  Te2-  Te133  1  0.84391741  0.00235803  0.67323598  1
  Te2-  Te134  1  0.83360822  0.32086066  -0.00134142  1
  Te2-  Te135  1  0.83500229  0.34603285  0.32915062  1
  Te2-  Te136  1  0.83458851  0.34165058  0.67073734  1
  Te2-  Te137  1  0.84050143  0.66767301  -0.00066814  1
  Te2-  Te138  1  0.82588473  0.64407588  0.33704705  1
  Te2-  Te139  1  0.83187700  0.64965241  0.66607317  1
  Te2-  Te140  1  0.00182795  0.16742391  0.01685118  1
  Te2-  Te141  1  0.00374326  0.16709051  0.32101836  1
  Te2-  Te142  1  -0.00860174  0.17027927  0.66594208  1
  Te2-  Te143  1  0.01160276  0.50422409  -0.01339995  1
  Te2-  Te144  1  0.00222793  0.51203929  0.33198196  1
  Te2-  Te145  1  0.01095955  0.50142616  0.68031409  1
  Te2-  Te146  1  -0.00481076  0.83436307  0.00008001  1
  Te2-  Te147  1  -0.02052331  0.82005053  0.32647400  1
  Te2-  Te148  1  0.00163536  0.82724486  0.67018928  1
  Te2-  Te149  1  0.33531643  0.16676353  -0.00847052  1
  Te2-  Te150  1  0.33290706  0.16935766  0.33168179  1
  Te2-  Te151  1  0.33017911  0.14844299  0.67390978  1
  Te2-  Te152  1  0.33369456  0.50337545  0.00135977  1
  Te2-  Te153  1  0.33581029  0.49899750  0.33383200  1
  Te2-  Te154  1  0.33530675  0.50316419  0.65762719  1
  Te2-  Te155  1  0.32738893  0.83427691  0.00382673  1
  Te2-  Te156  1  0.34265767  0.83413432  0.32982437  1
  Te2-  Te157  1  0.32565343  0.84724664  0.66744384  1
  Te2-  Te158  1  0.66406869  0.16304268  0.00634130  1
  Te2-  Te159  1  0.66534030  0.18082904  0.32351854  1
  Te2-  Te160  1  0.67380873  0.18010372  0.66670139  1
  Te2-  Te161  1  0.65769112  0.50568130  -0.00336589  1
  Te2-  Te162  1  0.65643444  0.48443004  0.32973917  1
  Te2-  Te163  1  0.65994243  0.48127117  0.67717762  1
  Te2-  Te164  1  0.67745749  0.82714540  0.01120890  1
  Te2-  Te165  1  0.67351206  0.83062193  0.32560266  1
  Te2-  Te166  1  0.66540446  0.83551488  0.66377668  1
  Te2-  Te167  1  -0.00438272  -0.00872571  0.16405062  1
  Te2-  Te168  1  -0.01157012  -0.00088899  0.49555312  1
  Te2-  Te169  1  -0.00207440  0.00566437  0.83862554  1
  Te2-  Te170  1  0.00108524  0.33854778  0.16430541  1
  Te2-  Te171  1  0.00457483  0.33652954  0.51266857  1
  Te2-  Te172  1  0.00593843  0.33391061  0.82053243  1
  Te2-  Te173  1  0.00930622  0.66784450  0.16126213  1
  Te2-  Te174  1  -0.00326173  0.66447876  0.49523384  1
  Te2-  Te175  1  0.00302351  0.67155875  0.83388620  1
  Te2-  Te176  1  0.33403492  -0.00033881  0.16422440  1
  Te2-  Te177  1  0.33968679  0.00641480  0.50687780  1
  Te2-  Te178  1  0.33719810  -0.00111387  0.83799841  1
  Te2-  Te179  1  0.33097588  0.33276244  0.16472728  1
  Te2-  Te180  1  0.33226829  0.33581491  0.49412049  1
  Te2-  Te181  1  0.32724919  0.32355843  0.83569620  1
  Te2-  Te182  1  0.32768214  0.67335076  0.16722950  1
  Te2-  Te183  1  0.33260812  0.66400885  0.49854155  1
  Te2-  Te184  1  0.32933374  0.67574260  0.84040311  1
  Te2-  Te185  1  0.67115539  0.00412742  0.15283004  1
  Te2-  Te186  1  0.67369173  -0.00027924  0.49842508  1
  Te2-  Te187  1  0.66115674  -0.00959310  0.84622186  1
  Te2-  Te188  1  0.66749466  0.32295453  0.15429755  1
  Te2-  Te189  1  0.66861295  0.32894329  0.50060305  1
  Te2-  Te190  1  0.66632471  0.33656499  0.84677869  1
  Te2-  Te191  1  0.66821325  0.66966033  0.16092186  1
  Te2-  Te192  1  0.66898395  0.67196155  0.50269688  1
  Te2-  Te193  1  0.66447816  0.67819698  0.84282838  1
  Pb2+  Pb194  1  0.83463585  0.66184962  0.83461616  1
  Pb2+  Pb195  1  0.50011835  0.32815021  0.50755100  1
  Pb2+  Pb196  1  0.00375113  0.16870272  0.49690585  1
  Pb2+  Pb197  1  -0.00130922  0.83243892  0.50153483  1
  Pb2+  Pb198  1  0.67113206  0.16553885  0.83572922  1
  Pb2+  Pb199  1  0.83499368  0.82502069  0.66757102  1
  Pb2+  Pb200  1  0.49990928  0.66713927  0.16304912  1
  Pb2+  Pb201  1  0.66465744  0.00432551  0.32648116  1
  Pb2+  Pb202  1  0.00188574  -0.00421340  0.33036268  1
  Pb2+  Pb203  1  0.00012465  0.33707229  0.33695793  1
  Pb2+  Pb204  1  0.17172184  0.00448461  0.82730877  1
  Pb2+  Pb205  1  0.50222859  0.67043050  0.50294838  1
  Pb2+  Pb206  1  0.15944567  0.83822086  0.00353160  1
  Pb2+  Pb207  1  -0.00522789  0.49953573  0.50870959  1
  Pb2+  Pb208  1  0.00199735  0.33549436  -0.00653989  1
  Pb2+  Pb209  1  0.33369076  0.67530158  0.67284852  1
  Pb2+  Pb210  1  0.66333729  0.65630561  0.67308409  1
  Pb2+  Pb211  1  0.67187736  0.49684924  0.16769304  1
  Pb2+  Pb212  1  0.67180450  0.00963673  0.67230157  1
  Pb2+  Pb213  1  0.83250764  0.17344049  0.33315455  1
  Pb2+  Pb214  1  0.83903738  0.66237350  0.16888887  1
  Pb2+  Pb215  1  0.33426082  0.83785858  0.49977133  1
