# generated using pymatgen
data_In22Ag21Sn22Bi21(Te54Pb11)2
_symmetry_space_group_name_H-M   'P 1'
_cell_length_a   19.16189582
_cell_length_b   19.13796768
_cell_length_c   19.16604640
_cell_angle_alpha   90.00951131
_cell_angle_beta   89.98408293
_cell_angle_gamma   90.00125874
_symmetry_Int_Tables_number   1
_chemical_formula_structural   In22Ag21Sn22Bi21(Te54Pb11)2
_chemical_formula_sum   'In22 Ag21 Sn22 Bi21 Te108 Pb22'
_cell_volume   7028.56723764
_cell_formula_units_Z   1
loop_
 _symmetry_equiv_pos_site_id
 _symmetry_equiv_pos_as_xyz
  1  'x, y, z'
loop_
 _atom_type_symbol
 _atom_type_oxidation_number
  In3+  3.0
  Ag+  1.0
  Sn2+  2.0
  Bi3+  3.0
  Te2-  -2.0
  Pb2+  2.0
loop_
 _atom_site_type_symbol
 _atom_site_label
 _atom_site_symmetry_multiplicity
 _atom_site_fract_x
 _atom_site_fract_y
 _atom_site_fract_z
 _atom_site_occupancy
  In3+  In0  1  0.49673102  0.31049441  0.15115245  1
  In3+  In1  1  -0.00887038  0.32711588  0.33260195  1
  In3+  In2  1  0.50736828  0.00572782  0.84272242  1
  In3+  In3  1  0.85445409  0.67046231  0.48588493  1
  In3+  In4  1  0.33789455  0.00286089  0.00402436  1
  In3+  In5  1  0.18497448  0.65816829  0.15803714  1
  In3+  In6  1  0.66173673  0.49388162  0.17510308  1
  In3+  In7  1  0.32597595  0.18508335  0.50079925  1
  In3+  In8  1  0.49370714  0.83681154  0.67337801  1
  In3+  In9  1  0.66660256  0.32439525  0.02583730  1
  In3+  In10  1  0.50359390  0.30874248  0.48751605  1
  In3+  In11  1  -0.00240811  0.03175592  0.00246329  1
  In3+  In12  1  0.18592170  0.00670958  0.82340779  1
  In3+  In13  1  0.65982770  0.49486767  0.83215854  1
  In3+  In14  1  0.64138797  0.82953348  0.49930140  1
  In3+  In15  1  0.49529706  -0.00178225  0.48611420  1
  In3+  In16  1  0.67302146  0.17945384  0.84682591  1
  In3+  In17  1  0.34732357  -0.00527768  0.65595007  1
  In3+  In18  1  0.00324357  0.33398445  0.64915481  1
  In3+  In19  1  0.64519371  0.65200725  0.00858474  1
  In3+  In20  1  0.65107948  0.01578810  0.33149240  1
  In3+  In21  1  0.17071859  0.48806465  -0.00022102  1
  Ag+  Ag22  1  0.18856486  0.49173432  0.64328029  1
  Ag+  Ag23  1  0.86106798  0.35456165  0.16277098  1
  Ag+  Ag24  1  0.32345356  0.82895932  0.47598552  1
  Ag+  Ag25  1  0.46292888  0.64187137  0.86510971  1
  Ag+  Ag26  1  0.47256365  0.17242611  0.31461632  1
  Ag+  Ag27  1  0.31558663  0.30469781  0.00162722  1
  Ag+  Ag28  1  0.31307983  0.63829419  0.31611265  1
  Ag+  Ag29  1  0.85438234  0.63410736  0.19097343  1
  Ag+  Ag30  1  0.34193902  0.64690548  -0.02913341  1
  Ag+  Ag31  1  0.48449408  0.16555600  0.01763089  1
  Ag+  Ag32  1  0.85139948  0.19664697  0.00362463  1
  Ag+  Ag33  1  0.83605019  0.19459507  0.63957009  1
  Ag+  Ag34  1  0.47039772  0.00436881  0.18583056  1
  Ag+  Ag35  1  0.35081162  0.00038701  0.35586214  1
  Ag+  Ag36  1  0.02440807  0.17208016  0.50190880  1
  Ag+  Ag37  1  0.35930749  0.86224005  0.83619886  1
  Ag+  Ag38  1  0.14552886  0.33345448  0.49920668  1
  Ag+  Ag39  1  0.64111483  0.31611047  0.33316120  1
  Ag+  Ag40  1  0.02131171  0.33684547  -0.01684539  1
  Ag+  Ag41  1  0.02634001  0.49391410  0.18890993  1
  Ag+  Ag42  1  0.64301135  0.31806213  0.68691932  1
  Sn2+  Sn43  1  0.33795081  0.49502295  0.16398447  1
  Sn2+  Sn44  1  -0.00409500  0.81574086  0.16500119  1
  Sn2+  Sn45  1  0.00174550  0.66090069  0.66439464  1
  Sn2+  Sn46  1  0.00769088  0.85069613  0.50125217  1
  Sn2+  Sn47  1  0.83184688  0.83842297  0.66072363  1
  Sn2+  Sn48  1  0.16423670  0.49374926  0.33433370  1
  Sn2+  Sn49  1  0.34364319  0.16840230  0.82681264  1
  Sn2+  Sn50  1  -0.00170751  0.01090709  0.67230832  1
  Sn2+  Sn51  1  0.49093802  0.83405531  0.32918257  1
  Sn2+  Sn52  1  0.33507371  0.66795714  0.66367763  1
  Sn2+  Sn53  1  -0.00507780  0.16972021  0.17526905  1
  Sn2+  Sn54  1  0.49586903  0.33210975  0.83134890  1
  Sn2+  Sn55  1  0.66109197  0.50072428  0.50156294  1
  Sn2+  Sn56  1  0.66243771  0.01821166  0.66108865  1
  Sn2+  Sn57  1  -0.00824376  0.16882077  0.82462600  1
  Sn2+  Sn58  1  0.16370028  0.33467884  0.17736617  1
  Sn2+  Sn59  1  0.01468654  0.66697188  0.32786939  1
  Sn2+  Sn60  1  0.16854280  0.16911391  0.33552742  1
  Sn2+  Sn61  1  0.51063233  0.17198212  0.66852252  1
  Sn2+  Sn62  1  0.33099307  0.51082834  0.50095496  1
  Sn2+  Sn63  1  0.17489215  0.66067925  0.50208203  1
  Sn2+  Sn64  1  0.83317594  0.00081791  0.50446376  1
  Bi3+  Bi65  1  0.66498633  0.83366283  0.16967847  1
  Bi3+  Bi66  1  0.83592482  0.16644574  0.32488780  1
  Bi3+  Bi67  1  0.83346133  0.00344780  0.83311903  1
  Bi3+  Bi68  1  0.66678168  0.83122093  0.82769301  1
  Bi3+  Bi69  1  0.83447965  0.50093496  0.66404245  1
  Bi3+  Bi70  1  0.66234948  0.67185079  0.33510425  1
  Bi3+  Bi71  1  0.66641963  0.16450363  0.50279419  1
  Bi3+  Bi72  1  0.16078625  0.00020713  0.16204001  1
  Bi3+  Bi73  1  0.67093831  0.00173010  -0.00226725  1
  Bi3+  Bi74  1  -0.00119686  0.49620057  0.83903915  1
  Bi3+  Bi75  1  0.00058075  0.83691293  0.83145568  1
  Bi3+  Bi76  1  0.82700962  0.66578091  0.83586368  1
  Bi3+  Bi77  1  0.83458240  0.00143753  0.16575242  1
  Bi3+  Bi78  1  0.16344039  0.66878989  0.83443719  1
  Bi3+  Bi79  1  0.33129076  0.49622721  0.83393004  1
  Bi3+  Bi80  1  0.16517735  0.83559739  -0.00145542  1
  Bi3+  Bi81  1  0.66840375  0.66628776  0.66850720  1
  Bi3+  Bi82  1  0.49913392  0.66920978  0.50484384  1
  Bi3+  Bi83  1  0.83366100  0.83120078  0.00004015  1
  Bi3+  Bi84  1  0.83122475  0.50270680  -0.00031617  1
  Bi3+  Bi85  1  0.00108562  0.00172951  0.33535845  1
  Te2-  Te86  1  0.16109640  0.16600424  0.16872649  1
  Te2-  Te87  1  0.17150277  0.17696888  0.50111949  1
  Te2-  Te88  1  0.16549247  0.16207543  0.83192386  1
  Te2-  Te89  1  0.17027382  0.50368965  0.16149616  1
  Te2-  Te90  1  0.17277732  0.49178353  0.49782819  1
  Te2-  Te91  1  0.16321227  0.50345113  0.84141069  1
  Te2-  Te92  1  0.16130808  0.83372088  0.16114315  1
  Te2-  Te93  1  0.17439480  0.83096661  0.50222077  1
  Te2-  Te94  1  0.16152022  0.83450157  0.83532393  1
  Te2-  Te95  1  0.49859491  0.15790521  0.16934091  1
  Te2-  Te96  1  0.50455697  0.15397297  0.50255751  1
  Te2-  Te97  1  0.51022483  0.16482837  0.82589765  1
  Te2-  Te98  1  0.50623037  0.50379014  0.16627167  1
  Te2-  Te99  1  0.49770174  0.50631281  0.50010192  1
  Te2-  Te100  1  0.49712592  0.50102965  0.83440052  1
  Te2-  Te101  1  0.50394422  0.85560777  0.16601378  1
  Te2-  Te102  1  0.49003403  0.83599121  0.50367943  1
  Te2-  Te103  1  0.50613411  0.83684985  0.82920809  1
  Te2-  Te104  1  0.83667889  0.16358253  0.15776099  1
  Te2-  Te105  1  0.82637626  0.16397162  0.49354869  1
  Te2-  Te106  1  0.83082405  0.16429653  0.84983084  1
  Te2-  Te107  1  0.81492497  0.49640075  0.15965266  1
  Te2-  Te108  1  0.83371988  0.50723382  0.50061384  1
  Te2-  Te109  1  0.83400865  0.50240919  0.83361915  1
  Te2-  Te110  1  0.83006094  0.83534442  0.16249674  1
  Te2-  Te111  1  0.84238002  0.82847690  0.50198406  1
  Te2-  Te112  1  0.83469588  0.83254512  0.83355452  1
  Te2-  Te113  1  0.15792003  -0.00214937  -0.00223580  1
  Te2-  Te114  1  0.16078657  0.00208571  0.32801330  1
  Te2-  Te115  1  0.16658686  -0.00138426  0.67029327  1
  Te2-  Te116  1  0.17007329  0.33564212  0.00656915  1
  Te2-  Te117  1  0.16389640  0.33024898  0.34370292  1
  Te2-  Te118  1  0.16041868  0.34049540  0.65700298  1
  Te2-  Te119  1  0.17996453  0.67298896  0.00213083  1
  Te2-  Te120  1  0.17014236  0.66376597  0.33359846  1
  Te2-  Te121  1  0.16381395  0.65081833  0.66966256  1
  Te2-  Te122  1  0.50866664  0.01513335  -0.00613748  1
  Te2-  Te123  1  0.49760367  0.01045744  0.33160222  1
  Te2-  Te124  1  0.50245962  -0.00201168  0.67121174  1
  Te2-  Te125  1  0.51281706  0.31787408  -0.00062086  1
  Te2-  Te126  1  0.49423179  0.31948454  0.33607511  1
  Te2-  Te127  1  0.50050315  0.33184339  0.66519268  1
  Te2-  Te128  1  0.48990170  0.66937706  0.00421255  1
  Te2-  Te129  1  0.50083056  0.66985196  0.34251119  1
  Te2-  Te130  1  0.50597971  0.67708655  0.66681829  1
  Te2-  Te131  1  0.83584714  -0.00311821  -0.00043133  1
  Te2-  Te132  1  0.83766511  0.00362376  0.33253427  1
  Te2-  Te133  1  0.83173799  0.00033257  0.67094561  1
  Te2-  Te134  1  0.81731825  0.33905629  0.01473933  1
  Te2-  Te135  1  0.83882035  0.32806261  0.31666938  1
  Te2-  Te136  1  0.84431528  0.33968393  0.66474943  1
  Te2-  Te137  1  0.83335433  0.66735181  -0.00324418  1
  Te2-  Te138  1  0.83134358  0.66705932  0.33275315  1
  Te2-  Te139  1  0.83167008  0.66568618  0.67000362  1
  Te2-  Te140  1  -0.00181512  0.18477924  0.00336582  1
  Te2-  Te141  1  -0.00006322  0.16786364  0.34362454  1
  Te2-  Te142  1  -0.01199575  0.17050568  0.65979677  1
  Te2-  Te143  1  -0.00385268  0.48715074  -0.00030662  1
  Te2-  Te144  1  0.00391308  0.50064859  0.33361499  1
  Te2-  Te145  1  -0.00201696  0.49245987  0.67317762  1
  Te2-  Te146  1  -0.00137623  0.82580259  -0.00337252  1
  Te2-  Te147  1  0.00060649  0.83580313  0.33459675  1
  Te2-  Te148  1  0.00093669  0.83457571  0.66871171  1
  Te2-  Te149  1  0.33883092  0.15852537  -0.00570154  1
  Te2-  Te150  1  0.33047214  0.15342442  0.34847470  1
  Te2-  Te151  1  0.33621261  0.15564613  0.65773334  1
  Te2-  Te152  1  0.32686901  0.50219931  -0.00162616  1
  Te2-  Te153  1  0.33233566  0.49407931  0.33242381  1
  Te2-  Te154  1  0.33286101  0.49547142  0.67138855  1
  Te2-  Te155  1  0.33099182  0.85005048  -0.01470797  1
  Te2-  Te156  1  0.33840213  0.84904934  0.32939995  1
  Te2-  Te157  1  0.33891475  0.84235575  0.68560160  1
  Te2-  Te158  1  0.66725567  0.16689114  -0.00235401  1
  Te2-  Te159  1  0.67094901  0.16888998  0.33759185  1
  Te2-  Te160  1  0.68250135  0.17765240  0.66171743  1
  Te2-  Te161  1  0.66462952  0.49706980  -0.00466629  1
  Te2-  Te162  1  0.66724046  0.50921839  0.33247517  1
  Te2-  Te163  1  0.67111743  0.49973023  0.66704516  1
  Te2-  Te164  1  0.66965140  0.83704150  -0.00312248  1
  Te2-  Te165  1  0.66054581  0.83509098  0.33710832  1
  Te2-  Te166  1  0.66476414  0.83342608  0.66258383  1
  Te2-  Te167  1  -0.00174439  -0.00278336  0.16730002  1
  Te2-  Te168  1  0.00315425  0.01001738  0.50048091  1
  Te2-  Te169  1  -0.00480775  0.00162697  0.83735398  1
  Te2-  Te170  1  0.00696602  0.34196429  0.17905064  1
  Te2-  Te171  1  -0.00212770  0.32449142  0.49433143  1
  Te2-  Te172  1  -0.00043705  0.33099302  0.83720602  1
  Te2-  Te173  1  -0.00256167  0.65462149  0.17147096  1
  Te2-  Te174  1  0.00603089  0.67014619  0.49893362  1
  Te2-  Te175  1  -0.00237349  0.66610262  0.83299561  1
  Te2-  Te176  1  0.32430516  0.00374622  0.15756812  1
  Te2-  Te177  1  0.34157460  -0.01666727  0.50351824  1
  Te2-  Te178  1  0.33807615  0.00937159  0.83322375  1
  Te2-  Te179  1  0.34124298  0.33492297  0.15136348  1
  Te2-  Te180  1  0.34780537  0.33495370  0.50203203  1
  Te2-  Te181  1  0.33449508  0.33298442  0.84915596  1
  Te2-  Te182  1  0.33423845  0.66683967  0.17562782  1
  Te2-  Te183  1  0.33516833  0.67771124  0.50558430  1
  Te2-  Te184  1  0.32477047  0.66258626  0.82476593  1
  Te2-  Te185  1  0.67186129  -0.00344248  0.16695770  1
  Te2-  Te186  1  0.66317563  -0.00686251  0.49526016  1
  Te2-  Te187  1  0.66882343  -0.00354597  0.83125399  1
  Te2-  Te188  1  0.65049303  0.33603658  0.18099409  1
  Te2-  Te189  1  0.65714522  0.33374537  0.48646389  1
  Te2-  Te190  1  0.66516302  0.33228588  0.83049321  1
  Te2-  Te191  1  0.66733691  0.67324506  0.16932143  1
  Te2-  Te192  1  0.66574880  0.67051685  0.50263422  1
  Te2-  Te193  1  0.66513696  0.66943556  0.83165216  1
  Pb2+  Pb194  1  0.50195978  0.50496449  0.66585680  1
  Pb2+  Pb195  1  0.16681551  0.16654972  -0.00048049  1
  Pb2+  Pb196  1  0.33229506  0.83469322  0.15956260  1
  Pb2+  Pb197  1  0.15995823  0.16967711  0.66649105  1
  Pb2+  Pb198  1  0.00439196  0.49847759  0.50184747  1
  Pb2+  Pb199  1  0.17181868  0.82234402  0.66710862  1
  Pb2+  Pb200  1  0.82985568  0.83485194  0.33376634  1
  Pb2+  Pb201  1  0.16550757  0.33406112  0.82778957  1
  Pb2+  Pb202  1  0.32907738  0.16862509  0.17036346  1
  Pb2+  Pb203  1  0.83241704  0.33211274  0.83928517  1
  Pb2+  Pb204  1  0.17425727  0.00289667  0.49895860  1
  Pb2+  Pb205  1  0.66844148  0.16559754  0.16656488  1
  Pb2+  Pb206  1  0.49932518  0.49172396  0.33327001  1
  Pb2+  Pb207  1  0.49678711  0.48996447  0.00182816  1
  Pb2+  Pb208  1  0.83567113  0.49569351  0.32796133  1
  Pb2+  Pb209  1  0.50181038  0.67606092  0.17353919  1
  Pb2+  Pb210  1  0.32887645  0.32827726  0.32865179  1
  Pb2+  Pb211  1  0.82534002  0.33345598  0.49341263  1
  Pb2+  Pb212  1  0.49946754  0.84177371  -0.00167979  1
  Pb2+  Pb213  1  0.33366916  0.32559029  0.67283697  1
  Pb2+  Pb214  1  0.00961271  0.65382209  0.00578630  1
  Pb2+  Pb215  1  0.17357856  0.83201884  0.33315284  1
