# generated using pymatgen
data_In22Ag21Sn22Bi21(Te54Pb11)2
_symmetry_space_group_name_H-M   'P 1'
_cell_length_a   19.15524712
_cell_length_b   19.19092888
_cell_length_c   19.13107446
_cell_angle_alpha   89.98709883
_cell_angle_beta   90.02055246
_cell_angle_gamma   89.98592821
_symmetry_Int_Tables_number   1
_chemical_formula_structural   In22Ag21Sn22Bi21(Te54Pb11)2
_chemical_formula_sum   'In22 Ag21 Sn22 Bi21 Te108 Pb22'
_cell_volume   7032.71575864
_cell_formula_units_Z   1
loop_
 _symmetry_equiv_pos_site_id
 _symmetry_equiv_pos_as_xyz
  1  'x, y, z'
loop_
 _atom_type_symbol
 _atom_type_oxidation_number
  In3+  3.0
  Ag+  1.0
  Sn2+  2.0
  Bi3+  3.0
  Te2-  -2.0
  Pb2+  2.0
loop_
 _atom_site_type_symbol
 _atom_site_label
 _atom_site_symmetry_multiplicity
 _atom_site_fract_x
 _atom_site_fract_y
 _atom_site_fract_z
 _atom_site_occupancy
  In3+  In0  1  0.83768373  -0.01281772  0.81432853  1
  In3+  In1  1  -0.00653799  0.32447046  0.00069138  1
  In3+  In2  1  0.32777670  0.83220512  0.82346634  1
  In3+  In3  1  0.01669019  0.83577355  0.83087645  1
  In3+  In4  1  0.66676402  0.81842282  0.82332640  1
  In3+  In5  1  0.69821157  0.17241074  0.49681531  1
  In3+  In6  1  0.00320593  0.33200410  0.35115349  1
  In3+  In7  1  0.00181263  0.01507998  0.03219387  1
  In3+  In8  1  0.83309457  0.66878877  0.82654523  1
  In3+  In9  1  0.48096882  0.16814496  0.66792712  1
  In3+  In10  1  0.32982212  0.34073124  0.66753865  1
  In3+  In11  1  0.84907707  0.19645794  0.32506714  1
  In3+  In12  1  0.69321030  0.66254667  0.32731807  1
  In3+  In13  1  0.48563031  0.81657383  0.33650767  1
  In3+  In14  1  0.01770739  0.84933728  0.48545203  1
  In3+  In15  1  0.48376014  0.66593322  0.17432431  1
  In3+  In16  1  0.83650129  0.51206588  0.67406028  1
  In3+  In17  1  0.83498505  0.18568598  0.66399840  1
  In3+  In18  1  0.32399158  0.16684407  0.83890139  1
  In3+  In19  1  0.29955413  0.67140727  0.33440765  1
  In3+  In20  1  0.83192394  0.33671164  0.14825114  1
  In3+  In21  1  0.83949951  0.65923309  0.49900419  1
  Ag+  Ag22  1  0.01876862  -0.01883375  0.33380455  1
  Ag+  Ag23  1  0.00663130  0.18797925  0.18968970  1
  Ag+  Ag24  1  0.30453890  0.03017499  0.68580492  1
  Ag+  Ag25  1  0.14129930  0.68117824  0.51979067  1
  Ag+  Ag26  1  0.47369286  0.35659866  0.84627836  1
  Ag+  Ag27  1  0.00120749  0.68420344  0.36030391  1
  Ag+  Ag28  1  0.14689532  0.86277297  0.35190165  1
  Ag+  Ag29  1  0.84995963  0.35827012  0.50276780  1
  Ag+  Ag30  1  -0.00184802  0.47450016  0.81775178  1
  Ag+  Ag31  1  0.18167644  0.14506755  0.66794982  1
  Ag+  Ag32  1  0.85720778  0.49877493  0.31419501  1
  Ag+  Ag33  1  0.19020989  0.50006170  0.63957268  1
  Ag+  Ag34  1  0.35819347  0.66862208  -0.02814777  1
  Ag+  Ag35  1  0.14627934  0.02454086  0.51042567  1
  Ag+  Ag36  1  0.86149520  0.84516456  0.66341354  1
  Ag+  Ag37  1  0.84224471  0.63512139  0.19466904  1
  Ag+  Ag38  1  0.63943251  0.35839389  0.01378954  1
  Ag+  Ag39  1  0.14948410  0.85143946  0.64025287  1
  Ag+  Ag40  1  0.33688502  0.53000710  0.14551353  1
  Ag+  Ag41  1  0.46835243  0.63682640  0.86768858  1
  Ag+  Ag42  1  0.00028486  0.18234000  0.51968506  1
  Sn2+  Sn43  1  0.67103536  0.49573272  0.49958552  1
  Sn2+  Sn44  1  0.33351734  0.33981882  0.33393006  1
  Sn2+  Sn45  1  0.84012541  0.50414177  0.00234739  1
  Sn2+  Sn46  1  0.49430233  -0.00087300  0.17229973  1
  Sn2+  Sn47  1  0.32869610  0.49916395  0.49393509  1
  Sn2+  Sn48  1  0.00402877  0.15985522  0.82391325  1
  Sn2+  Sn49  1  0.16030517  0.16314352  0.34098181  1
  Sn2+  Sn50  1  0.32483877  -0.00107998  0.34268252  1
  Sn2+  Sn51  1  0.66524913  0.33197974  0.67883460  1
  Sn2+  Sn52  1  0.49898547  0.16091136  0.33899323  1
  Sn2+  Sn53  1  0.48716428  0.00084643  0.49881800  1
  Sn2+  Sn54  1  0.16672043  0.82710290  0.00678234  1
  Sn2+  Sn55  1  0.33220410  0.34311662  0.00538255  1
  Sn2+  Sn56  1  0.16584329  0.32619498  0.50810355  1
  Sn2+  Sn57  1  0.33126193  0.83199822  0.15823715  1
  Sn2+  Sn58  1  0.83100356  0.33359976  0.82075205  1
  Sn2+  Sn59  1  0.67396304  0.49343459  0.83569966  1
  Sn2+  Sn60  1  0.00860939  0.50004419  0.16365350  1
  Sn2+  Sn61  1  0.16485059  0.33918140  0.82905234  1
  Sn2+  Sn62  1  0.68147836  0.83828539  0.49867605  1
  Sn2+  Sn63  1  0.16095036  0.65913590  0.82188380  1
  Sn2+  Sn64  1  0.83601191  0.83396979  -0.00442424  1
  Bi3+  Bi65  1  0.49898650  0.49927682  0.33369083  1
  Bi3+  Bi66  1  0.33175946  0.66574166  0.65820777  1
  Bi3+  Bi67  1  0.67167172  0.16759576  0.82927056  1
  Bi3+  Bi68  1  0.16481609  0.50099615  0.00129911  1
  Bi3+  Bi69  1  0.00400353  0.66483102  0.67030634  1
  Bi3+  Bi70  1  0.83207944  0.00173748  0.16989642  1
  Bi3+  Bi71  1  0.32821133  0.16381819  0.16504559  1
  Bi3+  Bi72  1  0.49887793  0.83373379  -0.00005283  1
  Bi3+  Bi73  1  0.50233263  0.16364624  -0.00699883  1
  Bi3+  Bi74  1  0.50233967  -0.00240043  0.83137555  1
  Bi3+  Bi75  1  0.67395867  -0.00058619  0.00063541  1
  Bi3+  Bi76  1  0.00297325  0.66556664  -0.00110222  1
  Bi3+  Bi77  1  0.16553025  0.49372308  0.33081467  1
  Bi3+  Bi78  1  0.50178260  0.66623586  0.50080097  1
  Bi3+  Bi79  1  0.49338179  0.83564195  0.66774677  1
  Bi3+  Bi80  1  0.83493107  -0.00498645  0.49633635  1
  Bi3+  Bi81  1  0.15594728  0.66501132  0.16612764  1
  Bi3+  Bi82  1  0.50028644  0.32912240  0.50596998  1
  Bi3+  Bi83  1  0.33236008  0.83167216  0.49974862  1
  Bi3+  Bi84  1  0.66629629  0.66480299  0.65888730  1
  Bi3+  Bi85  1  0.66614326  -0.00194434  0.33707296  1
  Te2-  Te86  1  0.16067052  0.16553571  0.16649999  1
  Te2-  Te87  1  0.15625795  0.17137436  0.51394145  1
  Te2-  Te88  1  0.16977056  0.16731504  0.82050491  1
  Te2-  Te89  1  0.18173086  0.50212713  0.16629630  1
  Te2-  Te90  1  0.16906493  0.49404761  0.49225513  1
  Te2-  Te91  1  0.15059634  0.49960876  0.84021094  1
  Te2-  Te92  1  0.16767625  0.82891892  0.16908343  1
  Te2-  Te93  1  0.16796363  0.82313807  0.49543209  1
  Te2-  Te94  1  0.17208056  0.83020048  0.83851438  1
  Te2-  Te95  1  0.49780940  0.16573541  0.16292964  1
  Te2-  Te96  1  0.49390991  0.16652128  0.50753199  1
  Te2-  Te97  1  0.50714182  0.16028456  0.82721564  1
  Te2-  Te98  1  0.48736338  0.50381668  0.17078126  1
  Te2-  Te99  1  0.50056595  0.49835972  0.49752522  1
  Te2-  Te100  1  0.50326786  0.49961256  0.83297482  1
  Te2-  Te101  1  0.49727594  0.82920837  0.16646461  1
  Te2-  Te102  1  0.49976838  0.83233681  0.49961134  1
  Te2-  Te103  1  0.50315401  0.83462182  0.83360995  1
  Te2-  Te104  1  0.84715934  0.16807199  0.17203125  1
  Te2-  Te105  1  0.84713175  0.15771643  0.50214600  1
  Te2-  Te106  1  0.83382319  0.16210663  0.82326139  1
  Te2-  Te107  1  0.83623649  0.48946980  0.16906595  1
  Te2-  Te108  1  0.82844756  0.50442486  0.50424732  1
  Te2-  Te109  1  0.84303419  0.49809734  0.82997708  1
  Te2-  Te110  1  0.83454223  0.84022248  0.16650808  1
  Te2-  Te111  1  0.83923994  0.83167186  0.51091494  1
  Te2-  Te112  1  0.82315198  0.83361087  0.81978484  1
  Te2-  Te113  1  0.15787147  -0.00339934  -0.00130118  1
  Te2-  Te114  1  0.16553280  0.00754923  0.34570613  1
  Te2-  Te115  1  0.16554255  -0.00436905  0.65725352  1
  Te2-  Te116  1  0.17146346  0.33682620  -0.00258699  1
  Te2-  Te117  1  0.16651496  0.32907886  0.33645282  1
  Te2-  Te118  1  0.17373285  0.35119625  0.66889513  1
  Te2-  Te119  1  0.16451857  0.66539635  0.00101636  1
  Te2-  Te120  1  0.15004037  0.65569229  0.32734199  1
  Te2-  Te121  1  0.16999423  0.64838684  0.66063102  1
  Te2-  Te122  1  0.50234993  -0.00170045  -0.00140614  1
  Te2-  Te123  1  0.50168974  -0.00205930  0.33354093  1
  Te2-  Te124  1  0.49472001  0.00005316  0.66793036  1
  Te2-  Te125  1  0.49785889  0.32734966  -0.00991466  1
  Te2-  Te126  1  0.50133533  0.33343296  0.33735677  1
  Te2-  Te127  1  0.49622297  0.32436702  0.66938117  1
  Te2-  Te128  1  0.50464354  0.67188933  0.00758785  1
  Te2-  Te129  1  0.50559687  0.66480488  0.33563564  1
  Te2-  Te130  1  0.50060697  0.67071588  0.66497000  1
  Te2-  Te131  1  0.83868351  -0.00135789  0.00422903  1
  Te2-  Te132  1  0.82661869  -0.00032778  0.33480973  1
  Te2-  Te133  1  0.83035253  -0.01080165  0.66144913  1
  Te2-  Te134  1  0.83923137  0.33403563  -0.00526810  1
  Te2-  Te135  1  0.83697154  0.34287626  0.35027841  1
  Te2-  Te136  1  0.83083309  0.33699989  0.65372664  1
  Te2-  Te137  1  0.83890197  0.67103839  -0.01662193  1
  Te2-  Te138  1  0.84739146  0.65453593  0.34276004  1
  Te2-  Te139  1  0.83039121  0.66803369  0.66447009  1
  Te2-  Te140  1  0.00095265  0.16404411  -0.00891783  1
  Te2-  Te141  1  -0.00147027  0.17869613  0.33512256  1
  Te2-  Te142  1  -0.00998852  0.16560857  0.66696900  1
  Te2-  Te143  1  0.00131949  0.50028017  0.00293237  1
  Te2-  Te144  1  0.00292559  0.48467878  0.32898228  1
  Te2-  Te145  1  -0.00808135  0.50348595  0.67265892  1
  Te2-  Te146  1  -0.00183634  0.83101190  -0.01138589  1
  Te2-  Te147  1  0.00487578  0.82892907  0.33543607  1
  Te2-  Te148  1  0.00883806  0.82430958  0.67647710  1
  Te2-  Te149  1  0.33739508  0.16301334  -0.00183586  1
  Te2-  Te150  1  0.33445301  0.16593732  0.32720505  1
  Te2-  Te151  1  0.32731528  0.17421148  0.66857602  1
  Te2-  Te152  1  0.33043857  0.51221417  -0.00057145  1
  Te2-  Te153  1  0.33459121  0.50048670  0.33357338  1
  Te2-  Te154  1  0.33698249  0.49912626  0.66717078  1
  Te2-  Te155  1  0.33766721  0.81883879  -0.00872160  1
  Te2-  Te156  1  0.33473761  0.83164519  0.33368687  1
  Te2-  Te157  1  0.33166377  0.82796406  0.66682103  1
  Te2-  Te158  1  0.66548936  0.16128283  -0.00136395  1
  Te2-  Te159  1  0.66507692  0.16424209  0.33950268  1
  Te2-  Te160  1  0.67921004  0.16705050  0.66462689  1
  Te2-  Te161  1  0.67191276  0.49948624  -0.00229310  1
  Te2-  Te162  1  0.66241285  0.50579705  0.33540600  1
  Te2-  Te163  1  0.67546540  0.50113444  0.66791434  1
  Te2-  Te164  1  0.66626191  0.83776745  -0.00596326  1
  Te2-  Te165  1  0.66750603  0.83240210  0.33776221  1
  Te2-  Te166  1  0.65819919  0.82840819  0.66613149  1
  Te2-  Te167  1  -0.00388101  0.00163395  0.18380178  1
  Te2-  Te168  1  0.00093808  -0.00240822  0.48584202  1
  Te2-  Te169  1  -0.00800390  -0.00793543  0.82911760  1
  Te2-  Te170  1  -0.00987670  0.33050688  0.15493053  1
  Te2-  Te171  1  -0.00342890  0.32978563  0.50364104  1
  Te2-  Te172  1  -0.00196956  0.32877682  0.84216580  1
  Te2-  Te173  1  -0.00975742  0.66140923  0.15972266  1
  Te2-  Te174  1  -0.00467857  0.66476362  0.50650513  1
  Te2-  Te175  1  -0.00629617  0.67609105  0.83301856  1
  Te2-  Te176  1  0.33276197  0.00001809  0.16613455  1
  Te2-  Te177  1  0.32810405  -0.00690884  0.50103516  1
  Te2-  Te178  1  0.33677216  0.00440629  0.82899019  1
  Te2-  Te179  1  0.33243795  0.32474888  0.16500206  1
  Te2-  Te180  1  0.33742748  0.33260014  0.50385706  1
  Te2-  Te181  1  0.33258349  0.32388485  0.83219238  1
  Te2-  Te182  1  0.32484271  0.67322592  0.17701169  1
  Te2-  Te183  1  0.33915445  0.66721807  0.49264285  1
  Te2-  Te184  1  0.33049542  0.66729185  0.82367893  1
  Te2-  Te185  1  0.66619393  0.00128346  0.16696078  1
  Te2-  Te186  1  0.66571152  0.00649343  0.49805133  1
  Te2-  Te187  1  0.67034586  0.00300448  0.83836242  1
  Te2-  Te188  1  0.67423821  0.33412949  0.15636519  1
  Te2-  Te189  1  0.66010435  0.32411599  0.50516034  1
  Te2-  Te190  1  0.67363338  0.32843216  0.83816230  1
  Te2-  Te191  1  0.69520921  0.66653811  0.17400113  1
  Te2-  Te192  1  0.66507811  0.66835930  0.49658636  1
  Te2-  Te193  1  0.67202679  0.66359173  0.82432562  1
  Pb2+  Pb194  1  0.15931144  0.33269998  0.16722825  1
  Pb2+  Pb195  1  0.49921573  0.49901118  -0.00071697  1
  Pb2+  Pb196  1  0.67278687  0.33599127  0.33530267  1
  Pb2+  Pb197  1  0.67278064  0.66748111  -0.00170043  1
  Pb2+  Pb198  1  0.16453902  -0.00100115  0.17335519  1
  Pb2+  Pb199  1  0.00337852  0.33475038  0.67395142  1
  Pb2+  Pb200  1  0.50700569  0.49683789  0.66790203  1
  Pb2+  Pb201  1  0.83339945  0.16604010  -0.00508104  1
  Pb2+  Pb202  1  0.00122163  0.49821309  0.50308425  1
  Pb2+  Pb203  1  0.16780991  0.16761767  -0.00450810  1
  Pb2+  Pb204  1  -0.00084017  0.83175617  0.15991227  1
  Pb2+  Pb205  1  -0.00008972  -0.00295897  0.65608649  1
  Pb2+  Pb206  1  0.66172001  0.50496916  0.16795797  1
  Pb2+  Pb207  1  0.16322915  -0.00150213  0.82451401  1
  Pb2+  Pb208  1  0.66699914  0.83007529  0.16835589  1
  Pb2+  Pb209  1  0.49907270  0.33315255  0.16482448  1
  Pb2+  Pb210  1  0.67562075  0.16876367  0.17130390  1
  Pb2+  Pb211  1  0.83617376  0.83169154  0.33816932  1
  Pb2+  Pb212  1  0.32251676  0.49633349  0.83525777  1
  Pb2+  Pb213  1  0.32893263  -0.01138340  -0.00475492  1
  Pb2+  Pb214  1  0.66149514  -0.00039229  0.66742840  1
  Pb2+  Pb215  1  0.32275597  0.16219001  0.49686109  1
