# generated using pymatgen
data_In22Ag21Sn22Bi21(Te54Pb11)2
_symmetry_space_group_name_H-M   'P 1'
_cell_length_a   19.13189597
_cell_length_b   19.11604095
_cell_length_c   19.14093515
_cell_angle_alpha   90.02072949
_cell_angle_beta   89.99938181
_cell_angle_gamma   89.98484904
_symmetry_Int_Tables_number   1
_chemical_formula_structural   In22Ag21Sn22Bi21(Te54Pb11)2
_chemical_formula_sum   'In22 Ag21 Sn22 Bi21 Te108 Pb22'
_cell_volume   7000.33898982
_cell_formula_units_Z   1
loop_
 _symmetry_equiv_pos_site_id
 _symmetry_equiv_pos_as_xyz
  1  'x, y, z'
loop_
 _atom_type_symbol
 _atom_type_oxidation_number
  In3+  3.0
  Ag+  1.0
  Sn2+  2.0
  Bi3+  3.0
  Te2-  -2.0
  Pb2+  2.0
loop_
 _atom_site_type_symbol
 _atom_site_label
 _atom_site_symmetry_multiplicity
 _atom_site_fract_x
 _atom_site_fract_y
 _atom_site_fract_z
 _atom_site_occupancy
  In3+  In0  1  0.32012501  0.33429802  0.67558616  1
  In3+  In1  1  0.65689049  0.83516001  0.49330531  1
  In3+  In2  1  0.66100691  0.00212038  0.66720081  1
  In3+  In3  1  0.48685515  0.15261548  0.00312992  1
  In3+  In4  1  0.66746582  0.84718957  0.82537438  1
  In3+  In5  1  0.31551650  0.50642132  0.82649585  1
  In3+  In6  1  0.83541198  0.16487292  0.68879139  1
  In3+  In7  1  0.02451801  0.15969995  0.82421204  1
  In3+  In8  1  0.83709590  0.33040990  0.16091777  1
  In3+  In9  1  0.67529494  0.66756268  0.66681968  1
  In3+  In10  1  0.85848122  0.68752664  0.16007339  1
  In3+  In11  1  0.66966775  0.32750655  0.32674568  1
  In3+  In12  1  0.16454200  0.00242422  0.19084178  1
  In3+  In13  1  0.47226118  0.66570399  0.16522034  1
  In3+  In14  1  0.83922709  0.34225114  0.82476665  1
  In3+  In15  1  0.16820826  0.65503861  0.48913911  1
  In3+  In16  1  0.14804410  0.67003360  0.83705260  1
  In3+  In17  1  0.32680836  0.66454479  0.00768653  1
  In3+  In18  1  0.66613287  0.50467333  0.15287383  1
  In3+  In19  1  0.49382154  0.16287809  0.65786946  1
  In3+  In20  1  0.83228613  0.84967809  0.66472818  1
  In3+  In21  1  0.83757468  0.18479508  0.00155127  1
  Ag+  Ag22  1  0.49190245  0.00295549  0.46985707  1
  Ag+  Ag23  1  0.85502968  0.80267088  0.36546503  1
  Ag+  Ag24  1  0.02861987  0.67151496  0.02798362  1
  Ag+  Ag25  1  0.02229221  0.68152558  0.32926575  1
  Ag+  Ag26  1  0.49437900  0.02890758  0.81790403  1
  Ag+  Ag27  1  0.18621326  0.14641187  0.35279069  1
  Ag+  Ag28  1  0.47204019  0.13377944  0.36331487  1
  Ag+  Ag29  1  0.31288512  0.69172580  0.35890491  1
  Ag+  Ag30  1  0.18779198  0.31211101  0.83262155  1
  Ag+  Ag31  1  0.33686801  0.15514533  0.18693135  1
  Ag+  Ag32  1  0.85988387  0.48697133  0.02847726  1
  Ag+  Ag33  1  0.03011318  -0.01853709  0.66977297  1
  Ag+  Ag34  1  0.85195881  0.52822186  0.64087090  1
  Ag+  Ag35  1  0.34435938  0.13950840  0.82514768  1
  Ag+  Ag36  1  0.47500519  0.49758622  -0.02111314  1
  Ag+  Ag37  1  0.01705004  0.83090094  0.19528884  1
  Ag+  Ag38  1  0.85626679  0.03177086  0.82128511  1
  Ag+  Ag39  1  0.16328602  0.65035052  0.18746662  1
  Ag+  Ag40  1  0.14501404  0.00816403  0.49963534  1
  Ag+  Ag41  1  -0.01517835  0.02016632  0.30775840  1
  Ag+  Ag42  1  0.33209540  0.52053166  0.47919421  1
  Sn2+  Sn43  1  0.32991726  0.83752152  0.50275724  1
  Sn2+  Sn44  1  -0.00275963  0.49320344  0.83973835  1
  Sn2+  Sn45  1  0.32204514  -0.00166093  0.34188327  1
  Sn2+  Sn46  1  0.33614222  0.00187023  0.65935573  1
  Sn2+  Sn47  1  0.33938250  0.83174690  0.83010703  1
  Sn2+  Sn48  1  0.50576791  0.49566909  0.66964324  1
  Sn2+  Sn49  1  0.83820041  0.50661906  0.33154875  1
  Sn2+  Sn50  1  0.33525000  0.66004688  0.66973801  1
  Sn2+  Sn51  1  0.49719858  0.32892822  0.49916849  1
  Sn2+  Sn52  1  0.49444106  0.00097727  0.16308556  1
  Sn2+  Sn53  1  0.49619883  0.83494740  0.33592764  1
  Sn2+  Sn54  1  0.32976858  0.16448601  0.50194337  1
  Sn2+  Sn55  1  0.00106330  0.15409241  0.49325661  1
  Sn2+  Sn56  1  0.16108289  0.49679671  0.00433118  1
  Sn2+  Sn57  1  0.65254096  0.50445596  0.50013940  1
  Sn2+  Sn58  1  0.33092797  0.00521462  0.00083471  1
  Sn2+  Sn59  1  0.49443054  0.33244829  0.83500278  1
  Sn2+  Sn60  1  0.17076646  0.49842082  0.33093148  1
  Sn2+  Sn61  1  0.15896548  0.83535612  0.33506813  1
  Sn2+  Sn62  1  0.15929347  0.50570261  0.66803875  1
  Sn2+  Sn63  1  0.00252621  0.66881681  0.66180296  1
  Sn2+  Sn64  1  0.16504458  0.83047665  0.65635380  1
  Bi3+  Bi65  1  0.66537093  0.33500891  0.66518487  1
  Bi3+  Bi66  1  0.16839106  0.16359412  -0.00057419  1
  Bi3+  Bi67  1  0.49947763  0.33501079  0.16799182  1
  Bi3+  Bi68  1  0.83571307  0.16481576  0.33049410  1
  Bi3+  Bi69  1  0.83193066  0.33399964  0.50034929  1
  Bi3+  Bi70  1  0.00341585  0.83624082  0.50069175  1
  Bi3+  Bi71  1  0.83686865  0.00158587  0.15974440  1
  Bi3+  Bi72  1  0.83143962  0.66161318  0.83711585  1
  Bi3+  Bi73  1  -0.00054895  0.33363073  0.66789726  1
  Bi3+  Bi74  1  0.66665005  0.66630247  0.00081070  1
  Bi3+  Bi75  1  0.66909013  0.50049028  0.83218446  1
  Bi3+  Bi76  1  0.00379287  0.16155379  0.16118357  1
  Bi3+  Bi77  1  0.50250717  0.49722925  0.33561454  1
  Bi3+  Bi78  1  0.49797198  0.82400893  0.00232732  1
  Bi3+  Bi79  1  0.83473536  0.82875799  -0.00548964  1
  Bi3+  Bi80  1  0.32810983  0.84185080  0.16854940  1
  Bi3+  Bi81  1  0.50022503  0.66327651  0.83206082  1
  Bi3+  Bi82  1  0.33292876  0.33548500  0.00022608  1
  Bi3+  Bi83  1  0.66392613  0.66250930  0.33263113  1
  Bi3+  Bi84  1  0.33724221  0.33205270  0.33727063  1
  Bi3+  Bi85  1  0.66760967  0.00042562  -0.00216161  1
  Te2-  Te86  1  0.16667174  0.15883627  0.16091996  1
  Te2-  Te87  1  0.16491859  0.16002105  0.49742315  1
  Te2-  Te88  1  0.17753808  0.16450074  0.83355307  1
  Te2-  Te89  1  0.16588199  0.50412236  0.16449059  1
  Te2-  Te90  1  0.18007292  0.50144351  0.50269597  1
  Te2-  Te91  1  0.16363128  0.51205763  0.83389157  1
  Te2-  Te92  1  0.16406324  0.84564960  0.17178188  1
  Te2-  Te93  1  0.16755829  0.83754241  0.49936489  1
  Te2-  Te94  1  0.16934851  0.82330936  0.82759032  1
  Te2-  Te95  1  0.48450221  0.17062341  0.15779876  1
  Te2-  Te96  1  0.49862081  0.15684247  0.50314368  1
  Te2-  Te97  1  0.48890719  0.17495291  0.84719340  1
  Te2-  Te98  1  0.50673131  0.50079847  0.17240862  1
  Te2-  Te99  1  0.48776648  0.50188869  0.49930504  1
  Te2-  Te100  1  0.50500147  0.50167251  0.83420750  1
  Te2-  Te101  1  0.49450190  0.82838514  0.16423965  1
  Te2-  Te102  1  0.50108702  0.84566033  0.49818223  1
  Te2-  Te103  1  0.50618806  0.82512667  0.83923255  1
  Te2-  Te104  1  0.83590122  0.16728744  0.16456043  1
  Te2-  Te105  1  0.83639743  0.17076201  0.49349996  1
  Te2-  Te106  1  0.82952163  0.17459826  0.84186336  1
  Te2-  Te107  1  0.82567728  0.48783980  0.17094944  1
  Te2-  Te108  1  0.82895102  0.49739639  0.49919963  1
  Te2-  Te109  1  0.83137187  0.49822618  0.83184236  1
  Te2-  Te110  1  0.84308006  0.83921069  0.16140418  1
  Te2-  Te111  1  0.83157967  0.83412093  0.50760211  1
  Te2-  Te112  1  0.82417731  0.82675666  0.82783973  1
  Te2-  Te113  1  0.16708565  0.00095984  -0.00956811  1
  Te2-  Te114  1  0.16200782  0.00185854  0.34536102  1
  Te2-  Te115  1  0.17686971  -0.00063841  0.65309733  1
  Te2-  Te116  1  0.16945791  0.33133857  -0.01315309  1
  Te2-  Te117  1  0.17325180  0.33497032  0.33154696  1
  Te2-  Te118  1  0.16510526  0.33670700  0.67995348  1
  Te2-  Te119  1  0.17081474  0.66562563  -0.01115570  1
  Te2-  Te120  1  0.17094180  0.66171607  0.33486378  1
  Te2-  Te121  1  0.16569872  0.66477354  0.66986059  1
  Te2-  Te122  1  0.50175816  -0.00599917  0.00282365  1
  Te2-  Te123  1  0.50387283  -0.00154022  0.32253625  1
  Te2-  Te124  1  0.50401736  0.00780903  0.67240332  1
  Te2-  Te125  1  0.49399790  0.34955077  0.00502791  1
  Te2-  Te126  1  0.50305267  0.33104358  0.33159052  1
  Te2-  Te127  1  0.50456884  0.32781775  0.66636446  1
  Te2-  Te128  1  0.50010696  0.65948045  0.00297929  1
  Te2-  Te129  1  0.50080711  0.66361873  0.32635898  1
  Te2-  Te130  1  0.50388707  0.66589773  0.66751141  1
  Te2-  Te131  1  0.82877048  -0.00824418  -0.00755274  1
  Te2-  Te132  1  0.83923014  0.00256620  0.32705369  1
  Te2-  Te133  1  0.81902565  0.00617839  0.68047415  1
  Te2-  Te134  1  0.83212941  0.34330468  0.00115832  1
  Te2-  Te135  1  0.82826651  0.33195648  0.33498529  1
  Te2-  Te136  1  0.83054229  0.32778427  0.66369750  1
  Te2-  Te137  1  0.82871968  0.66539703  0.00408107  1
  Te2-  Te138  1  0.82671138  0.66608875  0.32201492  1
  Te2-  Te139  1  0.83065674  0.66966552  0.67062238  1
  Te2-  Te140  1  0.00071406  0.16554942  -0.00294359  1
  Te2-  Te141  1  0.00072898  0.16618813  0.32468274  1
  Te2-  Te142  1  -0.00834934  0.17141668  0.66953758  1
  Te2-  Te143  1  0.00115693  0.51756017  0.00019858  1
  Te2-  Te144  1  0.00186654  0.50111963  0.33582927  1
  Te2-  Te145  1  -0.00698696  0.49683444  0.66949122  1
  Te2-  Te146  1  -0.00296368  0.81952301  -0.00564128  1
  Te2-  Te147  1  -0.00220160  0.82835537  0.34146032  1
  Te2-  Te148  1  -0.00631588  0.83690451  0.66310186  1
  Te2-  Te149  1  0.33317124  0.17039413  -0.01366663  1
  Te2-  Te150  1  0.33169489  0.16875401  0.33365568  1
  Te2-  Te151  1  0.34039172  0.17606258  0.67699258  1
  Te2-  Te152  1  0.32943939  0.50350452  -0.00150513  1
  Te2-  Te153  1  0.33742480  0.49448135  0.33384659  1
  Te2-  Te154  1  0.33407015  0.49084559  0.67426271  1
  Te2-  Te155  1  0.33617018  0.83098197  0.00348095  1
  Te2-  Te156  1  0.33493460  0.83339942  0.32995776  1
  Te2-  Te157  1  0.33324641  0.82925458  0.66491698  1
  Te2-  Te158  1  0.66777503  0.16392559  0.00080256  1
  Te2-  Te159  1  0.66970025  0.17029680  0.33149372  1
  Te2-  Te160  1  0.66557612  0.16872134  0.66756229  1
  Te2-  Te161  1  0.66881198  0.50427097  -0.00182458  1
  Te2-  Te162  1  0.66513409  0.49952029  0.33866766  1
  Te2-  Te163  1  0.66940897  0.50059384  0.66685276  1
  Te2-  Te164  1  0.66370917  0.83192874  -0.00108022  1
  Te2-  Te165  1  0.66640033  0.82796281  0.33772890  1
  Te2-  Te166  1  0.67005477  0.83074167  0.66480816  1
  Te2-  Te167  1  0.00342000  -0.00373981  0.16303758  1
  Te2-  Te168  1  -0.00222619  -0.00096272  0.51903908  1
  Te2-  Te169  1  0.00159785  0.00695240  0.81878595  1
  Te2-  Te170  1  -0.00257675  0.33058455  0.16275870  1
  Te2-  Te171  1  -0.00084104  0.32975496  0.50510502  1
  Te2-  Te172  1  -0.00724250  0.32288795  0.82966222  1
  Te2-  Te173  1  0.00935259  0.67910314  0.17624227  1
  Te2-  Te174  1  0.00989328  0.66947850  0.49457152  1
  Te2-  Te175  1  -0.00572478  0.66229851  0.82449356  1
  Te2-  Te176  1  0.32560299  0.00533567  0.16775620  1
  Te2-  Te177  1  0.34648684  0.00000874  0.49984684  1
  Te2-  Te178  1  0.34588893  -0.00857020  0.83138723  1
  Te2-  Te179  1  0.33494650  0.32539633  0.16484397  1
  Te2-  Te180  1  0.33642485  0.32499829  0.50418764  1
  Te2-  Te181  1  0.33076738  0.34926247  0.83407585  1
  Te2-  Te182  1  0.31656818  0.67405019  0.16423975  1
  Te2-  Te183  1  0.32463430  0.66685337  0.50242596  1
  Te2-  Te184  1  0.34017034  0.66318540  0.83493958  1
  Te2-  Te185  1  0.67116933  -0.00369226  0.16286567  1
  Te2-  Te186  1  0.66356363  -0.00657452  0.50918325  1
  Te2-  Te187  1  0.64690604  -0.00157336  0.83392309  1
  Te2-  Te188  1  0.66618452  0.33466517  0.16828830  1
  Te2-  Te189  1  0.66617578  0.33711621  0.50230567  1
  Te2-  Te190  1  0.66822258  0.33680335  0.82909132  1
  Te2-  Te191  1  0.67116161  0.65977808  0.16629077  1
  Te2-  Te192  1  0.66651526  0.67345307  0.50026576  1
  Te2-  Te193  1  0.66651006  0.66594303  0.83237899  1
  Pb2+  Pb194  1  0.33618167  0.49715672  0.16706574  1
  Pb2+  Pb195  1  0.83749369  0.66614200  0.49340039  1
  Pb2+  Pb196  1  0.16329871  0.83311937  0.00450286  1
  Pb2+  Pb197  1  0.00433733  0.49986277  0.50235588  1
  Pb2+  Pb198  1  -0.00396612  0.83316408  0.83077120  1
  Pb2+  Pb199  1  -0.00276820  -0.00664562  -0.00614969  1
  Pb2+  Pb200  1  0.67372520  -0.00257042  0.33674858  1
  Pb2+  Pb201  1  0.83313352  0.00209395  0.50345877  1
  Pb2+  Pb202  1  0.17088362  0.33214223  0.50064205  1
  Pb2+  Pb203  1  0.66676988  0.16700660  0.50043187  1
  Pb2+  Pb204  1  0.65314232  0.16426552  0.16587878  1
  Pb2+  Pb205  1  0.67474175  0.82534216  0.16863204  1
  Pb2+  Pb206  1  0.17716885  -0.00772240  0.82294403  1
  Pb2+  Pb207  1  0.65786306  0.16559896  0.83344246  1
  Pb2+  Pb208  1  0.49565697  0.67268424  0.49476185  1
  Pb2+  Pb209  1  0.16804095  0.33046241  0.16214731  1
  Pb2+  Pb210  1  -0.00457751  0.50912344  0.16957157  1
  Pb2+  Pb211  1  0.66035592  0.33567383  -0.00190972  1
  Pb2+  Pb212  1  0.00039082  0.33244759  0.33457700  1
  Pb2+  Pb213  1  0.00097641  0.34039885  -0.00416907  1
  Pb2+  Pb214  1  0.50052848  0.83749617  0.66804784  1
  Pb2+  Pb215  1  0.16715036  0.16618477  0.66310225  1
