# generated using pymatgen
data_In22Ag21Sn22Bi21(Te54Pb11)2
_symmetry_space_group_name_H-M   'P 1'
_cell_length_a   19.11889944
_cell_length_b   19.13001040
_cell_length_c   19.10668621
_cell_angle_alpha   89.99887944
_cell_angle_beta   90.00573991
_cell_angle_gamma   90.00167217
_symmetry_Int_Tables_number   1
_chemical_formula_structural   In22Ag21Sn22Bi21(Te54Pb11)2
_chemical_formula_sum   'In22 Ag21 Sn22 Bi21 Te108 Pb22'
_cell_volume   6988.17003778
_cell_formula_units_Z   1
loop_
 _symmetry_equiv_pos_site_id
 _symmetry_equiv_pos_as_xyz
  1  'x, y, z'
loop_
 _atom_type_symbol
 _atom_type_oxidation_number
  In3+  3.0
  Ag+  1.0
  Sn2+  2.0
  Bi3+  3.0
  Te2-  -2.0
  Pb2+  2.0
loop_
 _atom_site_type_symbol
 _atom_site_label
 _atom_site_symmetry_multiplicity
 _atom_site_fract_x
 _atom_site_fract_y
 _atom_site_fract_z
 _atom_site_occupancy
  In3+  In0  1  0.82247212  0.65704699  0.82320643  1
  In3+  In1  1  0.33362583  -0.00969903  -0.02175042  1
  In3+  In2  1  0.33660754  -0.00347440  0.35918812  1
  In3+  In3  1  0.49324435  0.01610517  0.17207582  1
  In3+  In4  1  0.16088013  0.33182941  0.49781385  1
  In3+  In5  1  0.33651053  0.66398838  0.65228665  1
  In3+  In6  1  0.16984776  0.17118248  -0.01800086  1
  In3+  In7  1  0.32702994  0.50334392  0.81753520  1
  In3+  In8  1  0.64820803  0.49364763  0.83148115  1
  In3+  In9  1  0.17371529  0.66648106  0.83150873  1
  In3+  In10  1  0.51063439  0.82886804  0.34183193  1
  In3+  In11  1  0.16887536  0.49846061  0.63715789  1
  In3+  In12  1  0.17366008  0.34384858  0.81496275  1
  In3+  In13  1  0.35656160  0.35569054  0.33206378  1
  In3+  In14  1  0.50123728  0.82664946  0.01633504  1
  In3+  In15  1  0.82553747  0.50016275  0.34853095  1
  In3+  In16  1  0.33746642  0.33284642  0.65174258  1
  In3+  In17  1  0.00831828  0.33304210  0.35843469  1
  In3+  In18  1  0.50810933  0.49944211  0.63977572  1
  In3+  In19  1  0.00434940  0.00579904  0.01362890  1
  In3+  In20  1  0.66758744  0.35872980  0.01812981  1
  In3+  In21  1  0.65212508  0.66314663  0.33860922  1
  Ag+  Ag22  1  0.49884865  0.67287218  0.49943078  1
  Ag+  Ag23  1  0.65970341  0.85392404  0.51256291  1
  Ag+  Ag24  1  0.63733359  0.02090586  0.33148351  1
  Ag+  Ag25  1  0.64327868  0.65886932  -0.02921401  1
  Ag+  Ag26  1  0.52267172  0.48596030  0.33387770  1
  Ag+  Ag27  1  0.46979416  0.19084656  0.33750448  1
  Ag+  Ag28  1  0.00522758  -0.02111028  0.31897829  1
  Ag+  Ag29  1  0.52122408  0.35446856  0.16983950  1
  Ag+  Ag30  1  0.00408759  0.14501668  0.50849061  1
  Ag+  Ag31  1  -0.02274662  0.32216230  0.66646646  1
  Ag+  Ag32  1  0.34623786  0.50034567  0.49383542  1
  Ag+  Ag33  1  0.64613709  0.49572396  0.48384382  1
  Ag+  Ag34  1  0.15722805  0.14450103  0.65080165  1
  Ag+  Ag35  1  0.35167283  0.63969088  -0.00129779  1
  Ag+  Ag36  1  0.19103717  0.47609441  0.33044938  1
  Ag+  Ag37  1  0.65987372  0.35725212  0.35003140  1
  Ag+  Ag38  1  0.03162523  0.02781841  0.66816921  1
  Ag+  Ag39  1  0.66124332  0.50217317  0.18602776  1
  Ag+  Ag40  1  0.80325485  0.49987686  0.65037016  1
  Ag+  Ag41  1  0.16883946  0.85268548  0.64739631  1
  Ag+  Ag42  1  0.32812494  0.02991831  0.66681265  1
  Sn2+  Sn43  1  0.16558186  0.16438469  0.34259014  1
  Sn2+  Sn44  1  -0.01341320  0.49566210  0.17079482  1
  Sn2+  Sn45  1  0.33502627  0.82654012  0.82345831  1
  Sn2+  Sn46  1  0.33011503  0.16775835  0.82948644  1
  Sn2+  Sn47  1  0.00354131  0.49837659  0.82610779  1
  Sn2+  Sn48  1  0.50243654  0.65713500  0.17428645  1
  Sn2+  Sn49  1  -0.00107364  0.67348439  -0.00153094  1
  Sn2+  Sn50  1  0.66731170  0.32643201  0.65682789  1
  Sn2+  Sn51  1  0.66402676  0.83992938  0.82638767  1
  Sn2+  Sn52  1  0.82865571  0.83928499  0.33850665  1
  Sn2+  Sn53  1  0.49285503  0.83552326  0.66476613  1
  Sn2+  Sn54  1  0.00498370  0.66106464  0.33646128  1
  Sn2+  Sn55  1  0.49740696  0.33588456  0.84640333  1
  Sn2+  Sn56  1  0.33643060  0.66590304  0.32666908  1
  Sn2+  Sn57  1  0.84952489  0.17298170  0.66355016  1
  Sn2+  Sn58  1  0.16222474  0.00282460  0.50379617  1
  Sn2+  Sn59  1  -0.00244965  0.84430837  0.50294199  1
  Sn2+  Sn60  1  0.66200012  -0.00544615  0.65797628  1
  Sn2+  Sn61  1  0.66586496  -0.01409878  0.01079270  1
  Sn2+  Sn62  1  0.17518466  0.49715751  0.01413361  1
  Sn2+  Sn63  1  0.83673339  -0.00405732  0.82496020  1
  Sn2+  Sn64  1  0.34012605  0.33301359  0.00153754  1
  Bi3+  Bi65  1  0.00560464  0.66375667  0.66988226  1
  Bi3+  Bi66  1  0.82845743  0.66671169  0.49733194  1
  Bi3+  Bi67  1  0.83334515  0.00050028  0.50084675  1
  Bi3+  Bi68  1  0.50033025  0.16472210  0.00450680  1
  Bi3+  Bi69  1  0.00137132  0.83233502  0.83020369  1
  Bi3+  Bi70  1  0.84009439  0.50223646  -0.00192137  1
  Bi3+  Bi71  1  0.83180172  0.33630085  0.16844810  1
  Bi3+  Bi72  1  0.00069124  0.50490014  0.49888430  1
  Bi3+  Bi73  1  0.83460143  0.33823233  0.83127988  1
  Bi3+  Bi74  1  0.16528929  0.33567012  0.17176162  1
  Bi3+  Bi75  1  0.16660599  0.83394408  -0.00219704  1
  Bi3+  Bi76  1  0.33831430  0.82627878  0.50165021  1
  Bi3+  Bi77  1  0.00109428  0.16534380  0.82810914  1
  Bi3+  Bi78  1  0.00157197  0.17048396  0.17698922  1
  Bi3+  Bi79  1  0.83016808  0.83141444  -0.00202515  1
  Bi3+  Bi80  1  0.49874965  0.33307484  0.49819920  1
  Bi3+  Bi81  1  0.16817765  0.66430900  0.16499464  1
  Bi3+  Bi82  1  0.83679818  0.17039976  0.33575493  1
  Bi3+  Bi83  1  0.16579111  0.83521587  0.33894813  1
  Bi3+  Bi84  1  0.83233899  0.66261934  0.16800345  1
  Bi3+  Bi85  1  0.66631141  0.82342451  0.17164447  1
  Te2-  Te86  1  0.16116483  0.17003247  0.17301034  1
  Te2-  Te87  1  0.15477275  0.17595558  0.50462045  1
  Te2-  Te88  1  0.16276689  0.17544852  0.82833558  1
  Te2-  Te89  1  0.15878882  0.50053890  0.18179064  1
  Te2-  Te90  1  0.16313106  0.49474884  0.48158807  1
  Te2-  Te91  1  0.17195958  0.49482684  0.84420295  1
  Te2-  Te92  1  0.16604459  0.83237318  0.16601019  1
  Te2-  Te93  1  0.17222574  0.83036413  0.50115954  1
  Te2-  Te94  1  0.16594989  0.82757205  0.83757698  1
  Te2-  Te95  1  0.49874600  0.16784205  0.17599511  1
  Te2-  Te96  1  0.49641879  0.17109106  0.48654886  1
  Te2-  Te97  1  0.49706720  0.17155153  0.83663342  1
  Te2-  Te98  1  0.50764904  0.50145854  0.17995021  1
  Te2-  Te99  1  0.49623221  0.49540596  0.49057234  1
  Te2-  Te100  1  0.49189834  0.49569264  0.83869270  1
  Te2-  Te101  1  0.50462085  0.82359747  0.17117718  1
  Te2-  Te102  1  0.50492361  0.82299959  0.50041535  1
  Te2-  Te103  1  0.50005866  0.83087349  0.82631418  1
  Te2-  Te104  1  0.83769196  0.16971560  0.16487212  1
  Te2-  Te105  1  0.84919459  0.16614115  0.50175021  1
  Te2-  Te106  1  0.83635899  0.17063850  0.82893402  1
  Te2-  Te107  1  0.81999098  0.49990934  0.15979968  1
  Te2-  Te108  1  0.83585188  0.50293381  0.50505120  1
  Te2-  Te109  1  0.83843425  0.50149384  0.83649451  1
  Te2-  Te110  1  0.83143221  0.82967474  0.16556006  1
  Te2-  Te111  1  0.82233745  0.82920208  0.49972191  1
  Te2-  Te112  1  0.83502488  0.82651140  0.83483197  1
  Te2-  Te113  1  0.17284020  0.00033997  -0.00041065  1
  Te2-  Te114  1  0.15508419  -0.00372470  0.34088595  1
  Te2-  Te115  1  0.17867243  -0.00054213  0.66247355  1
  Te2-  Te116  1  0.17198197  0.32986707  0.01014397  1
  Te2-  Te117  1  0.16612466  0.33064348  0.33485870  1
  Te2-  Te118  1  0.18007874  0.34485243  0.66385220  1
  Te2-  Te119  1  0.16246369  0.67027964  0.00368038  1
  Te2-  Te120  1  0.16832749  0.67279577  0.32854759  1
  Te2-  Te121  1  0.17252991  0.65338449  0.67564753  1
  Te2-  Te122  1  0.49678157  -0.00243890  0.00710351  1
  Te2-  Te123  1  0.49333085  -0.01432068  0.32828617  1
  Te2-  Te124  1  0.50256734  0.00260679  0.66652129  1
  Te2-  Te125  1  0.50929799  0.32746292  0.01642435  1
  Te2-  Te126  1  0.50672135  0.33416814  0.32942725  1
  Te2-  Te127  1  0.49232416  0.34043855  0.66784739  1
  Te2-  Te128  1  0.49976552  0.67395810  0.00117867  1
  Te2-  Te129  1  0.49625966  0.67229853  0.34408817  1
  Te2-  Te130  1  0.49224385  0.65696379  0.65481087  1
  Te2-  Te131  1  0.83368738  -0.00647453  0.00018079  1
  Te2-  Te132  1  0.85212039  0.00024167  0.33983449  1
  Te2-  Te133  1  0.82378747  -0.00028071  0.66349881  1
  Te2-  Te134  1  0.82878379  0.33467874  -0.00304071  1
  Te2-  Te135  1  0.81767481  0.33783116  0.32895406  1
  Te2-  Te136  1  0.82923823  0.34565611  0.66983899  1
  Te2-  Te137  1  0.83481391  0.66824789  0.00383329  1
  Te2-  Te138  1  0.84037724  0.66459382  0.33255421  1
  Te2-  Te139  1  0.83851091  0.65419289  0.66617382  1
  Te2-  Te140  1  0.00469511  0.16452366  -0.00304001  1
  Te2-  Te141  1  -0.00188388  0.17889002  0.33943369  1
  Te2-  Te142  1  0.00847988  0.17504183  0.66508390  1
  Te2-  Te143  1  0.00205860  0.50207446  -0.00001497  1
  Te2-  Te144  1  -0.01547956  0.49275356  0.33630177  1
  Te2-  Te145  1  0.01510484  0.50278565  0.66434919  1
  Te2-  Te146  1  -0.00077536  0.84119869  -0.00403111  1
  Te2-  Te147  1  0.00117856  0.83169310  0.33872594  1
  Te2-  Te148  1  0.01419710  0.82559446  0.66946584  1
  Te2-  Te149  1  0.33772025  0.16454676  -0.00538728  1
  Te2-  Te150  1  0.32963467  0.14735860  0.33466724  1
  Te2-  Te151  1  0.32526021  0.17810129  0.66686970  1
  Te2-  Te152  1  0.33531659  0.49234640  0.00533812  1
  Te2-  Te153  1  0.33536537  0.50598329  0.34366960  1
  Te2-  Te154  1  0.32867356  0.50077959  0.66648359  1
  Te2-  Te155  1  0.33209908  0.83918235  -0.00769929  1
  Te2-  Te156  1  0.32987422  0.83675459  0.33934033  1
  Te2-  Te157  1  0.32359536  0.81920430  0.66404467  1
  Te2-  Te158  1  0.66208578  0.15392449  0.00290167  1
  Te2-  Te159  1  0.67852121  0.16143793  0.33281047  1
  Te2-  Te160  1  0.66562316  0.16763678  0.66447117  1
  Te2-  Te161  1  0.67274021  0.51220276  -0.01333787  1
  Te2-  Te162  1  0.66984576  0.50625769  0.33495383  1
  Te2-  Te163  1  0.65920115  0.49753380  0.67778568  1
  Te2-  Te164  1  0.66595506  0.82570589  0.00169613  1
  Te2-  Te165  1  0.66575093  0.81960039  0.33460666  1
  Te2-  Te166  1  0.66438752  0.83458707  0.65889726  1
  Te2-  Te167  1  -0.00018042  0.00643918  0.17189720  1
  Te2-  Te168  1  -0.00356177  -0.00165447  0.52209224  1
  Te2-  Te169  1  -0.00361541  -0.00030440  0.81632460  1
  Te2-  Te170  1  -0.00292290  0.33204422  0.16114026  1
  Te2-  Te171  1  0.00620191  0.34284541  0.51728466  1
  Te2-  Te172  1  0.00166044  0.33029984  0.81982848  1
  Te2-  Te173  1  -0.00087402  0.66300800  0.16869960  1
  Te2-  Te174  1  -0.00239125  0.67004500  0.50391009  1
  Te2-  Te175  1  0.00250051  0.66803571  0.83252202  1
  Te2-  Te176  1  0.34071717  -0.00190476  0.16037653  1
  Te2-  Te177  1  0.33462573  -0.00631970  0.51429596  1
  Te2-  Te178  1  0.33283991  -0.00014354  0.82053278  1
  Te2-  Te179  1  0.32829841  0.33342090  0.17933323  1
  Te2-  Te180  1  0.33325783  0.34565808  0.49574896  1
  Te2-  Te181  1  0.32882703  0.33766999  0.83962235  1
  Te2-  Te182  1  0.33096362  0.66643054  0.15377322  1
  Te2-  Te183  1  0.33943417  0.65903913  0.49958126  1
  Te2-  Te184  1  0.32760488  0.65678387  0.85143133  1
  Te2-  Te185  1  0.65794215  -0.01129739  0.18018376  1
  Te2-  Te186  1  0.67015670  -0.00209171  0.48454868  1
  Te2-  Te187  1  0.67043287  -0.00319660  0.83465910  1
  Te2-  Te188  1  0.66901994  0.34511384  0.16987279  1
  Te2-  Te189  1  0.66229310  0.34425146  0.49876852  1
  Te2-  Te190  1  0.66812836  0.34000380  0.83137991  1
  Te2-  Te191  1  0.66949891  0.66015290  0.17696004  1
  Te2-  Te192  1  0.66759284  0.64779222  0.49245367  1
  Te2-  Te193  1  0.66932055  0.66844910  0.82692063  1
  Pb2+  Pb194  1  0.16972237  0.66321253  0.50034678  1
  Pb2+  Pb195  1  0.32681338  0.17215009  0.49898358  1
  Pb2+  Pb196  1  0.84215194  0.82978096  0.66531410  1
  Pb2+  Pb197  1  0.67082384  0.16888621  0.49553879  1
  Pb2+  Pb198  1  0.33459983  0.50097547  0.17428766  1
  Pb2+  Pb199  1  0.33725179  0.83284512  0.16652797  1
  Pb2+  Pb200  1  0.66376015  0.17073466  0.17030219  1
  Pb2+  Pb201  1  0.49538974  0.66376252  0.82674191  1
  Pb2+  Pb202  1  -0.00079236  0.83183333  0.16873071  1
  Pb2+  Pb203  1  0.50450335  0.50154994  0.01064212  1
  Pb2+  Pb204  1  0.50335171  -0.00369873  0.49841050  1
  Pb2+  Pb205  1  0.49710529  0.17043154  0.65978201  1
  Pb2+  Pb206  1  0.17365742  0.00242626  0.17185545  1
  Pb2+  Pb207  1  0.82386644  0.00010595  0.17506812  1
  Pb2+  Pb208  1  0.83294453  0.16250296  -0.00413055  1
  Pb2+  Pb209  1  0.50201690  -0.00037332  0.83717757  1
  Pb2+  Pb210  1  0.00551403  0.33524666  -0.01198680  1
  Pb2+  Pb211  1  0.66515033  0.66672376  0.65641228  1
  Pb2+  Pb212  1  0.83501062  0.33364015  0.49763295  1
  Pb2+  Pb213  1  0.16378016  0.00050254  0.82946854  1
  Pb2+  Pb214  1  0.66518451  0.17198697  0.83433406  1
  Pb2+  Pb215  1  0.33216837  0.16713665  0.16262090  1
