# generated using pymatgen
data_In22Ag21Sn22Bi21(Te54Pb11)2
_symmetry_space_group_name_H-M   'P 1'
_cell_length_a   19.12246575
_cell_length_b   19.13208472
_cell_length_c   19.14228203
_cell_angle_alpha   89.98868582
_cell_angle_beta   90.00332056
_cell_angle_gamma   90.00417330
_symmetry_Int_Tables_number   1
_chemical_formula_structural   In22Ag21Sn22Bi21(Te54Pb11)2
_chemical_formula_sum   'In22 Ag21 Sn22 Bi21 Te108 Pb22'
_cell_volume   7003.25415048
_cell_formula_units_Z   1
loop_
 _symmetry_equiv_pos_site_id
 _symmetry_equiv_pos_as_xyz
  1  'x, y, z'
loop_
 _atom_type_symbol
 _atom_type_oxidation_number
  In3+  3.0
  Ag+  1.0
  Sn2+  2.0
  Bi3+  3.0
  Te2-  -2.0
  Pb2+  2.0
loop_
 _atom_site_type_symbol
 _atom_site_label
 _atom_site_symmetry_multiplicity
 _atom_site_fract_x
 _atom_site_fract_y
 _atom_site_fract_z
 _atom_site_occupancy
  In3+  In0  1  -0.02398557  0.16993421  0.15298472  1
  In3+  In1  1  0.32825071  0.66567817  0.66348057  1
  In3+  In2  1  0.51886936  0.17736802  0.66591734  1
  In3+  In3  1  0.66555265  0.16438145  0.51532073  1
  In3+  In4  1  0.82511417  0.52670664  0.33093056  1
  In3+  In5  1  0.17833530  0.34084236  0.82792651  1
  In3+  In6  1  0.33917703  0.17324930  0.15195477  1
  In3+  In7  1  0.16722212  0.33723880  0.15103669  1
  In3+  In8  1  0.82011998  0.35054124  0.16546963  1
  In3+  In9  1  0.33360211  0.81416302  0.48932077  1
  In3+  In10  1  0.50993465  0.33627075  0.81375812  1
  In3+  In11  1  0.16640500  0.80708281  0.00647566  1
  In3+  In12  1  0.65881368  0.18644352  0.15859131  1
  In3+  In13  1  0.00683745  0.66993893  0.32794921  1
  In3+  In14  1  0.50542031  0.83138159  0.69214349  1
  In3+  In15  1  0.33414216  -0.00329133  0.33418795  1
  In3+  In16  1  0.83454122  0.84035788  0.69641506  1
  In3+  In17  1  0.83005513  0.67137661  0.15231427  1
  In3+  In18  1  0.52898809  0.49860577  0.00862786  1
  In3+  In19  1  0.82754417  0.83152519  0.33836002  1
  In3+  In20  1  0.82509041  0.50374650  0.68110832  1
  In3+  In21  1  0.51086699  0.82327749  0.33456154  1
  Ag+  Ag22  1  0.18910127  0.52890835  0.68962364  1
  Ag+  Ag23  1  0.65145828  -0.02918050  0.00168821  1
  Ag+  Ag24  1  0.52402718  0.86064892  -0.01304747  1
  Ag+  Ag25  1  0.66560831  0.49815901  0.18779048  1
  Ag+  Ag26  1  0.82700034  -0.01988584  0.85849700  1
  Ag+  Ag27  1  0.83441682  0.52316466  -0.01751881  1
  Ag+  Ag28  1  0.67452549  0.35033137  0.66745490  1
  Ag+  Ag29  1  0.52577030  0.69079247  0.49862908  1
  Ag+  Ag30  1  0.17613325  0.50120504  -0.01685045  1
  Ag+  Ag31  1  0.80458688  -0.03365545  0.52366724  1
  Ag+  Ag32  1  0.68644096  0.85392269  0.83184726  1
  Ag+  Ag33  1  0.81499290  0.82065278  0.00213017  1
  Ag+  Ag34  1  0.53013460  0.35416893  0.48240522  1
  Ag+  Ag35  1  0.65262163  0.66776700  0.30767227  1
  Ag+  Ag36  1  0.14556938  0.82777935  0.30881578  1
  Ag+  Ag37  1  -0.01600844  0.66645174  -0.01088751  1
  Ag+  Ag38  1  0.49975342  0.20104672  -0.02438459  1
  Ag+  Ag39  1  0.15269379  0.67472388  0.50040451  1
  Ag+  Ag40  1  0.82883545  0.64911908  0.81991272  1
  Ag+  Ag41  1  0.65745008  0.52110792  0.83244645  1
  Ag+  Ag42  1  0.81489818  0.20677971  0.68691341  1
  Sn2+  Sn43  1  0.33020426  0.66564368  -0.00442672  1
  Sn2+  Sn44  1  0.66620693  0.82989370  0.15483210  1
  Sn2+  Sn45  1  0.33437331  0.67049540  0.33475356  1
  Sn2+  Sn46  1  0.51338003  0.66229398  0.82697964  1
  Sn2+  Sn47  1  -0.00566524  -0.00848618  -0.00542623  1
  Sn2+  Sn48  1  -0.00364626  0.33378207  0.67048410  1
  Sn2+  Sn49  1  0.83468717  0.65985028  0.50735119  1
  Sn2+  Sn50  1  -0.01075513  0.83082918  0.84063127  1
  Sn2+  Sn51  1  0.66907263  -0.00698704  0.32274075  1
  Sn2+  Sn52  1  0.82193464  0.15921128  -0.00744463  1
  Sn2+  Sn53  1  0.34097856  0.50214271  0.16205684  1
  Sn2+  Sn54  1  0.82927473  0.32703096  0.49255408  1
  Sn2+  Sn55  1  0.16995911  0.82857944  0.66345965  1
  Sn2+  Sn56  1  -0.01189989  0.16569933  0.49629147  1
  Sn2+  Sn57  1  0.33232109  0.49979931  0.49810188  1
  Sn2+  Sn58  1  0.16280151  0.65600951  0.16657548  1
  Sn2+  Sn59  1  0.66976637  0.33868707  -0.01507706  1
  Sn2+  Sn60  1  0.51193633  -0.00075422  0.84413821  1
  Sn2+  Sn61  1  0.15597506  0.66637894  0.83603854  1
  Sn2+  Sn62  1  0.50777381  0.66614145  0.16609217  1
  Sn2+  Sn63  1  0.50290827  0.33075176  0.17129066  1
  Sn2+  Sn64  1  -0.00133510  0.66238647  0.67097271  1
  Bi3+  Bi65  1  0.16450156  0.33858829  0.50344039  1
  Bi3+  Bi66  1  0.66839232  0.16256737  0.84292220  1
  Bi3+  Bi67  1  0.32947708  0.82986910  0.83242093  1
  Bi3+  Bi68  1  0.15792225  0.16747140  0.66719414  1
  Bi3+  Bi69  1  0.33737934  -0.00589409  0.66760095  1
  Bi3+  Bi70  1  0.33339377  0.16281213  0.50022983  1
  Bi3+  Bi71  1  0.83240265  -0.00540642  0.16656827  1
  Bi3+  Bi72  1  0.00059041  0.50232368  0.50259218  1
  Bi3+  Bi73  1  0.49852209  0.50519132  0.66524517  1
  Bi3+  Bi74  1  0.83206845  0.15973103  0.33166507  1
  Bi3+  Bi75  1  0.66474465  0.66487278  0.67025151  1
  Bi3+  Bi76  1  -0.00241912  0.50333692  0.83491372  1
  Bi3+  Bi77  1  -0.00135605  -0.00322621  0.66730119  1
  Bi3+  Bi78  1  0.50559686  -0.00548988  0.16648534  1
  Bi3+  Bi79  1  0.50415928  0.16375066  0.33698877  1
  Bi3+  Bi80  1  -0.00357090  0.16747986  0.83170959  1
  Bi3+  Bi81  1  0.16459351  0.50681347  0.33909622  1
  Bi3+  Bi82  1  0.00039848  -0.00235474  0.33201563  1
  Bi3+  Bi83  1  0.16452625  -0.00877000  0.50150310  1
  Bi3+  Bi84  1  0.66577257  0.66254461  -0.00261180  1
  Bi3+  Bi85  1  0.33718863  0.82843918  0.16873360  1
  Te2-  Te86  1  0.18440632  0.17313168  0.16831810  1
  Te2-  Te87  1  0.16451979  0.16436262  0.50272138  1
  Te2-  Te88  1  0.16183654  0.16607630  0.83062521  1
  Te2-  Te89  1  0.16611135  0.49354955  0.17813950  1
  Te2-  Te90  1  0.16374965  0.50224496  0.50015825  1
  Te2-  Te91  1  0.16234833  0.50089835  0.83111095  1
  Te2-  Te92  1  0.17196381  0.82744477  0.16337309  1
  Te2-  Te93  1  0.17645933  0.82617667  0.50347866  1
  Te2-  Te94  1  0.16820373  0.82517994  0.83351452  1
  Te2-  Te95  1  0.49702411  0.16266698  0.17478372  1
  Te2-  Te96  1  0.49981316  0.16872666  0.50303305  1
  Te2-  Te97  1  0.50500484  0.16998071  0.82831405  1
  Te2-  Te98  1  0.51004817  0.50134134  0.16401392  1
  Te2-  Te99  1  0.49566581  0.49439643  0.50408844  1
  Te2-  Te100  1  0.50994737  0.49360137  0.82814188  1
  Te2-  Te101  1  0.49814788  0.83074992  0.16483104  1
  Te2-  Te102  1  0.49112578  0.83328320  0.48891560  1
  Te2-  Te103  1  0.49214558  0.82903217  0.84505594  1
  Te2-  Te104  1  0.82166581  0.15955247  0.16655626  1
  Te2-  Te105  1  0.82807447  0.16717875  0.49236520  1
  Te2-  Te106  1  0.83391720  0.16664375  0.82865861  1
  Te2-  Te107  1  0.82399735  0.50147189  0.17603713  1
  Te2-  Te108  1  0.83829300  0.49713379  0.48491161  1
  Te2-  Te109  1  0.83422575  0.50016451  0.83483819  1
  Te2-  Te110  1  0.83089119  0.83277855  0.15489266  1
  Te2-  Te111  1  0.83135186  0.82698542  0.49133838  1
  Te2-  Te112  1  0.83215086  0.83288661  0.84842345  1
  Te2-  Te113  1  0.16511409  0.00610794  0.00086122  1
  Te2-  Te114  1  0.16388998  -0.01690962  0.33820666  1
  Te2-  Te115  1  0.16574936  -0.00092551  0.66707250  1
  Te2-  Te116  1  0.16653196  0.34828610  -0.00215011  1
  Te2-  Te117  1  0.16618248  0.33541572  0.34147834  1
  Te2-  Te118  1  0.16349945  0.32972815  0.66690020  1
  Te2-  Te119  1  0.16046767  0.65352505  0.00499260  1
  Te2-  Te120  1  0.16293888  0.67351091  0.33773092  1
  Te2-  Te121  1  0.17012724  0.66924517  0.65915329  1
  Te2-  Te122  1  0.50684466  0.00466103  0.00420587  1
  Te2-  Te123  1  0.50490945  -0.00048493  0.32897724  1
  Te2-  Te124  1  0.49926702  -0.00819918  0.67354062  1
  Te2-  Te125  1  0.50403564  0.34529896  0.00519531  1
  Te2-  Te126  1  0.50420968  0.32924448  0.33791067  1
  Te2-  Te127  1  0.50476132  0.33529820  0.66179596  1
  Te2-  Te128  1  0.49999155  0.64847185  -0.00345229  1
  Te2-  Te129  1  0.50692127  0.67047095  0.34211202  1
  Te2-  Te130  1  0.50084092  0.67032431  0.65459684  1
  Te2-  Te131  1  0.83779134  0.00234479  0.00548611  1
  Te2-  Te132  1  0.83681692  -0.00550183  0.33142959  1
  Te2-  Te133  1  0.83801469  -0.01117441  0.66363251  1
  Te2-  Te134  1  0.83200326  0.32306457  0.01615181  1
  Te2-  Te135  1  0.83450513  0.32379586  0.32070182  1
  Te2-  Te136  1  0.82755849  0.34887045  0.66321710  1
  Te2-  Te137  1  0.83597497  0.67079236  0.00386614  1
  Te2-  Te138  1  0.83446245  0.67685405  0.33547453  1
  Te2-  Te139  1  0.83050235  0.66355690  0.67255285  1
  Te2-  Te140  1  -0.00008735  0.16638210  -0.00134150  1
  Te2-  Te141  1  -0.00144451  0.16157770  0.32761330  1
  Te2-  Te142  1  -0.00470001  0.16226257  0.66589047  1
  Te2-  Te143  1  -0.01466554  0.51185604  -0.00309865  1
  Te2-  Te144  1  -0.00139400  0.50948417  0.33428253  1
  Te2-  Te145  1  -0.00699310  0.50200574  0.66645847  1
  Te2-  Te146  1  0.01293891  0.82176017  -0.00246178  1
  Te2-  Te147  1  0.00025563  0.83118825  0.33245979  1
  Te2-  Te148  1  -0.00686608  0.83304158  0.67139150  1
  Te2-  Te149  1  0.34893566  0.16807960  -0.00126956  1
  Te2-  Te150  1  0.33828996  0.16044637  0.33898526  1
  Te2-  Te151  1  0.32657230  0.15922866  0.66257783  1
  Te2-  Te152  1  0.32310160  0.50557460  0.00477881  1
  Te2-  Te153  1  0.32991528  0.50477332  0.33091739  1
  Te2-  Te154  1  0.33379573  0.50549548  0.66807718  1
  Te2-  Te155  1  0.32365980  0.82727683  0.00134164  1
  Te2-  Te156  1  0.34020092  0.83260155  0.33295134  1
  Te2-  Te157  1  0.34219777  0.83194368  0.66638941  1
  Te2-  Te158  1  0.65042168  0.17680654  0.00425193  1
  Te2-  Te159  1  0.66684425  0.16314037  0.32058933  1
  Te2-  Te160  1  0.67539689  0.16318107  0.67010362  1
  Te2-  Te161  1  0.68052135  0.49890540  -0.01634932  1
  Te2-  Te162  1  0.67100278  0.51219922  0.33639992  1
  Te2-  Te163  1  0.66486767  0.49950292  0.67769585  1
  Te2-  Te164  1  0.66565465  0.82351563  -0.00724046  1
  Te2-  Te165  1  0.66610684  0.82212503  0.32896281  1
  Te2-  Te166  1  0.66632980  0.83030633  0.68092990  1
  Te2-  Te167  1  -0.00013661  0.00871757  0.16664038  1
  Te2-  Te168  1  0.00224185  -0.00068528  0.49785565  1
  Te2-  Te169  1  -0.01578232  0.00277122  0.83200493  1
  Te2-  Te170  1  0.01315185  0.32435334  0.16653027  1
  Te2-  Te171  1  -0.00090343  0.33576062  0.50296255  1
  Te2-  Te172  1  -0.00040691  0.33301496  0.83150180  1
  Te2-  Te173  1  -0.00948964  0.66708731  0.17391185  1
  Te2-  Te174  1  0.00394242  0.66369782  0.50124881  1
  Te2-  Te175  1  -0.00879321  0.66369511  0.83569391  1
  Te2-  Te176  1  0.33918522  -0.00557718  0.17047079  1
  Te2-  Te177  1  0.32743495  -0.00108173  0.50343008  1
  Te2-  Te178  1  0.33379992  -0.00489518  0.83072189  1
  Te2-  Te179  1  0.33676282  0.33272095  0.16890083  1
  Te2-  Te180  1  0.32765991  0.32830656  0.50130654  1
  Te2-  Te181  1  0.33931060  0.33432314  0.83257200  1
  Te2-  Te182  1  0.33660252  0.66718257  0.16767424  1
  Te2-  Te183  1  0.32921193  0.66335999  0.50450018  1
  Te2-  Te184  1  0.33502826  0.66921998  0.82462498  1
  Te2-  Te185  1  0.66818546  -0.00670309  0.15568953  1
  Te2-  Te186  1  0.66647357  0.00646055  0.49695701  1
  Te2-  Te187  1  0.67340245  0.00094169  0.84926886  1
  Te2-  Te188  1  0.66547248  0.34556130  0.16789329  1
  Te2-  Te189  1  0.67006682  0.32352199  0.51248356  1
  Te2-  Te190  1  0.66264314  0.32275947  0.81979951  1
  Te2-  Te191  1  0.67286262  0.65758660  0.16214307  1
  Te2-  Te192  1  0.67106707  0.66744995  0.50856820  1
  Te2-  Te193  1  0.67352217  0.66809911  0.83258761  1
  Pb2+  Pb194  1  0.00020719  0.33845334  0.33451122  1
  Pb2+  Pb195  1  0.66347239  0.83461194  0.50463109  1
  Pb2+  Pb196  1  -0.00191833  0.83556500  0.16266714  1
  Pb2+  Pb197  1  -0.00302929  0.34464324  -0.00090149  1
  Pb2+  Pb198  1  0.33669167  0.33795150  0.00149932  1
  Pb2+  Pb199  1  0.50106098  0.50449028  0.33391446  1
  Pb2+  Pb200  1  0.33345190  0.33522602  0.33523200  1
  Pb2+  Pb201  1  0.16814464  0.15850990  0.33452330  1
  Pb2+  Pb202  1  0.82964288  0.33319223  0.83973567  1
  Pb2+  Pb203  1  0.33484700  0.16457269  0.82965430  1
  Pb2+  Pb204  1  -0.00555952  0.50067697  0.16068388  1
  Pb2+  Pb205  1  0.33536502  0.33249556  0.66527398  1
  Pb2+  Pb206  1  0.17053423  0.17285533  0.00039557  1
  Pb2+  Pb207  1  0.67052131  0.33428555  0.34032110  1
  Pb2+  Pb208  1  0.34155589  0.50376442  0.83871181  1
  Pb2+  Pb209  1  0.66691569  0.50095441  0.50650248  1
  Pb2+  Pb210  1  0.33952265  -0.00465429  0.00077395  1
  Pb2+  Pb211  1  -0.00012583  0.83092023  0.50299248  1
  Pb2+  Pb212  1  0.67057316  -0.00259573  0.67587051  1
  Pb2+  Pb213  1  0.49794065  0.00174058  0.50214153  1
  Pb2+  Pb214  1  0.15397189  -0.00806094  0.83821331  1
  Pb2+  Pb215  1  0.17039433  -0.00007638  0.16586367  1
