# generated using pymatgen
data_In22Ag21Sn22Bi21(Te54Pb11)2
_symmetry_space_group_name_H-M   'P 1'
_cell_length_a   19.14983741
_cell_length_b   19.12176356
_cell_length_c   19.12545429
_cell_angle_alpha   89.99261924
_cell_angle_beta   90.01510203
_cell_angle_gamma   89.99635819
_symmetry_Int_Tables_number   1
_chemical_formula_structural   In22Ag21Sn22Bi21(Te54Pb11)2
_chemical_formula_sum   'In22 Ag21 Sn22 Bi21 Te108 Pb22'
_cell_volume   7003.33297131
_cell_formula_units_Z   1
loop_
 _symmetry_equiv_pos_site_id
 _symmetry_equiv_pos_as_xyz
  1  'x, y, z'
loop_
 _atom_type_symbol
 _atom_type_oxidation_number
  In3+  3.0
  Ag+  1.0
  Sn2+  2.0
  Bi3+  3.0
  Te2-  -2.0
  Pb2+  2.0
loop_
 _atom_site_type_symbol
 _atom_site_label
 _atom_site_symmetry_multiplicity
 _atom_site_fract_x
 _atom_site_fract_y
 _atom_site_fract_z
 _atom_site_occupancy
  In3+  In0  1  0.81895306  0.16897277  0.00241320  1
  In3+  In1  1  0.68099373  -0.00297367  -0.00507614  1
  In3+  In2  1  0.66580934  0.50872952  0.17561557  1
  In3+  In3  1  0.31192380  0.32894078  0.34543884  1
  In3+  In4  1  0.33461137  0.32846726  0.66456673  1
  In3+  In5  1  0.85993624  0.49745695  0.33042810  1
  In3+  In6  1  0.17948762  0.67044978  0.17610431  1
  In3+  In7  1  0.33278882  0.00110094  0.67987720  1
  In3+  In8  1  -0.00174406  0.50810071  0.82990509  1
  In3+  In9  1  0.51019693  0.16811786  0.66275825  1
  In3+  In10  1  0.34124869  0.17070891  0.83264906  1
  In3+  In11  1  0.16045603  0.32267697  0.83267721  1
  In3+  In12  1  0.49879950  0.66982166  0.51845126  1
  In3+  In13  1  0.49060160  0.84659283  -0.00019281  1
  In3+  In14  1  0.67888953  0.83551706  0.83025848  1
  In3+  In15  1  0.51370636  0.49161724  0.66431366  1
  In3+  In16  1  0.85271042  0.67441086  0.16450856  1
  In3+  In17  1  0.50304450  0.85285961  0.32313317  1
  In3+  In18  1  0.65572460  0.83795880  0.52131776  1
  In3+  In19  1  0.18141417  0.50986806  0.66704472  1
  In3+  In20  1  0.15642395  0.15920985  0.66380617  1
  In3+  In21  1  0.33196914  0.82534997  0.82748936  1
  Ag+  Ag22  1  0.14063789  0.66258902  0.47731947  1
  Ag+  Ag23  1  0.52907946  0.16583893  0.36566132  1
  Ag+  Ag24  1  0.02944395  0.35524347  0.67040550  1
  Ag+  Ag25  1  0.16770375  0.51079807  0.30970630  1
  Ag+  Ag26  1  0.01000974  0.35133405  0.30706007  1
  Ag+  Ag27  1  0.16991903  0.02270490  0.14025866  1
  Ag+  Ag28  1  0.65719192  0.65079089  0.66329051  1
  Ag+  Ag29  1  -0.01887912  0.83247544  0.85344608  1
  Ag+  Ag30  1  0.31353482  0.64169350  0.66322786  1
  Ag+  Ag31  1  0.32914470  0.84601075  0.19119777  1
  Ag+  Ag32  1  0.15098577  0.17640437  -0.03225867  1
  Ag+  Ag33  1  0.80187709  0.31444286  0.81743408  1
  Ag+  Ag34  1  -0.01925601  -0.00274675  0.69191078  1
  Ag+  Ag35  1  0.69176708  0.20123982  0.82652983  1
  Ag+  Ag36  1  0.02739191  0.64293395  0.00152346  1
  Ag+  Ag37  1  0.68326907  -0.00193992  0.69140976  1
  Ag+  Ag38  1  0.32712536  0.14234693  0.53067032  1
  Ag+  Ag39  1  0.80676131  -0.02477629  0.16572914  1
  Ag+  Ag40  1  0.68986528  0.29336739  -0.04566173  1
  Ag+  Ag41  1  0.33941958  -0.00936763  -0.02004834  1
  Ag+  Ag42  1  0.68152885  0.29982385  0.67464402  1
  Sn2+  Sn43  1  0.33927237  0.66198465  0.34567375  1
  Sn2+  Sn44  1  0.66949150  0.33627982  0.33695079  1
  Sn2+  Sn45  1  0.82751490  0.66528790  0.50375024  1
  Sn2+  Sn46  1  0.83822723  0.83526368  0.65992128  1
  Sn2+  Sn47  1  0.83093817  0.16995117  0.32708418  1
  Sn2+  Sn48  1  0.50369219  0.66971625  0.83017387  1
  Sn2+  Sn49  1  0.65928910  0.16754545  0.51155814  1
  Sn2+  Sn50  1  0.66800322  0.16777799  0.16160883  1
  Sn2+  Sn51  1  0.33160311  0.50839857  0.16895776  1
  Sn2+  Sn52  1  0.16249341  -0.00328455  0.83607302  1
  Sn2+  Sn53  1  0.33022355  0.83646486  0.50451014  1
  Sn2+  Sn54  1  0.83746700  0.83420905  -0.00150383  1
  Sn2+  Sn55  1  -0.00033465  0.16613770  0.83213568  1
  Sn2+  Sn56  1  0.50326874  -0.00054483  0.49827844  1
  Sn2+  Sn57  1  0.33080651  0.67868771  -0.01069289  1
  Sn2+  Sn58  1  0.00469419  0.49168674  0.50646612  1
  Sn2+  Sn59  1  0.66103754  0.66597497  -0.00663406  1
  Sn2+  Sn60  1  0.48513841  -0.00025596  0.16711228  1
  Sn2+  Sn61  1  0.16637341  0.84315589  0.00209932  1
  Sn2+  Sn62  1  0.66959698  0.50158006  0.50095397  1
  Sn2+  Sn63  1  0.16198157  0.83342086  0.66791743  1
  Sn2+  Sn64  1  0.16994678  -0.01075326  0.50306653  1
  Bi3+  Bi65  1  0.33292161  0.00507433  0.33296954  1
  Bi3+  Bi66  1  0.50190480  0.33304014  0.49849120  1
  Bi3+  Bi67  1  0.00272588  0.16623962  0.17054545  1
  Bi3+  Bi68  1  0.49511163  0.16646129  0.00021062  1
  Bi3+  Bi69  1  0.00210906  0.83231247  0.50055326  1
  Bi3+  Bi70  1  0.00459910  0.16598591  0.50326872  1
  Bi3+  Bi71  1  0.50291692  0.32774687  0.17150990  1
  Bi3+  Bi72  1  0.82787599  0.33395553  0.16759161  1
  Bi3+  Bi73  1  0.16467554  0.16628204  0.34138069  1
  Bi3+  Bi74  1  0.00527984  0.00187854  0.00157066  1
  Bi3+  Bi75  1  -0.00024670  0.00456584  0.33081042  1
  Bi3+  Bi76  1  0.33286925  0.50474534  0.50010831  1
  Bi3+  Bi77  1  0.33640869  0.32766748  0.00230578  1
  Bi3+  Bi78  1  0.83492729  0.16810361  0.66673327  1
  Bi3+  Bi79  1  0.50100989  0.50049912  -0.00275951  1
  Bi3+  Bi80  1  0.82779125  0.50119238  0.00120012  1
  Bi3+  Bi81  1  0.49608201  0.66522970  0.16546153  1
  Bi3+  Bi82  1  0.33368832  0.16157542  0.16553448  1
  Bi3+  Bi83  1  0.83279470  0.50017123  0.66506951  1
  Bi3+  Bi84  1  0.16528712  0.66995226  0.83385832  1
  Bi3+  Bi85  1  0.83516752  0.66526431  0.83814429  1
  Te2-  Te86  1  0.16797885  0.16728684  0.17464820  1
  Te2-  Te87  1  0.17679657  0.16729986  0.50788952  1
  Te2-  Te88  1  0.16635911  0.16626656  0.82206729  1
  Te2-  Te89  1  0.16706863  0.50371884  0.16218866  1
  Te2-  Te90  1  0.16810805  0.51474849  0.51334531  1
  Te2-  Te91  1  0.15913337  0.50387250  0.82649142  1
  Te2-  Te92  1  0.18147778  0.82204789  0.16668519  1
  Te2-  Te93  1  0.16379715  0.81521350  0.50151748  1
  Te2-  Te94  1  0.17581728  0.83112995  0.83246487  1
  Te2-  Te95  1  0.49870643  0.16593130  0.16331490  1
  Te2-  Te96  1  0.48925363  0.16976573  0.50841544  1
  Te2-  Te97  1  0.49593735  0.16549489  0.83345644  1
  Te2-  Te98  1  0.50033089  0.49651828  0.16400738  1
  Te2-  Te99  1  0.50059167  0.50176970  0.50347486  1
  Te2-  Te100  1  0.50053537  0.50430161  0.83100613  1
  Te2-  Te101  1  0.48307409  0.83092445  0.16445201  1
  Te2-  Te102  1  0.50392251  0.82934376  0.49486956  1
  Te2-  Te103  1  0.49055045  0.83127476  0.83842591  1
  Te2-  Te104  1  0.83724531  0.17158156  0.15931140  1
  Te2-  Te105  1  0.83431022  0.16728098  0.50264687  1
  Te2-  Te106  1  0.83687389  0.17122965  0.83570336  1
  Te2-  Te107  1  0.82823974  0.50110004  0.16783266  1
  Te2-  Te108  1  0.83460254  0.50436441  0.49880717  1
  Te2-  Te109  1  0.83962662  0.50164254  0.83569957  1
  Te2-  Te110  1  0.83057942  0.82830627  0.16283611  1
  Te2-  Te111  1  0.83399861  0.83186573  0.49876433  1
  Te2-  Te112  1  0.83512027  0.83079419  0.83079179  1
  Te2-  Te113  1  0.16823484  0.00283849  -0.00383178  1
  Te2-  Te114  1  0.16693598  0.00158647  0.34014928  1
  Te2-  Te115  1  0.17810870  0.00340617  0.66180253  1
  Te2-  Te116  1  0.17019458  0.32389279  -0.00881055  1
  Te2-  Te117  1  0.15698305  0.33070983  0.33794189  1
  Te2-  Te118  1  0.17698173  0.33719062  0.67555593  1
  Te2-  Te119  1  0.17323201  0.66839096  -0.00390653  1
  Te2-  Te120  1  0.17109248  0.65890199  0.33081900  1
  Te2-  Te121  1  0.16637029  0.66529799  0.67209744  1
  Te2-  Te122  1  0.48787572  0.00041984  0.00287156  1
  Te2-  Te123  1  0.49646887  0.01487475  0.33318813  1
  Te2-  Te124  1  0.48707084  0.00916993  0.66357122  1
  Te2-  Te125  1  0.50207303  0.33373725  0.00605374  1
  Te2-  Te126  1  0.50419732  0.31782326  0.33514849  1
  Te2-  Te127  1  0.49541742  0.33259521  0.66232709  1
  Te2-  Te128  1  0.49575090  0.66309860  -0.00036553  1
  Te2-  Te129  1  0.49482386  0.65888285  0.32819706  1
  Te2-  Te130  1  0.50947432  0.66672049  0.66960300  1
  Te2-  Te131  1  0.83458813  0.00358676  0.01464528  1
  Te2-  Te132  1  0.83684257  -0.00002186  0.31605095  1
  Te2-  Te133  1  0.83290919  0.00513235  0.66693326  1
  Te2-  Te134  1  0.82341204  0.33573395  0.00275603  1
  Te2-  Te135  1  0.84236580  0.34211399  0.33088223  1
  Te2-  Te136  1  0.82577429  0.33326212  0.67078464  1
  Te2-  Te137  1  0.82605178  0.66506283  0.00368321  1
  Te2-  Te138  1  0.83211257  0.65655466  0.32486579  1
  Te2-  Te139  1  0.83223217  0.66519037  0.67264069  1
  Te2-  Te140  1  0.00746194  0.16381446  0.00170045  1
  Te2-  Te141  1  -0.00148987  0.16796629  0.33867980  1
  Te2-  Te142  1  0.00009168  0.14829594  0.66399264  1
  Te2-  Te143  1  -0.00544732  0.49834214  -0.00771579  1
  Te2-  Te144  1  0.01366246  0.49580238  0.33817836  1
  Te2-  Te145  1  -0.00697532  0.50054775  0.67189440  1
  Te2-  Te146  1  -0.00132026  0.83975554  -0.00146608  1
  Te2-  Te147  1  0.00024478  0.83400217  0.33238584  1
  Te2-  Te148  1  0.00020027  0.84665004  0.66043736  1
  Te2-  Te149  1  0.33322464  0.16532444  -0.00016492  1
  Te2-  Te150  1  0.32685525  0.17199230  0.32850736  1
  Te2-  Te151  1  0.33209680  0.17488016  0.67329779  1
  Te2-  Te152  1  0.33723600  0.49581040  0.00158222  1
  Te2-  Te153  1  0.31891919  0.49095449  0.33741268  1
  Te2-  Te154  1  0.33826150  0.49560748  0.66423846  1
  Te2-  Te155  1  0.33596282  0.84010989  -0.01234221  1
  Te2-  Te156  1  0.34444174  0.83555914  0.33909953  1
  Te2-  Te157  1  0.33233577  0.84502001  0.66889822  1
  Te2-  Te158  1  0.66059287  0.15439588  -0.01115694  1
  Te2-  Te159  1  0.67372797  0.16915309  0.33668471  1
  Te2-  Te160  1  0.66473515  0.15279152  0.67664136  1
  Te2-  Te161  1  0.66363745  0.50173724  0.00604462  1
  Te2-  Te162  1  0.66122066  0.49643951  0.33526402  1
  Te2-  Te163  1  0.66855619  0.50340454  0.66110711  1
  Te2-  Te164  1  0.66070110  0.83765977  -0.01071706  1
  Te2-  Te165  1  0.65732748  0.83227945  0.32645860  1
  Te2-  Te166  1  0.66696067  0.84940660  0.67307948  1
  Te2-  Te167  1  0.01592615  0.00427985  0.16734356  1
  Te2-  Te168  1  0.00286882  0.00019838  0.49312934  1
  Te2-  Te169  1  0.00094307  -0.01046072  0.83868462  1
  Te2-  Te170  1  -0.00379529  0.32954034  0.16117643  1
  Te2-  Te171  1  0.00244499  0.32742619  0.52198929  1
  Te2-  Te172  1  0.00909836  0.32821763  0.81859805  1
  Te2-  Te173  1  0.00465174  0.66706263  0.15132422  1
  Te2-  Te174  1  -0.00590959  0.66666787  0.50159988  1
  Te2-  Te175  1  -0.00078661  0.67765334  0.84772538  1
  Te2-  Te176  1  0.32069978  -0.00301183  0.17168880  1
  Te2-  Te177  1  0.33489236  -0.00045648  0.49481180  1
  Te2-  Te178  1  0.32952844  0.01085297  0.83273922  1
  Te2-  Te179  1  0.33875665  0.33188920  0.16631215  1
  Te2-  Te180  1  0.33761875  0.33948167  0.50454875  1
  Te2-  Te181  1  0.32710185  0.33136545  0.83738057  1
  Te2-  Te182  1  0.33481285  0.66703550  0.16550810  1
  Te2-  Te183  1  0.34400708  0.66568625  0.51414016  1
  Te2-  Te184  1  0.33100085  0.67076407  0.81630955  1
  Te2-  Te185  1  0.66073128  0.00419590  0.15653829  1
  Te2-  Te186  1  0.66292540  -0.00386580  0.49721812  1
  Te2-  Te187  1  0.66784889  -0.00818583  0.83795468  1
  Te2-  Te188  1  0.66617958  0.33032903  0.16914383  1
  Te2-  Te189  1  0.66229945  0.32790053  0.50799019  1
  Te2-  Te190  1  0.65863474  0.34425372  0.81921137  1
  Te2-  Te191  1  0.65768521  0.66486074  0.16548691  1
  Te2-  Te192  1  0.66354536  0.67653172  0.51096269  1
  Te2-  Te193  1  0.67192378  0.67836565  0.82291677  1
  Pb2+  Pb194  1  0.83535176  0.00441052  0.83967091  1
  Pb2+  Pb195  1  0.65555911  0.83459628  0.15736792  1
  Pb2+  Pb196  1  0.33117724  0.50375847  0.83362743  1
  Pb2+  Pb197  1  0.82934228  0.83041853  0.33298423  1
  Pb2+  Pb198  1  0.50004473  -0.00121015  0.83211257  1
  Pb2+  Pb199  1  0.17380331  0.83304350  0.33477344  1
  Pb2+  Pb200  1  0.48924688  0.48832103  0.33368794  1
  Pb2+  Pb201  1  -0.00091655  0.67583516  0.67592980  1
  Pb2+  Pb202  1  -0.01001761  0.32896905  -0.01572560  1
  Pb2+  Pb203  1  0.49851258  0.83749445  0.66717138  1
  Pb2+  Pb204  1  0.00167142  0.66443336  0.32941079  1
  Pb2+  Pb205  1  0.83506930  0.33508809  0.50436804  1
  Pb2+  Pb206  1  0.17060538  0.33347967  0.16639720  1
  Pb2+  Pb207  1  -0.00246172  0.49957724  0.16477322  1
  Pb2+  Pb208  1  0.01126838  0.83652919  0.16287135  1
  Pb2+  Pb209  1  0.66159188  0.66412709  0.34100578  1
  Pb2+  Pb210  1  0.66709700  0.00179373  0.33030067  1
  Pb2+  Pb211  1  0.16660950  0.34187480  0.50716466  1
  Pb2+  Pb212  1  0.16758072  0.49517652  -0.00572882  1
  Pb2+  Pb213  1  0.67005900  0.50900809  0.83562568  1
  Pb2+  Pb214  1  0.49540564  0.33250258  0.83476616  1
  Pb2+  Pb215  1  0.83384222  0.00147485  0.49525949  1
