# generated using pymatgen
data_In22Ag21Sn22Bi21(Te54Pb11)2
_symmetry_space_group_name_H-M   'P 1'
_cell_length_a   19.14780409
_cell_length_b   19.17654346
_cell_length_c   19.18083853
_cell_angle_alpha   90.01427483
_cell_angle_beta   89.98987988
_cell_angle_gamma   89.99586693
_symmetry_Int_Tables_number   1
_chemical_formula_structural   In22Ag21Sn22Bi21(Te54Pb11)2
_chemical_formula_sum   'In22 Ag21 Sn22 Bi21 Te108 Pb22'
_cell_volume   7042.98676559
_cell_formula_units_Z   1
loop_
 _symmetry_equiv_pos_site_id
 _symmetry_equiv_pos_as_xyz
  1  'x, y, z'
loop_
 _atom_type_symbol
 _atom_type_oxidation_number
  In3+  3.0
  Ag+  1.0
  Sn2+  2.0
  Bi3+  3.0
  Te2-  -2.0
  Pb2+  2.0
loop_
 _atom_site_type_symbol
 _atom_site_label
 _atom_site_symmetry_multiplicity
 _atom_site_fract_x
 _atom_site_fract_y
 _atom_site_fract_z
 _atom_site_occupancy
  In3+  In0  1  0.33985264  0.83262732  0.16571246  1
  In3+  In1  1  0.33999900  0.33290544  0.02043208  1
  In3+  In2  1  0.83226326  0.84539018  0.34213236  1
  In3+  In3  1  0.82776606  0.15604920  0.00352333  1
  In3+  In4  1  0.49478801  0.50272512  0.34917742  1
  In3+  In5  1  0.33463776  0.17687182  0.82495373  1
  In3+  In6  1  0.01506862  -0.01856341  0.32953955  1
  In3+  In7  1  0.66119873  0.84433180  0.16234258  1
  In3+  In8  1  0.63971019  0.66786343  0.64977409  1
  In3+  In9  1  0.49852302  0.52422178  -0.00217007  1
  In3+  In10  1  0.81823707  0.49777985  -0.00069499  1
  In3+  In11  1  0.67637498  0.68904067  0.33119855  1
  In3+  In12  1  0.66845881  0.32668607  0.00057374  1
  In3+  In13  1  0.17773656  0.32762493  0.17293207  1
  In3+  In14  1  0.82719396  0.31847524  0.48412395  1
  In3+  In15  1  -0.00188296  -0.00447583  0.64173025  1
  In3+  In16  1  0.66938258  0.67300661  -0.00202854  1
  In3+  In17  1  0.34205756  -0.00333312  -0.00316631  1
  In3+  In18  1  0.65272601  0.83983709  0.85304318  1
  In3+  In19  1  0.50412526  0.14518787  0.34089396  1
  In3+  In20  1  0.82977975  -0.01978507  0.16699308  1
  In3+  In21  1  0.82863420  0.31911929  0.83216258  1
  Ag+  Ag22  1  0.66936116  0.14408931  0.19185239  1
  Ag+  Ag23  1  0.32546166  0.63472243  0.64178006  1
  Ag+  Ag24  1  0.19205497  0.53156538  0.63520733  1
  Ag+  Ag25  1  0.47194167  -0.00271561  0.81012633  1
  Ag+  Ag26  1  0.83164834  0.85651160  -0.01731568  1
  Ag+  Ag27  1  0.83623620  -0.02795201  0.81140565  1
  Ag+  Ag28  1  0.19616904  0.33210502  0.52923047  1
  Ag+  Ag29  1  0.84006555  0.69295942  0.47590704  1
  Ag+  Ag30  1  0.81683049  0.01827565  0.46762271  1
  Ag+  Ag31  1  0.46968616  -0.02662243  0.52558404  1
  Ag+  Ag32  1  0.18852787  -0.02425119  0.16633395  1
  Ag+  Ag33  1  0.68152136  0.13819783  0.52312987  1
  Ag+  Ag34  1  0.33146862  0.64449412  0.34804620  1
  Ag+  Ag35  1  -0.02842582  0.69029553  0.36995297  1
  Ag+  Ag36  1  0.00738967  0.85896318  0.51839761  1
  Ag+  Ag37  1  0.47868737  0.82736893  -0.00259258  1
  Ag+  Ag38  1  0.19575187  0.69479217  0.80624221  1
  Ag+  Ag39  1  0.36257603  -0.00007846  0.69776171  1
  Ag+  Ag40  1  0.69268776  0.01553842  0.36432958  1
  Ag+  Ag41  1  0.34973593  0.34848632  0.33558332  1
  Ag+  Ag42  1  0.31812806  0.48177113  0.17528267  1
  Sn2+  Sn43  1  -0.00116306  0.66894082  0.00358167  1
  Sn2+  Sn44  1  0.50072495  0.32606850  0.49559689  1
  Sn2+  Sn45  1  0.33372101  0.83069136  0.82750657  1
  Sn2+  Sn46  1  0.16899003  0.49772543  0.33969752  1
  Sn2+  Sn47  1  0.00090200  0.15670737  0.83169495  1
  Sn2+  Sn48  1  0.33178153  0.32878385  0.65423331  1
  Sn2+  Sn49  1  0.00703062  0.33862128  -0.00426456  1
  Sn2+  Sn50  1  0.17043563  0.16554955  0.66097484  1
  Sn2+  Sn51  1  0.49798605  0.66153869  0.17169555  1
  Sn2+  Sn52  1  0.32994307  0.50770004  0.49153294  1
  Sn2+  Sn53  1  0.17240637  0.50043045  -0.00057802  1
  Sn2+  Sn54  1  0.84350597  0.50298466  0.66697627  1
  Sn2+  Sn55  1  0.65289517  0.31805442  0.33201214  1
  Sn2+  Sn56  1  -0.00602701  0.82975978  0.83039109  1
  Sn2+  Sn57  1  0.00487663  0.33530688  0.66555094  1
  Sn2+  Sn58  1  0.50497685  0.33559657  0.16980866  1
  Sn2+  Sn59  1  0.01082721  0.50022319  0.17027841  1
  Sn2+  Sn60  1  0.17239799  0.17279322  0.33243768  1
  Sn2+  Sn61  1  0.66204314  0.15823984  0.82647597  1
  Sn2+  Sn62  1  0.17076227  0.82743420  0.33669584  1
  Sn2+  Sn63  1  0.16304453  0.33588295  0.83531231  1
  Sn2+  Sn64  1  0.67164317  0.50269593  0.49472589  1
  Bi3+  Bi65  1  -0.00058261  0.33713545  0.33141675  1
  Bi3+  Bi66  1  0.67647686  -0.00450252  0.66880166  1
  Bi3+  Bi67  1  0.00149247  0.00250047  0.00501091  1
  Bi3+  Bi68  1  0.00204961  0.49921886  0.83549962  1
  Bi3+  Bi69  1  0.83174033  0.33563848  0.16020404  1
  Bi3+  Bi70  1  0.49793905  0.16458048  0.00129185  1
  Bi3+  Bi71  1  0.00027943  0.49550608  0.50105760  1
  Bi3+  Bi72  1  0.33150914  0.00272962  0.32965582  1
  Bi3+  Bi73  1  0.33099802  0.66593430  0.00371639  1
  Bi3+  Bi74  1  -0.00313049  0.83070593  0.16405926  1
  Bi3+  Bi75  1  0.33666440  0.16888190  0.49935232  1
  Bi3+  Bi76  1  0.83795154  0.66572678  0.83644817  1
  Bi3+  Bi77  1  0.00419544  0.66347693  0.67168092  1
  Bi3+  Bi78  1  0.16412619  0.16910223  0.00065000  1
  Bi3+  Bi79  1  0.16769624  0.83796293  0.66587842  1
  Bi3+  Bi80  1  0.66592833  0.50439780  0.16889490  1
  Bi3+  Bi81  1  0.50296751  0.00269983  0.16387616  1
  Bi3+  Bi82  1  0.83350169  0.66449755  0.16518885  1
  Bi3+  Bi83  1  0.67312542  0.83170125  0.49951155  1
  Bi3+  Bi84  1  0.49348176  0.50020673  0.66971226  1
  Bi3+  Bi85  1  0.16773520  0.66585145  0.16788061  1
  Te2-  Te86  1  0.16728332  0.17570224  0.16309130  1
  Te2-  Te87  1  0.17179474  0.18119927  0.49892912  1
  Te2-  Te88  1  0.17097503  0.16710775  0.83934509  1
  Te2-  Te89  1  0.17059725  0.50061218  0.16779293  1
  Te2-  Te90  1  0.16615320  0.48350348  0.49931756  1
  Te2-  Te91  1  0.16279941  0.49529013  0.83896377  1
  Te2-  Te92  1  0.15965485  0.83079673  0.17017615  1
  Te2-  Te93  1  0.15505796  0.83586061  0.49760137  1
  Te2-  Te94  1  0.16204922  0.83473237  0.83237859  1
  Te2-  Te95  1  0.51550265  0.16633481  0.16506120  1
  Te2-  Te96  1  0.50059090  0.16716937  0.49291179  1
  Te2-  Te97  1  0.49182768  0.14999201  0.83711715  1
  Te2-  Te98  1  0.50581810  0.50239676  0.15152563  1
  Te2-  Te99  1  0.49817611  0.50096973  0.50488163  1
  Te2-  Te100  1  0.49886520  0.49910712  0.83598016  1
  Te2-  Te101  1  0.50656229  0.83641854  0.15220245  1
  Te2-  Te102  1  0.50327393  0.83351789  0.49521802  1
  Te2-  Te103  1  0.50089361  0.84956771  0.84554766  1
  Te2-  Te104  1  0.81610626  0.17492138  0.15703617  1
  Te2-  Te105  1  0.82474437  0.16449013  0.49888867  1
  Te2-  Te106  1  0.83103362  0.16884082  0.84635523  1
  Te2-  Te107  1  0.83318357  0.50183933  0.16418581  1
  Te2-  Te108  1  0.83403159  0.49103985  0.50731429  1
  Te2-  Te109  1  0.83652419  0.50373814  0.83909724  1
  Te2-  Te110  1  0.82994448  0.82547312  0.17307078  1
  Te2-  Te111  1  0.83834538  0.83862908  0.49361142  1
  Te2-  Te112  1  0.83330784  0.82632128  0.83732948  1
  Te2-  Te113  1  0.16313819  0.00613955  0.01727754  1
  Te2-  Te114  1  0.16669141  0.00177167  0.31665649  1
  Te2-  Te115  1  0.15150177  -0.00118791  0.66425353  1
  Te2-  Te116  1  0.17721728  0.33211473  0.00516852  1
  Te2-  Te117  1  0.16033930  0.33210379  0.32555239  1
  Te2-  Te118  1  0.16546063  0.32432448  0.67168427  1
  Te2-  Te119  1  0.16740451  0.66628343  0.00526870  1
  Te2-  Te120  1  0.18136573  0.66439271  0.32803635  1
  Te2-  Te121  1  0.17397184  0.67314995  0.66363738  1
  Te2-  Te122  1  0.49691777  0.00196080  0.00308210  1
  Te2-  Te123  1  0.49676842  -0.00455419  0.32443128  1
  Te2-  Te124  1  0.51155182  0.00092269  0.66482071  1
  Te2-  Te125  1  0.49417706  0.32576597  0.00009775  1
  Te2-  Te126  1  0.49812163  0.34466717  0.33125634  1
  Te2-  Te127  1  0.50112082  0.33745803  0.66585841  1
  Te2-  Te128  1  0.50280117  0.67944171  0.00112371  1
  Te2-  Te129  1  0.48195660  0.65758858  0.33003680  1
  Te2-  Te130  1  0.47794186  0.66376555  0.66699348  1
  Te2-  Te131  1  0.83531804  0.00199808  0.01094235  1
  Te2-  Te132  1  0.83510596  -0.00092397  0.32230183  1
  Te2-  Te133  1  0.84512245  -0.00139468  0.66722267  1
  Te2-  Te134  1  0.83036013  0.34209979  -0.00243888  1
  Te2-  Te135  1  0.82985822  0.33517693  0.32668314  1
  Te2-  Te136  1  0.83557472  0.33662029  0.67850570  1
  Te2-  Te137  1  0.83034298  0.65889040  0.00334020  1
  Te2-  Te138  1  0.83184673  0.66717995  0.32924849  1
  Te2-  Te139  1  0.83915898  0.66136609  0.67547070  1
  Te2-  Te140  1  -0.00179523  0.16876066  -0.00070059  1
  Te2-  Te141  1  0.00124110  0.17420836  0.33276927  1
  Te2-  Te142  1  0.00247963  0.16491986  0.67143674  1
  Te2-  Te143  1  0.00389028  0.50060614  -0.00088261  1
  Te2-  Te144  1  -0.00046666  0.49829622  0.33713724  1
  Te2-  Te145  1  0.01111578  0.49983571  0.67067836  1
  Te2-  Te146  1  -0.01277934  0.83766168  0.00243922  1
  Te2-  Te147  1  -0.00148462  0.82829277  0.32726193  1
  Te2-  Te148  1  0.00175616  0.83131943  0.66353613  1
  Te2-  Te149  1  0.33146843  0.17184846  -0.00100666  1
  Te2-  Te150  1  0.33953771  0.16593402  0.33417740  1
  Te2-  Te151  1  0.33135047  0.14836443  0.66694905  1
  Te2-  Te152  1  0.34167149  0.49880860  0.01402301  1
  Te2-  Te153  1  0.34034385  0.49693286  0.32447319  1
  Te2-  Te154  1  0.33027619  0.48943783  0.66686458  1
  Te2-  Te155  1  0.33104165  0.83583398  0.00250890  1
  Te2-  Te156  1  0.33199631  0.84045104  0.32679915  1
  Te2-  Te157  1  0.32894024  0.85417584  0.66902462  1
  Te2-  Te158  1  0.66420547  0.17235825  -0.00876117  1
  Te2-  Te159  1  0.65880836  0.15900839  0.33795448  1
  Te2-  Te160  1  0.66744217  0.16873428  0.66735060  1
  Te2-  Te161  1  0.65971373  0.50518883  0.00179289  1
  Te2-  Te162  1  0.65327996  0.49681852  0.33080961  1
  Te2-  Te163  1  0.65920429  0.51169057  0.66457018  1
  Te2-  Te164  1  0.68299806  0.83210182  0.00553262  1
  Te2-  Te165  1  0.67256793  0.84395888  0.33082815  1
  Te2-  Te166  1  0.66446723  0.82683798  0.66462346  1
  Te2-  Te167  1  -0.01132758  -0.00191758  0.17108014  1
  Te2-  Te168  1  -0.00506638  0.00109305  0.48535240  1
  Te2-  Te169  1  -0.01400626  -0.00181610  0.84446032  1
  Te2-  Te170  1  -0.00571678  0.33677853  0.16499336  1
  Te2-  Te171  1  -0.01289067  0.33486058  0.49747306  1
  Te2-  Te172  1  -0.00784037  0.33362140  0.83581912  1
  Te2-  Te173  1  0.00041041  0.66615520  0.16879902  1
  Te2-  Te174  1  -0.01235407  0.65637904  0.51017123  1
  Te2-  Te175  1  0.00383955  0.66354585  0.83546183  1
  Te2-  Te176  1  0.33640249  -0.00397163  0.16294014  1
  Te2-  Te177  1  0.33093144  0.00488274  0.49203162  1
  Te2-  Te178  1  0.32697642  -0.00501030  0.84422720  1
  Te2-  Te179  1  0.33448245  0.33505556  0.17825817  1
  Te2-  Te180  1  0.33827829  0.33077507  0.48749637  1
  Te2-  Te181  1  0.33325194  0.32766849  0.82471304  1
  Te2-  Te182  1  0.33213962  0.67831767  0.16154900  1
  Te2-  Te183  1  0.32898077  0.66634846  0.49764491  1
  Te2-  Te184  1  0.33336752  0.66826548  0.84411331  1
  Te2-  Te185  1  0.67150254  -0.00105648  0.16495251  1
  Te2-  Te186  1  0.67490016  -0.00761541  0.50794847  1
  Te2-  Te187  1  0.68442501  -0.00662569  0.82888399  1
  Te2-  Te188  1  0.66963148  0.34208336  0.15975786  1
  Te2-  Te189  1  0.67212931  0.33891688  0.49474024  1
  Te2-  Te190  1  0.67186999  0.33332873  0.83844100  1
  Te2-  Te191  1  0.66774738  0.66657081  0.16941786  1
  Te2-  Te192  1  0.68295435  0.66998464  0.49234657  1
  Te2-  Te193  1  0.66974746  0.67602079  0.84304115  1
  Pb2+  Pb194  1  0.32822639  0.49743576  0.84193955  1
  Pb2+  Pb195  1  0.66444818  0.00307454  -0.00402652  1
  Pb2+  Pb196  1  0.50193033  0.32372462  0.83501273  1
  Pb2+  Pb197  1  0.83165379  0.82762668  0.66264880  1
  Pb2+  Pb198  1  0.83108687  0.16710849  0.32659308  1
  Pb2+  Pb199  1  0.83532352  0.16549139  0.67136117  1
  Pb2+  Pb200  1  0.49600515  0.83497806  0.67012070  1
  Pb2+  Pb201  1  0.66815376  0.50600378  0.83187045  1
  Pb2+  Pb202  1  0.82614065  0.50196244  0.34069967  1
  Pb2+  Pb203  1  0.15707794  0.66197176  0.49332241  1
  Pb2+  Pb204  1  0.50161198  0.82688563  0.32287205  1
  Pb2+  Pb205  1  0.50030212  0.67537189  0.83277933  1
  Pb2+  Pb206  1  0.16544991  0.00891832  0.49201249  1
  Pb2+  Pb207  1  0.49780015  0.16802877  0.66230604  1
  Pb2+  Pb208  1  0.34410233  0.16578863  0.16662447  1
  Pb2+  Pb209  1  0.32798452  0.83452434  0.49982112  1
  Pb2+  Pb210  1  0.16100427  0.83507588  0.00155216  1
  Pb2+  Pb211  1  -0.00710915  0.16804308  0.16689166  1
  Pb2+  Pb212  1  0.50540674  0.66935310  0.49578456  1
  Pb2+  Pb213  1  0.15560661  0.00181413  0.83878440  1
  Pb2+  Pb214  1  -0.00133708  0.16886619  0.50115453  1
  Pb2+  Pb215  1  0.67087643  0.34244997  0.66095714  1
