# generated using pymatgen
data_In22Ag21Sn22Bi21(Te54Pb11)2
_symmetry_space_group_name_H-M   'P 1'
_cell_length_a   19.17429375
_cell_length_b   19.13379301
_cell_length_c   19.13454190
_cell_angle_alpha   89.99855888
_cell_angle_beta   89.99263584
_cell_angle_gamma   89.99878571
_symmetry_Int_Tables_number   1
_chemical_formula_structural   In22Ag21Sn22Bi21(Te54Pb11)2
_chemical_formula_sum   'In22 Ag21 Sn22 Bi21 Te108 Pb22'
_cell_volume   7020.02264871
_cell_formula_units_Z   1
loop_
 _symmetry_equiv_pos_site_id
 _symmetry_equiv_pos_as_xyz
  1  'x, y, z'
loop_
 _atom_type_symbol
 _atom_type_oxidation_number
  In3+  3.0
  Ag+  1.0
  Sn2+  2.0
  Bi3+  3.0
  Te2-  -2.0
  Pb2+  2.0
loop_
 _atom_site_type_symbol
 _atom_site_label
 _atom_site_symmetry_multiplicity
 _atom_site_fract_x
 _atom_site_fract_y
 _atom_site_fract_z
 _atom_site_occupancy
  In3+  In0  1  0.33093367  0.66647381  0.33212541  1
  In3+  In1  1  0.33294139  0.51189952  0.82110442  1
  In3+  In2  1  0.32399316  0.50215766  0.49723442  1
  In3+  In3  1  0.32121968  0.82784284  0.14369695  1
  In3+  In4  1  0.33127887  0.65991928  0.66581088  1
  In3+  In5  1  0.83143783  0.66741032  0.81790503  1
  In3+  In6  1  0.66390462  -0.00310943  -0.01007578  1
  In3+  In7  1  0.81236094  0.83531247  0.34106317  1
  In3+  In8  1  0.68266823  0.67230586  0.01093185  1
  In3+  In9  1  0.81674167  0.65773609  0.47029484  1
  In3+  In10  1  0.50395523  0.15462691  0.02466370  1
  In3+  In11  1  -0.00981300  0.53364402  0.18087093  1
  In3+  In12  1  0.50729076  0.49778551  0.64982814  1
  In3+  In13  1  0.81206893  0.00035047  0.17376115  1
  In3+  In14  1  0.69246382  0.66863289  0.33764998  1
  In3+  In15  1  -0.01058287  0.00088733  0.01149296  1
  In3+  In16  1  -0.01519621  0.83142536  0.48984161  1
  In3+  In17  1  0.34766251  0.15373719  0.82774743  1
  In3+  In18  1  0.84623841  0.83125359  0.00559065  1
  In3+  In19  1  0.32843078  0.68063180  0.00358035  1
  In3+  In20  1  0.50556443  0.82698433  -0.00990903  1
  In3+  In21  1  0.16783288  0.82601331  0.67479079  1
  Ag+  Ag22  1  0.68568213  0.83204349  0.51963880  1
  Ag+  Ag23  1  0.15257087  0.52622085  0.66097273  1
  Ag+  Ag24  1  0.69269293  0.47173684  0.51146076  1
  Ag+  Ag25  1  0.86266582  0.48162641  0.68808833  1
  Ag+  Ag26  1  0.70179143  0.03257911  0.34414475  1
  Ag+  Ag27  1  0.81183018  0.14020570  0.33432796  1
  Ag+  Ag28  1  0.81887074  0.64910651  0.17309808  1
  Ag+  Ag29  1  0.83573100  0.47645412  0.35375948  1
  Ag+  Ag30  1  0.00097175  0.68715788  0.34800076  1
  Ag+  Ag31  1  0.14411085  0.83184027  0.01689563  1
  Ag+  Ag32  1  -0.03343256  0.66118472  0.64152393  1
  Ag+  Ag33  1  -0.03118039  0.38018972  0.63342220  1
  Ag+  Ag34  1  0.50002479  0.36125805  0.51914013  1
  Ag+  Ag35  1  0.68562388  0.33960211  0.63293786  1
  Ag+  Ag36  1  0.52041352  0.18938049  0.33919585  1
  Ag+  Ag37  1  -0.02586200  0.83738133  0.19196233  1
  Ag+  Ag38  1  0.82760808  0.01535634  0.52299891  1
  Ag+  Ag39  1  0.69379642  0.16570543  0.14752818  1
  Ag+  Ag40  1  0.50636070  0.02177631  0.80912199  1
  Ag+  Ag41  1  0.32227651  0.81201959  0.83031154  1
  Ag+  Ag42  1  0.14767066  0.19265352  0.35177415  1
  Sn2+  Sn43  1  0.15420874  -0.01068597  0.49844173  1
  Sn2+  Sn44  1  0.16315582  0.17249049  0.66239235  1
  Sn2+  Sn45  1  0.66402909  0.83659195  0.82282761  1
  Sn2+  Sn46  1  0.15515570  0.66466368  0.16905185  1
  Sn2+  Sn47  1  0.16279958  0.83355507  0.33223425  1
  Sn2+  Sn48  1  0.00011945  0.32688447  -0.00583553  1
  Sn2+  Sn49  1  0.51038796  0.66897829  0.83763700  1
  Sn2+  Sn50  1  0.17328660  0.32838989  0.50751954  1
  Sn2+  Sn51  1  0.51091024  0.66864600  0.16408840  1
  Sn2+  Sn52  1  0.66665581  0.65031926  0.66220771  1
  Sn2+  Sn53  1  0.66413710  0.34088945  0.00272071  1
  Sn2+  Sn54  1  0.67545377  0.49211141  0.17749017  1
  Sn2+  Sn55  1  0.00408350  0.16773365  0.83014238  1
  Sn2+  Sn56  1  0.50286665  0.50074255  -0.00536110  1
  Sn2+  Sn57  1  0.00466205  0.83536257  0.82874257  1
  Sn2+  Sn58  1  0.33684510  0.83288313  0.50273057  1
  Sn2+  Sn59  1  0.51538443  0.49821538  0.33319076  1
  Sn2+  Sn60  1  0.66605906  0.00346864  0.65181635  1
  Sn2+  Sn61  1  0.00217115  0.00076308  0.33038642  1
  Sn2+  Sn62  1  -0.00093822  0.16088951  0.17677471  1
  Sn2+  Sn63  1  0.33614976  0.16952621  0.49256321  1
  Sn2+  Sn64  1  0.15949394  0.67106760  0.49427643  1
  Bi3+  Bi65  1  0.16617899  0.33188290  0.83062583  1
  Bi3+  Bi66  1  0.33365614  -0.00484075  0.66700138  1
  Bi3+  Bi67  1  0.00223752  -0.00587301  0.66743600  1
  Bi3+  Bi68  1  0.33684105  0.00116488  -0.00110413  1
  Bi3+  Bi69  1  0.00041636  0.16087005  0.50069216  1
  Bi3+  Bi70  1  0.33313814  0.16240652  0.16735212  1
  Bi3+  Bi71  1  0.49905591  0.66878185  0.49751191  1
  Bi3+  Bi72  1  0.16768716  -0.00441223  0.16626006  1
  Bi3+  Bi73  1  -0.00136128  0.33198391  0.33210864  1
  Bi3+  Bi74  1  0.50263314  -0.00055223  0.17033545  1
  Bi3+  Bi75  1  0.33395756  0.33043540  0.33750563  1
  Bi3+  Bi76  1  0.33445337  0.33619648  -0.00141976  1
  Bi3+  Bi77  1  0.66634370  0.33980127  0.33123155  1
  Bi3+  Bi78  1  0.50066146  0.33297954  0.16843111  1
  Bi3+  Bi79  1  0.33118666  0.33202846  0.66698554  1
  Bi3+  Bi80  1  0.49420286  0.82685490  0.33104152  1
  Bi3+  Bi81  1  0.33365478  -0.00246234  0.33683030  1
  Bi3+  Bi82  1  0.00280354  0.66645703  -0.00081556  1
  Bi3+  Bi83  1  0.66773841  0.16022106  0.50047940  1
  Bi3+  Bi84  1  0.00412599  0.50107357  0.83579430  1
  Bi3+  Bi85  1  0.50563441  -0.00239584  0.49681828  1
  Te2-  Te86  1  0.16965747  0.15954755  0.16898430  1
  Te2-  Te87  1  0.16359221  0.16225912  0.49430273  1
  Te2-  Te88  1  0.16363827  0.16808494  0.83362723  1
  Te2-  Te89  1  0.16370536  0.50367411  0.16679334  1
  Te2-  Te90  1  0.17071586  0.50053920  0.51287265  1
  Te2-  Te91  1  0.16908279  0.49765938  0.82402449  1
  Te2-  Te92  1  0.17108131  0.83346902  0.16030169  1
  Te2-  Te93  1  0.17367419  0.83130234  0.50509156  1
  Te2-  Te94  1  0.17495754  0.83247745  0.82725395  1
  Te2-  Te95  1  0.49522374  0.16576423  0.18022984  1
  Te2-  Te96  1  0.50322793  0.15680905  0.48715335  1
  Te2-  Te97  1  0.49894032  0.16682299  0.83208393  1
  Te2-  Te98  1  0.50647085  0.49768554  0.16875392  1
  Te2-  Te99  1  0.49588486  0.50799675  0.49646778  1
  Te2-  Te100  1  0.49289710  0.50497828  0.83546840  1
  Te2-  Te101  1  0.49761637  0.83409579  0.16839509  1
  Te2-  Te102  1  0.50037978  0.83168788  0.49653085  1
  Te2-  Te103  1  0.49942310  0.82614599  0.83765245  1
  Te2-  Te104  1  0.83745235  0.15338976  0.18028215  1
  Te2-  Te105  1  0.83550863  0.15857704  0.48949707  1
  Te2-  Te106  1  0.83699277  0.16303484  0.83601602  1
  Te2-  Te107  1  0.83891087  0.50293871  0.16596507  1
  Te2-  Te108  1  0.83334273  0.51143280  0.49755187  1
  Te2-  Te109  1  0.83557189  0.50969775  0.83117798  1
  Te2-  Te110  1  0.83196250  0.84710148  0.15847985  1
  Te2-  Te111  1  0.83049794  0.82799761  0.49326481  1
  Te2-  Te112  1  0.83169894  0.82369386  0.84036484  1
  Te2-  Te113  1  0.17589962  -0.01527344  0.00079939  1
  Te2-  Te114  1  0.17200129  -0.00265812  0.33066725  1
  Te2-  Te115  1  0.16886482  0.00120665  0.66513919  1
  Te2-  Te116  1  0.16907756  0.33166208  -0.00321795  1
  Te2-  Te117  1  0.17008750  0.33638296  0.33766991  1
  Te2-  Te118  1  0.17072297  0.33228489  0.66740427  1
  Te2-  Te119  1  0.17114446  0.67895215  0.00007835  1
  Te2-  Te120  1  0.15332096  0.66770612  0.33268619  1
  Te2-  Te121  1  0.17862189  0.67040420  0.66400326  1
  Te2-  Te122  1  0.50055402  -0.00583033  0.00741132  1
  Te2-  Te123  1  0.49472713  -0.00925201  0.33549697  1
  Te2-  Te124  1  0.49858177  -0.00208594  0.66171704  1
  Te2-  Te125  1  0.49684167  0.33178686  0.00617495  1
  Te2-  Te126  1  0.49533442  0.33631573  0.33057624  1
  Te2-  Te127  1  0.49213391  0.34079887  0.66516035  1
  Te2-  Te128  1  0.48838519  0.66927260  0.00630390  1
  Te2-  Te129  1  0.48785690  0.66444763  0.33340771  1
  Te2-  Te130  1  0.50036001  0.65719159  0.66347219  1
  Te2-  Te131  1  0.82900384  -0.00682201  0.00309081  1
  Te2-  Te132  1  0.84066370  -0.01237195  0.32607060  1
  Te2-  Te133  1  0.83496093  -0.00446548  0.66823759  1
  Te2-  Te134  1  0.83320973  0.33160314  0.00162325  1
  Te2-  Te135  1  0.83385015  0.32959812  0.33457336  1
  Te2-  Te136  1  0.82967760  0.33955611  0.66542604  1
  Te2-  Te137  1  0.83513124  0.67533002  0.01943088  1
  Te2-  Te138  1  0.84780806  0.68127532  0.32193154  1
  Te2-  Te139  1  0.82276395  0.66168819  0.66529664  1
  Te2-  Te140  1  0.00003173  0.15559069  0.00178576  1
  Te2-  Te141  1  0.00388130  0.16699692  0.33823430  1
  Te2-  Te142  1  0.00099010  0.16090303  0.66337888  1
  Te2-  Te143  1  0.00267985  0.50076269  -0.00020180  1
  Te2-  Te144  1  -0.01268592  0.49308632  0.32805369  1
  Te2-  Te145  1  0.00520886  0.51722670  0.67270626  1
  Te2-  Te146  1  -0.00066837  0.83452295  -0.00992808  1
  Te2-  Te147  1  0.00496536  0.83394354  0.33579299  1
  Te2-  Te148  1  0.00801478  0.82925390  0.66780959  1
  Te2-  Te149  1  0.33879533  0.16779931  0.00068986  1
  Te2-  Te150  1  0.32973694  0.16452565  0.33043149  1
  Te2-  Te151  1  0.33136061  0.16372586  0.66700864  1
  Te2-  Te152  1  0.33548600  0.49690608  -0.00093691  1
  Te2-  Te153  1  0.33243498  0.49801269  0.33901710  1
  Te2-  Te154  1  0.33868167  0.49879768  0.66733675  1
  Te2-  Te155  1  0.34241024  0.83481576  -0.01255471  1
  Te2-  Te156  1  0.33136450  0.83096311  0.33529447  1
  Te2-  Te157  1  0.33014013  0.83422192  0.67632950  1
  Te2-  Te158  1  0.66032154  0.16200452  0.00407474  1
  Te2-  Te159  1  0.66761144  0.17658553  0.34037517  1
  Te2-  Te160  1  0.66711250  0.17374842  0.66335715  1
  Te2-  Te161  1  0.66324157  0.51052140  0.00364743  1
  Te2-  Te162  1  0.68274056  0.50509097  0.33775334  1
  Te2-  Te163  1  0.65958372  0.48898246  0.65493014  1
  Te2-  Te164  1  0.65977029  0.82649810  -0.00199149  1
  Te2-  Te165  1  0.66150959  0.82398909  0.32974460  1
  Te2-  Te166  1  0.66736087  0.83465957  0.66455259  1
  Te2-  Te167  1  0.00708269  -0.01316677  0.16114665  1
  Te2-  Te168  1  -0.01114525  -0.00746087  0.50482816  1
  Te2-  Te169  1  0.00097515  -0.00166023  0.82946946  1
  Te2-  Te170  1  0.00028060  0.32332569  0.16597145  1
  Te2-  Te171  1  0.00197439  0.32920300  0.49925730  1
  Te2-  Te172  1  0.00298399  0.33560444  0.83398624  1
  Te2-  Te173  1  -0.00071086  0.68457492  0.15869018  1
  Te2-  Te174  1  -0.00010016  0.67771313  0.49987076  1
  Te2-  Te175  1  -0.00988962  0.66631905  0.83885543  1
  Te2-  Te176  1  0.33669367  -0.00334861  0.16550028  1
  Te2-  Te177  1  0.33313685  0.00093109  0.50227975  1
  Te2-  Te178  1  0.35019596  0.00099900  0.83323146  1
  Te2-  Te179  1  0.33477412  0.33155291  0.16624972  1
  Te2-  Te180  1  0.34394137  0.33504328  0.50113178  1
  Te2-  Te181  1  0.32879932  0.33254913  0.83445005  1
  Te2-  Te182  1  0.33240678  0.67230960  0.16272660  1
  Te2-  Te183  1  0.33525338  0.66316525  0.50670371  1
  Te2-  Te184  1  0.33636116  0.66556249  0.83467614  1
  Te2-  Te185  1  0.66238838  0.01684341  0.18566163  1
  Te2-  Te186  1  0.67453276  -0.00610596  0.49328149  1
  Te2-  Te187  1  0.65430583  -0.00322674  0.83097855  1
  Te2-  Te188  1  0.66291756  0.32080393  0.16638007  1
  Te2-  Te189  1  0.65047120  0.33077957  0.49122885  1
  Te2-  Te190  1  0.66462879  0.33706226  0.84508412  1
  Te2-  Te191  1  0.67117844  0.66492925  0.16979520  1
  Te2-  Te192  1  0.66478239  0.67877637  0.49134871  1
  Te2-  Te193  1  0.67316169  0.66843589  0.83800364  1
  Pb2+  Pb194  1  0.82796528  -0.00795438  0.83503503  1
  Pb2+  Pb195  1  0.83400631  0.16862756  0.66283586  1
  Pb2+  Pb196  1  0.16328205  0.33257754  0.16746161  1
  Pb2+  Pb197  1  0.50053899  0.17039656  0.65584833  1
  Pb2+  Pb198  1  0.83697742  0.82735041  0.66643752  1
  Pb2+  Pb199  1  0.83403537  0.33213939  0.16962950  1
  Pb2+  Pb200  1  0.49968794  0.82678143  0.66999404  1
  Pb2+  Pb201  1  0.66357009  0.50229004  0.82394322  1
  Pb2+  Pb202  1  0.83303200  0.50454300  -0.00064744  1
  Pb2+  Pb203  1  0.66709207  0.16621736  0.83422997  1
  Pb2+  Pb204  1  -0.00056862  0.50559120  0.50121945  1
  Pb2+  Pb205  1  0.83307786  0.33314670  0.83207547  1
  Pb2+  Pb206  1  0.33765842  0.50615397  0.16850183  1
  Pb2+  Pb207  1  0.16787375  0.15543548  0.00279767  1
  Pb2+  Pb208  1  0.17003033  0.50773945  -0.00302493  1
  Pb2+  Pb209  1  0.15967149  0.50427363  0.33871729  1
  Pb2+  Pb210  1  0.49747235  0.33504195  0.83312238  1
  Pb2+  Pb211  1  0.16139225  0.66683209  0.83233807  1
  Pb2+  Pb212  1  0.66540397  0.84202908  0.16453420  1
  Pb2+  Pb213  1  0.83139838  0.16328243  0.00803243  1
  Pb2+  Pb214  1  0.17389235  -0.00175576  0.83352316  1
  Pb2+  Pb215  1  0.82942003  0.33055644  0.49925400  1
