# generated using pymatgen
data_In22Ag21Sn22Bi21(Te54Pb11)2
_symmetry_space_group_name_H-M   'P 1'
_cell_length_a   19.11694120
_cell_length_b   19.15015166
_cell_length_c   19.13550659
_cell_angle_alpha   90.00079234
_cell_angle_beta   89.99841073
_cell_angle_gamma   89.96743861
_symmetry_Int_Tables_number   1
_chemical_formula_structural   In22Ag21Sn22Bi21(Te54Pb11)2
_chemical_formula_sum   'In22 Ag21 Sn22 Bi21 Te108 Pb22'
_cell_volume   7005.36092826
_cell_formula_units_Z   1
loop_
 _symmetry_equiv_pos_site_id
 _symmetry_equiv_pos_as_xyz
  1  'x, y, z'
loop_
 _atom_type_symbol
 _atom_type_oxidation_number
  In3+  3.0
  Ag+  1.0
  Sn2+  2.0
  Bi3+  3.0
  Te2-  -2.0
  Pb2+  2.0
loop_
 _atom_site_type_symbol
 _atom_site_label
 _atom_site_symmetry_multiplicity
 _atom_site_fract_x
 _atom_site_fract_y
 _atom_site_fract_z
 _atom_site_occupancy
  In3+  In0  1  0.00044911  0.83851837  0.84165974  1
  In3+  In1  1  0.48441455  0.81428096  0.32721091  1
  In3+  In2  1  0.50975382  -0.00129675  0.84896499  1
  In3+  In3  1  0.81692866  0.16757746  0.01089815  1
  In3+  In4  1  0.00105593  0.66108831  0.67073019  1
  In3+  In5  1  0.16742851  0.16953579  0.64927634  1
  In3+  In6  1  0.00169724  0.82310190  0.16414670  1
  In3+  In7  1  0.00882828  0.16784632  0.14992652  1
  In3+  In8  1  0.65777048  0.31817290  0.66384618  1
  In3+  In9  1  0.83577998  0.65382989  0.17061987  1
  In3+  In10  1  0.32085817  -0.00581005  0.67178172  1
  In3+  In11  1  0.49933580  0.34189473  0.48992135  1
  In3+  In12  1  0.32330178  0.00509816  0.00483689  1
  In3+  In13  1  0.31664347  0.16522572  0.16259468  1
  In3+  In14  1  0.33182537  0.34976701  0.01032355  1
  In3+  In15  1  0.01535495  0.66062543  0.32120795  1
  In3+  In16  1  0.00201530  -0.01131411  0.65953773  1
  In3+  In17  1  0.83521998  0.65697261  0.85478874  1
  In3+  In18  1  0.16914643  0.83673648  0.32633060  1
  In3+  In19  1  0.00898676  0.00403240  0.32668840  1
  In3+  In20  1  0.32911041  0.51415581  0.14362900  1
  In3+  In21  1  0.48634258  -0.00443887  0.16862941  1
  Ag+  Ag22  1  0.15894770  0.48557948  0.01043391  1
  Ag+  Ag23  1  0.14527165  0.36343567  0.16904795  1
  Ag+  Ag24  1  0.48894391  0.64189614  0.52525338  1
  Ag+  Ag25  1  -0.01316904  0.65148219  0.02116796  1
  Ag+  Ag26  1  0.16537163  0.80963134  0.63530051  1
  Ag+  Ag27  1  0.14785648  0.19034960  -0.00095918  1
  Ag+  Ag28  1  0.18150916  0.65460352  0.16625748  1
  Ag+  Ag29  1  0.68599690  0.33833598  0.02086990  1
  Ag+  Ag30  1  0.85292599  -0.00031073  0.85468951  1
  Ag+  Ag31  1  0.69703416  0.19827821  0.85725610  1
  Ag+  Ag32  1  0.69187829  0.19648685  0.49769614  1
  Ag+  Ag33  1  0.16639597  -0.00473379  0.52251346  1
  Ag+  Ag34  1  0.13952565  -0.00264542  0.16343277  1
  Ag+  Ag35  1  0.83570880  -0.00580296  0.15433694  1
  Ag+  Ag36  1  0.48640447  0.51886950  0.29329506  1
  Ag+  Ag37  1  0.36496962  0.63674738  0.34022759  1
  Ag+  Ag38  1  0.48015072  0.63486195  0.16366637  1
  Ag+  Ag39  1  0.52310881  0.50672498  -0.00297320  1
  Ag+  Ag40  1  0.67124559  0.35919314  0.31576200  1
  Ag+  Ag41  1  -0.01819652  0.46852683  0.17838423  1
  Ag+  Ag42  1  0.35562275  0.53004062  0.85050552  1
  Sn2+  Sn43  1  0.65994106  0.49947069  0.83551304  1
  Sn2+  Sn44  1  0.32295123  0.66738450  0.00330498  1
  Sn2+  Sn45  1  0.66565301  0.50300574  0.49724088  1
  Sn2+  Sn46  1  0.82794047  0.33509149  0.49895546  1
  Sn2+  Sn47  1  0.82631318  0.50131398  0.32964752  1
  Sn2+  Sn48  1  0.17046304  0.50039111  0.68365100  1
  Sn2+  Sn49  1  0.66709391  0.16606836  0.17973242  1
  Sn2+  Sn50  1  0.01146993  0.51182739  0.48841485  1
  Sn2+  Sn51  1  0.83164148  0.84124555  0.00086750  1
  Sn2+  Sn52  1  0.82716750  0.16635963  0.32836982  1
  Sn2+  Sn53  1  0.83150567  0.32137033  0.83592763  1
  Sn2+  Sn54  1  0.33715171  0.50180362  0.49903022  1
  Sn2+  Sn55  1  0.17015279  0.33137478  0.85087738  1
  Sn2+  Sn56  1  0.33457312  0.82745578  0.49928578  1
  Sn2+  Sn57  1  0.16154667  0.16590739  0.31911915  1
  Sn2+  Sn58  1  0.66974589  -0.00009686  0.66755712  1
  Sn2+  Sn59  1  0.67241502  0.66509923  0.66077044  1
  Sn2+  Sn60  1  0.83287315  0.32740914  0.17129698  1
  Sn2+  Sn61  1  0.81874176  0.66220419  0.49689277  1
  Sn2+  Sn62  1  0.65742156  0.65401539  -0.00140658  1
  Sn2+  Sn63  1  -0.00404988  0.16488191  0.83470120  1
  Sn2+  Sn64  1  0.32514269  0.82500262  0.16602974  1
  Bi3+  Bi65  1  0.33816669  0.33297440  0.33105848  1
  Bi3+  Bi66  1  0.00010201  0.33479669  0.66824778  1
  Bi3+  Bi67  1  0.66790280  0.66654800  0.33011124  1
  Bi3+  Bi68  1  0.83645118  0.16628866  0.66730517  1
  Bi3+  Bi69  1  0.49805007  0.16936578  0.00205138  1
  Bi3+  Bi70  1  0.67224941  0.83617200  0.83163726  1
  Bi3+  Bi71  1  0.50144112  0.16875372  0.33385441  1
  Bi3+  Bi72  1  0.00017989  0.16832712  0.50296107  1
  Bi3+  Bi73  1  0.50047154  0.32546597  0.16921077  1
  Bi3+  Bi74  1  0.67087537  0.00246880  0.33331626  1
  Bi3+  Bi75  1  0.33033183  0.16450253  0.83712166  1
  Bi3+  Bi76  1  0.83581350  0.83662936  0.33009095  1
  Bi3+  Bi77  1  0.33112317  0.16225105  0.49863497  1
  Bi3+  Bi78  1  0.32852411  0.83559295  0.83562810  1
  Bi3+  Bi79  1  0.49413315  0.00022377  0.49580305  1
  Bi3+  Bi80  1  0.16117445  0.66690548  0.84320237  1
  Bi3+  Bi81  1  0.16613021  0.83253859  0.00329461  1
  Bi3+  Bi82  1  0.66441709  0.83141775  0.49977761  1
  Bi3+  Bi83  1  0.00156880  0.83431900  0.49464874  1
  Bi3+  Bi84  1  0.00182055  0.50373091  0.83866973  1
  Bi3+  Bi85  1  0.84101949  0.83517897  0.66886804  1
  Te2-  Te86  1  0.16328741  0.15494503  0.15918112  1
  Te2-  Te87  1  0.16681989  0.15704805  0.49222663  1
  Te2-  Te88  1  0.16846716  0.17019995  0.85008661  1
  Te2-  Te89  1  0.17921937  0.50716834  0.15780938  1
  Te2-  Te90  1  0.16736374  0.50291036  0.49798282  1
  Te2-  Te91  1  0.16135213  0.50486040  0.84337431  1
  Te2-  Te92  1  0.15599361  0.84414761  0.16915532  1
  Te2-  Te93  1  0.16418064  0.84361791  0.49256245  1
  Te2-  Te94  1  0.16335248  0.83140642  0.83690518  1
  Te2-  Te95  1  0.50213246  0.15888279  0.16771947  1
  Te2-  Te96  1  0.49226150  0.16484224  0.49783478  1
  Te2-  Te97  1  0.49675709  0.15555875  0.83602190  1
  Te2-  Te98  1  0.48688561  0.48720501  0.14842046  1
  Te2-  Te99  1  0.49649522  0.49662775  0.50416840  1
  Te2-  Te100  1  0.49929076  0.49965569  0.84769539  1
  Te2-  Te101  1  0.49993099  0.84085006  0.17291484  1
  Te2-  Te102  1  0.49880473  0.83698489  0.48657371  1
  Te2-  Te103  1  0.49945187  0.83880871  0.83120390  1
  Te2-  Te104  1  0.83666755  0.17174176  0.16451456  1
  Te2-  Te105  1  0.83738208  0.16886143  0.50136526  1
  Te2-  Te106  1  0.83325657  0.15378163  0.82737097  1
  Te2-  Te107  1  0.83708857  0.49616570  0.16774256  1
  Te2-  Te108  1  0.83863926  0.50319455  0.49299843  1
  Te2-  Te109  1  0.83624008  0.50361047  0.83158840  1
  Te2-  Te110  1  0.84553526  0.84595150  0.16687264  1
  Te2-  Te111  1  0.83459228  0.83029377  0.50089029  1
  Te2-  Te112  1  0.83701643  0.84691636  0.82975993  1
  Te2-  Te113  1  0.16898592  -0.00486275  0.01252449  1
  Te2-  Te114  1  0.16218429  -0.00499557  0.31634346  1
  Te2-  Te115  1  0.16116116  0.01192697  0.67018075  1
  Te2-  Te116  1  0.17690202  0.33388948  0.01813179  1
  Te2-  Te117  1  0.16998916  0.33457694  0.32089378  1
  Te2-  Te118  1  0.16204253  0.32901465  0.66808351  1
  Te2-  Te119  1  0.16640747  0.67427761  0.00847626  1
  Te2-  Te120  1  0.16518277  0.67745906  0.31773328  1
  Te2-  Te121  1  0.15885744  0.66613004  0.66937532  1
  Te2-  Te122  1  0.49823106  0.00098282  0.00721131  1
  Te2-  Te123  1  0.50442938  0.00388542  0.32971419  1
  Te2-  Te124  1  0.49853253  -0.00436559  0.65674609  1
  Te2-  Te125  1  0.48870000  0.32956221  0.00533845  1
  Te2-  Te126  1  0.51085578  0.33068382  0.33550270  1
  Te2-  Te127  1  0.50303099  0.33057775  0.66642095  1
  Te2-  Te128  1  0.50200385  0.65683837  0.01184654  1
  Te2-  Te129  1  0.50684368  0.66343530  0.31309286  1
  Te2-  Te130  1  0.49869539  0.66856825  0.67051920  1
  Te2-  Te131  1  0.83319248  0.01238485  0.00110480  1
  Te2-  Te132  1  0.83465862  -0.00085418  0.33218051  1
  Te2-  Te133  1  0.84070988  -0.00068383  0.66438374  1
  Te2-  Te134  1  0.83129770  0.32326777  -0.00341097  1
  Te2-  Te135  1  0.81937787  0.33578532  0.33409037  1
  Te2-  Te136  1  0.83712618  0.33053953  0.66712422  1
  Te2-  Te137  1  0.83934693  0.67234198  0.00444982  1
  Te2-  Te138  1  0.83232676  0.67144416  0.32987054  1
  Te2-  Te139  1  0.84202883  0.67395607  0.66241126  1
  Te2-  Te140  1  0.00171257  0.16811225  -0.00355963  1
  Te2-  Te141  1  -0.00299245  0.16513531  0.34266696  1
  Te2-  Te142  1  0.00362029  0.16916956  0.66696053  1
  Te2-  Te143  1  0.00788945  0.50663053  0.00207026  1
  Te2-  Te144  1  0.00159288  0.50640301  0.32026125  1
  Te2-  Te145  1  0.00333184  0.50050897  0.66689335  1
  Te2-  Te146  1  -0.00053638  0.82908603  0.00045803  1
  Te2-  Te147  1  -0.00249975  0.83397264  0.33191520  1
  Te2-  Te148  1  0.00848760  0.83439864  0.65930901  1
  Te2-  Te149  1  0.33676145  0.15838234  0.00186093  1
  Te2-  Te150  1  0.33467125  0.16874514  0.33229781  1
  Te2-  Te151  1  0.32840087  0.16050567  0.66774523  1
  Te2-  Te152  1  0.31983209  0.50088907  -0.00997636  1
  Te2-  Te153  1  0.34535204  0.49178537  0.33739558  1
  Te2-  Te154  1  0.32862049  0.49783506  0.67002091  1
  Te2-  Te155  1  0.33307550  0.83626162  -0.00083943  1
  Te2-  Te156  1  0.33035542  0.83361196  0.32977345  1
  Te2-  Te157  1  0.31512682  0.83738212  0.66957138  1
  Te2-  Te158  1  0.66357766  0.17968292  -0.00062903  1
  Te2-  Te159  1  0.66509340  0.16355208  0.34868854  1
  Te2-  Te160  1  0.67385819  0.16620917  0.65202941  1
  Te2-  Te161  1  0.67121995  0.48761178  -0.00468400  1
  Te2-  Te162  1  0.65876639  0.50435197  0.33470594  1
  Te2-  Te163  1  0.66880308  0.50992657  0.66781129  1
  Te2-  Te164  1  0.67006417  0.83187191  -0.00530727  1
  Te2-  Te165  1  0.67160081  0.83424473  0.33542747  1
  Te2-  Te166  1  0.67139974  0.83127505  0.66546896  1
  Te2-  Te167  1  -0.01115167  0.01688427  0.17319342  1
  Te2-  Te168  1  0.01292570  0.00184652  0.50002392  1
  Te2-  Te169  1  -0.00093671  -0.00575009  0.83074339  1
  Te2-  Te170  1  0.00246343  0.32274725  0.16812201  1
  Te2-  Te171  1  0.00063889  0.33462987  0.50261415  1
  Te2-  Te172  1  0.00083174  0.33735008  0.83096568  1
  Te2-  Te173  1  -0.00808618  0.66993534  0.16730845  1
  Te2-  Te174  1  -0.00013337  0.67001722  0.49546068  1
  Te2-  Te175  1  -0.00359607  0.66925726  0.83009230  1
  Te2-  Te176  1  0.33420265  -0.00040123  0.16460676  1
  Te2-  Te177  1  0.32571343  -0.00009918  0.50487413  1
  Te2-  Te178  1  0.33758768  -0.00211489  0.83356934  1
  Te2-  Te179  1  0.33708234  0.31942240  0.16891286  1
  Te2-  Te180  1  0.33528993  0.32762305  0.49859614  1
  Te2-  Te181  1  0.32926501  0.32540011  0.84152123  1
  Te2-  Te182  1  0.33341479  0.66736484  0.17143443  1
  Te2-  Te183  1  0.34266087  0.66948845  0.48637245  1
  Te2-  Te184  1  0.32746110  0.67322909  0.83302881  1
  Te2-  Te185  1  0.68294707  0.00661458  0.17069169  1
  Te2-  Te186  1  0.66166392  -0.00704258  0.49877662  1
  Te2-  Te187  1  0.66086849  -0.00280500  0.82964602  1
  Te2-  Te188  1  0.66501720  0.33143484  0.16900362  1
  Te2-  Te189  1  0.66489356  0.34050292  0.50983451  1
  Te2-  Te190  1  0.66994441  0.33513663  0.81736871  1
  Te2-  Te191  1  0.67982312  0.66866912  0.16490284  1
  Te2-  Te192  1  0.64769553  0.67094516  0.49523956  1
  Te2-  Te193  1  0.67663028  0.67251167  0.83562665  1
  Pb2+  Pb194  1  0.16931904  0.67218459  0.48933076  1
  Pb2+  Pb195  1  0.00567607  0.34063627  -0.00048587  1
  Pb2+  Pb196  1  0.16602096  0.00383242  0.84158765  1
  Pb2+  Pb197  1  0.83482624  0.50071196  0.66085561  1
  Pb2+  Pb198  1  0.50034846  0.82619036  0.00472194  1
  Pb2+  Pb199  1  0.66010017  0.50003606  0.16627272  1
  Pb2+  Pb200  1  0.33046520  0.33144436  0.67284132  1
  Pb2+  Pb201  1  0.83822350  0.00071735  0.49732395  1
  Pb2+  Pb202  1  0.16774499  0.33020978  0.49143444  1
  Pb2+  Pb203  1  0.50374701  0.66699220  0.84245608  1
  Pb2+  Pb204  1  0.49965700  0.49894492  0.67460440  1
  Pb2+  Pb205  1  0.67251742  0.83805393  0.16610776  1
  Pb2+  Pb206  1  0.32967837  0.66403286  0.65857537  1
  Pb2+  Pb207  1  0.49998732  0.32842395  0.83917403  1
  Pb2+  Pb208  1  0.49198600  0.83318018  0.65803737  1
  Pb2+  Pb209  1  0.00139486  -0.00382361  0.00415573  1
  Pb2+  Pb210  1  0.66672264  0.00649089  0.00159325  1
  Pb2+  Pb211  1  0.33134744  0.00071432  0.33368760  1
  Pb2+  Pb212  1  -0.00711973  0.33525872  0.33521073  1
  Pb2+  Pb213  1  0.84205044  0.49949549  0.00011758  1
  Pb2+  Pb214  1  0.50420002  0.16015225  0.66719599  1
  Pb2+  Pb215  1  0.17768697  0.50358967  0.32406952  1
