# generated using pymatgen
data_In22Ag21Sn22Bi21(Te54Pb11)2
_symmetry_space_group_name_H-M   'P 1'
_cell_length_a   19.13177046
_cell_length_b   19.13094324
_cell_length_c   19.12930387
_cell_angle_alpha   90.00223683
_cell_angle_beta   89.98478190
_cell_angle_gamma   90.00194197
_symmetry_Int_Tables_number   1
_chemical_formula_structural   In22Ag21Sn22Bi21(Te54Pb11)2
_chemical_formula_sum   'In22 Ag21 Sn22 Bi21 Te108 Pb22'
_cell_volume   7001.49357932
_cell_formula_units_Z   1
loop_
 _symmetry_equiv_pos_site_id
 _symmetry_equiv_pos_as_xyz
  1  'x, y, z'
loop_
 _atom_type_symbol
 _atom_type_oxidation_number
  In3+  3.0
  Ag+  1.0
  Sn2+  2.0
  Bi3+  3.0
  Te2-  -2.0
  Pb2+  2.0
loop_
 _atom_site_type_symbol
 _atom_site_label
 _atom_site_symmetry_multiplicity
 _atom_site_fract_x
 _atom_site_fract_y
 _atom_site_fract_z
 _atom_site_occupancy
  In3+  In0  1  0.31074834  0.32934569  0.65651008  1
  In3+  In1  1  0.84582186  0.48846849  0.66701636  1
  In3+  In2  1  0.67279677  -0.00055520  0.01142614  1
  In3+  In3  1  0.48260713  0.33008310  0.52441653  1
  In3+  In4  1  0.66914777  0.83344897  0.84085644  1
  In3+  In5  1  0.01555237  -0.00592877  0.32205307  1
  In3+  In6  1  0.18453173  0.66633761  0.49740418  1
  In3+  In7  1  0.84806129  0.82993964  0.00258321  1
  In3+  In8  1  0.82717411  0.16282377  -0.00526224  1
  In3+  In9  1  0.16075075  0.67037009  0.15141317  1
  In3+  In10  1  0.16449392  0.16222819  -0.02774021  1
  In3+  In11  1  0.66551059  -0.01311240  0.32936151  1
  In3+  In12  1  0.66819964  0.50293607  0.14902513  1
  In3+  In13  1  0.32716164  0.33380403  0.34003611  1
  In3+  In14  1  0.86184167  -0.00888128  0.50023882  1
  In3+  In15  1  0.50680870  0.68534944  0.49519302  1
  In3+  In16  1  0.02323290  0.16721141  0.51281531  1
  In3+  In17  1  0.16575433  -0.01405416  0.81448309  1
  In3+  In18  1  0.48566340  0.16596976  0.67042141  1
  In3+  In19  1  0.68007959  0.16026010  0.50067612  1
  In3+  In20  1  0.31880584  0.50477485  0.16708382  1
  In3+  In21  1  0.32793297  0.68437817  -0.00176519  1
  Ag+  Ag22  1  0.19253848  0.50187998  0.63882618  1
  Ag+  Ag23  1  0.14605424  0.81986884  -0.00001537  1
  Ag+  Ag24  1  0.68921045  0.30674445  0.02364179  1
  Ag+  Ag25  1  0.32549512  0.81719191  0.52663107  1
  Ag+  Ag26  1  0.30480182  0.15469859  0.80079796  1
  Ag+  Ag27  1  0.48086956  0.30989510  0.82255617  1
  Ag+  Ag28  1  0.67467412  0.69595581  0.03082858  1
  Ag+  Ag29  1  0.18687174  0.14717955  0.66494820  1
  Ag+  Ag30  1  0.01633350  0.83192454  0.18364507  1
  Ag+  Ag31  1  0.16648352  0.01918419  0.51098063  1
  Ag+  Ag32  1  0.65847895  0.68698748  0.31992117  1
  Ag+  Ag33  1  0.17705928  0.31782979  0.50190392  1
  Ag+  Ag34  1  0.83528896  0.15312688  0.64041880  1
  Ag+  Ag35  1  0.01843432  0.83993825  0.84557825  1
  Ag+  Ag36  1  0.31291735  0.81018791  0.16753930  1
  Ag+  Ag37  1  0.16939543  0.85001176  0.64323505  1
  Ag+  Ag38  1  0.66910002  0.80216323  0.14240577  1
  Ag+  Ag39  1  0.33406137  0.14387718  0.50729606  1
  Ag+  Ag40  1  0.02809032  -0.00179073  -0.01579598  1
  Ag+  Ag41  1  0.17406886  0.52075075  0.34032739  1
  Ag+  Ag42  1  0.31265729  -0.03291201  0.63342026  1
  Sn2+  Sn43  1  0.83526644  0.32797458  0.50081833  1
  Sn2+  Sn44  1  0.32848252  0.16533154  0.17546917  1
  Sn2+  Sn45  1  0.50355315  0.49853106  -0.00008536  1
  Sn2+  Sn46  1  0.82071255  0.33382519  0.83362151  1
  Sn2+  Sn47  1  -0.00527539  0.50686187  0.16878889  1
  Sn2+  Sn48  1  0.83752753  -0.00246948  0.83064889  1
  Sn2+  Sn49  1  0.16390860  0.67648237  0.82168861  1
  Sn2+  Sn50  1  -0.00395557  0.68349947  -0.00097262  1
  Sn2+  Sn51  1  0.33141127  0.66780264  0.33094441  1
  Sn2+  Sn52  1  0.83723079  0.50859398  0.33499048  1
  Sn2+  Sn53  1  0.01624873  0.83061306  0.51096478  1
  Sn2+  Sn54  1  0.83722907  0.67249743  0.16539329  1
  Sn2+  Sn55  1  0.83519152  0.66744323  0.83524742  1
  Sn2+  Sn56  1  0.83327743  0.33283792  0.17314928  1
  Sn2+  Sn57  1  0.65565395  0.34071632  0.33235640  1
  Sn2+  Sn58  1  0.83682621  -0.00671605  0.16749919  1
  Sn2+  Sn59  1  0.00910079  0.50700906  0.84041203  1
  Sn2+  Sn60  1  0.48211779  0.00443456  0.50308716  1
  Sn2+  Sn61  1  0.17124471  -0.01013254  0.16687703  1
  Sn2+  Sn62  1  0.49981827  0.50395703  0.33365388  1
  Sn2+  Sn63  1  0.33338422  0.48275687  0.83989572  1
  Sn2+  Sn64  1  0.49465117  0.83293873  0.32519154  1
  Bi3+  Bi65  1  0.49498227  0.16922646  0.00188602  1
  Bi3+  Bi66  1  0.50296833  0.00137818  0.16849493  1
  Bi3+  Bi67  1  0.49886636  0.50095929  0.66855554  1
  Bi3+  Bi68  1  0.49959244  0.83203668  0.00148062  1
  Bi3+  Bi69  1  0.33559867  0.00554067  0.00076326  1
  Bi3+  Bi70  1  0.82794180  0.66848101  0.49913305  1
  Bi3+  Bi71  1  0.83384929  0.16891215  0.33162367  1
  Bi3+  Bi72  1  -0.00178413  0.16324743  0.83315225  1
  Bi3+  Bi73  1  0.00263700  0.32818323  0.33397282  1
  Bi3+  Bi74  1  0.49697522  0.33812873  0.16229823  1
  Bi3+  Bi75  1  0.50125479  0.66807621  0.83551962  1
  Bi3+  Bi76  1  0.66230183  0.00219876  0.66452384  1
  Bi3+  Bi77  1  0.00080483  0.33191185  0.66712156  1
  Bi3+  Bi78  1  0.00051733  0.66956158  0.66858878  1
  Bi3+  Bi79  1  0.66612331  0.49380217  0.49886596  1
  Bi3+  Bi80  1  0.66611140  0.50357284  0.83419664  1
  Bi3+  Bi81  1  0.66864877  0.33146079  0.66445973  1
  Bi3+  Bi82  1  0.33544225  -0.00086693  0.33141475  1
  Bi3+  Bi83  1  0.16734328  0.16816170  0.34141525  1
  Bi3+  Bi84  1  0.49566518  0.00254921  0.83426807  1
  Bi3+  Bi85  1  0.33441273  0.33439322  -0.00039903  1
  Te2-  Te86  1  0.16816069  0.16187174  0.17920121  1
  Te2-  Te87  1  0.17438667  0.16737691  0.50981582  1
  Te2-  Te88  1  0.15925944  0.16580563  0.81698480  1
  Te2-  Te89  1  0.16421239  0.51026875  0.16950783  1
  Te2-  Te90  1  0.16805340  0.51427535  0.49185339  1
  Te2-  Te91  1  0.16685058  0.50639478  0.83598109  1
  Te2-  Te92  1  0.16255230  0.82806501  0.15380952  1
  Te2-  Te93  1  0.17509759  0.81934043  0.49898839  1
  Te2-  Te94  1  0.16615973  0.83845713  0.85076874  1
  Te2-  Te95  1  0.49927192  0.16859858  0.16772556  1
  Te2-  Te96  1  0.48402060  0.17640356  0.51176616  1
  Te2-  Te97  1  0.50025071  0.16437342  0.83625353  1
  Te2-  Te98  1  0.50642158  0.50016832  0.16747848  1
  Te2-  Te99  1  0.50355660  0.48806146  0.50294896  1
  Te2-  Te100  1  0.50095368  0.50605487  0.83191284  1
  Te2-  Te101  1  0.51953214  0.83848361  0.16335766  1
  Te2-  Te102  1  0.48575836  0.83536069  0.49851132  1
  Te2-  Te103  1  0.50082058  0.83555419  0.83513529  1
  Te2-  Te104  1  0.83642152  0.16427080  0.16925678  1
  Te2-  Te105  1  0.83486036  0.15721337  0.49274958  1
  Te2-  Te106  1  0.83759592  0.16447058  0.83992490  1
  Te2-  Te107  1  0.83092995  0.50049014  0.16867627  1
  Te2-  Te108  1  0.82997980  0.50234256  0.50482927  1
  Te2-  Te109  1  0.83179908  0.50180609  0.82802637  1
  Te2-  Te110  1  0.81912566  0.83455741  0.15536241  1
  Te2-  Te111  1  0.83786124  0.83624430  0.50031710  1
  Te2-  Te112  1  0.82513693  0.83848788  0.84151161  1
  Te2-  Te113  1  0.17443781  0.01273646  0.00901908  1
  Te2-  Te114  1  0.16960065  0.00276757  0.33976531  1
  Te2-  Te115  1  0.17218824  -0.00091277  0.66386951  1
  Te2-  Te116  1  0.16854823  0.32401816  0.00170497  1
  Te2-  Te117  1  0.16765147  0.33008163  0.34541897  1
  Te2-  Te118  1  0.16174643  0.34918212  0.65509073  1
  Te2-  Te119  1  0.16827814  0.67261975  -0.00213405  1
  Te2-  Te120  1  0.16887551  0.66740910  0.33805420  1
  Te2-  Te121  1  0.16036729  0.65044717  0.66143082  1
  Te2-  Te122  1  0.50308778  0.00273548  0.00063056  1
  Te2-  Te123  1  0.50262879  0.00368277  0.33296281  1
  Te2-  Te124  1  0.49518665  0.00971243  0.67121240  1
  Te2-  Te125  1  0.49777987  0.33092185  -0.00007845  1
  Te2-  Te126  1  0.48746461  0.33843075  0.32657232  1
  Te2-  Te127  1  0.50431982  0.33354330  0.67741197  1
  Te2-  Te128  1  0.50929651  0.66980615  -0.00162215  1
  Te2-  Te129  1  0.50708455  0.66404054  0.33742943  1
  Te2-  Te130  1  0.49602359  0.66667899  0.66632252  1
  Te2-  Te131  1  0.82556229  0.00822928  -0.00022283  1
  Te2-  Te132  1  0.82001038  0.00617878  0.34271117  1
  Te2-  Te133  1  0.82806999  0.00505949  0.65794670  1
  Te2-  Te134  1  0.83257285  0.32384408  0.00267289  1
  Te2-  Te135  1  0.83849629  0.33417618  0.33447139  1
  Te2-  Te136  1  0.83410577  0.33095690  0.66620581  1
  Te2-  Te137  1  0.82326610  0.67520700  0.00185549  1
  Te2-  Te138  1  0.82617103  0.66735393  0.33543262  1
  Te2-  Te139  1  0.83582004  0.66938079  0.66498430  1
  Te2-  Te140  1  0.00848986  0.15174618  -0.00264734  1
  Te2-  Te141  1  0.00015612  0.16179254  0.34160850  1
  Te2-  Te142  1  -0.01298528  0.16977948  0.66385773  1
  Te2-  Te143  1  -0.00166255  0.50459747  0.00130743  1
  Te2-  Te144  1  0.00684619  0.49414630  0.32819465  1
  Te2-  Te145  1  -0.00296966  0.50035040  0.67274169  1
  Te2-  Te146  1  -0.00436790  0.84453886  -0.00883534  1
  Te2-  Te147  1  -0.00101740  0.84010848  0.33184540  1
  Te2-  Te148  1  0.01473166  0.83065409  0.67024466  1
  Te2-  Te149  1  0.33068409  0.16879315  0.00505913  1
  Te2-  Te150  1  0.33064795  0.16854570  0.34502049  1
  Te2-  Te151  1  0.33208639  0.17913793  0.65889852  1
  Te2-  Te152  1  0.33683062  0.49722970  0.00722667  1
  Te2-  Te153  1  0.32419019  0.49902082  0.32299438  1
  Te2-  Te154  1  0.33738601  0.49115778  0.67085440  1
  Te2-  Te155  1  0.33842175  0.83761972  0.01704160  1
  Te2-  Te156  1  0.33705926  0.83463599  0.31547623  1
  Te2-  Te157  1  0.31906789  0.82851283  0.67494594  1
  Te2-  Te158  1  0.66433194  0.16422266  -0.00176297  1
  Te2-  Te159  1  0.66903891  0.17537931  0.34210315  1
  Te2-  Te160  1  0.67910077  0.16772811  0.65865276  1
  Te2-  Te161  1  0.66681054  0.49815324  -0.00411241  1
  Te2-  Te162  1  0.66920494  0.49522994  0.33925314  1
  Te2-  Te163  1  0.66312039  0.49568528  0.66565825  1
  Te2-  Te164  1  0.66368519  0.84116232  -0.00204874  1
  Te2-  Te165  1  0.66274934  0.83246996  0.33597502  1
  Te2-  Te166  1  0.66578857  0.83891106  0.66550104  1
  Te2-  Te167  1  -0.00286555  -0.01495738  0.17092435  1
  Te2-  Te168  1  0.01436688  -0.00075710  0.49928568  1
  Te2-  Te169  1  0.00717595  -0.00350005  0.83716906  1
  Te2-  Te170  1  -0.00023464  0.33303825  0.16921732  1
  Te2-  Te171  1  0.00078081  0.32927391  0.50023836  1
  Te2-  Te172  1  -0.00380111  0.33194355  0.83092822  1
  Te2-  Te173  1  0.00078109  0.67878778  0.16208277  1
  Te2-  Te174  1  -0.01107091  0.66844725  0.50151245  1
  Te2-  Te175  1  -0.00224167  0.67570102  0.83419251  1
  Te2-  Te176  1  0.34023544  0.00073691  0.16851016  1
  Te2-  Te177  1  0.32608785  -0.00279174  0.49155944  1
  Te2-  Te178  1  0.33119321  0.01281712  0.83781374  1
  Te2-  Te179  1  0.33472060  0.33623751  0.16652976  1
  Te2-  Te180  1  0.32571740  0.33752649  0.50016268  1
  Te2-  Te181  1  0.33573353  0.32629573  0.83615227  1
  Te2-  Te182  1  0.32754585  0.66283565  0.16127894  1
  Te2-  Te183  1  0.34263092  0.67230627  0.49535758  1
  Te2-  Te184  1  0.33614817  0.66543114  0.84528437  1
  Te2-  Te185  1  0.66581599  0.00326313  0.17195829  1
  Te2-  Te186  1  0.64992352  0.00804420  0.50220054  1
  Te2-  Te187  1  0.66351842  -0.00355337  0.82657434  1
  Te2-  Te188  1  0.66291962  0.34164854  0.16412436  1
  Te2-  Te189  1  0.66763332  0.32823557  0.50138946  1
  Te2-  Te190  1  0.66446595  0.34032436  0.82902489  1
  Te2-  Te191  1  0.66937319  0.65558664  0.17354121  1
  Te2-  Te192  1  0.66373156  0.66152465  0.49737448  1
  Te2-  Te193  1  0.66522887  0.66960259  0.83449982  1
  Pb2+  Pb194  1  -0.00148418  0.66564538  0.33191439  1
  Pb2+  Pb195  1  0.66279759  0.83902759  0.50010979  1
  Pb2+  Pb196  1  0.00065634  0.00060806  0.66917395  1
  Pb2+  Pb197  1  -0.00104988  0.32528551  -0.00165316  1
  Pb2+  Pb198  1  0.16836755  0.33813721  0.82695055  1
  Pb2+  Pb199  1  0.00344357  0.15635150  0.16788481  1
  Pb2+  Pb200  1  0.84184311  0.83758210  0.67161788  1
  Pb2+  Pb201  1  0.49967989  0.17244329  0.34450137  1
  Pb2+  Pb202  1  0.66528038  0.66633927  0.66724950  1
  Pb2+  Pb203  1  0.00301490  0.49874845  0.49906140  1
  Pb2+  Pb204  1  0.49735816  0.67098459  0.16622393  1
  Pb2+  Pb205  1  0.33465001  0.50457950  0.49432535  1
  Pb2+  Pb206  1  0.16825964  0.33304093  0.17466917  1
  Pb2+  Pb207  1  0.16812723  0.49877493  0.00124121  1
  Pb2+  Pb208  1  0.32610071  0.66319766  0.67371598  1
  Pb2+  Pb209  1  0.33015790  0.84322253  0.84296043  1
  Pb2+  Pb210  1  0.66933490  0.17146916  0.17036881  1
  Pb2+  Pb211  1  0.83168657  0.83730719  0.32626384  1
  Pb2+  Pb212  1  0.17049069  0.83340648  0.32910188  1
  Pb2+  Pb213  1  0.49153013  0.83973493  0.66479485  1
  Pb2+  Pb214  1  0.66706056  0.16829870  0.82688509  1
  Pb2+  Pb215  1  0.83266341  0.50177660  -0.00138717  1
