# generated using pymatgen
data_In22Ag21Sn22Bi21(Te54Pb11)2
_symmetry_space_group_name_H-M   'P 1'
_cell_length_a   19.14829934
_cell_length_b   19.15278854
_cell_length_c   19.12023146
_cell_angle_alpha   89.99048428
_cell_angle_beta   89.97887434
_cell_angle_gamma   89.99400852
_symmetry_Int_Tables_number   1
_chemical_formula_structural   In22Ag21Sn22Bi21(Te54Pb11)2
_chemical_formula_sum   'In22 Ag21 Sn22 Bi21 Te108 Pb22'
_cell_volume   7012.21670906
_cell_formula_units_Z   1
loop_
 _symmetry_equiv_pos_site_id
 _symmetry_equiv_pos_as_xyz
  1  'x, y, z'
loop_
 _atom_type_symbol
 _atom_type_oxidation_number
  In3+  3.0
  Ag+  1.0
  Sn2+  2.0
  Bi3+  3.0
  Te2-  -2.0
  Pb2+  2.0
loop_
 _atom_site_type_symbol
 _atom_site_label
 _atom_site_symmetry_multiplicity
 _atom_site_fract_x
 _atom_site_fract_y
 _atom_site_fract_z
 _atom_site_occupancy
  In3+  In0  1  0.34627425  0.50046739  0.49735524  1
  In3+  In1  1  0.68753644  0.16501619  0.17335500  1
  In3+  In2  1  0.16756471  0.48882139  0.66370540  1
  In3+  In3  1  0.16870421  0.85266115  0.32525003  1
  In3+  In4  1  0.16893086  0.13197571  0.66659222  1
  In3+  In5  1  0.34572463  0.16400029  0.17591061  1
  In3+  In6  1  0.66794240  0.82350687  0.82272557  1
  In3+  In7  1  0.50697034  0.51100982  0.67248936  1
  In3+  In8  1  0.66810358  0.49753833  0.82869103  1
  In3+  In9  1  0.82445071  0.16878502  0.64366512  1
  In3+  In10  1  0.15215499  0.33441578  0.17804763  1
  In3+  In11  1  -0.01514085  -0.01596046  0.31961290  1
  In3+  In12  1  -0.01730988  0.33732753  0.66356543  1
  In3+  In13  1  0.81820036  0.66226736  0.17149850  1
  In3+  In14  1  0.34181644  0.32572755  0.66938407  1
  In3+  In15  1  0.81570327  0.83734646  0.33549142  1
  In3+  In16  1  0.67144307  0.33048375  0.65991337  1
  In3+  In17  1  0.00136149  0.33302777  0.01851744  1
  In3+  In18  1  0.48199291  -0.00110126  0.50241179  1
  In3+  In19  1  0.83481704  0.66967582  0.81462461  1
  In3+  In20  1  -0.00010926  0.68141935  0.00923601  1
  In3+  In21  1  -0.01689181  0.33458887  0.34422892  1
  Ag+  Ag22  1  0.81996860  0.35959917  0.48652561  1
  Ag+  Ag23  1  0.50667649  0.36573185  0.82570431  1
  Ag+  Ag24  1  0.49056216  0.00429488  0.13806524  1
  Ag+  Ag25  1  0.19349193  -0.00049406  0.18601849  1
  Ag+  Ag26  1  0.80093808  0.36547330  0.19732510  1
  Ag+  Ag27  1  0.32336546  0.68785305  0.33024975  1
  Ag+  Ag28  1  0.52995064  0.67665868  0.85640115  1
  Ag+  Ag29  1  0.46845194  0.63658716  0.14756187  1
  Ag+  Ag30  1  0.18280223  0.83269223  0.63528492  1
  Ag+  Ag31  1  0.83509837  0.81326122  0.63617812  1
  Ag+  Ag32  1  0.83083995  0.67414182  0.51230280  1
  Ag+  Ag33  1  0.48309401  0.82344182  0.66883628  1
  Ag+  Ag34  1  0.80161310  -0.03120082  0.18475681  1
  Ag+  Ag35  1  0.35506398  -0.01634716  0.34664396  1
  Ag+  Ag36  1  0.66331482  0.52355785  0.17000010  1
  Ag+  Ag37  1  0.36158428  -0.02731487  0.63830086  1
  Ag+  Ag38  1  0.68514749  0.33430151  0.30247108  1
  Ag+  Ag39  1  0.80930093  0.51612577  0.65531057  1
  Ag+  Ag40  1  0.83495945  -0.03430014  0.52890007  1
  Ag+  Ag41  1  0.50898383  0.13906037  0.02952415  1
  Ag+  Ag42  1  -0.01545129  0.81626728  0.17802066  1
  Sn2+  Sn43  1  0.17290535  0.68153197  0.17420577  1
  Sn2+  Sn44  1  0.83015234  -0.00605630  0.82821485  1
  Sn2+  Sn45  1  0.18072694  0.16933733  0.00502562  1
  Sn2+  Sn46  1  0.33618779  0.82623977  0.49784144  1
  Sn2+  Sn47  1  0.65949711  0.00609956  0.33815478  1
  Sn2+  Sn48  1  0.16130579  0.66758407  0.49748561  1
  Sn2+  Sn49  1  0.15484691  0.34054908  0.50194640  1
  Sn2+  Sn50  1  0.49651028  0.16721714  0.67362843  1
  Sn2+  Sn51  1  0.50546272  0.16768255  0.33394535  1
  Sn2+  Sn52  1  0.17126558  -0.00314631  0.83889030  1
  Sn2+  Sn53  1  0.50698353  0.83420178  -0.00061941  1
  Sn2+  Sn54  1  0.16736358  0.16375225  0.33178365  1
  Sn2+  Sn55  1  0.66354804  0.83958707  0.50968095  1
  Sn2+  Sn56  1  0.16679615  0.50297593  0.33551459  1
  Sn2+  Sn57  1  0.00483637  0.66310688  0.33374869  1
  Sn2+  Sn58  1  0.49844711  0.83016724  0.33025424  1
  Sn2+  Sn59  1  0.66078605  0.65711613  0.33326832  1
  Sn2+  Sn60  1  0.83556699  0.16564790  0.32886176  1
  Sn2+  Sn61  1  -0.00692976  0.50381232  0.50003069  1
  Sn2+  Sn62  1  0.66225733  0.16813948  0.83849457  1
  Sn2+  Sn63  1  0.82712013  0.50886928  0.34047825  1
  Sn2+  Sn64  1  0.66461915  -0.00132107  0.65605988  1
  Bi3+  Bi65  1  0.50312693  0.49991323  0.00070047  1
  Bi3+  Bi66  1  0.16104187  0.66839726  0.83102533  1
  Bi3+  Bi67  1  0.50405344  0.67262933  0.49664207  1
  Bi3+  Bi68  1  0.50271384  0.50105031  0.33477140  1
  Bi3+  Bi69  1  -0.00325423  0.49660379  0.83248521  1
  Bi3+  Bi70  1  0.50371225  -0.00727871  0.82377288  1
  Bi3+  Bi71  1  0.66537288  0.33348077  -0.00720437  1
  Bi3+  Bi72  1  0.00201607  0.16371773  0.16992974  1
  Bi3+  Bi73  1  -0.00059028  0.16761037  0.83179551  1
  Bi3+  Bi74  1  0.33482748  0.33117556  0.33625584  1
  Bi3+  Bi75  1  0.00073229  0.16686489  0.50165801  1
  Bi3+  Bi76  1  0.33733050  0.84056044  0.16925551  1
  Bi3+  Bi77  1  -0.00437228  0.00050899  0.66189497  1
  Bi3+  Bi78  1  -0.00039559  0.00492723  0.00614208  1
  Bi3+  Bi79  1  0.16867745  0.83504756  0.00416100  1
  Bi3+  Bi80  1  0.82953824  0.33274775  0.83647481  1
  Bi3+  Bi81  1  0.83022443  0.16864175  -0.00090226  1
  Bi3+  Bi82  1  0.32920011  0.66695974  0.65926064  1
  Bi3+  Bi83  1  -0.00099884  0.83481266  0.49686543  1
  Bi3+  Bi84  1  0.33384826  0.16479961  0.83436709  1
  Bi3+  Bi85  1  0.33738241  0.33169186  -0.00118059  1
  Te2-  Te86  1  0.16319365  0.16991158  0.16392360  1
  Te2-  Te87  1  0.16259901  0.17080104  0.50664761  1
  Te2-  Te88  1  0.16590728  0.16418549  0.83145309  1
  Te2-  Te89  1  0.16576435  0.49117564  0.16831757  1
  Te2-  Te90  1  0.15898958  0.50490503  0.50435744  1
  Te2-  Te91  1  0.16375091  0.50335152  0.82797364  1
  Te2-  Te92  1  0.17562016  0.84956562  0.16822337  1
  Te2-  Te93  1  0.16121019  0.83172112  0.48837869  1
  Te2-  Te94  1  0.16294613  0.83018618  0.84224700  1
  Te2-  Te95  1  0.49843992  0.15426763  0.17366383  1
  Te2-  Te96  1  0.50115949  0.15804281  0.50691730  1
  Te2-  Te97  1  0.49641377  0.15680675  0.82824078  1
  Te2-  Te98  1  0.50798843  0.49746823  0.16953784  1
  Te2-  Te99  1  0.50265969  0.50339943  0.50338817  1
  Te2-  Te100  1  0.50983684  0.51656399  0.83436498  1
  Te2-  Te101  1  0.49610146  0.85186321  0.16775228  1
  Te2-  Te102  1  0.50384258  0.83602491  0.50719983  1
  Te2-  Te103  1  0.51088153  0.82476022  0.82245239  1
  Te2-  Te104  1  0.84042682  0.16841025  0.16133759  1
  Te2-  Te105  1  0.84014522  0.17091774  0.49456604  1
  Te2-  Te106  1  0.83481476  0.16962011  0.83629193  1
  Te2-  Te107  1  0.82900923  0.50651692  0.16910187  1
  Te2-  Te108  1  0.83794395  0.50328549  0.50926239  1
  Te2-  Te109  1  0.83244731  0.49696857  0.82057455  1
  Te2-  Te110  1  0.83756138  0.82641349  0.18012257  1
  Te2-  Te111  1  0.83670813  0.82316123  0.48711442  1
  Te2-  Te112  1  0.82764222  0.82306675  0.83949278  1
  Te2-  Te113  1  0.16128848  0.00075979  0.00206536  1
  Te2-  Te114  1  0.16776197  0.00498464  0.32993036  1
  Te2-  Te115  1  0.15732608  -0.02047840  0.66868564  1
  Te2-  Te116  1  0.17188311  0.32893265  0.00141570  1
  Te2-  Te117  1  0.17346264  0.33232933  0.33253234  1
  Te2-  Te118  1  0.17979509  0.33720948  0.66181785  1
  Te2-  Te119  1  0.16098373  0.66874458  -0.00141524  1
  Te2-  Te120  1  0.17632926  0.65956615  0.33576759  1
  Te2-  Te121  1  0.16757801  0.68443821  0.66706912  1
  Te2-  Te122  1  0.50157244  -0.00384780  -0.01125241  1
  Te2-  Te123  1  0.49999659  0.00033724  0.35030033  1
  Te2-  Te124  1  0.50462406  -0.00717240  0.66158210  1
  Te2-  Te125  1  0.50096560  0.33991434  -0.01376789  1
  Te2-  Te126  1  0.49615686  0.33511704  0.33823265  1
  Te2-  Te127  1  0.49543450  0.34093253  0.67627018  1
  Te2-  Te128  1  0.49949873  0.66655570  0.00390290  1
  Te2-  Te129  1  0.49622048  0.66450272  0.33775235  1
  Te2-  Te130  1  0.49356449  0.67256443  0.65909164  1
  Te2-  Te131  1  0.83791856  0.00553494  -0.00206563  1
  Te2-  Te132  1  0.83380557  -0.00599608  0.32628864  1
  Te2-  Te133  1  0.83462198  0.01495811  0.66909595  1
  Te2-  Te134  1  0.83389280  0.33023096  -0.00148263  1
  Te2-  Te135  1  0.83108274  0.33675342  0.33815719  1
  Te2-  Te136  1  0.82976500  0.32691779  0.67422033  1
  Te2-  Te137  1  0.84421381  0.66591290  0.01477518  1
  Te2-  Te138  1  0.83577684  0.66311559  0.32530456  1
  Te2-  Te139  1  0.83308653  0.66210419  0.66174436  1
  Te2-  Te140  1  0.00235937  0.16962525  -0.00360677  1
  Te2-  Te141  1  0.00327983  0.17572786  0.33686895  1
  Te2-  Te142  1  0.00935541  0.16702509  0.66872992  1
  Te2-  Te143  1  -0.00164204  0.49086363  -0.00333695  1
  Te2-  Te144  1  -0.00006004  0.49166893  0.33643981  1
  Te2-  Te145  1  0.00940188  0.49548290  0.67098649  1
  Te2-  Te146  1  0.00411434  0.83803918  0.01236448  1
  Te2-  Te147  1  0.01210225  0.83330563  0.32616221  1
  Te2-  Te148  1  -0.01748961  0.83854743  0.66207057  1
  Te2-  Te149  1  0.34809413  0.17100816  -0.00153084  1
  Te2-  Te150  1  0.33516753  0.16932405  0.33204156  1
  Te2-  Te151  1  0.32729488  0.16944363  0.67081362  1
  Te2-  Te152  1  0.33680137  0.49728293  0.00032789  1
  Te2-  Te153  1  0.33697982  0.49458332  0.34018944  1
  Te2-  Te154  1  0.32620347  0.50519567  0.65745806  1
  Te2-  Te155  1  0.33439297  0.83446195  0.00273257  1
  Te2-  Te156  1  0.32963684  0.83807059  0.33378470  1
  Te2-  Te157  1  0.33159376  0.83102723  0.66137663  1
  Te2-  Te158  1  0.65942876  0.17009013  0.00085682  1
  Te2-  Te159  1  0.66745900  0.18094744  0.32855944  1
  Te2-  Te160  1  0.66627739  0.17316500  0.66969325  1
  Te2-  Te161  1  0.66463476  0.49698752  0.01597935  1
  Te2-  Te162  1  0.66363096  0.48805177  0.32073470  1
  Te2-  Te163  1  0.66493283  0.49516792  0.66894678  1
  Te2-  Te164  1  0.66575046  0.83255986  -0.00314577  1
  Te2-  Te165  1  0.66338752  0.83329322  0.33653062  1
  Te2-  Te166  1  0.68925148  0.83502951  0.67028514  1
  Te2-  Te167  1  -0.00151927  0.00524635  0.16937296  1
  Te2-  Te168  1  -0.01589826  0.00017822  0.49531572  1
  Te2-  Te169  1  -0.00080168  0.00397118  0.83268210  1
  Te2-  Te170  1  -0.00106386  0.33098669  0.17787074  1
  Te2-  Te171  1  -0.01103706  0.32987045  0.50616449  1
  Te2-  Te172  1  -0.00101790  0.33180583  0.82495049  1
  Te2-  Te173  1  0.01472177  0.67200127  0.16756981  1
  Te2-  Te174  1  -0.00949230  0.67317573  0.49398129  1
  Te2-  Te175  1  -0.00543788  0.66202699  0.83696228  1
  Te2-  Te176  1  0.34032834  0.00851461  0.17155975  1
  Te2-  Te177  1  0.32887452  -0.00147257  0.49722855  1
  Te2-  Te178  1  0.33598142  0.00204502  0.82820079  1
  Te2-  Te179  1  0.33531524  0.32367785  0.16532860  1
  Te2-  Te180  1  0.33292425  0.34001795  0.50321712  1
  Te2-  Te181  1  0.34135647  0.33152238  0.83062193  1
  Te2-  Te182  1  0.33140431  0.67154441  0.17955125  1
  Te2-  Te183  1  0.33609255  0.66363742  0.49382452  1
  Te2-  Te184  1  0.32455371  0.66597621  0.82848897  1
  Te2-  Te185  1  0.66340463  0.01193224  0.17150627  1
  Te2-  Te186  1  0.69053588  -0.00243911  0.49624429  1
  Te2-  Te187  1  0.66642583  0.00093238  0.82828336  1
  Te2-  Te188  1  0.66810655  0.31867972  0.15613643  1
  Te2-  Te189  1  0.67526708  0.33286532  0.50877574  1
  Te2-  Te190  1  0.66035288  0.33896980  0.83030938  1
  Te2-  Te191  1  0.66519531  0.67193872  0.17316342  1
  Te2-  Te192  1  0.67183876  0.66856772  0.49372426  1
  Te2-  Te193  1  0.67455957  0.66166547  0.83303778  1
  Pb2+  Pb194  1  0.67012775  0.00230999  -0.00065016  1
  Pb2+  Pb195  1  -0.00452019  0.83383098  0.83403479  1
  Pb2+  Pb196  1  0.67046807  0.66429931  0.00428030  1
  Pb2+  Pb197  1  0.67214881  0.50036781  0.49020256  1
  Pb2+  Pb198  1  0.33976273  0.50064830  0.82516421  1
  Pb2+  Pb199  1  0.33680434  0.83315776  0.82951094  1
  Pb2+  Pb200  1  0.50484592  0.32951480  0.50666866  1
  Pb2+  Pb201  1  0.67040664  0.16338424  0.49704533  1
  Pb2+  Pb202  1  0.66134535  0.66963767  0.66104359  1
  Pb2+  Pb203  1  0.66230712  0.84192442  0.16892984  1
  Pb2+  Pb204  1  0.33142525  0.66776469  0.00291206  1
  Pb2+  Pb205  1  0.00357675  0.66787329  0.66175677  1
  Pb2+  Pb206  1  -0.00521729  0.50592620  0.16956572  1
  Pb2+  Pb207  1  0.15457422  0.00109250  0.49741351  1
  Pb2+  Pb208  1  0.17014356  0.33148728  0.82846690  1
  Pb2+  Pb209  1  0.83022445  0.49885328  -0.00695521  1
  Pb2+  Pb210  1  0.33266332  0.16859527  0.50027180  1
  Pb2+  Pb211  1  0.16535904  0.49712313  0.00138555  1
  Pb2+  Pb212  1  0.83518223  0.83484373  0.00920909  1
  Pb2+  Pb213  1  0.32941696  0.00445770  0.00341025  1
  Pb2+  Pb214  1  0.33581921  0.49351836  0.17287650  1
  Pb2+  Pb215  1  0.50277663  0.32694452  0.16243094  1
