# generated using pymatgen
data_In22Ag21Sn22Bi21(Te54Pb11)2
_symmetry_space_group_name_H-M   'P 1'
_cell_length_a   19.13651885
_cell_length_b   19.12735520
_cell_length_c   19.12472555
_cell_angle_alpha   90.01219366
_cell_angle_beta   89.99254774
_cell_angle_gamma   89.99186434
_symmetry_Int_Tables_number   1
_chemical_formula_structural   In22Ag21Sn22Bi21(Te54Pb11)2
_chemical_formula_sum   'In22 Ag21 Sn22 Bi21 Te108 Pb22'
_cell_volume   7000.24200365
_cell_formula_units_Z   1
loop_
 _symmetry_equiv_pos_site_id
 _symmetry_equiv_pos_as_xyz
  1  'x, y, z'
loop_
 _atom_type_symbol
 _atom_type_oxidation_number
  In3+  3.0
  Ag+  1.0
  Sn2+  2.0
  Bi3+  3.0
  Te2-  -2.0
  Pb2+  2.0
loop_
 _atom_site_type_symbol
 _atom_site_label
 _atom_site_symmetry_multiplicity
 _atom_site_fract_x
 _atom_site_fract_y
 _atom_site_fract_z
 _atom_site_occupancy
  In3+  In0  1  0.14065037  0.17265925  0.66355355  1
  In3+  In1  1  0.15966018  0.50347807  -0.01864704  1
  In3+  In2  1  0.15774908  0.67045380  0.81428601  1
  In3+  In3  1  -0.01783739  0.64601383  0.33147099  1
  In3+  In4  1  0.15971993  0.49532166  0.66247456  1
  In3+  In5  1  0.35021600  0.83154282  0.83049905  1
  In3+  In6  1  0.67071850  0.34086028  0.66546318  1
  In3+  In7  1  0.82950827  0.17173629  0.64718870  1
  In3+  In8  1  0.67241164  0.17432055  0.84418208  1
  In3+  In9  1  0.67917387  0.68679339  0.66522866  1
  In3+  In10  1  0.33324059  0.33966981  0.34907861  1
  In3+  In11  1  0.35107346  0.17849298  0.82769619  1
  In3+  In12  1  0.33134957  0.66082115  0.33696828  1
  In3+  In13  1  0.69710998  0.84785936  0.83052579  1
  In3+  In14  1  0.68553517  0.00611353  0.65987875  1
  In3+  In15  1  0.83625088  0.00983350  0.50140629  1
  In3+  In16  1  0.83298022  0.83032430  -0.01864269  1
  In3+  In17  1  0.14725692  0.01391731  0.49876506  1
  In3+  In18  1  0.32376535  0.01010036  -0.00609365  1
  In3+  In19  1  0.67948990  0.82921477  0.48703990  1
  In3+  In20  1  0.15982443  0.65636824  0.16892890  1
  In3+  In21  1  0.50671226  0.84074855  0.33372501  1
  Ag+  Ag22  1  0.52408287  0.33189051  0.85749272  1
  Ag+  Ag23  1  0.68059965  0.00899348  0.35913456  1
  Ag+  Ag24  1  -0.03335431  0.19351742  0.49460202  1
  Ag+  Ag25  1  -0.02449602  -0.01561608  0.32554470  1
  Ag+  Ag26  1  0.36255476  0.30716352  0.01815048  1
  Ag+  Ag27  1  -0.02150955  0.51003826  0.82129732  1
  Ag+  Ag28  1  0.83549622  0.83383429  0.64885660  1
  Ag+  Ag29  1  -0.02809100  0.35621267  0.67091623  1
  Ag+  Ag30  1  0.69519163  0.83666910  0.18822761  1
  Ag+  Ag31  1  0.83315256  0.02125254  0.85565581  1
  Ag+  Ag32  1  0.69697814  0.30260537  0.03572326  1
  Ag+  Ag33  1  0.84108984  0.50035440  0.35417245  1
  Ag+  Ag34  1  0.85012865  0.66588277  0.50234177  1
  Ag+  Ag35  1  0.66689435  0.18825251  0.51532925  1
  Ag+  Ag36  1  0.52668344  0.31593417  0.49897283  1
  Ag+  Ag37  1  0.82713197  0.31173475  0.49553937  1
  Ag+  Ag38  1  -0.00150121  0.85706995  0.85604971  1
  Ag+  Ag39  1  0.33038486  0.64248097  0.64428560  1
  Ag+  Ag40  1  0.13932679  0.52022206  0.33870159  1
  Ag+  Ag41  1  -0.02194105  0.66369210  -0.02689278  1
  Ag+  Ag42  1  0.81955861  0.14445332  0.32904374  1
  Sn2+  Sn43  1  0.83451145  0.33808454  0.18780040  1
  Sn2+  Sn44  1  0.16495887  0.83269168  0.33521265  1
  Sn2+  Sn45  1  0.33624029  0.16817161  0.17101312  1
  Sn2+  Sn46  1  -0.00797455  0.49059183  0.50105398  1
  Sn2+  Sn47  1  -0.00095735  0.50154048  0.15388869  1
  Sn2+  Sn48  1  -0.00334244  0.32740092  0.34664991  1
  Sn2+  Sn49  1  0.84138172  0.83412027  0.33932793  1
  Sn2+  Sn50  1  0.83922350  0.50105501  0.65486302  1
  Sn2+  Sn51  1  0.83321099  0.66987476  0.17639568  1
  Sn2+  Sn52  1  0.67288972  0.50007312  0.49616413  1
  Sn2+  Sn53  1  0.16054630  0.82395447  -0.00580570  1
  Sn2+  Sn54  1  -0.00401661  0.83405724  0.16243027  1
  Sn2+  Sn55  1  0.32490952  0.49654743  0.16334077  1
  Sn2+  Sn56  1  0.51464555  0.16894728  0.33610703  1
  Sn2+  Sn57  1  0.16104086  0.66541451  0.49406610  1
  Sn2+  Sn58  1  0.83141050  0.49934218  -0.00130659  1
  Sn2+  Sn59  1  0.49969927  0.82758484  0.66459265  1
  Sn2+  Sn60  1  0.66944380  0.15457246  0.17567643  1
  Sn2+  Sn61  1  0.49351810  0.49228708  -0.00400928  1
  Sn2+  Sn62  1  0.83019313  0.00069224  0.17323540  1
  Sn2+  Sn63  1  0.50312456  0.17157795  0.65984281  1
  Sn2+  Sn64  1  0.33977250  0.83662901  0.50658291  1
  Bi3+  Bi65  1  0.66702727  -0.00325028  -0.00329532  1
  Bi3+  Bi66  1  0.32877266  0.66845815  0.00347359  1
  Bi3+  Bi67  1  0.16200225  0.33556705  0.49904142  1
  Bi3+  Bi68  1  0.50146814  0.66712857  0.16725080  1
  Bi3+  Bi69  1  0.00154339  0.83317755  0.49571884  1
  Bi3+  Bi70  1  0.49650752  0.66791051  0.50291476  1
  Bi3+  Bi71  1  0.67039745  0.33190082  0.33721503  1
  Bi3+  Bi72  1  0.32666806  0.83199810  0.16670480  1
  Bi3+  Bi73  1  0.16490878  0.17093551  0.33486333  1
  Bi3+  Bi74  1  0.66686049  0.49947735  0.83052662  1
  Bi3+  Bi75  1  0.33384404  -0.00275578  0.33197142  1
  Bi3+  Bi76  1  0.33549824  0.00064934  0.66840259  1
  Bi3+  Bi77  1  0.33362756  0.50083489  0.83561735  1
  Bi3+  Bi78  1  -0.00125903  0.17004812  0.18019242  1
  Bi3+  Bi79  1  0.50395267  0.50297344  0.33405003  1
  Bi3+  Bi80  1  0.16622596  0.32978271  0.83107344  1
  Bi3+  Bi81  1  0.33705154  0.32968720  0.67243431  1
  Bi3+  Bi82  1  0.67043319  0.66495763  -0.00545886  1
  Bi3+  Bi83  1  0.16281679  0.33663461  0.16664674  1
  Bi3+  Bi84  1  -0.00122052  -0.00401366  0.66242112  1
  Bi3+  Bi85  1  0.16198473  0.17126016  -0.00299631  1
  Te2-  Te86  1  0.16512728  0.16979226  0.16546780  1
  Te2-  Te87  1  0.16869054  0.16939515  0.49962853  1
  Te2-  Te88  1  0.16526464  0.16618057  0.83441717  1
  Te2-  Te89  1  0.16531410  0.49883413  0.18663350  1
  Te2-  Te90  1  0.16298937  0.49740570  0.48938791  1
  Te2-  Te91  1  0.17085114  0.49705655  0.82711727  1
  Te2-  Te92  1  0.16532639  0.82737189  0.16548077  1
  Te2-  Te93  1  0.16660533  0.83114653  0.49841034  1
  Te2-  Te94  1  0.14583310  0.82599634  0.83581277  1
  Te2-  Te95  1  0.50012688  0.16872347  0.16841219  1
  Te2-  Te96  1  0.51599509  0.16774842  0.49568572  1
  Te2-  Te97  1  0.51205653  0.18045715  0.82848467  1
  Te2-  Te98  1  0.50076465  0.50476354  0.16881228  1
  Te2-  Te99  1  0.50159872  0.50638656  0.49616432  1
  Te2-  Te100  1  0.50011605  0.48569214  0.83219447  1
  Te2-  Te101  1  0.49141636  0.82922857  0.17354951  1
  Te2-  Te102  1  0.50670838  0.83014166  0.49679661  1
  Te2-  Te103  1  0.50066774  0.83238842  0.83192720  1
  Te2-  Te104  1  0.83664202  0.16882369  0.18027522  1
  Te2-  Te105  1  0.82027105  0.16251694  0.49267320  1
  Te2-  Te106  1  0.82681442  0.16612066  0.83229481  1
  Te2-  Te107  1  0.83772080  0.50316088  0.16050211  1
  Te2-  Te108  1  0.83243410  0.51391512  0.49977190  1
  Te2-  Te109  1  0.83160978  0.49823461  0.82833552  1
  Te2-  Te110  1  0.83982808  0.83074879  0.17357040  1
  Te2-  Te111  1  0.83150436  0.81762258  0.49916200  1
  Te2-  Te112  1  0.84854947  0.83024683  0.82964105  1
  Te2-  Te113  1  0.16606939  0.00212472  0.00002935  1
  Te2-  Te114  1  0.17219244  0.00589900  0.34224371  1
  Te2-  Te115  1  0.16724783  0.00621813  0.66059459  1
  Te2-  Te116  1  0.16442513  0.33732002  0.00052211  1
  Te2-  Te117  1  0.17123430  0.33184728  0.33232966  1
  Te2-  Te118  1  0.17127818  0.33281515  0.66545255  1
  Te2-  Te119  1  0.16774987  0.65889933  0.01502871  1
  Te2-  Te120  1  0.17729239  0.66389518  0.33164941  1
  Te2-  Te121  1  0.17926796  0.66099636  0.66293384  1
  Te2-  Te122  1  0.50036976  0.00052024  -0.00492069  1
  Te2-  Te123  1  0.49628199  -0.00110578  0.33323833  1
  Te2-  Te124  1  0.49726705  -0.00269183  0.66774147  1
  Te2-  Te125  1  0.50386354  0.33766203  0.00379293  1
  Te2-  Te126  1  0.50411434  0.33724702  0.34699092  1
  Te2-  Te127  1  0.50044132  0.32882411  0.65000398  1
  Te2-  Te128  1  0.50048155  0.66403485  0.00173441  1
  Te2-  Te129  1  0.49765889  0.67035002  0.33380561  1
  Te2-  Te130  1  0.48044774  0.66898008  0.66534250  1
  Te2-  Te131  1  0.83159627  -0.00983563  0.00083197  1
  Te2-  Te132  1  0.82981105  -0.00196037  0.34100562  1
  Te2-  Te133  1  0.83481551  -0.01467741  0.65651410  1
  Te2-  Te134  1  0.83377814  0.33711823  0.00242087  1
  Te2-  Te135  1  0.83116203  0.34674243  0.34651147  1
  Te2-  Te136  1  0.82766712  0.32676349  0.65050116  1
  Te2-  Te137  1  0.83106336  0.66991240  0.00290552  1
  Te2-  Te138  1  0.83191293  0.65864569  0.33997713  1
  Te2-  Te139  1  0.82882599  0.67048380  0.65585503  1
  Te2-  Te140  1  0.00055649  0.16508109  0.00480065  1
  Te2-  Te141  1  0.00376329  0.17127557  0.34479977  1
  Te2-  Te142  1  -0.01559824  0.15656889  0.64579062  1
  Te2-  Te143  1  0.00420406  0.51333540  -0.00443502  1
  Te2-  Te144  1  -0.00661104  0.49623770  0.33356952  1
  Te2-  Te145  1  0.00357815  0.50074106  0.67288298  1
  Te2-  Te146  1  -0.00747659  0.81713474  0.00077203  1
  Te2-  Te147  1  0.00397910  0.83868857  0.33485831  1
  Te2-  Te148  1  -0.00902001  0.83399673  0.65703513  1
  Te2-  Te149  1  0.32518782  0.16538031  -0.00319927  1
  Te2-  Te150  1  0.33449243  0.16370888  0.33009350  1
  Te2-  Te151  1  0.33813281  0.16344792  0.66842556  1
  Te2-  Te152  1  0.32479802  0.50571974  -0.00233930  1
  Te2-  Te153  1  0.34140968  0.50033945  0.33082427  1
  Te2-  Te154  1  0.32862132  0.49572041  0.67217449  1
  Te2-  Te155  1  0.32763521  0.83226383  -0.00029133  1
  Te2-  Te156  1  0.33147519  0.83482997  0.33219319  1
  Te2-  Te157  1  0.32974242  0.83973349  0.67526432  1
  Te2-  Te158  1  0.66691460  0.16296177  0.00126220  1
  Te2-  Te159  1  0.67158239  0.15799509  0.33161346  1
  Te2-  Te160  1  0.67352414  0.15753832  0.66045296  1
  Te2-  Te161  1  0.66705047  0.50373173  -0.00667443  1
  Te2-  Te162  1  0.66757510  0.50080752  0.33109086  1
  Te2-  Te163  1  0.67126861  0.49539923  0.66690956  1
  Te2-  Te164  1  0.67127480  0.83035527  -0.01410399  1
  Te2-  Te165  1  0.66401589  0.84732058  0.33308678  1
  Te2-  Te166  1  0.67320506  0.83788240  0.67722025  1
  Te2-  Te167  1  -0.00290376  0.00623330  0.17800504  1
  Te2-  Te168  1  -0.00615007  -0.00371855  0.49139400  1
  Te2-  Te169  1  -0.01120724  0.00287534  0.82795897  1
  Te2-  Te170  1  0.00069035  0.33208497  0.16913161  1
  Te2-  Te171  1  0.00217494  0.33550328  0.51682872  1
  Te2-  Te172  1  0.00424326  0.33403350  0.81882624  1
  Te2-  Te173  1  0.00332647  0.66636430  0.18144377  1
  Te2-  Te174  1  0.00077026  0.66657578  0.48757855  1
  Te2-  Te175  1  0.00822370  0.65410938  0.82870337  1
  Te2-  Te176  1  0.33276018  -0.00257318  0.16538047  1
  Te2-  Te177  1  0.33399020  -0.00310067  0.50063666  1
  Te2-  Te178  1  0.33265979  -0.00776677  0.83400072  1
  Te2-  Te179  1  0.32637256  0.33388317  0.15853834  1
  Te2-  Te180  1  0.32768236  0.33260837  0.50743598  1
  Te2-  Te181  1  0.32855509  0.33660892  0.83376974  1
  Te2-  Te182  1  0.33505967  0.66832722  0.16939760  1
  Te2-  Te183  1  0.33239169  0.67244675  0.49761537  1
  Te2-  Te184  1  0.32150309  0.66998721  0.84193222  1
  Te2-  Te185  1  0.67132928  -0.01281627  0.15697232  1
  Te2-  Te186  1  0.67490700  -0.01442926  0.50527758  1
  Te2-  Te187  1  0.68140379  0.00202433  0.83155918  1
  Te2-  Te188  1  0.66862953  0.33067019  0.17533272  1
  Te2-  Te189  1  0.67474237  0.33627830  0.49992500  1
  Te2-  Te190  1  0.66677776  0.33143869  0.82171090  1
  Te2-  Te191  1  0.66443357  0.68357799  0.16178186  1
  Te2-  Te192  1  0.65888835  0.67417676  0.50825475  1
  Te2-  Te193  1  0.66270041  0.66179270  0.82727772  1
  Pb2+  Pb194  1  0.83443823  0.16586619  0.00966322  1
  Pb2+  Pb195  1  0.50312001  0.49678654  0.66374418  1
  Pb2+  Pb196  1  0.50747777  0.00732824  0.82972256  1
  Pb2+  Pb197  1  0.49906280  0.83196458  0.00326959  1
  Pb2+  Pb198  1  0.66588974  0.67135965  0.33442466  1
  Pb2+  Pb199  1  0.16352417  -0.00396711  0.17360026  1
  Pb2+  Pb200  1  0.50572643  -0.00008368  0.16649849  1
  Pb2+  Pb201  1  0.49387254  0.65972252  0.83194476  1
  Pb2+  Pb202  1  -0.00082435  0.34178004  -0.00690831  1
  Pb2+  Pb203  1  0.00200889  0.66714804  0.66042388  1
  Pb2+  Pb204  1  0.16064309  0.83352106  0.66568782  1
  Pb2+  Pb205  1  0.33017719  0.50111021  0.49964589  1
  Pb2+  Pb206  1  0.67231395  0.50752934  0.16277549  1
  Pb2+  Pb207  1  0.50485046  0.00227502  0.50107802  1
  Pb2+  Pb208  1  0.83469688  0.33219383  0.82894830  1
  Pb2+  Pb209  1  -0.00163302  -0.01105926  0.00361813  1
  Pb2+  Pb210  1  0.16303307  -0.00417968  0.83002085  1
  Pb2+  Pb211  1  0.34024907  0.16520610  0.49821114  1
  Pb2+  Pb212  1  0.83527196  0.66497127  0.82758310  1
  Pb2+  Pb213  1  0.49627826  0.17138525  -0.00275831  1
  Pb2+  Pb214  1  -0.00288837  0.16824286  0.82142275  1
  Pb2+  Pb215  1  0.49587181  0.33652512  0.17698012  1
