# generated using pymatgen
data_In22Ag21Sn22Bi21(Te54Pb11)2
_symmetry_space_group_name_H-M   'P 1'
_cell_length_a   19.15585678
_cell_length_b   19.15093738
_cell_length_c   19.13880037
_cell_angle_alpha   90.00745076
_cell_angle_beta   90.00194468
_cell_angle_gamma   90.00254770
_symmetry_Int_Tables_number   1
_chemical_formula_structural   In22Ag21Sn22Bi21(Te54Pb11)2
_chemical_formula_sum   'In22 Ag21 Sn22 Bi21 Te108 Pb22'
_cell_volume   7021.11886728
_cell_formula_units_Z   1
loop_
 _symmetry_equiv_pos_site_id
 _symmetry_equiv_pos_as_xyz
  1  'x, y, z'
loop_
 _atom_type_symbol
 _atom_type_oxidation_number
  In3+  3.0
  Ag+  1.0
  Sn2+  2.0
  Bi3+  3.0
  Te2-  -2.0
  Pb2+  2.0
loop_
 _atom_site_type_symbol
 _atom_site_label
 _atom_site_symmetry_multiplicity
 _atom_site_fract_x
 _atom_site_fract_y
 _atom_site_fract_z
 _atom_site_occupancy
  In3+  In0  1  0.16526927  0.13574913  0.00620725  1
  In3+  In1  1  0.50257918  -0.02024540  0.16153056  1
  In3+  In2  1  0.00378701  -0.01466673  0.33250358  1
  In3+  In3  1  -0.00302335  0.50814174  0.50572698  1
  In3+  In4  1  0.49896973  0.82764919  0.02115883  1
  In3+  In5  1  0.82190884  -0.00821225  0.50682314  1
  In3+  In6  1  0.83930353  0.51426936  0.33129278  1
  In3+  In7  1  0.50816391  0.17228090  -0.00680072  1
  In3+  In8  1  0.52297036  0.49936426  0.32968770  1
  In3+  In9  1  0.33262099  0.33523319  0.32132044  1
  In3+  In10  1  0.01202110  -0.00543625  0.00790976  1
  In3+  In11  1  -0.00615075  -0.00216551  0.68557176  1
  In3+  In12  1  0.32497494  0.29726369  0.00321844  1
  In3+  In13  1  0.66971507  -0.00928234  0.34001557  1
  In3+  In14  1  0.32878551  0.69343846  0.33610654  1
  In3+  In15  1  0.83531475  0.13255824  -0.00551910  1
  In3+  In16  1  0.51791674  0.33256174  0.15877401  1
  In3+  In17  1  0.68555807  0.67351199  0.00534231  1
  In3+  In18  1  0.82953001  0.16628477  0.31045187  1
  In3+  In19  1  0.51114556  0.67918043  0.81588854  1
  In3+  In20  1  0.83385333  0.67299053  0.81916223  1
  In3+  In21  1  0.83953901  0.35612199  0.16070053  1
  Ag+  Ag22  1  -0.02512999  0.64789659  0.65532063  1
  Ag+  Ag23  1  0.66368643  0.83215903  0.51480527  1
  Ag+  Ag24  1  0.84677429  0.83011471  0.02132421  1
  Ag+  Ag25  1  0.86087368  0.68052627  0.16605719  1
  Ag+  Ag26  1  0.35085032  -0.01998684  0.69201575  1
  Ag+  Ag27  1  0.68500839  0.83701172  0.15191047  1
  Ag+  Ag28  1  0.35964332  -0.00435850  -0.01460335  1
  Ag+  Ag29  1  0.36088157  -0.00089051  0.33154823  1
  Ag+  Ag30  1  -0.01895881  0.81713393  0.18225127  1
  Ag+  Ag31  1  0.14368147  0.83229135  0.02227451  1
  Ag+  Ag32  1  0.83826195  0.84579783  0.68231235  1
  Ag+  Ag33  1  0.68850302  0.52266186  0.85588250  1
  Ag+  Ag34  1  0.18270606  0.84519208  0.31668382  1
  Ag+  Ag35  1  0.84160306  -0.02718927  0.85330902  1
  Ag+  Ag36  1  0.63852597  -0.03094483  0.69203378  1
  Ag+  Ag37  1  0.50542505  0.52338906  0.69262270  1
  Ag+  Ag38  1  0.53702707  0.85743243  0.68198933  1
  Ag+  Ag39  1  -0.02853518  0.35907958  0.68332576  1
  Ag+  Ag40  1  -0.00473258  0.52568556  0.14886891  1
  Ag+  Ag41  1  0.52780145  0.14753280  0.66080635  1
  Ag+  Ag42  1  0.14584415  -0.02078723  0.16675615  1
  Sn2+  Sn43  1  0.16145285  0.50502235  0.32979152  1
  Sn2+  Sn44  1  0.32105798  0.49392526  0.16842063  1
  Sn2+  Sn45  1  -0.00083470  0.16663524  0.49903701  1
  Sn2+  Sn46  1  0.33755222  0.83897495  0.50325378  1
  Sn2+  Sn47  1  0.66104915  0.67919573  0.32461873  1
  Sn2+  Sn48  1  0.66700753  0.51027285  0.51026274  1
  Sn2+  Sn49  1  0.66935067  0.67240917  0.66463496  1
  Sn2+  Sn50  1  0.16029644  0.67170418  0.50686585  1
  Sn2+  Sn51  1  0.50061970  0.50386050  -0.00489541  1
  Sn2+  Sn52  1  0.83929436  0.32696957  0.49573474  1
  Sn2+  Sn53  1  0.66144564  -0.00262571  -0.00460841  1
  Sn2+  Sn54  1  0.16806351  -0.00768232  0.48964760  1
  Sn2+  Sn55  1  0.83892284  0.51356052  -0.00081138  1
  Sn2+  Sn56  1  -0.00264415  0.67460571  -0.00223963  1
  Sn2+  Sn57  1  0.33457754  0.15812079  0.50556205  1
  Sn2+  Sn58  1  -0.00140434  0.16933186  0.82849385  1
  Sn2+  Sn59  1  0.16082755  0.67161408  0.83408602  1
  Sn2+  Sn60  1  0.15911633  0.33551360  0.16340008  1
  Sn2+  Sn61  1  -0.00570196  0.83916139  0.49758873  1
  Sn2+  Sn62  1  0.50994185  -0.00127870  0.82842611  1
  Sn2+  Sn63  1  0.83065362  0.33621545  0.83838451  1
  Sn2+  Sn64  1  0.50037581  0.83433887  0.34566782  1
  Bi3+  Bi65  1  0.49999348  0.66648097  0.49499769  1
  Bi3+  Bi66  1  0.50103238  0.33155699  0.50122237  1
  Bi3+  Bi67  1  0.00019356  0.83266358  0.83150219  1
  Bi3+  Bi68  1  0.66911090  0.16973484  0.83184257  1
  Bi3+  Bi69  1  0.17032115  0.66950555  0.16912786  1
  Bi3+  Bi70  1  0.16136324  0.15824606  0.33037295  1
  Bi3+  Bi71  1  0.33569651  0.33366677  0.66655394  1
  Bi3+  Bi72  1  0.32834443  0.83726157  0.16635732  1
  Bi3+  Bi73  1  0.83325427  0.15983148  0.67024218  1
  Bi3+  Bi74  1  -0.00014728  0.33089630  0.33735954  1
  Bi3+  Bi75  1  0.15959901  0.83795694  0.66191846  1
  Bi3+  Bi76  1  0.49806460  0.65622709  0.16360124  1
  Bi3+  Bi77  1  -0.00064965  0.16417561  0.16423825  1
  Bi3+  Bi78  1  0.33708426  0.50211614  0.83392588  1
  Bi3+  Bi79  1  0.33221606  0.67280843  0.00204497  1
  Bi3+  Bi80  1  0.49765306  0.33343600  0.83193526  1
  Bi3+  Bi81  1  0.49919205  -0.00340334  0.49958020  1
  Bi3+  Bi82  1  0.83141790  0.83599305  0.33209108  1
  Bi3+  Bi83  1  0.16408489  0.16520623  0.66630480  1
  Bi3+  Bi84  1  0.66266620  0.33664112  0.66568276  1
  Bi3+  Bi85  1  0.16667485  0.33228412  0.83514912  1
  Te2-  Te86  1  0.16122631  0.16834057  0.16304753  1
  Te2-  Te87  1  0.16437293  0.16088879  0.49682182  1
  Te2-  Te88  1  0.16386330  0.16884085  0.84045547  1
  Te2-  Te89  1  0.14945519  0.50493294  0.17005523  1
  Te2-  Te90  1  0.16199516  0.50324772  0.49725320  1
  Te2-  Te91  1  0.16968281  0.49940277  0.83294099  1
  Te2-  Te92  1  0.16844097  0.83275156  0.16968967  1
  Te2-  Te93  1  0.16271168  0.83228385  0.50089800  1
  Te2-  Te94  1  0.16315502  0.83426411  0.82791534  1
  Te2-  Te95  1  0.49895441  0.18194038  0.16260172  1
  Te2-  Te96  1  0.50270752  0.16563505  0.50698764  1
  Te2-  Te97  1  0.50406784  0.16838436  0.83051196  1
  Te2-  Te98  1  0.49843806  0.49139363  0.16941738  1
  Te2-  Te99  1  0.50222925  0.49951924  0.48611140  1
  Te2-  Te100  1  0.49919147  0.49771487  0.83632433  1
  Te2-  Te101  1  0.49344797  0.82232454  0.17885144  1
  Te2-  Te102  1  0.50769833  0.83038375  0.50245436  1
  Te2-  Te103  1  0.50163962  0.83088454  0.82105911  1
  Te2-  Te104  1  0.83313658  0.16419536  0.15509823  1
  Te2-  Te105  1  0.83746350  0.15962180  0.50810240  1
  Te2-  Te106  1  0.83236651  0.17265138  0.83489637  1
  Te2-  Te107  1  0.84463585  0.50730412  0.17159831  1
  Te2-  Te108  1  0.83553197  0.49810533  0.49235773  1
  Te2-  Te109  1  0.83146212  0.50503612  0.83319418  1
  Te2-  Te110  1  0.83359777  0.82782870  0.16892108  1
  Te2-  Te111  1  0.82704706  0.83783186  0.49220641  1
  Te2-  Te112  1  0.83618976  0.82664109  0.83178478  1
  Te2-  Te113  1  0.16540941  -0.01482852  0.00991693  1
  Te2-  Te114  1  0.15687822  -0.00304229  0.32014942  1
  Te2-  Te115  1  0.15459248  0.00381354  0.66328908  1
  Te2-  Te116  1  0.16864085  0.33705573  -0.00296143  1
  Te2-  Te117  1  0.16441692  0.32755937  0.33039203  1
  Te2-  Te118  1  0.17010738  0.32884914  0.66996129  1
  Te2-  Te119  1  0.16909722  0.68172354  0.00016364  1
  Te2-  Te120  1  0.17281500  0.67708028  0.33452646  1
  Te2-  Te121  1  0.16641986  0.67253291  0.66798955  1
  Te2-  Te122  1  0.50550086  0.00146420  0.00039263  1
  Te2-  Te123  1  0.51098280  0.00211493  0.33439465  1
  Te2-  Te124  1  0.49467388  0.00322469  0.66204407  1
  Te2-  Te125  1  0.49093269  0.33149320  -0.00042148  1
  Te2-  Te126  1  0.49336007  0.33670264  0.33485444  1
  Te2-  Te127  1  0.49805686  0.33237499  0.66623326  1
  Te2-  Te128  1  0.49378011  0.67128674  0.00108633  1
  Te2-  Te129  1  0.49215375  0.65804959  0.33008529  1
  Te2-  Te130  1  0.50353033  0.66759633  0.66099207  1
  Te2-  Te131  1  0.82047732  -0.01844896  -0.00149864  1
  Te2-  Te132  1  0.83096519  0.00565841  0.33738956  1
  Te2-  Te133  1  0.83997496  -0.00356399  0.65886450  1
  Te2-  Te134  1  0.83279015  0.34394788  0.00425259  1
  Te2-  Te135  1  0.83625103  0.32249944  0.32860145  1
  Te2-  Te136  1  0.82848533  0.32924253  0.66690724  1
  Te2-  Te137  1  0.83660521  0.67664144  0.01307595  1
  Te2-  Te138  1  0.83312165  0.66856335  0.32010703  1
  Te2-  Te139  1  0.83120638  0.67194368  0.66651793  1
  Te2-  Te140  1  -0.00315408  0.15907206  0.00007781  1
  Te2-  Te141  1  -0.00371774  0.16858574  0.33021065  1
  Te2-  Te142  1  -0.00045786  0.16021179  0.66705681  1
  Te2-  Te143  1  -0.00204208  0.50264446  0.00293166  1
  Te2-  Te144  1  -0.00688734  0.49385354  0.34197226  1
  Te2-  Te145  1  -0.00198246  0.50160312  0.66020233  1
  Te2-  Te146  1  -0.00335761  0.83998461  -0.00558746  1
  Te2-  Te147  1  -0.00467056  0.83250018  0.32749201  1
  Te2-  Te148  1  -0.00743401  0.84285310  0.66525086  1
  Te2-  Te149  1  0.32507291  0.14284299  0.00263459  1
  Te2-  Te150  1  0.32364461  0.16710353  0.33702288  1
  Te2-  Te151  1  0.32338488  0.17126400  0.66433188  1
  Te2-  Te152  1  0.33500573  0.50914288  -0.00037842  1
  Te2-  Te153  1  0.31982205  0.48969727  0.32796806  1
  Te2-  Te154  1  0.34334112  0.49881466  0.66897870  1
  Te2-  Te155  1  0.34556289  0.84167841  0.00344220  1
  Te2-  Te156  1  0.33050475  0.84707820  0.33329603  1
  Te2-  Te157  1  0.32440261  0.83920376  0.66160590  1
  Te2-  Te158  1  0.67167431  0.16790161  -0.00479612  1
  Te2-  Te159  1  0.66997895  0.16300950  0.33169749  1
  Te2-  Te160  1  0.67175752  0.16786286  0.66878785  1
  Te2-  Te161  1  0.66842561  0.50857809  0.00028370  1
  Te2-  Te162  1  0.67668326  0.50395861  0.33387876  1
  Te2-  Te163  1  0.65442302  0.50007435  0.66595826  1
  Te2-  Te164  1  0.65286734  0.82491168  0.00538542  1
  Te2-  Te165  1  0.66856956  0.83649339  0.32229830  1
  Te2-  Te166  1  0.68316779  0.83026892  0.66286703  1
  Te2-  Te167  1  -0.00128654  0.00245603  0.16181943  1
  Te2-  Te168  1  -0.00013707  -0.00221003  0.48576932  1
  Te2-  Te169  1  -0.01185659  0.00001864  0.84046429  1
  Te2-  Te170  1  -0.00768412  0.32850047  0.17056994  1
  Te2-  Te171  1  -0.00211911  0.33396095  0.49984193  1
  Te2-  Te172  1  0.00162074  0.33474536  0.82572257  1
  Te2-  Te173  1  0.00922378  0.67222770  0.16356744  1
  Te2-  Te174  1  -0.00249883  0.66586952  0.50845628  1
  Te2-  Te175  1  -0.00693364  0.67105897  0.82840040  1
  Te2-  Te176  1  0.35305991  -0.00418921  0.18081294  1
  Te2-  Te177  1  0.33796528  -0.00235549  0.48479850  1
  Te2-  Te178  1  0.33566716  0.00013947  0.83511075  1
  Te2-  Te179  1  0.32535084  0.33337887  0.16406533  1
  Te2-  Te180  1  0.33826045  0.33047807  0.50041308  1
  Te2-  Te181  1  0.33266414  0.33639944  0.83687983  1
  Te2-  Te182  1  0.33420790  0.66490095  0.16889731  1
  Te2-  Te183  1  0.33584002  0.66838492  0.49150412  1
  Te2-  Te184  1  0.33506397  0.66435609  0.83756932  1
  Te2-  Te185  1  0.65619928  -0.01259410  0.16455449  1
  Te2-  Te186  1  0.66511203  -0.01350880  0.49655936  1
  Te2-  Te187  1  0.67103501  0.00599044  0.82915851  1
  Te2-  Te188  1  0.67113502  0.33485125  0.16641749  1
  Te2-  Te189  1  0.66562700  0.33674525  0.50221093  1
  Te2-  Te190  1  0.66120467  0.33590966  0.82963245  1
  Te2-  Te191  1  0.65753576  0.67756938  0.16040956  1
  Te2-  Te192  1  0.66047981  0.67478013  0.49128036  1
  Te2-  Te193  1  0.66492963  0.66575881  0.83845666  1
  Pb2+  Pb194  1  0.66723846  0.33287834  0.33466159  1
  Pb2+  Pb195  1  0.66280802  0.15472177  0.16409701  1
  Pb2+  Pb196  1  0.16633814  0.33089761  0.49930028  1
  Pb2+  Pb197  1  0.16869589  0.50975611  0.00372933  1
  Pb2+  Pb198  1  0.82980337  -0.00664118  0.16860939  1
  Pb2+  Pb199  1  0.33167652  0.16008583  0.17034564  1
  Pb2+  Pb200  1  0.33613737  0.16473813  0.83189518  1
  Pb2+  Pb201  1  -0.00130152  0.32896694  -0.00241910  1
  Pb2+  Pb202  1  0.82355497  0.50165143  0.66388007  1
  Pb2+  Pb203  1  0.17127973  0.50190768  0.66413602  1
  Pb2+  Pb204  1  0.00501885  0.66432410  0.33666336  1
  Pb2+  Pb205  1  0.49362225  0.16798767  0.33614939  1
  Pb2+  Pb206  1  0.67009399  0.83542388  0.83455640  1
  Pb2+  Pb207  1  0.33419874  0.49856180  0.49496570  1
  Pb2+  Pb208  1  -0.00150960  0.50339129  0.83456058  1
  Pb2+  Pb209  1  0.33351842  0.83367895  0.83397509  1
  Pb2+  Pb210  1  0.33578987  0.67328620  0.66420110  1
  Pb2+  Pb211  1  0.16350770  0.00064583  0.83309410  1
  Pb2+  Pb212  1  0.67378537  0.51090808  0.16459094  1
  Pb2+  Pb213  1  0.82799175  0.66909571  0.49256938  1
  Pb2+  Pb214  1  0.67060755  0.15867812  0.50078733  1
  Pb2+  Pb215  1  0.66427779  0.33688602  -0.00336310  1
