# generated using pymatgen
data_In22Ag21Sn22Bi21(Te54Pb11)2
_symmetry_space_group_name_H-M   'P 1'
_cell_length_a   19.08422918
_cell_length_b   19.07575133
_cell_length_c   19.07089379
_cell_angle_alpha   89.99767630
_cell_angle_beta   90.00707775
_cell_angle_gamma   89.99805292
_symmetry_Int_Tables_number   1
_chemical_formula_structural   In22Ag21Sn22Bi21(Te54Pb11)2
_chemical_formula_sum   'In22 Ag21 Sn22 Bi21 Te108 Pb22'
_cell_volume   6942.68272928
_cell_formula_units_Z   1
loop_
 _symmetry_equiv_pos_site_id
 _symmetry_equiv_pos_as_xyz
  1  'x, y, z'
loop_
 _atom_type_symbol
 _atom_type_oxidation_number
  In3+  3.0
  Ag+  1.0
  Sn2+  2.0
  Bi3+  3.0
  Te2-  -2.0
  Pb2+  2.0
loop_
 _atom_site_type_symbol
 _atom_site_label
 _atom_site_symmetry_multiplicity
 _atom_site_fract_x
 _atom_site_fract_y
 _atom_site_fract_z
 _atom_site_occupancy
  In3+  In0  1  0.83553661  0.82198822  -0.01242510  1
  In3+  In1  1  0.34691430  0.66287866  0.67420044  1
  In3+  In2  1  0.66308121  -0.02423751  0.67059018  1
  In3+  In3  1  0.50306693  0.00856824  0.48376823  1
  In3+  In4  1  0.66818150  0.35642938  -0.00198395  1
  In3+  In5  1  0.82858894  0.66666582  0.83136163  1
  In3+  In6  1  0.66542693  0.01372821  0.31400920  1
  In3+  In7  1  0.33258068  0.15860544  0.16381944  1
  In3+  In8  1  0.66104322  -0.02180480  -0.00157940  1
  In3+  In9  1  0.00083949  -0.00797050  0.00396485  1
  In3+  In10  1  0.18462254  -0.01379489  0.16939901  1
  In3+  In11  1  0.49402685  0.00028170  0.83435650  1
  In3+  In12  1  0.50712261  0.66634290  0.49106280  1
  In3+  In13  1  0.64793451  0.51007557  0.82921094  1
  In3+  In14  1  0.83782168  0.67887821  0.51380733  1
  In3+  In15  1  0.66562891  0.50653147  0.15147454  1
  In3+  In16  1  0.00824412  0.66694902  0.67805860  1
  In3+  In17  1  0.15332430  0.66225734  0.83241487  1
  In3+  In18  1  0.17511923  0.35321219  0.16058405  1
  In3+  In19  1  0.49617948  0.82907168  0.67587524  1
  In3+  In20  1  0.84998951  0.51741447  -0.00246478  1
  In3+  In21  1  0.49994317  0.66665377  0.83726985  1
  Ag+  Ag22  1  0.32619992  0.81643324  0.83626102  1
  Ag+  Ag23  1  0.85208071  0.81106742  0.66567421  1
  Ag+  Ag24  1  0.66819362  0.66578672  0.66691297  1
  Ag+  Ag25  1  0.50583840  0.14237200  0.69230564  1
  Ag+  Ag26  1  0.15202472  0.82910566  0.67087170  1
  Ag+  Ag27  1  0.31282601  0.33803122  -0.00132106  1
  Ag+  Ag28  1  0.47722265  0.84492668  -0.01968456  1
  Ag+  Ag29  1  -0.00090203  0.16007457  0.83321020  1
  Ag+  Ag30  1  0.02271557  0.66560391  0.00302094  1
  Ag+  Ag31  1  -0.01793008  0.50533248  0.83178932  1
  Ag+  Ag32  1  0.33021337  0.51932514  0.84882036  1
  Ag+  Ag33  1  0.50149661  0.48258108  0.30865070  1
  Ag+  Ag34  1  0.02257837  0.82184001  0.47923909  1
  Ag+  Ag35  1  0.49658812  0.19102224  0.35036183  1
  Ag+  Ag36  1  0.49549285  0.51989655  0.66959403  1
  Ag+  Ag37  1  0.66347594  0.66796749  0.01788773  1
  Ag+  Ag38  1  0.15334489  0.51947890  -0.00791281  1
  Ag+  Ag39  1  0.85688864  0.16762298  0.31997403  1
  Ag+  Ag40  1  0.49906608  -0.00173999  0.17963678  1
  Ag+  Ag41  1  0.16208503  0.68574265  0.13551059  1
  Ag+  Ag42  1  0.02324334  0.35420064  0.30853019  1
  Sn2+  Sn43  1  0.66896466  0.66233102  0.34002712  1
  Sn2+  Sn44  1  0.00145846  0.82829027  0.16800067  1
  Sn2+  Sn45  1  0.66201684  0.17468964  0.16241484  1
  Sn2+  Sn46  1  0.16676815  0.33915673  0.83700786  1
  Sn2+  Sn47  1  0.17359002  0.50048846  0.32461466  1
  Sn2+  Sn48  1  0.82510386  0.16475949  0.66455714  1
  Sn2+  Sn49  1  0.49444594  0.33444453  0.82992822  1
  Sn2+  Sn50  1  0.49544913  0.31940900  0.16156532  1
  Sn2+  Sn51  1  0.34183716  0.65561727  -0.00198984  1
  Sn2+  Sn52  1  0.84451065  0.67418882  0.16375945  1
  Sn2+  Sn53  1  0.16946765  0.82920759  -0.01033163  1
  Sn2+  Sn54  1  0.82479615  0.50290058  0.66967601  1
  Sn2+  Sn55  1  0.34095316  0.33861390  0.67829049  1
  Sn2+  Sn56  1  0.50384805  0.16208029  0.00314761  1
  Sn2+  Sn57  1  0.17017463  0.50425690  0.68168525  1
  Sn2+  Sn58  1  0.15974848  0.33718962  0.50018623  1
  Sn2+  Sn59  1  0.33875773  0.82683618  0.14773799  1
  Sn2+  Sn60  1  0.34402034  0.00266360  0.33400410  1
  Sn2+  Sn61  1  0.16694085  -0.00751892  0.83281988  1
  Sn2+  Sn62  1  0.66730795  0.32939497  0.33044568  1
  Sn2+  Sn63  1  0.49715308  0.33814252  0.50568320  1
  Sn2+  Sn64  1  0.82783315  -0.00138544  0.16571786  1
  Bi3+  Bi65  1  0.66414747  0.83058733  0.50079537  1
  Bi3+  Bi66  1  0.33331351  0.83041307  0.50829080  1
  Bi3+  Bi67  1  -0.00139781  0.16379957  0.50600830  1
  Bi3+  Bi68  1  0.00437760  0.82719627  0.83798111  1
  Bi3+  Bi69  1  0.83171102  -0.00051404  0.83691220  1
  Bi3+  Bi70  1  0.66340808  0.33785540  0.66977635  1
  Bi3+  Bi71  1  0.82860981  0.33178919  0.16820936  1
  Bi3+  Bi72  1  0.00491216  0.33875706  0.66861953  1
  Bi3+  Bi73  1  0.49753674  0.50138712  -0.00588902  1
  Bi3+  Bi74  1  0.66265352  0.50163767  0.50497729  1
  Bi3+  Bi75  1  0.83324733  0.16422501  0.00474208  1
  Bi3+  Bi76  1  0.16480099  0.16512388  -0.00146833  1
  Bi3+  Bi77  1  0.33697076  -0.00186253  0.66844459  1
  Bi3+  Bi78  1  0.33634313  0.50175032  0.16147423  1
  Bi3+  Bi79  1  0.32865638  0.16921781  0.83608137  1
  Bi3+  Bi80  1  0.82989761  0.00052601  0.50329980  1
  Bi3+  Bi81  1  0.83122692  0.33407855  0.49751201  1
  Bi3+  Bi82  1  0.33625520  0.49906077  0.50664594  1
  Bi3+  Bi83  1  0.66544102  0.82840854  0.83253010  1
  Bi3+  Bi84  1  0.16496548  0.66486029  0.50930999  1
  Bi3+  Bi85  1  0.49827434  0.83135425  0.33530836  1
  Te2-  Te86  1  0.17309868  0.15599479  0.16150042  1
  Te2-  Te87  1  0.16474705  0.16617519  0.50109326  1
  Te2-  Te88  1  0.15950172  0.16423330  0.83696616  1
  Te2-  Te89  1  0.17154723  0.50495865  0.15533552  1
  Te2-  Te90  1  0.17074060  0.50147031  0.50326258  1
  Te2-  Te91  1  0.18104081  0.50864519  0.83995290  1
  Te2-  Te92  1  0.16993193  0.83117324  0.16250424  1
  Te2-  Te93  1  0.16478448  0.82875990  0.51200133  1
  Te2-  Te94  1  0.17187665  0.82324947  0.82631702  1
  Te2-  Te95  1  0.49124459  0.15473201  0.15901880  1
  Te2-  Te96  1  0.50056394  0.16444254  0.49567778  1
  Te2-  Te97  1  0.49637697  0.16233948  0.83922988  1
  Te2-  Te98  1  0.50217224  0.49977748  0.16084485  1
  Te2-  Te99  1  0.49817833  0.50619620  0.51749611  1
  Te2-  Te100  1  0.49294763  0.50379981  0.82728725  1
  Te2-  Te101  1  0.49515683  0.83933302  0.16923169  1
  Te2-  Te102  1  0.49845926  0.83179158  0.50361745  1
  Te2-  Te103  1  0.50166662  0.83388401  0.83435929  1
  Te2-  Te104  1  0.83118034  0.16705913  0.17178295  1
  Te2-  Te105  1  0.83510652  0.16658674  0.49852798  1
  Te2-  Te106  1  0.84463287  0.16354286  0.83661190  1
  Te2-  Te107  1  0.82766730  0.49799627  0.15701775  1
  Te2-  Te108  1  0.82886430  0.50047610  0.49967640  1
  Te2-  Te109  1  0.83492688  0.50796674  0.84079208  1
  Te2-  Te110  1  0.83218137  0.83431534  0.16432675  1
  Te2-  Te111  1  0.82837719  0.83440656  0.51429755  1
  Te2-  Te112  1  0.83227454  0.83409153  0.82411026  1
  Te2-  Te113  1  0.16173733  -0.00130023  0.00377247  1
  Te2-  Te114  1  0.16886771  -0.00264110  0.32580177  1
  Te2-  Te115  1  0.17082770  -0.00889573  0.67176956  1
  Te2-  Te116  1  0.16400086  0.32874952  0.00669159  1
  Te2-  Te117  1  0.16770823  0.33889870  0.32680341  1
  Te2-  Te118  1  0.16820653  0.33669822  0.66769040  1
  Te2-  Te119  1  0.17326421  0.66558151  -0.01169381  1
  Te2-  Te120  1  0.16425459  0.66030383  0.34429802  1
  Te2-  Te121  1  0.16532442  0.67343223  0.67269388  1
  Te2-  Te122  1  0.50694134  -0.01007556  -0.00840616  1
  Te2-  Te123  1  0.50559898  -0.00556334  0.32735037  1
  Te2-  Te124  1  0.50305827  -0.00450813  0.67406703  1
  Te2-  Te125  1  0.51449445  0.33623305  -0.00181049  1
  Te2-  Te126  1  0.50592455  0.33646933  0.33148595  1
  Te2-  Te127  1  0.50160014  0.33227134  0.66695017  1
  Te2-  Te128  1  0.50992029  0.66730883  -0.00636940  1
  Te2-  Te129  1  0.50360513  0.66914491  0.33390640  1
  Te2-  Te130  1  0.50199789  0.66987546  0.67731810  1
  Te2-  Te131  1  0.82964371  -0.00006486  -0.00074204  1
  Te2-  Te132  1  0.82004577  0.01105193  0.33694429  1
  Te2-  Te133  1  0.82469956  0.00437151  0.67025070  1
  Te2-  Te134  1  0.82464779  0.32982498  0.00240238  1
  Te2-  Te135  1  0.82780704  0.32205241  0.33397398  1
  Te2-  Te136  1  0.83220898  0.33570400  0.66338888  1
  Te2-  Te137  1  0.81957417  0.66730429  -0.00148833  1
  Te2-  Te138  1  0.82930937  0.66502737  0.32834896  1
  Te2-  Te139  1  0.83237852  0.66391974  0.67168094  1
  Te2-  Te140  1  -0.00210804  0.16399978  -0.01176911  1
  Te2-  Te141  1  0.00363344  0.16850146  0.34045882  1
  Te2-  Te142  1  -0.00034574  0.17133952  0.67495068  1
  Te2-  Te143  1  0.00255515  0.51187368  -0.00936723  1
  Te2-  Te144  1  -0.00068213  0.49559488  0.33517659  1
  Te2-  Te145  1  -0.00040239  0.50626580  0.67546385  1
  Te2-  Te146  1  -0.00542384  0.82234820  -0.00141646  1
  Te2-  Te147  1  -0.00337662  0.83457463  0.33467778  1
  Te2-  Te148  1  -0.00038899  0.82364037  0.67712007  1
  Te2-  Te149  1  0.33045958  0.17507300  0.00115841  1
  Te2-  Te150  1  0.34703944  0.16301479  0.32359233  1
  Te2-  Te151  1  0.34657103  0.16382783  0.67359778  1
  Te2-  Te152  1  0.33816764  0.49186578  -0.00389460  1
  Te2-  Te153  1  0.34548257  0.50065348  0.33421994  1
  Te2-  Te154  1  0.34000112  0.50417759  0.66817812  1
  Te2-  Te155  1  0.33185418  0.82933267  -0.01273998  1
  Te2-  Te156  1  0.33524723  0.83537261  0.34155405  1
  Te2-  Te157  1  0.34062309  0.83306936  0.67202029  1
  Te2-  Te158  1  0.67172343  0.16297458  0.00135309  1
  Te2-  Te159  1  0.64651908  0.16348204  0.32712458  1
  Te2-  Te160  1  0.65500509  0.17487855  0.67049526  1
  Te2-  Te161  1  0.66338310  0.51312146  -0.00953076  1
  Te2-  Te162  1  0.65191627  0.50168070  0.34326475  1
  Te2-  Te163  1  0.65933201  0.50487839  0.67170496  1
  Te2-  Te164  1  0.67488104  0.82205604  -0.00503807  1
  Te2-  Te165  1  0.66351041  0.83432749  0.33876523  1
  Te2-  Te166  1  0.65863781  0.82130526  0.66696747  1
  Te2-  Te167  1  -0.00675100  -0.00365629  0.15970078  1
  Te2-  Te168  1  -0.00642674  -0.00390319  0.50474800  1
  Te2-  Te169  1  -0.00194408  -0.00780320  0.84167738  1
  Te2-  Te170  1  -0.00609686  0.33202436  0.16616134  1
  Te2-  Te171  1  -0.00406324  0.32986270  0.50508342  1
  Te2-  Te172  1  0.00531661  0.35040649  0.82837220  1
  Te2-  Te173  1  0.00933312  0.66971014  0.15503042  1
  Te2-  Te174  1  -0.00468877  0.67637643  0.50660599  1
  Te2-  Te175  1  -0.00228671  0.66275124  0.83900458  1
  Te2-  Te176  1  0.33940965  -0.00304847  0.16431788  1
  Te2-  Te177  1  0.33609357  -0.00514486  0.50359502  1
  Te2-  Te178  1  0.33495315  0.00188422  0.83111630  1
  Te2-  Te179  1  0.33176289  0.33832733  0.15428623  1
  Te2-  Te180  1  0.33068741  0.33646971  0.50290290  1
  Te2-  Te181  1  0.33182112  0.32905523  0.84227021  1
  Te2-  Te182  1  0.32105947  0.66383164  0.16486996  1
  Te2-  Te183  1  0.33236991  0.66705368  0.51247648  1
  Te2-  Te184  1  0.34442994  0.66959475  0.82873034  1
  Te2-  Te185  1  0.65799594  0.00054334  0.15908921  1
  Te2-  Te186  1  0.66533894  -0.00539306  0.50914231  1
  Te2-  Te187  1  0.66733815  -0.00375738  0.83410353  1
  Te2-  Te188  1  0.66614020  0.34477952  0.16185478  1
  Te2-  Te189  1  0.66691388  0.33688760  0.50312457  1
  Te2-  Te190  1  0.66598559  0.34434806  0.83417491  1
  Te2-  Te191  1  0.66935803  0.65975125  0.16935336  1
  Te2-  Te192  1  0.67360473  0.66605474  0.51273292  1
  Te2-  Te193  1  0.67225789  0.66565881  0.82089629  1
  Pb2+  Pb194  1  0.33374708  0.66628079  0.33731956  1
  Pb2+  Pb195  1  0.17140574  0.16832928  0.32982971  1
  Pb2+  Pb196  1  0.33819375  0.33449059  0.32685805  1
  Pb2+  Pb197  1  -0.00253780  0.33862257  -0.00359709  1
  Pb2+  Pb198  1  0.33469226  0.00353380  -0.00185210  1
  Pb2+  Pb199  1  0.00097754  0.50127297  0.16306686  1
  Pb2+  Pb200  1  0.49446262  0.66999656  0.16150031  1
  Pb2+  Pb201  1  0.66637818  0.16463108  0.49977353  1
  Pb2+  Pb202  1  0.16676303  0.82726939  0.33435510  1
  Pb2+  Pb203  1  -0.00273338  0.66176795  0.33009801  1
  Pb2+  Pb204  1  0.33654975  0.16713195  0.50089667  1
  Pb2+  Pb205  1  0.82174225  0.49318196  0.32926353  1
  Pb2+  Pb206  1  -0.00657953  0.00491353  0.33140289  1
  Pb2+  Pb207  1  0.00368776  0.16502558  0.16166059  1
  Pb2+  Pb208  1  0.67182024  0.17046293  0.83453092  1
  Pb2+  Pb209  1  0.17212234  0.16698405  0.67119652  1
  Pb2+  Pb210  1  0.16407242  -0.00446511  0.49972630  1
  Pb2+  Pb211  1  0.66216057  0.83011412  0.16632231  1
  Pb2+  Pb212  1  0.83610146  0.33739155  0.83184854  1
  Pb2+  Pb213  1  -0.00300257  -0.00360133  0.67193252  1
  Pb2+  Pb214  1  0.83105854  0.83636400  0.33946201  1
  Pb2+  Pb215  1  -0.00016120  0.50503066  0.50636003  1
