# generated using pymatgen
data_In22Ag21Sn22Bi21(Te54Pb11)2
_symmetry_space_group_name_H-M   'P 1'
_cell_length_a   19.17970029
_cell_length_b   19.14272053
_cell_length_c   19.17767811
_cell_angle_alpha   89.99927599
_cell_angle_beta   90.00540274
_cell_angle_gamma   90.01138586
_symmetry_Int_Tables_number   1
_chemical_formula_structural   In22Ag21Sn22Bi21(Te54Pb11)2
_chemical_formula_sum   'In22 Ag21 Sn22 Bi21 Te108 Pb22'
_cell_volume   7041.11584959
_cell_formula_units_Z   1
loop_
 _symmetry_equiv_pos_site_id
 _symmetry_equiv_pos_as_xyz
  1  'x, y, z'
loop_
 _atom_type_symbol
 _atom_type_oxidation_number
  In3+  3.0
  Ag+  1.0
  Sn2+  2.0
  Bi3+  3.0
  Te2-  -2.0
  Pb2+  2.0
loop_
 _atom_site_type_symbol
 _atom_site_label
 _atom_site_symmetry_multiplicity
 _atom_site_fract_x
 _atom_site_fract_y
 _atom_site_fract_z
 _atom_site_occupancy
  In3+  In0  1  0.66324247  0.00011442  0.32712366  1
  In3+  In1  1  0.16528003  0.16751417  0.32550878  1
  In3+  In2  1  0.63715102  0.18118731  0.83646425  1
  In3+  In3  1  0.32819524  -0.00799493  0.31809987  1
  In3+  In4  1  0.68091709  0.83071139  0.82453611  1
  In3+  In5  1  0.34354771  -0.03027474  -0.00361885  1
  In3+  In6  1  0.83955567  -0.00309086  0.82061277  1
  In3+  In7  1  0.17228182  0.67323437  0.15520646  1
  In3+  In8  1  0.32647486  0.50803072  0.84834673  1
  In3+  In9  1  0.51621102  0.82149542  -0.00315276  1
  In3+  In10  1  0.66074650  -0.00952508  -0.00260365  1
  In3+  In11  1  0.48983614  0.14987232  0.32183706  1
  In3+  In12  1  0.81537644  -0.00592532  0.16564318  1
  In3+  In13  1  0.34586417  0.81801731  0.82565118  1
  In3+  In14  1  0.66990733  0.51625751  0.47250570  1
  In3+  In15  1  0.51609082  0.51662985  -0.00343403  1
  In3+  In16  1  0.35707960  0.51192475  0.49612336  1
  In3+  In17  1  0.83585919  0.68178909  0.82287362  1
  In3+  In18  1  0.82327179  0.52739750  -0.00009155  1
  In3+  In19  1  0.33727101  0.00555756  0.67140578  1
  In3+  In20  1  0.16549706  0.32558052  0.48481034  1
  In3+  In21  1  -0.01631312  0.82973129  0.17874204  1
  Ag+  Ag22  1  0.35184849  0.66845583  0.01286804  1
  Ag+  Ag23  1  0.52127484  0.67378671  0.47323075  1
  Ag+  Ag24  1  0.69012193  0.66465229  0.00391650  1
  Ag+  Ag25  1  0.81029500  0.00087743  0.46913980  1
  Ag+  Ag26  1  0.50058598  0.36788492  0.85318800  1
  Ag+  Ag27  1  0.64208888  0.48665264  0.17334667  1
  Ag+  Ag28  1  -0.00539189  0.12815653  0.14210499  1
  Ag+  Ag29  1  0.52832699  0.66786178  0.83678109  1
  Ag+  Ag30  1  -0.03405643  0.85298506  0.47610721  1
  Ag+  Ag31  1  -0.02964358  0.48994540  0.85799654  1
  Ag+  Ag32  1  0.50317082  0.80513796  0.35604833  1
  Ag+  Ag33  1  0.14576289  0.16577069  0.69296305  1
  Ag+  Ag34  1  0.14557517  0.83059923  0.33776634  1
  Ag+  Ag35  1  0.81767743  0.84075133  -0.00011204  1
  Ag+  Ag36  1  0.18165854  0.64866893  0.85835406  1
  Ag+  Ag37  1  0.33650810  0.13771805  0.85174918  1
  Ag+  Ag38  1  0.80362011  0.69252026  0.16673619  1
  Ag+  Ag39  1  0.86160015  0.83303483  0.63887790  1
  Ag+  Ag40  1  0.51846375  -0.02396222  0.18306539  1
  Ag+  Ag41  1  0.15282490  0.36749214  0.18788144  1
  Ag+  Ag42  1  0.49607593  0.80277466  0.64936652  1
  Sn2+  Sn43  1  0.66243081  0.50876277  0.83257952  1
  Sn2+  Sn44  1  0.49489815  0.33490673  0.16116736  1
  Sn2+  Sn45  1  0.66732802  0.67867126  0.32523407  1
  Sn2+  Sn46  1  0.16879696  0.51483816  0.34263171  1
  Sn2+  Sn47  1  0.00739392  0.18661401  0.83678577  1
  Sn2+  Sn48  1  0.16897863  0.49324889  0.67149749  1
  Sn2+  Sn49  1  0.33874517  0.49850336  0.16761344  1
  Sn2+  Sn50  1  0.17700637  0.33410601  0.83175773  1
  Sn2+  Sn51  1  0.50233292  0.67217251  0.15602102  1
  Sn2+  Sn52  1  0.33288792  0.16428230  0.51228077  1
  Sn2+  Sn53  1  0.16588535  -0.01023975  0.83101194  1
  Sn2+  Sn54  1  0.32366061  0.17117121  0.15872037  1
  Sn2+  Sn55  1  0.16581530  0.49727480  -0.00049660  1
  Sn2+  Sn56  1  0.49625838  0.50231637  0.32877938  1
  Sn2+  Sn57  1  0.00137581  0.66642681  0.33627463  1
  Sn2+  Sn58  1  0.50043035  0.50408851  0.67217744  1
  Sn2+  Sn59  1  0.66249555  0.81954719  0.17086984  1
  Sn2+  Sn60  1  0.66037294  0.83496874  0.50835893  1
  Sn2+  Sn61  1  0.16506783  0.83329590  0.00599787  1
  Sn2+  Sn62  1  0.81789171  0.83090899  0.33686320  1
  Sn2+  Sn63  1  -0.00188503  -0.00435841  -0.00236868  1
  Sn2+  Sn64  1  0.33170907  0.83405351  0.49696842  1
  Bi3+  Bi65  1  -0.00020674  0.66892279  0.66979890  1
  Bi3+  Bi66  1  0.17392254  -0.00239759  0.49899462  1
  Bi3+  Bi67  1  0.84133710  0.33294666  0.16375872  1
  Bi3+  Bi68  1  0.50036425  -0.00379881  0.83645846  1
  Bi3+  Bi69  1  0.83332171  0.15686762  -0.00003394  1
  Bi3+  Bi70  1  0.66414843  0.33311044  0.66944278  1
  Bi3+  Bi71  1  0.16767837  0.16398491  0.00221969  1
  Bi3+  Bi72  1  0.33474254  0.33179426  0.66881632  1
  Bi3+  Bi73  1  0.00451591  0.50656380  0.16348252  1
  Bi3+  Bi74  1  -0.00267869  0.50744692  0.49995748  1
  Bi3+  Bi75  1  0.66580460  0.16567348  0.50422160  1
  Bi3+  Bi76  1  0.00531588  0.15726597  0.50262906  1
  Bi3+  Bi77  1  0.66285156  -0.00386579  0.67392916  1
  Bi3+  Bi78  1  -0.00259070  0.67054974  0.00097405  1
  Bi3+  Bi79  1  0.33340965  0.34233341  -0.00205974  1
  Bi3+  Bi80  1  0.17286118  -0.00376268  0.16517824  1
  Bi3+  Bi81  1  0.33467827  0.83490744  0.16381697  1
  Bi3+  Bi82  1  0.16757201  0.66750467  0.50225169  1
  Bi3+  Bi83  1  0.33108553  0.66171904  0.66909069  1
  Bi3+  Bi84  1  0.49998421  0.16774943  0.66381232  1
  Bi3+  Bi85  1  0.00440434  0.82861176  0.83896859  1
  Te2-  Te86  1  0.15572725  0.15773796  0.17003333  1
  Te2-  Te87  1  0.16582155  0.16314510  0.48813919  1
  Te2-  Te88  1  0.16329050  0.16194890  0.83842658  1
  Te2-  Te89  1  0.16776348  0.51304557  0.17058200  1
  Te2-  Te90  1  0.15724461  0.49906164  0.50133568  1
  Te2-  Te91  1  0.17224808  0.50365479  0.82900534  1
  Te2-  Te92  1  0.17555312  0.83127413  0.17918155  1
  Te2-  Te93  1  0.17322619  0.83241527  0.49281909  1
  Te2-  Te94  1  0.16491314  0.83317886  0.83344522  1
  Te2-  Te95  1  0.50027834  0.17651775  0.17210061  1
  Te2-  Te96  1  0.50194477  0.16739337  0.49786347  1
  Te2-  Te97  1  0.48361494  0.16071164  0.82882946  1
  Te2-  Te98  1  0.49673079  0.49874190  0.15684104  1
  Te2-  Te99  1  0.50913509  0.51416455  0.49866345  1
  Te2-  Te100  1  0.50439682  0.51506937  0.84177226  1
  Te2-  Te101  1  0.49518006  0.83615698  0.14969957  1
  Te2-  Te102  1  0.50098482  0.82150934  0.50212260  1
  Te2-  Te103  1  0.49576058  0.83304454  0.84613263  1
  Te2-  Te104  1  0.84890371  0.16782536  0.16406079  1
  Te2-  Te105  1  0.83597009  0.15400224  0.50112565  1
  Te2-  Te106  1  0.84010296  0.15394685  0.83791746  1
  Te2-  Te107  1  0.84438702  0.49361147  0.15231876  1
  Te2-  Te108  1  0.83195657  0.50379270  0.49718283  1
  Te2-  Te109  1  0.82594440  0.49930489  0.84512553  1
  Te2-  Te110  1  0.83203541  0.83890600  0.16056321  1
  Te2-  Te111  1  0.82248407  0.84447334  0.49645409  1
  Te2-  Te112  1  0.83507655  0.83668219  0.84946837  1
  Te2-  Te113  1  0.17444801  0.00181000  0.00234260  1
  Te2-  Te114  1  0.17555682  -0.01527445  0.33331230  1
  Te2-  Te115  1  0.18072046  0.01204296  0.66389881  1
  Te2-  Te116  1  0.17269484  0.32922552  -0.00568258  1
  Te2-  Te117  1  0.17150837  0.33070159  0.32838692  1
  Te2-  Te118  1  0.17472649  0.31808237  0.67434163  1
  Te2-  Te119  1  0.15928090  0.66621005  0.00113679  1
  Te2-  Te120  1  0.16877799  0.67831750  0.34155190  1
  Te2-  Te121  1  0.16679045  0.66569433  0.66351177  1
  Te2-  Te122  1  0.50025897  0.00175893  -0.00230730  1
  Te2-  Te123  1  0.50634120  -0.00026875  0.32650567  1
  Te2-  Te124  1  0.49738184  0.00385621  0.67112123  1
  Te2-  Te125  1  0.49628427  0.33988953  -0.00067391  1
  Te2-  Te126  1  0.49922131  0.34333477  0.33445848  1
  Te2-  Te127  1  0.49964282  0.33299525  0.66860663  1
  Te2-  Te128  1  0.49625737  0.66784908  -0.01285001  1
  Te2-  Te129  1  0.50259204  0.66003094  0.32627309  1
  Te2-  Te130  1  0.49322561  0.66079094  0.68712474  1
  Te2-  Te131  1  0.82916686  -0.00440565  0.01250314  1
  Te2-  Te132  1  0.82722290  -0.00492990  0.32588994  1
  Te2-  Te133  1  0.82602647  -0.02061371  0.67136523  1
  Te2-  Te134  1  0.83309142  0.32211363  0.00120530  1
  Te2-  Te135  1  0.83175869  0.33353547  0.32989307  1
  Te2-  Te136  1  0.82948001  0.33255560  0.66988119  1
  Te2-  Te137  1  0.83740211  0.67753206  0.01696432  1
  Te2-  Te138  1  0.82884440  0.67452093  0.31821704  1
  Te2-  Te139  1  0.83062988  0.68438676  0.66931022  1
  Te2-  Te140  1  0.00268064  0.16227644  -0.00060276  1
  Te2-  Te141  1  0.00627645  0.16496357  0.34227028  1
  Te2-  Te142  1  0.00112457  0.16486513  0.66406045  1
  Te2-  Te143  1  0.00338383  0.50630407  0.00014887  1
  Te2-  Te144  1  0.00184084  0.50410564  0.33500027  1
  Te2-  Te145  1  -0.00247099  0.50607662  0.66119793  1
  Te2-  Te146  1  0.00437691  0.83307147  0.00077275  1
  Te2-  Te147  1  -0.00397488  0.82945731  0.33370159  1
  Te2-  Te148  1  0.00467646  0.82984580  0.67610013  1
  Te2-  Te149  1  0.32923946  0.17641625  -0.00643243  1
  Te2-  Te150  1  0.33589674  0.15487299  0.33143965  1
  Te2-  Te151  1  0.33821977  0.16636632  0.66980239  1
  Te2-  Te152  1  0.32723520  0.50970934  0.00200577  1
  Te2-  Te153  1  0.32929262  0.49998578  0.33949389  1
  Te2-  Te154  1  0.33387821  0.49621118  0.65131283  1
  Te2-  Te155  1  0.32574164  0.81824627  -0.00141234  1
  Te2-  Te156  1  0.35636563  0.83976604  0.32836359  1
  Te2-  Te157  1  0.34554912  0.82944554  0.67093025  1
  Te2-  Te158  1  0.66945797  0.16280350  -0.00482647  1
  Te2-  Te159  1  0.66220774  0.16053607  0.33792670  1
  Te2-  Te160  1  0.66566764  0.16487432  0.67044816  1
  Te2-  Te161  1  0.66836752  0.51351457  0.00516679  1
  Te2-  Te162  1  0.66725069  0.50682586  0.31995645  1
  Te2-  Te163  1  0.66726498  0.49718523  0.66933415  1
  Te2-  Te164  1  0.66872964  0.83700762  0.00396896  1
  Te2-  Te165  1  0.65201493  0.83992979  0.33164055  1
  Te2-  Te166  1  0.64620347  0.83432276  0.67476876  1
  Te2-  Te167  1  0.00860191  -0.01509276  0.16654848  1
  Te2-  Te168  1  0.01026087  -0.00882575  0.50156896  1
  Te2-  Te169  1  -0.00156122  -0.00425121  0.83518623  1
  Te2-  Te170  1  0.00825260  0.34128503  0.16590934  1
  Te2-  Te171  1  0.00372060  0.33268338  0.50075387  1
  Te2-  Te172  1  -0.00017327  0.34546709  0.83305518  1
  Te2-  Te173  1  0.00886139  0.67265841  0.16835958  1
  Te2-  Te174  1  0.00184846  0.67204937  0.50373803  1
  Te2-  Te175  1  -0.01004401  0.66138635  0.83394457  1
  Te2-  Te176  1  0.33532143  0.00305469  0.15851865  1
  Te2-  Te177  1  0.33538050  -0.00200429  0.50328039  1
  Te2-  Te178  1  0.33486308  -0.00862642  0.83764731  1
  Te2-  Te179  1  0.32690590  0.33219278  0.16130752  1
  Te2-  Te180  1  0.32559605  0.33131267  0.50379387  1
  Te2-  Te181  1  0.34614099  0.35371650  0.83260277  1
  Te2-  Te182  1  0.33097825  0.66873819  0.15991680  1
  Te2-  Te183  1  0.33353518  0.66498204  0.50385803  1
  Te2-  Te184  1  0.32387624  0.66398410  0.82951152  1
  Te2-  Te185  1  0.66190268  0.00448358  0.16464935  1
  Te2-  Te186  1  0.66617300  0.00389912  0.50726953  1
  Te2-  Te187  1  0.66613006  -0.00874844  0.83744568  1
  Te2-  Te188  1  0.67070458  0.34104893  0.16518332  1
  Te2-  Te189  1  0.66768559  0.32852463  0.50463600  1
  Te2-  Te190  1  0.65251991  0.33912009  0.83142230  1
  Te2-  Te191  1  0.65904638  0.66411951  0.15516270  1
  Te2-  Te192  1  0.66663113  0.66619602  0.49930800  1
  Te2-  Te193  1  0.67774686  0.67707769  0.84818994  1
  Pb2+  Pb194  1  0.17753038  0.83678705  0.66435721  1
  Pb2+  Pb195  1  0.49668128  0.16916237  0.00113425  1
  Pb2+  Pb196  1  0.33496543  0.67292936  0.32915425  1
  Pb2+  Pb197  1  0.66298318  0.33442959  0.33289918  1
  Pb2+  Pb198  1  0.49695530  0.34105214  0.50326969  1
  Pb2+  Pb199  1  0.66581462  0.33953841  0.00060945  1
  Pb2+  Pb200  1  0.00799977  0.33653966  0.66773198  1
  Pb2+  Pb201  1  0.00447267  -0.00117268  0.33460692  1
  Pb2+  Pb202  1  0.83435900  0.50667863  0.32049709  1
  Pb2+  Pb203  1  0.83226841  0.50887845  0.67266786  1
  Pb2+  Pb204  1  0.83441740  0.67540649  0.49320530  1
  Pb2+  Pb205  1  0.67267672  0.17158742  0.16488326  1
  Pb2+  Pb206  1  0.00137522  0.33280261  0.32990955  1
  Pb2+  Pb207  1  0.65935784  0.66599506  0.67203239  1
  Pb2+  Pb208  1  0.83326532  0.16270122  0.33194713  1
  Pb2+  Pb209  1  0.00314215  0.33521295  0.00184543  1
  Pb2+  Pb210  1  0.33715123  0.32433418  0.33211530  1
  Pb2+  Pb211  1  0.00573603  -0.00496914  0.66745867  1
  Pb2+  Pb212  1  0.83482905  0.32991793  0.50228382  1
  Pb2+  Pb213  1  0.82768002  0.32511785  0.83554921  1
  Pb2+  Pb214  1  0.50082716  -0.00756802  0.49602887  1
  Pb2+  Pb215  1  0.83397192  0.15247662  0.66861032  1
