# generated using pymatgen
data_In22Ag21Sn22Bi21(Te54Pb11)2
_symmetry_space_group_name_H-M   'P 1'
_cell_length_a   19.13599434
_cell_length_b   19.13009812
_cell_length_c   19.14438578
_cell_angle_alpha   90.00206914
_cell_angle_beta   89.99836789
_cell_angle_gamma   89.97055052
_symmetry_Int_Tables_number   1
_chemical_formula_structural   In22Ag21Sn22Bi21(Te54Pb11)2
_chemical_formula_sum   'In22 Ag21 Sn22 Bi21 Te108 Pb22'
_cell_volume   7008.25040713
_cell_formula_units_Z   1
loop_
 _symmetry_equiv_pos_site_id
 _symmetry_equiv_pos_as_xyz
  1  'x, y, z'
loop_
 _atom_type_symbol
 _atom_type_oxidation_number
  In3+  3.0
  Ag+  1.0
  Sn2+  2.0
  Bi3+  3.0
  Te2-  -2.0
  Pb2+  2.0
loop_
 _atom_site_type_symbol
 _atom_site_label
 _atom_site_symmetry_multiplicity
 _atom_site_fract_x
 _atom_site_fract_y
 _atom_site_fract_z
 _atom_site_occupancy
  In3+  In0  1  0.67306574  0.65751621  0.01432279  1
  In3+  In1  1  0.49698606  0.50259863  0.31219827  1
  In3+  In2  1  0.16737817  0.32460134  0.16847084  1
  In3+  In3  1  0.84588975  0.50414060  0.33217700  1
  In3+  In4  1  0.67363241  0.66302836  0.34044855  1
  In3+  In5  1  0.16183996  0.15714526  0.68314629  1
  In3+  In6  1  0.33074505  0.50452753  0.16916910  1
  In3+  In7  1  0.50816185  0.35195766  0.16807486  1
  In3+  In8  1  0.83852794  0.66764996  0.51524368  1
  In3+  In9  1  0.00375629  0.48546111  0.82896637  1
  In3+  In10  1  0.18729033  0.83218584  0.00589254  1
  In3+  In11  1  0.00962740  0.00199979  -0.01717671  1
  In3+  In12  1  0.00352954  0.32656473  0.34281961  1
  In3+  In13  1  0.49028940  0.65444734  0.50150129  1
  In3+  In14  1  0.50657597  0.66981120  0.16001842  1
  In3+  In15  1  0.82302581  0.33673337  0.16604251  1
  In3+  In16  1  0.65824742  0.82493935  0.50400891  1
  In3+  In17  1  0.33368109  0.66182447  -0.00655646  1
  In3+  In18  1  0.16566784  0.49135721  0.01209628  1
  In3+  In19  1  0.32968726  0.83258941  0.17967820  1
  In3+  In20  1  0.15584461  0.14949640  0.34905099  1
  In3+  In21  1  0.50413019  0.33301582  0.51354845  1
  Ag+  Ag22  1  0.83945426  0.63958626  0.16536899  1
  Ag+  Ag23  1  0.35845918  0.69461622  0.69540497  1
  Ag+  Ag24  1  0.14096477  0.02524976  0.16817222  1
  Ag+  Ag25  1  0.80785201  0.49587633  -0.02384712  1
  Ag+  Ag26  1  0.85669797  0.19795082  0.36484612  1
  Ag+  Ag27  1  0.51572244  0.47519508  -0.00301562  1
  Ag+  Ag28  1  0.00968044  0.18006355  0.51844237  1
  Ag+  Ag29  1  0.18857073  0.01411841  0.52440522  1
  Ag+  Ag30  1  0.68452696  0.49681554  0.16839286  1
  Ag+  Ag31  1  -0.00681196  0.18664783  0.80948628  1
  Ag+  Ag32  1  0.49800220  0.35742572  0.81230915  1
  Ag+  Ag33  1  0.69219410  0.63755259  0.69190123  1
  Ag+  Ag34  1  0.01631956  0.00085730  0.68105598  1
  Ag+  Ag35  1  0.86664429  0.17994339  0.64822141  1
  Ag+  Ag36  1  0.14216593  0.47468368  0.30740961  1
  Ag+  Ag37  1  -0.00538384  0.29778141  0.69476184  1
  Ag+  Ag38  1  0.35919156  0.16904008  0.82858410  1
  Ag+  Ag39  1  0.35681514  0.85791758  0.51102613  1
  Ag+  Ag40  1  0.48350657  0.80710777  -0.03007076  1
  Ag+  Ag41  1  0.31190761  0.02614982  0.65598899  1
  Ag+  Ag42  1  0.46882276  0.02913938  0.81042734  1
  Sn2+  Sn43  1  0.67098523  0.16471255  0.82514661  1
  Sn2+  Sn44  1  0.17255782  0.67803466  0.49707147  1
  Sn2+  Sn45  1  0.16907235  0.33210187  0.50402457  1
  Sn2+  Sn46  1  0.83206403  0.83281020  0.32543494  1
  Sn2+  Sn47  1  0.16352414  0.66521548  0.82684048  1
  Sn2+  Sn48  1  0.83031334  0.48711783  0.66678670  1
  Sn2+  Sn49  1  0.32321948  0.33089826  0.67440314  1
  Sn2+  Sn50  1  0.83212808  0.00560704  0.82685854  1
  Sn2+  Sn51  1  0.49551761  0.00438727  0.50971142  1
  Sn2+  Sn52  1  0.67367843  0.32939815  0.67373891  1
  Sn2+  Sn53  1  -0.00494783  0.33050469  0.00257186  1
  Sn2+  Sn54  1  0.49551335  0.16564885  0.67768709  1
  Sn2+  Sn55  1  -0.00560556  0.49697969  0.15442131  1
  Sn2+  Sn56  1  -0.00106565  0.66972220  0.00237042  1
  Sn2+  Sn57  1  0.66503511  0.50516281  0.48986239  1
  Sn2+  Sn58  1  0.16744427  0.16286246  -0.00830930  1
  Sn2+  Sn59  1  0.67325605  0.00185994  0.33403495  1
  Sn2+  Sn60  1  0.82923885  0.81314083  0.00086939  1
  Sn2+  Sn61  1  0.83346550  0.66408976  0.84166697  1
  Sn2+  Sn62  1  0.16984401  0.00042151  0.84049465  1
  Sn2+  Sn63  1  0.00193919  0.00245463  0.34583605  1
  Sn2+  Sn64  1  0.84019694  0.00849960  0.16220852  1
  Bi3+  Bi65  1  0.66644849  0.83002918  0.16611293  1
  Bi3+  Bi66  1  0.33551328  0.66743622  0.33178661  1
  Bi3+  Bi67  1  0.33038200  0.49744843  0.49672687  1
  Bi3+  Bi68  1  0.16517351  0.49501206  0.66198099  1
  Bi3+  Bi69  1  0.33587263  0.00033722  -0.00208269  1
  Bi3+  Bi70  1  -0.00307371  0.83349490  0.16133063  1
  Bi3+  Bi71  1  0.16731468  0.83419248  0.33291332  1
  Bi3+  Bi72  1  0.49750757  0.83010395  0.33160129  1
  Bi3+  Bi73  1  0.49776202  0.83249705  0.66484914  1
  Bi3+  Bi74  1  0.66860484  0.83436420  0.83419392  1
  Bi3+  Bi75  1  0.00061851  0.83354456  0.83347527  1
  Bi3+  Bi76  1  -0.00332489  0.83584802  0.49730888  1
  Bi3+  Bi77  1  0.50051425  0.16118459  0.00137139  1
  Bi3+  Bi78  1  0.50189533  -0.00403377  0.16802290  1
  Bi3+  Bi79  1  0.66681533  -0.00580493  -0.00044671  1
  Bi3+  Bi80  1  0.83687569  0.16645206  -0.00307570  1
  Bi3+  Bi81  1  0.66791428  0.16471005  0.49861092  1
  Bi3+  Bi82  1  0.32782333  0.33426718  0.33333490  1
  Bi3+  Bi83  1  0.66613576  0.00082832  0.66754655  1
  Bi3+  Bi84  1  0.16753783  0.83194064  0.66137688  1
  Bi3+  Bi85  1  0.83053393  -0.00265690  0.49732954  1
  Te2-  Te86  1  0.16796797  0.16953955  0.15728102  1
  Te2-  Te87  1  0.15529278  0.15689435  0.49774843  1
  Te2-  Te88  1  0.14749026  0.16401868  0.83519421  1
  Te2-  Te89  1  0.16720085  0.50163799  0.16642282  1
  Te2-  Te90  1  0.16732223  0.50222164  0.50005853  1
  Te2-  Te91  1  0.16269245  0.49981510  0.82604654  1
  Te2-  Te92  1  0.16430185  0.83445427  0.16570212  1
  Te2-  Te93  1  0.15755303  0.84320809  0.49655133  1
  Te2-  Te94  1  0.16320278  0.83192215  0.83249372  1
  Te2-  Te95  1  0.49942759  0.16182579  0.16785785  1
  Te2-  Te96  1  0.50158995  0.17236862  0.50275891  1
  Te2-  Te97  1  0.50880974  0.16584073  0.83945934  1
  Te2-  Te98  1  0.48852205  0.50377679  0.15226302  1
  Te2-  Te99  1  0.49946460  0.49361650  0.49886796  1
  Te2-  Te100  1  0.50047167  0.50063184  0.84795850  1
  Te2-  Te101  1  0.50137646  0.83012294  0.17008126  1
  Te2-  Te102  1  0.50231570  0.83074051  0.49756571  1
  Te2-  Te103  1  0.50354328  0.83654251  0.82765766  1
  Te2-  Te104  1  0.83255153  0.18005297  0.15890526  1
  Te2-  Te105  1  0.82946469  0.16197155  0.50372554  1
  Te2-  Te106  1  0.84129475  0.16615478  0.83691624  1
  Te2-  Te107  1  0.83270764  0.49248929  0.17829098  1
  Te2-  Te108  1  0.82725150  0.50694421  0.49030334  1
  Te2-  Te109  1  0.84073204  0.50237230  0.83291640  1
  Te2-  Te110  1  0.83048605  0.83565908  0.16405263  1
  Te2-  Te111  1  0.83030041  0.82669818  0.49383346  1
  Te2-  Te112  1  0.83413144  0.83252448  0.83421084  1
  Te2-  Te113  1  0.16999332  -0.00758064  0.01062967  1
  Te2-  Te114  1  0.16782679  -0.00020508  0.31620068  1
  Te2-  Te115  1  0.16688104  -0.00160830  0.66929822  1
  Te2-  Te116  1  0.16577816  0.33728526  0.00156439  1
  Te2-  Te117  1  0.16478030  0.33179522  0.33250599  1
  Te2-  Te118  1  0.15332583  0.33119335  0.66222620  1
  Te2-  Te119  1  0.17380899  0.67590134  -0.00394285  1
  Te2-  Te120  1  0.17119741  0.67085489  0.33334356  1
  Te2-  Te121  1  0.17222366  0.66613811  0.66317165  1
  Te2-  Te122  1  0.50314274  -0.00007949  0.00505026  1
  Te2-  Te123  1  0.50188506  -0.00433270  0.33465149  1
  Te2-  Te124  1  0.50182725  -0.00320794  0.66872690  1
  Te2-  Te125  1  0.49969882  0.32813920  0.01405303  1
  Te2-  Te126  1  0.49353141  0.33779604  0.32264511  1
  Te2-  Te127  1  0.49936260  0.33088317  0.66740590  1
  Te2-  Te128  1  0.48863244  0.66693244  0.00898602  1
  Te2-  Te129  1  0.49969973  0.66699895  0.33383329  1
  Te2-  Te130  1  0.49753746  0.66842419  0.65648638  1
  Te2-  Te131  1  0.82896399  0.00251470  -0.00128127  1
  Te2-  Te132  1  0.83127315  -0.00105205  0.33272839  1
  Te2-  Te133  1  0.82662048  0.00992439  0.66287937  1
  Te2-  Te134  1  0.83557060  0.34646159  0.00722941  1
  Te2-  Te135  1  0.83966898  0.33752943  0.32453545  1
  Te2-  Te136  1  0.84569002  0.32723556  0.66782998  1
  Te2-  Te137  1  0.82762611  0.64793433  0.01022877  1
  Te2-  Te138  1  0.82527159  0.65942350  0.31848686  1
  Te2-  Te139  1  0.83313228  0.66428714  0.66666957  1
  Te2-  Te140  1  -0.00160391  0.15686090  -0.00200187  1
  Te2-  Te141  1  -0.00101456  0.17155312  0.33137476  1
  Te2-  Te142  1  0.01056611  0.15241510  0.66386888  1
  Te2-  Te143  1  0.01337316  0.50420277  -0.00731931  1
  Te2-  Te144  1  0.00023627  0.49706852  0.33260675  1
  Te2-  Te145  1  -0.00041759  0.50150879  0.67297510  1
  Te2-  Te146  1  -0.00566709  0.84086185  -0.00045643  1
  Te2-  Te147  1  0.00162686  0.83370553  0.32865944  1
  Te2-  Te148  1  0.00262311  0.84230013  0.66594648  1
  Te2-  Te149  1  0.33525316  0.16275336  -0.01243369  1
  Te2-  Te150  1  0.32470173  0.17059065  0.33353176  1
  Te2-  Te151  1  0.32540420  0.17143689  0.67910676  1
  Te2-  Te152  1  0.31958990  0.50615086  0.00436809  1
  Te2-  Te153  1  0.33604955  0.50083143  0.33069189  1
  Te2-  Te154  1  0.32950182  0.49332024  0.66203564  1
  Te2-  Te155  1  0.34107670  0.83554094  -0.00066642  1
  Te2-  Te156  1  0.33253785  0.83109947  0.35005446  1
  Te2-  Te157  1  0.33018485  0.83315278  0.65655136  1
  Te2-  Te158  1  0.67071490  0.16182537  -0.00376328  1
  Te2-  Te159  1  0.67088391  0.17097891  0.33554390  1
  Te2-  Te160  1  0.66337476  0.16502576  0.66340238  1
  Te2-  Te161  1  0.66276318  0.50645283  0.01334546  1
  Te2-  Te162  1  0.65041328  0.50847558  0.31970435  1
  Te2-  Te163  1  0.67054751  0.49703995  0.66195526  1
  Te2-  Te164  1  0.66405353  0.82928077  0.00027582  1
  Te2-  Te165  1  0.66228026  0.82930623  0.33168798  1
  Te2-  Te166  1  0.66378729  0.83441632  0.66520908  1
  Te2-  Te167  1  -0.00351174  -0.00517520  0.17086494  1
  Te2-  Te168  1  -0.01064791  -0.00481007  0.49985767  1
  Te2-  Te169  1  -0.00082371  -0.00598966  0.82960691  1
  Te2-  Te170  1  0.01195462  0.33891822  0.16474058  1
  Te2-  Te171  1  0.00168709  0.32622122  0.49411245  1
  Te2-  Te172  1  0.00098210  0.33258639  0.83909513  1
  Te2-  Te173  1  -0.01155082  0.66981918  0.16212950  1
  Te2-  Te174  1  -0.00582198  0.66908679  0.49846912  1
  Te2-  Te175  1  -0.00154307  0.67254143  0.83929373  1
  Te2-  Te176  1  0.34017289  -0.00519393  0.16270948  1
  Te2-  Te177  1  0.33476058  0.00399444  0.51046244  1
  Te2-  Te178  1  0.32741986  0.00946447  0.83475396  1
  Te2-  Te179  1  0.32450549  0.34135470  0.17117788  1
  Te2-  Te180  1  0.33783179  0.33503914  0.49834053  1
  Te2-  Te181  1  0.34629475  0.32548355  0.83114786  1
  Te2-  Te182  1  0.33639980  0.66598081  0.16948332  1
  Te2-  Te183  1  0.33578819  0.65840497  0.49527695  1
  Te2-  Te184  1  0.33192010  0.66746587  0.83744285  1
  Te2-  Te185  1  0.66818934  -0.00408957  0.16533154  1
  Te2-  Te186  1  0.66469369  -0.00192002  0.50087779  1
  Te2-  Te187  1  0.66571629  -0.00405977  0.83399915  1
  Te2-  Te188  1  0.66521949  0.34564340  0.16821326  1
  Te2-  Te189  1  0.66270921  0.33161071  0.50420531  1
  Te2-  Te190  1  0.65337483  0.33456632  0.82983959  1
  Te2-  Te191  1  0.66362926  0.66778681  0.16761620  1
  Te2-  Te192  1  0.66965462  0.66885566  0.49439102  1
  Te2-  Te193  1  0.67043316  0.67116144  0.83300517  1
  Pb2+  Pb194  1  0.17588686  0.33061297  0.83097485  1
  Pb2+  Pb195  1  0.00546492  0.66913146  0.66941961  1
  Pb2+  Pb196  1  0.00002620  0.49411887  0.50367684  1
  Pb2+  Pb197  1  0.16456262  0.66868122  0.16339219  1
  Pb2+  Pb198  1  0.49965388  0.50146386  0.67044789  1
  Pb2+  Pb199  1  0.66816076  0.34038114  0.33700352  1
  Pb2+  Pb200  1  0.33294841  -0.00023578  0.33550240  1
  Pb2+  Pb201  1  0.66663119  0.33336646  -0.00186738  1
  Pb2+  Pb202  1  0.00030841  0.16815752  0.16452965  1
  Pb2+  Pb203  1  -0.00311789  0.66556689  0.33051387  1
  Pb2+  Pb204  1  0.83402934  0.33180241  0.50074043  1
  Pb2+  Pb205  1  0.32393026  0.16948142  0.50700281  1
  Pb2+  Pb206  1  0.83278493  0.84255345  0.66444821  1
  Pb2+  Pb207  1  0.33279092  0.84338008  0.82478529  1
  Pb2+  Pb208  1  0.82718268  0.33193232  0.83454687  1
  Pb2+  Pb209  1  0.50215257  0.66896217  0.83600281  1
  Pb2+  Pb210  1  0.66697693  0.50285084  0.83765894  1
  Pb2+  Pb211  1  0.33458631  0.33397486  0.00033219  1
  Pb2+  Pb212  1  0.33251722  0.16510175  0.16084736  1
  Pb2+  Pb213  1  0.66654351  0.16794506  0.16694764  1
  Pb2+  Pb214  1  0.50236714  0.16792919  0.33683102  1
  Pb2+  Pb215  1  0.33381658  0.49617206  0.83188601  1
