# generated using pymatgen
data_In22Ag21Sn22Bi21(Te54Pb11)2
_symmetry_space_group_name_H-M   'P 1'
_cell_length_a   19.19034885
_cell_length_b   19.14960107
_cell_length_c   19.16073108
_cell_angle_alpha   90.00451503
_cell_angle_beta   89.99817986
_cell_angle_gamma   90.01621666
_symmetry_Int_Tables_number   1
_chemical_formula_structural   In22Ag21Sn22Bi21(Te54Pb11)2
_chemical_formula_sum   'In22 Ag21 Sn22 Bi21 Te108 Pb22'
_cell_volume   7041.32933040
_cell_formula_units_Z   1
loop_
 _symmetry_equiv_pos_site_id
 _symmetry_equiv_pos_as_xyz
  1  'x, y, z'
loop_
 _atom_type_symbol
 _atom_type_oxidation_number
  In3+  3.0
  Ag+  1.0
  Sn2+  2.0
  Bi3+  3.0
  Te2-  -2.0
  Pb2+  2.0
loop_
 _atom_site_type_symbol
 _atom_site_label
 _atom_site_symmetry_multiplicity
 _atom_site_fract_x
 _atom_site_fract_y
 _atom_site_fract_z
 _atom_site_occupancy
  In3+  In0  1  0.32447472  0.48906673  0.48480434  1
  In3+  In1  1  0.68921078  0.00169069  0.66158775  1
  In3+  In2  1  0.15707338  0.80855046  0.66173908  1
  In3+  In3  1  0.01062794  0.17823184  0.15156718  1
  In3+  In4  1  0.67046437  0.49197528  0.81010267  1
  In3+  In5  1  0.83183244  0.18074299  0.32434420  1
  In3+  In6  1  0.83499744  0.49547222  0.65090600  1
  In3+  In7  1  0.47964653  0.49044139  0.65533131  1
  In3+  In8  1  0.66678176  0.32365378  0.66183873  1
  In3+  In9  1  0.31955020  -0.01514959  -0.00131269  1
  In3+  In10  1  0.31148924  0.49296020  0.84364911  1
  In3+  In11  1  0.83901111  0.85921915  0.00355958  1
  In3+  In12  1  0.00070819  0.48454575  0.16882532  1
  In3+  In13  1  0.01071025  -0.00109244  0.32345978  1
  In3+  In14  1  0.31699923  0.33615274  0.34726490  1
  In3+  In15  1  0.00925944  0.67216258  0.31268149  1
  In3+  In16  1  0.49596455  0.02394550  0.49907632  1
  In3+  In17  1  0.50166749  0.16616097  0.01915586  1
  In3+  In18  1  0.84330885  0.65292050  0.16901984  1
  In3+  In19  1  0.83670763  0.83373274  0.30793885  1
  In3+  In20  1  0.15211391  0.17929524  0.67270541  1
  In3+  In21  1  0.84734094  -0.00166558  0.50132430  1
  Ag+  Ag22  1  0.47568334  0.49162942  0.31222769  1
  Ag+  Ag23  1  0.68331807  0.80467757  0.14146562  1
  Ag+  Ag24  1  0.03308363  -0.02753441  0.63538008  1
  Ag+  Ag25  1  0.14251163  0.32762253  0.84203594  1
  Ag+  Ag26  1  0.19061214  0.83169585  0.30916726  1
  Ag+  Ag27  1  -0.02456329  0.64128526  0.65420464  1
  Ag+  Ag28  1  0.50168787  0.34140229  0.47802599  1
  Ag+  Ag29  1  0.02245164  0.83207427  0.18450047  1
  Ag+  Ag30  1  0.85048667  0.17048631  0.02279159  1
  Ag+  Ag31  1  0.66695894  0.14026492  0.85471993  1
  Ag+  Ag32  1  0.03427224  0.35494070  -0.02568829  1
  Ag+  Ag33  1  0.14470383  0.33666612  0.47625417  1
  Ag+  Ag34  1  0.30621971  0.32709985  0.63853729  1
  Ag+  Ag35  1  0.14520464  0.68861232  0.83630222  1
  Ag+  Ag36  1  0.85442441  0.33296695  0.15943532  1
  Ag+  Ag37  1  0.83850687  0.48205859  0.31593044  1
  Ag+  Ag38  1  0.31382747  0.86355774  0.19709197  1
  Ag+  Ag39  1  0.17356679  0.51782138  0.00697496  1
  Ag+  Ag40  1  0.46702516  0.20468730  0.36039756  1
  Ag+  Ag41  1  0.29964318  0.50696118  0.14580288  1
  Ag+  Ag42  1  0.19597083  0.16144257  0.02706378  1
  Sn2+  Sn43  1  0.33500617  0.17948147  0.16397577  1
  Sn2+  Sn44  1  0.67482283  0.67172206  0.67408951  1
  Sn2+  Sn45  1  0.83958042  0.66116666  0.84338561  1
  Sn2+  Sn46  1  0.50897427  0.83285833  0.32732130  1
  Sn2+  Sn47  1  0.00295299  0.50923432  0.49361780  1
  Sn2+  Sn48  1  0.32773418  0.16895501  0.50543228  1
  Sn2+  Sn49  1  0.49290282  0.83118126  0.66167450  1
  Sn2+  Sn50  1  0.16960370  0.66706560  0.16087451  1
  Sn2+  Sn51  1  0.66089338  0.00257983  0.00465218  1
  Sn2+  Sn52  1  0.67136364  0.66535249  0.00047611  1
  Sn2+  Sn53  1  0.32220016  0.66664914  0.00341776  1
  Sn2+  Sn54  1  0.32640158  0.01573662  0.66761228  1
  Sn2+  Sn55  1  0.66336779  0.33649470  0.33145112  1
  Sn2+  Sn56  1  0.17165302  0.33475758  0.14578355  1
  Sn2+  Sn57  1  0.66321304  0.49775773  0.49048667  1
  Sn2+  Sn58  1  0.00381820  0.83164531  0.83655548  1
  Sn2+  Sn59  1  0.67095277  0.83543584  0.83964675  1
  Sn2+  Sn60  1  0.83421561  0.32666957  0.84851217  1
  Sn2+  Sn61  1  0.00106086  0.66138507  -0.00302007  1
  Sn2+  Sn62  1  0.33112078  0.66766137  0.32580172  1
  Sn2+  Sn63  1  -0.00052527  0.33300233  0.33725648  1
  Sn2+  Sn64  1  0.00445136  0.33171031  0.66575648  1
  Bi3+  Bi65  1  0.66624663  -0.00204690  0.33688977  1
  Bi3+  Bi66  1  0.33879768  0.66482059  0.67065345  1
  Bi3+  Bi67  1  0.50226716  0.66414892  0.83438236  1
  Bi3+  Bi68  1  0.83350911  0.49225482  0.00234178  1
  Bi3+  Bi69  1  0.16504382  0.49519298  0.67861510  1
  Bi3+  Bi70  1  -0.00228333  0.00076362  0.00377744  1
  Bi3+  Bi71  1  0.66789215  0.16650901  0.16414045  1
  Bi3+  Bi72  1  0.83222926  0.17415353  0.66723526  1
  Bi3+  Bi73  1  0.66519007  0.83302195  0.50418085  1
  Bi3+  Bi74  1  0.50155869  0.33254172  0.16858315  1
  Bi3+  Bi75  1  0.33415876  0.82569293  0.50031445  1
  Bi3+  Bi76  1  0.33564366  0.82666896  0.83300479  1
  Bi3+  Bi77  1  0.67061227  0.33384656  0.00002787  1
  Bi3+  Bi78  1  0.66677207  0.66730490  0.33548893  1
  Bi3+  Bi79  1  0.66832874  0.49804299  0.17187892  1
  Bi3+  Bi80  1  0.33249383  0.33009406  0.00108845  1
  Bi3+  Bi81  1  0.50130396  0.16969743  0.66660603  1
  Bi3+  Bi82  1  0.50133694  -0.00247063  0.17034339  1
  Bi3+  Bi83  1  0.00006425  0.17304022  0.50100689  1
  Bi3+  Bi84  1  0.49999062  0.65932179  0.50171064  1
  Bi3+  Bi85  1  0.50688734  0.33490912  0.83312350  1
  Te2-  Te86  1  0.16150715  0.16736900  0.17213935  1
  Te2-  Te87  1  0.16362503  0.18671676  0.50638203  1
  Te2-  Te88  1  0.16798033  0.17647105  0.82287700  1
  Te2-  Te89  1  0.15406224  0.50139665  0.15800320  1
  Te2-  Te90  1  0.17028003  0.48576320  0.50482484  1
  Te2-  Te91  1  0.16210440  0.48171129  0.84311078  1
  Te2-  Te92  1  0.17282126  0.82597974  0.16364408  1
  Te2-  Te93  1  0.17256620  0.83083887  0.50889239  1
  Te2-  Te94  1  0.17374899  0.83360212  0.82890059  1
  Te2-  Te95  1  0.50386843  0.16573067  0.17694758  1
  Te2-  Te96  1  0.49665520  0.17781135  0.50131432  1
  Te2-  Te97  1  0.51388048  0.16956255  0.82626314  1
  Te2-  Te98  1  0.50531573  0.49721771  0.16944883  1
  Te2-  Te99  1  0.49727164  0.49549480  0.50388828  1
  Te2-  Te100  1  0.51700809  0.50202446  0.83254954  1
  Te2-  Te101  1  0.49509505  0.83643351  0.16949525  1
  Te2-  Te102  1  0.49843751  0.82363360  0.49789349  1
  Te2-  Te103  1  0.49902198  0.82970481  0.83027859  1
  Te2-  Te104  1  0.83241284  0.17834133  0.17016107  1
  Te2-  Te105  1  0.83634326  0.16093250  0.50182001  1
  Te2-  Te106  1  0.81639219  0.16865917  0.82543059  1
  Te2-  Te107  1  0.83595519  0.49542245  0.16737034  1
  Te2-  Te108  1  0.83756317  0.50223259  0.50005771  1
  Te2-  Te109  1  0.82748648  0.50005711  0.84098386  1
  Te2-  Te110  1  0.82486883  0.83598211  0.15613440  1
  Te2-  Te111  1  0.83065299  0.83977628  0.51244924  1
  Te2-  Te112  1  0.83354404  0.82905519  0.84630095  1
  Te2-  Te113  1  0.16621843  0.01355731  0.00044951  1
  Te2-  Te114  1  0.16406632  -0.01528655  0.33454961  1
  Te2-  Te115  1  0.16992639  0.01492166  0.66561443  1
  Te2-  Te116  1  0.17158946  0.31091535  -0.00497253  1
  Te2-  Te117  1  0.16748669  0.33811774  0.32958736  1
  Te2-  Te118  1  0.16723385  0.33454742  0.68099314  1
  Te2-  Te119  1  0.16296830  0.66323286  -0.01299100  1
  Te2-  Te120  1  0.16092614  0.67677092  0.33535345  1
  Te2-  Te121  1  0.17476245  0.65768139  0.68449666  1
  Te2-  Te122  1  0.50241927  0.00566795  0.00223462  1
  Te2-  Te123  1  0.50399562  0.00226796  0.33726053  1
  Te2-  Te124  1  0.48856434  0.00461920  0.65614979  1
  Te2-  Te125  1  0.50249791  0.32956878  0.00176033  1
  Te2-  Te126  1  0.50514915  0.34229311  0.32950380  1
  Te2-  Te127  1  0.51228647  0.33861509  0.67169212  1
  Te2-  Te128  1  0.49998461  0.66609176  -0.00113744  1
  Te2-  Te129  1  0.50220774  0.65763873  0.34002244  1
  Te2-  Te130  1  0.50335479  0.65723787  0.66789035  1
  Te2-  Te131  1  0.83203774  0.01510479  0.00467899  1
  Te2-  Te132  1  0.82763662  -0.01076155  0.34442426  1
  Te2-  Te133  1  0.84155983  0.00592088  0.66196144  1
  Te2-  Te134  1  0.83153575  0.32686499  0.01066727  1
  Te2-  Te135  1  0.83372852  0.33483195  0.32998138  1
  Te2-  Te136  1  0.82823355  0.33797186  0.66813848  1
  Te2-  Te137  1  0.83310040  0.65728584  0.01035619  1
  Te2-  Te138  1  0.83235290  0.67733071  0.32527690  1
  Te2-  Te139  1  0.83206832  0.66177499  0.67186917  1
  Te2-  Te140  1  -0.00430855  0.16235417  0.00480911  1
  Te2-  Te141  1  -0.00887992  0.15700024  0.33863145  1
  Te2-  Te142  1  -0.00347899  0.16744939  0.66423650  1
  Te2-  Te143  1  -0.00392019  0.49200489  0.01274404  1
  Te2-  Te144  1  -0.01046284  0.51024844  0.32460811  1
  Te2-  Te145  1  0.00016445  0.49740479  0.66618048  1
  Te2-  Te146  1  -0.00711787  0.83676651  -0.00165606  1
  Te2-  Te147  1  -0.00947649  0.82822759  0.32925782  1
  Te2-  Te148  1  0.00731960  0.83462382  0.67139859  1
  Te2-  Te149  1  0.34263278  0.16755110  0.00004883  1
  Te2-  Te150  1  0.32771884  0.17226548  0.33600639  1
  Te2-  Te151  1  0.33996489  0.18224529  0.66256457  1
  Te2-  Te152  1  0.32122417  0.49536147  0.00039118  1
  Te2-  Te153  1  0.33043879  0.49516370  0.33291660  1
  Te2-  Te154  1  0.32919821  0.49960694  0.67738777  1
  Te2-  Te155  1  0.33287259  0.83155116  -0.00386427  1
  Te2-  Te156  1  0.33730773  0.82746974  0.33660890  1
  Te2-  Te157  1  0.33192388  0.83051413  0.66748921  1
  Te2-  Te158  1  0.66212540  0.16972609  0.00083587  1
  Te2-  Te159  1  0.67438354  0.16394275  0.32923708  1
  Te2-  Te160  1  0.66694703  0.16300322  0.66181828  1
  Te2-  Te161  1  0.66831923  0.49815813  0.00925398  1
  Te2-  Te162  1  0.68608277  0.50542344  0.33244041  1
  Te2-  Te163  1  0.68005718  0.50246932  0.66005791  1
  Te2-  Te164  1  0.67272939  0.83537638  -0.00035688  1
  Te2-  Te165  1  0.67354124  0.83268648  0.34061166  1
  Te2-  Te166  1  0.66254291  0.84077072  0.66617450  1
  Te2-  Te167  1  -0.00280843  -0.01656181  0.17009097  1
  Te2-  Te168  1  0.00280248  0.00517226  0.49515453  1
  Te2-  Te169  1  -0.00182376  -0.00181730  0.84103666  1
  Te2-  Te170  1  0.00129940  0.32971479  0.17401947  1
  Te2-  Te171  1  -0.00236218  0.33665782  0.49666886  1
  Te2-  Te172  1  -0.00739845  0.33172607  0.83524870  1
  Te2-  Te173  1  -0.00485011  0.68304767  0.16261607  1
  Te2-  Te174  1  0.00274387  0.66540434  0.51175509  1
  Te2-  Te175  1  -0.00091637  0.67050008  0.83230283  1
  Te2-  Te176  1  0.33809723  0.00455160  0.15869400  1
  Te2-  Te177  1  0.33939700  -0.00768522  0.49878275  1
  Te2-  Te178  1  0.33482408  -0.00373643  0.83851253  1
  Te2-  Te179  1  0.33786689  0.33773711  0.16581477  1
  Te2-  Te180  1  0.34796057  0.33840665  0.49925568  1
  Te2-  Te181  1  0.34680830  0.34158398  0.83856806  1
  Te2-  Te182  1  0.32822927  0.65150930  0.16616491  1
  Te2-  Te183  1  0.33592828  0.66021995  0.50450378  1
  Te2-  Te184  1  0.34075377  0.66067081  0.83435456  1
  Te2-  Te185  1  0.66335595  0.00174961  0.17223111  1
  Te2-  Te186  1  0.65484517  -0.00502536  0.50151794  1
  Te2-  Te187  1  0.66608904  -0.00474899  0.82980307  1
  Te2-  Te188  1  0.66581260  0.33148035  0.16545053  1
  Te2-  Te189  1  0.65610661  0.33733147  0.50104067  1
  Te2-  Te190  1  0.66829934  0.33860992  0.83552224  1
  Te2-  Te191  1  0.66818131  0.66335403  0.17285873  1
  Te2-  Te192  1  0.66546704  0.66909046  0.50117894  1
  Te2-  Te193  1  0.66545348  0.66919406  0.83693941  1
  Pb2+  Pb194  1  0.16830112  0.65701823  0.50831245  1
  Pb2+  Pb195  1  0.16010473  0.50747217  0.32988085  1
  Pb2+  Pb196  1  0.66704375  0.16637343  0.49508321  1
  Pb2+  Pb197  1  0.33630738  0.17299906  0.83040164  1
  Pb2+  Pb198  1  0.33753999  0.00218338  0.33000954  1
  Pb2+  Pb199  1  0.82488643  0.33336655  0.49650377  1
  Pb2+  Pb200  1  0.16054701  0.83452071  -0.00216082  1
  Pb2+  Pb201  1  0.83603006  0.67016394  0.49447761  1
  Pb2+  Pb202  1  0.83330344  0.00746084  0.17527484  1
  Pb2+  Pb203  1  0.16464048  -0.00236165  0.16752690  1
  Pb2+  Pb204  1  0.50273517  0.83546138  0.00296194  1
  Pb2+  Pb205  1  0.83333523  0.00236023  0.83437478  1
  Pb2+  Pb206  1  0.49199174  0.49951909  -0.00013498  1
  Pb2+  Pb207  1  -0.00401604  0.16548778  0.83814054  1
  Pb2+  Pb208  1  0.16408211  0.00486707  0.83206394  1
  Pb2+  Pb209  1  0.83646782  0.83217381  0.67860468  1
  Pb2+  Pb210  1  -0.00186722  0.50251758  0.83884757  1
  Pb2+  Pb211  1  0.00122179  0.83292752  0.49653040  1
  Pb2+  Pb212  1  0.49637862  0.66762918  0.17128755  1
  Pb2+  Pb213  1  0.17294783  0.00868015  0.50124182  1
  Pb2+  Pb214  1  0.15960743  0.16599864  0.33949832  1
  Pb2+  Pb215  1  0.50069456  0.00353150  0.82563757  1
