# generated using pymatgen
data_In22Ag21Sn22Bi21(Te54Pb11)2
_symmetry_space_group_name_H-M   'P 1'
_cell_length_a   19.14702399
_cell_length_b   19.13386321
_cell_length_c   19.14602520
_cell_angle_alpha   90.00705728
_cell_angle_beta   90.00880598
_cell_angle_gamma   89.98922317
_symmetry_Int_Tables_number   1
_chemical_formula_structural   In22Ag21Sn22Bi21(Te54Pb11)2
_chemical_formula_sum   'In22 Ag21 Sn22 Bi21 Te108 Pb22'
_cell_volume   7014.27125011
_cell_formula_units_Z   1
loop_
 _symmetry_equiv_pos_site_id
 _symmetry_equiv_pos_as_xyz
  1  'x, y, z'
loop_
 _atom_type_symbol
 _atom_type_oxidation_number
  In3+  3.0
  Ag+  1.0
  Sn2+  2.0
  Bi3+  3.0
  Te2-  -2.0
  Pb2+  2.0
loop_
 _atom_site_type_symbol
 _atom_site_label
 _atom_site_symmetry_multiplicity
 _atom_site_fract_x
 _atom_site_fract_y
 _atom_site_fract_z
 _atom_site_occupancy
  In3+  In0  1  0.83304678  0.32835169  0.49946317  1
  In3+  In1  1  0.00475606  -0.00669384  0.01598080  1
  In3+  In2  1  0.85556694  -0.00433906  0.83672466  1
  In3+  In3  1  0.01319754  0.32853638  0.65827380  1
  In3+  In4  1  0.66765383  0.48641962  0.16032573  1
  In3+  In5  1  0.84357515  0.16370122  0.32075419  1
  In3+  In6  1  0.66816522  0.17363440  0.19269185  1
  In3+  In7  1  0.16629891  0.01499195  0.48188946  1
  In3+  In8  1  0.49299430  0.01339218  0.82863656  1
  In3+  In9  1  0.64004822  0.83653936  0.83166573  1
  In3+  In10  1  0.66354701  0.65642698  0.67182537  1
  In3+  In11  1  0.17745189  -0.01066580  0.83931886  1
  In3+  In12  1  0.31786565  0.15874640  0.17443710  1
  In3+  In13  1  0.64848252  0.00081839  0.32789297  1
  In3+  In14  1  0.83766961  0.82474720  -0.00041730  1
  In3+  In15  1  0.67001379  0.64870569  0.33054378  1
  In3+  In16  1  0.32269780  0.17703815  0.81660779  1
  In3+  In17  1  0.15739035  0.68133339  0.50233067  1
  In3+  In18  1  0.51919073  0.49817996  -0.01747814  1
  In3+  In19  1  0.33184214  0.67814411  -0.00960206  1
  In3+  In20  1  0.66519633  0.32823876  -0.01426264  1
  In3+  In21  1  0.15498986  0.17108382  0.33760756  1
  Ag+  Ag22  1  0.49705765  0.31519422  0.81399080  1
  Ag+  Ag23  1  0.82863042  0.47449537  0.01403070  1
  Ag+  Ag24  1  0.17127523  -0.00438333  0.17902826  1
  Ag+  Ag25  1  0.17954649  0.85226810  0.33308016  1
  Ag+  Ag26  1  0.01972894  0.16734509  0.14333869  1
  Ag+  Ag27  1  0.35904056  0.36035709  0.68627323  1
  Ag+  Ag28  1  0.32189791  0.86182570  0.80902988  1
  Ag+  Ag29  1  0.46709843  0.47079498  0.69064826  1
  Ag+  Ag30  1  -0.01682998  0.18690717  0.50048038  1
  Ag+  Ag31  1  0.47460100  0.16712888  0.31166863  1
  Ag+  Ag32  1  0.02780591  0.85341575  0.50933548  1
  Ag+  Ag33  1  0.67493382  0.34162374  0.33614585  1
  Ag+  Ag34  1  0.52846352  0.01940707  0.46983159  1
  Ag+  Ag35  1  0.86060348  0.64080948  0.14672172  1
  Ag+  Ag36  1  -0.00498400  0.47537036  0.81098863  1
  Ag+  Ag37  1  0.19518867  0.35424766  0.47306548  1
  Ag+  Ag38  1  0.16679597  0.84460069  -0.02079053  1
  Ag+  Ag39  1  0.13815391  0.33544227  0.82501659  1
  Ag+  Ag40  1  0.33805481  -0.00111179  0.65165834  1
  Ag+  Ag41  1  0.83558718  0.47127351  0.69731811  1
  Ag+  Ag42  1  0.30838013  0.00273824  0.35315227  1
  Sn2+  Sn43  1  -0.00041007  0.48844994  0.16166714  1
  Sn2+  Sn44  1  0.84003002  0.17030841  -0.00023447  1
  Sn2+  Sn45  1  0.32430518  0.83489762  0.16611232  1
  Sn2+  Sn46  1  0.83202389  0.34036725  0.82687678  1
  Sn2+  Sn47  1  0.49941258  0.84059115  0.33918443  1
  Sn2+  Sn48  1  -0.01028743  0.65777498  0.66396545  1
  Sn2+  Sn49  1  0.33385501  0.69080241  0.32934699  1
  Sn2+  Sn50  1  -0.00629462  0.32933360  0.33544667  1
  Sn2+  Sn51  1  0.01043054  -0.00255725  0.66346045  1
  Sn2+  Sn52  1  0.00395055  0.83990917  0.17551632  1
  Sn2+  Sn53  1  0.16818276  0.83890221  0.66137955  1
  Sn2+  Sn54  1  0.66554093  0.34126513  0.65976170  1
  Sn2+  Sn55  1  0.49807460  0.17077338  0.00779096  1
  Sn2+  Sn56  1  0.66562506  0.17041638  0.50130298  1
  Sn2+  Sn57  1  0.66982811  0.83806985  0.50207823  1
  Sn2+  Sn58  1  0.83820762  0.83585562  0.33161439  1
  Sn2+  Sn59  1  0.33718511  0.33528874  -0.00967156  1
  Sn2+  Sn60  1  0.00320084  0.33853910  0.00167734  1
  Sn2+  Sn61  1  0.83790920  -0.00644595  0.16525919  1
  Sn2+  Sn62  1  0.48932904  0.00011583  0.16965987  1
  Sn2+  Sn63  1  0.00144774  0.49623585  0.50073401  1
  Sn2+  Sn64  1  0.00678200  0.83194829  0.82730464  1
  Bi3+  Bi65  1  0.67011130  0.50221912  0.49969365  1
  Bi3+  Bi66  1  0.32983521  0.16510090  0.49949539  1
  Bi3+  Bi67  1  0.33492222  0.83399115  0.49954801  1
  Bi3+  Bi68  1  0.00617561  0.67204203  0.00059967  1
  Bi3+  Bi69  1  0.49833445  0.66749190  0.16885473  1
  Bi3+  Bi70  1  0.49670904  0.16342400  0.66636799  1
  Bi3+  Bi71  1  0.50125216  0.66526197  0.83313546  1
  Bi3+  Bi72  1  0.33297518  -0.00011620  0.00688642  1
  Bi3+  Bi73  1  0.66369666  0.16381673  0.83478825  1
  Bi3+  Bi74  1  0.83185577  0.16524746  0.66862701  1
  Bi3+  Bi75  1  0.83262580  0.66607819  0.49407837  1
  Bi3+  Bi76  1  0.66851566  0.83686747  0.16864532  1
  Bi3+  Bi77  1  0.16663440  0.67585978  0.17341707  1
  Bi3+  Bi78  1  -0.00091687  -0.00254393  0.33106055  1
  Bi3+  Bi79  1  0.15951568  0.50046873  -0.00121340  1
  Bi3+  Bi80  1  0.83819164  0.83334508  0.67017516  1
  Bi3+  Bi81  1  0.49997496  0.33322268  0.16971431  1
  Bi3+  Bi82  1  0.50047615  0.66982493  0.49875475  1
  Bi3+  Bi83  1  -0.00137416  0.66905009  0.33389423  1
  Bi3+  Bi84  1  0.33788338  0.49667761  0.16700882  1
  Bi3+  Bi85  1  0.16547654  0.16532426  0.66599679  1
  Te2-  Te86  1  0.16402537  0.15785881  0.17433391  1
  Te2-  Te87  1  0.16755050  0.16744245  0.50030054  1
  Te2-  Te88  1  0.17093863  0.18249966  0.83227101  1
  Te2-  Te89  1  0.17028933  0.50459673  0.16411100  1
  Te2-  Te90  1  0.16150866  0.49363817  0.50173938  1
  Te2-  Te91  1  0.15107699  0.49044579  0.83752685  1
  Te2-  Te92  1  0.16437487  0.83734914  0.18065554  1
  Te2-  Te93  1  0.17173790  0.83333215  0.49171026  1
  Te2-  Te94  1  0.17576397  0.83441155  0.83194877  1
  Te2-  Te95  1  0.51503049  0.16848852  0.16851217  1
  Te2-  Te96  1  0.49604225  0.15769282  0.50717655  1
  Te2-  Te97  1  0.49807036  0.16867212  0.83681192  1
  Te2-  Te98  1  0.50480040  0.50262653  0.16626272  1
  Te2-  Te99  1  0.50684319  0.50541626  0.50101441  1
  Te2-  Te100  1  0.50469354  0.50480237  0.82808051  1
  Te2-  Te101  1  0.50064547  0.83111779  0.17199247  1
  Te2-  Te102  1  0.49947649  0.83348913  0.50001009  1
  Te2-  Te103  1  0.48509570  0.82555628  0.83854692  1
  Te2-  Te104  1  0.82199614  0.16119983  0.16838957  1
  Te2-  Te105  1  0.83508033  0.16916855  0.50762686  1
  Te2-  Te106  1  0.82666421  0.16021493  0.83003599  1
  Te2-  Te107  1  0.82505722  0.50047479  0.16207231  1
  Te2-  Te108  1  0.83151272  0.50326618  0.49696809  1
  Te2-  Te109  1  0.84394331  0.49801689  0.84095843  1
  Te2-  Te110  1  0.83182109  0.83606840  0.16053335  1
  Te2-  Te111  1  0.83145664  0.82926965  0.50362208  1
  Te2-  Te112  1  0.83907476  0.84070825  0.83703234  1
  Te2-  Te113  1  0.16217099  -0.00694716  -0.00402065  1
  Te2-  Te114  1  0.16124322  0.00032517  0.32757133  1
  Te2-  Te115  1  0.16914213  0.00435422  0.68269497  1
  Te2-  Te116  1  0.16480531  0.33507652  -0.00586209  1
  Te2-  Te117  1  0.16199339  0.32400182  0.33327821  1
  Te2-  Te118  1  0.16147909  0.32501836  0.67643222  1
  Te2-  Te119  1  0.16881033  0.66958767  0.00738736  1
  Te2-  Te120  1  0.16499708  0.66992749  0.33801447  1
  Te2-  Te121  1  0.16014212  0.66900773  0.65828489  1
  Te2-  Te122  1  0.49725095  0.00002734  0.00389724  1
  Te2-  Te123  1  0.49846218  0.01281743  0.32774360  1
  Te2-  Te124  1  0.48738510  0.00067076  0.67464484  1
  Te2-  Te125  1  0.50832535  0.34055601  0.00826769  1
  Te2-  Te126  1  0.50402104  0.31560838  0.33050554  1
  Te2-  Te127  1  0.50334709  0.32918579  0.66623246  1
  Te2-  Te128  1  0.49610787  0.66089880  0.00272209  1
  Te2-  Te129  1  0.50079352  0.67046261  0.33305334  1
  Te2-  Te130  1  0.50682751  0.66602220  0.66422858  1
  Te2-  Te131  1  0.84484715  0.00188833  -0.00443476  1
  Te2-  Te132  1  0.83978020  0.00472307  0.33256484  1
  Te2-  Te133  1  0.83609411  -0.00099864  0.67537769  1
  Te2-  Te134  1  0.83019804  0.32924534  -0.00158314  1
  Te2-  Te135  1  0.82773599  0.32068004  0.33952030  1
  Te2-  Te136  1  0.82932681  0.32705367  0.66039747  1
  Te2-  Te137  1  0.84052745  0.67280748  0.00516399  1
  Te2-  Te138  1  0.83325784  0.67146396  0.33125612  1
  Te2-  Te139  1  0.82738595  0.67203611  0.66042551  1
  Te2-  Te140  1  -0.00097230  0.16537247  -0.00278415  1
  Te2-  Te141  1  -0.00164337  0.16538259  0.34882375  1
  Te2-  Te142  1  -0.00215816  0.16868975  0.65455553  1
  Te2-  Te143  1  -0.00304235  0.50601449  0.00719653  1
  Te2-  Te144  1  0.00021768  0.50033407  0.32484107  1
  Te2-  Te145  1  -0.01665302  0.49881312  0.66598340  1
  Te2-  Te146  1  0.00619915  0.83709885  0.00255128  1
  Te2-  Te147  1  -0.00167007  0.83206982  0.34113709  1
  Te2-  Te148  1  -0.00077395  0.83282582  0.65648471  1
  Te2-  Te149  1  0.33582953  0.16624882  0.01422353  1
  Te2-  Te150  1  0.32763693  0.15390313  0.33221409  1
  Te2-  Te151  1  0.33226770  0.15433332  0.66591269  1
  Te2-  Te152  1  0.32528060  0.49744149  0.00656491  1
  Te2-  Te153  1  0.33442481  0.49477967  0.32954236  1
  Te2-  Te154  1  0.32577541  0.50349047  0.66831954  1
  Te2-  Te155  1  0.31984910  0.83349663  0.00646796  1
  Te2-  Te156  1  0.32988658  0.84935177  0.33555967  1
  Te2-  Te157  1  0.32939204  0.84333427  0.66263024  1
  Te2-  Te158  1  0.66728515  0.17335829  -0.00443626  1
  Te2-  Te159  1  0.67821337  0.15399079  0.34296744  1
  Te2-  Te160  1  0.66431241  0.16776274  0.67031711  1
  Te2-  Te161  1  0.67913206  0.49628341  0.00571126  1
  Te2-  Te162  1  0.66769020  0.49122787  0.33294993  1
  Te2-  Te163  1  0.68291373  0.50158003  0.66285367  1
  Te2-  Te164  1  0.67198767  0.83667425  0.00219561  1
  Te2-  Te165  1  0.66805196  0.84675934  0.33131429  1
  Te2-  Te166  1  0.67364627  0.83385043  0.67385694  1
  Te2-  Te167  1  0.00542940  0.01209165  0.16729480  1
  Te2-  Te168  1  0.01076115  -0.00187071  0.49668194  1
  Te2-  Te169  1  0.00924889  -0.00304610  0.83154506  1
  Te2-  Te170  1  -0.00093696  0.31872327  0.16776696  1
  Te2-  Te171  1  -0.00752962  0.33574061  0.50299801  1
  Te2-  Te172  1  -0.01086814  0.32993206  0.83476378  1
  Te2-  Te173  1  0.00400482  0.66799880  0.16932923  1
  Te2-  Te174  1  -0.00130981  0.66371880  0.49544026  1
  Te2-  Te175  1  0.00162315  0.67304968  0.83589911  1
  Te2-  Te176  1  0.32233597  0.00396854  0.16624584  1
  Te2-  Te177  1  0.32061853  -0.00123169  0.50218796  1
  Te2-  Te178  1  0.33444170  0.00378509  0.84633514  1
  Te2-  Te179  1  0.33690770  0.33091706  0.16417356  1
  Te2-  Te180  1  0.33430208  0.32735149  0.50568088  1
  Te2-  Te181  1  0.34724634  0.32783167  0.83058747  1
  Te2-  Te182  1  0.33292981  0.66280538  0.16766889  1
  Te2-  Te183  1  0.33489748  0.66868449  0.49550531  1
  Te2-  Te184  1  0.33503394  0.66278688  0.83598508  1
  Te2-  Te185  1  0.66537084  -0.00026359  0.17134536  1
  Te2-  Te186  1  0.66987114  -0.00276622  0.49886548  1
  Te2-  Te187  1  0.65323850  -0.00085642  0.83719769  1
  Te2-  Te188  1  0.66433173  0.32980089  0.18278950  1
  Te2-  Te189  1  0.67408253  0.33621694  0.49026859  1
  Te2-  Te190  1  0.65725667  0.33002322  0.83332454  1
  Te2-  Te191  1  0.66032724  0.67366648  0.17378722  1
  Te2-  Te192  1  0.66624707  0.66909047  0.49385579  1
  Te2-  Te193  1  0.66580822  0.67330621  0.83550762  1
  Pb2+  Pb194  1  0.49376238  0.83304128  0.00504436  1
  Pb2+  Pb195  1  0.83577842  0.49802152  0.33145895  1
  Pb2+  Pb196  1  0.66903075  0.66782400  0.00752755  1
  Pb2+  Pb197  1  0.32746594  0.49515988  0.83942927  1
  Pb2+  Pb198  1  0.15395129  0.49398075  0.66926191  1
  Pb2+  Pb199  1  0.83613317  0.66644613  0.83209406  1
  Pb2+  Pb200  1  0.50209332  0.83319058  0.66913356  1
  Pb2+  Pb201  1  0.16633239  0.66105410  0.83356386  1
  Pb2+  Pb202  1  0.33467114  0.49846502  0.50179628  1
  Pb2+  Pb203  1  0.33697798  0.32263452  0.33498637  1
  Pb2+  Pb204  1  0.50019407  0.49479142  0.33413813  1
  Pb2+  Pb205  1  0.83362420  0.33173486  0.16704836  1
  Pb2+  Pb206  1  0.16689219  0.50165808  0.33620359  1
  Pb2+  Pb207  1  0.84097926  -0.00051660  0.50184080  1
  Pb2+  Pb208  1  0.67296047  0.00497830  0.00370660  1
  Pb2+  Pb209  1  0.00154301  0.16436362  0.82635843  1
  Pb2+  Pb210  1  0.65959165  0.00060781  0.66762412  1
  Pb2+  Pb211  1  0.16805592  0.16146188  0.00088272  1
  Pb2+  Pb212  1  0.33186113  0.67249021  0.66497875  1
  Pb2+  Pb213  1  0.50186567  0.32752920  0.49731212  1
  Pb2+  Pb214  1  0.16595522  0.33202040  0.16039266  1
  Pb2+  Pb215  1  0.67663244  0.49923929  0.83123981  1
