# generated using pymatgen
data_In22Ag21Sn22Bi21(Te54Pb11)2
_symmetry_space_group_name_H-M   'P 1'
_cell_length_a   19.11532133
_cell_length_b   19.12212929
_cell_length_c   19.12205689
_cell_angle_alpha   89.99695245
_cell_angle_beta   90.00057447
_cell_angle_gamma   90.00636390
_symmetry_Int_Tables_number   1
_chemical_formula_structural   In22Ag21Sn22Bi21(Te54Pb11)2
_chemical_formula_sum   'In22 Ag21 Sn22 Bi21 Te108 Pb22'
_cell_volume   6989.60214287
_cell_formula_units_Z   1
loop_
 _symmetry_equiv_pos_site_id
 _symmetry_equiv_pos_as_xyz
  1  'x, y, z'
loop_
 _atom_type_symbol
 _atom_type_oxidation_number
  In3+  3.0
  Ag+  1.0
  Sn2+  2.0
  Bi3+  3.0
  Te2-  -2.0
  Pb2+  2.0
loop_
 _atom_site_type_symbol
 _atom_site_label
 _atom_site_symmetry_multiplicity
 _atom_site_fract_x
 _atom_site_fract_y
 _atom_site_fract_z
 _atom_site_occupancy
  In3+  In0  1  -0.01542074  0.83311203  0.50119578  1
  In3+  In1  1  0.83480600  0.15720875  0.67986744  1
  In3+  In2  1  0.32580914  0.84675377  0.83322000  1
  In3+  In3  1  0.82517993  0.34718133  0.83163507  1
  In3+  In4  1  0.00652503  0.16666806  0.16781904  1
  In3+  In5  1  0.18085523  0.64771325  0.84216144  1
  In3+  In6  1  0.83720300  0.83536610  0.35512580  1
  In3+  In7  1  0.00008677  0.50484557  0.83752322  1
  In3+  In8  1  0.33140342  0.64508292  0.00170428  1
  In3+  In9  1  0.50525727  0.50670985  -0.00198723  1
  In3+  In10  1  0.16823784  0.82549969  0.33076607  1
  In3+  In11  1  0.33206025  0.18041649  0.14352900  1
  In3+  In12  1  -0.00084514  0.16660075  0.49927434  1
  In3+  In13  1  0.82810392  0.00323548  0.51823998  1
  In3+  In14  1  0.17936022  0.16291278  -0.00802009  1
  In3+  In15  1  0.50625867  0.81960698  0.66812643  1
  In3+  In16  1  -0.00022172  0.50854607  0.48285180  1
  In3+  In17  1  0.50851592  0.64802746  0.16720979  1
  In3+  In18  1  0.49514935  -0.01318419  0.15850544  1
  In3+  In19  1  0.17234282  -0.00324354  0.51442504  1
  In3+  In20  1  -0.00229123  0.33580177  0.00301474  1
  In3+  In21  1  0.01152208  0.34033838  0.67082054  1
  Ag+  Ag22  1  0.69646512  0.50510636  0.13660836  1
  Ag+  Ag23  1  0.35200895  0.50458127  0.81624719  1
  Ag+  Ag24  1  0.16690572  0.00001351  0.81950626  1
  Ag+  Ag25  1  0.80616201  0.52279133  0.00168219  1
  Ag+  Ag26  1  0.34950479  0.35910595  0.66665020  1
  Ag+  Ag27  1  0.34431828  0.14804163  0.83083080  1
  Ag+  Ag28  1  0.80639687  0.85318858  0.67859475  1
  Ag+  Ag29  1  0.68520163  0.83056655  0.47556096  1
  Ag+  Ag30  1  -0.00725197  0.66156759  0.31412170  1
  Ag+  Ag31  1  0.80573969  0.00451021  0.84723000  1
  Ag+  Ag32  1  0.33655341  0.48210606  0.14665169  1
  Ag+  Ag33  1  0.52383654  0.52187572  0.64204395  1
  Ag+  Ag34  1  0.64588807  0.64452785  0.66165703  1
  Ag+  Ag35  1  0.33222249  -0.01789026  -0.01146016  1
  Ag+  Ag36  1  0.17057203  0.52570822  0.35974480  1
  Ag+  Ag37  1  0.65793495  0.66508075  0.02248337  1
  Ag+  Ag38  1  0.69412802  0.13534958  0.83533552  1
  Ag+  Ag39  1  0.33767575  0.00917621  0.68964654  1
  Ag+  Ag40  1  0.16284508  0.47880170  -0.00111659  1
  Ag+  Ag41  1  0.69286641  0.50935767  0.84973679  1
  Ag+  Ag42  1  0.69686270  0.36013973  0.30614256  1
  Sn2+  Sn43  1  0.32151786  0.65694499  0.32146749  1
  Sn2+  Sn44  1  0.33119454  0.17009649  0.51835559  1
  Sn2+  Sn45  1  0.16810216  0.84164369  -0.00012578  1
  Sn2+  Sn46  1  0.32787614  0.34316144  -0.01808643  1
  Sn2+  Sn47  1  0.00415564  0.00167296  0.67053718  1
  Sn2+  Sn48  1  0.17319283  0.49842716  0.67715094  1
  Sn2+  Sn49  1  0.83396604  0.66462308  0.16374249  1
  Sn2+  Sn50  1  0.82927351  0.32949864  0.50922635  1
  Sn2+  Sn51  1  -0.00318500  0.83831791  0.17347389  1
  Sn2+  Sn52  1  0.33052136  0.83233973  0.15743574  1
  Sn2+  Sn53  1  0.17331011  0.16902292  0.67405775  1
  Sn2+  Sn54  1  0.66411197  0.17961748  0.15762123  1
  Sn2+  Sn55  1  0.66860460  0.82450716  0.16852718  1
  Sn2+  Sn56  1  0.66173394  -0.00929042  0.00199170  1
  Sn2+  Sn57  1  0.82480593  0.16641559  0.33188355  1
  Sn2+  Sn58  1  0.82972599  -0.00683419  0.15836934  1
  Sn2+  Sn59  1  0.17239470  0.32707846  0.83508020  1
  Sn2+  Sn60  1  0.33330827  0.33843949  0.33805833  1
  Sn2+  Sn61  1  0.51006584  0.65926225  0.83908834  1
  Sn2+  Sn62  1  0.16890129  0.65760195  0.16120795  1
  Sn2+  Sn63  1  0.65713164  -0.00328939  0.66564919  1
  Sn2+  Sn64  1  -0.00055210  -0.00657144  0.33875204  1
  Bi3+  Bi65  1  0.66179499  0.33175382  0.66936694  1
  Bi3+  Bi66  1  0.49861493  0.33080941  0.16828831  1
  Bi3+  Bi67  1  0.49752679  0.16708788  0.33170854  1
  Bi3+  Bi68  1  0.16934259  -0.00213357  0.16976543  1
  Bi3+  Bi69  1  0.50129068  -0.00038720  0.50065334  1
  Bi3+  Bi70  1  0.17068322  0.83533034  0.66701460  1
  Bi3+  Bi71  1  0.00681717  0.50206232  0.16113678  1
  Bi3+  Bi72  1  0.00577217  0.16898991  0.82938758  1
  Bi3+  Bi73  1  0.16500331  0.16139373  0.33275000  1
  Bi3+  Bi74  1  0.66401327  0.82326340  0.83441016  1
  Bi3+  Bi75  1  0.83348538  0.66621133  0.50310420  1
  Bi3+  Bi76  1  0.50048012  0.16813606  0.67091463  1
  Bi3+  Bi77  1  0.33231257  0.83605160  0.50059357  1
  Bi3+  Bi78  1  0.67178123  0.50346184  0.50214117  1
  Bi3+  Bi79  1  0.83091243  0.16391483  0.00008433  1
  Bi3+  Bi80  1  -0.00041492  0.66555672  0.66853354  1
  Bi3+  Bi81  1  0.50086207  0.16999394  -0.00171855  1
  Bi3+  Bi82  1  0.83225270  0.83258072  -0.00663355  1
  Bi3+  Bi83  1  0.33289944  0.00283017  0.33306583  1
  Bi3+  Bi84  1  0.83222641  0.67454866  0.83010095  1
  Bi3+  Bi85  1  0.49508677  0.33908818  0.83505389  1
  Te2-  Te86  1  0.16841460  0.16336459  0.16791571  1
  Te2-  Te87  1  0.15729817  0.15573986  0.49923463  1
  Te2-  Te88  1  0.16633562  0.15756361  0.83742143  1
  Te2-  Te89  1  0.16776226  0.50291269  0.15320696  1
  Te2-  Te90  1  0.15298562  0.49873922  0.50440512  1
  Te2-  Te91  1  0.15758621  0.49735054  0.84235754  1
  Te2-  Te92  1  0.16266191  0.83444006  0.17102843  1
  Te2-  Te93  1  0.16785117  0.83948888  0.50009906  1
  Te2-  Te94  1  0.17200693  0.84457841  0.82992684  1
  Te2-  Te95  1  0.49911688  0.16814848  0.16568577  1
  Te2-  Te96  1  0.50265202  0.16206882  0.50101719  1
  Te2-  Te97  1  0.49378651  0.17403322  0.83540476  1
  Te2-  Te98  1  0.48448135  0.49677980  0.15927177  1
  Te2-  Te99  1  0.50302568  0.50179656  0.49762371  1
  Te2-  Te100  1  0.49651231  0.50001689  0.84546393  1
  Te2-  Te101  1  0.50258789  0.83444987  0.16561215  1
  Te2-  Te102  1  0.49784225  0.83834884  0.50666948  1
  Te2-  Te103  1  0.49511383  0.82862590  0.82702056  1
  Te2-  Te104  1  0.82519375  0.16095384  0.16416496  1
  Te2-  Te105  1  0.83738951  0.15736775  0.49923057  1
  Te2-  Te106  1  0.84122663  0.15069505  0.83330180  1
  Te2-  Te107  1  0.84213241  0.50147268  0.15297246  1
  Te2-  Te108  1  0.83872983  0.50040299  0.49808840  1
  Te2-  Te109  1  0.84095055  0.50308910  0.84869677  1
  Te2-  Te110  1  0.83081607  0.82943046  0.15841847  1
  Te2-  Te111  1  0.82811346  0.83384565  0.51215528  1
  Te2-  Te112  1  0.83128898  0.84047218  0.82762741  1
  Te2-  Te113  1  0.18175627  0.00897447  0.01076429  1
  Te2-  Te114  1  0.16767456  -0.00156838  0.33248145  1
  Te2-  Te115  1  0.17644083  0.00024049  0.66631138  1
  Te2-  Te116  1  0.15890185  0.32189479  -0.00324444  1
  Te2-  Te117  1  0.16705917  0.32400544  0.33298469  1
  Te2-  Te118  1  0.16305955  0.32946079  0.66893363  1
  Te2-  Te119  1  0.16927307  0.68053576  -0.00782179  1
  Te2-  Te120  1  0.16252962  0.67050110  0.33258761  1
  Te2-  Te121  1  0.16310380  0.66913086  0.67944842  1
  Te2-  Te122  1  0.48551630  0.00673906  0.00394604  1
  Te2-  Te123  1  0.49937119  0.00415932  0.33317792  1
  Te2-  Te124  1  0.48982871  0.00674462  0.66257451  1
  Te2-  Te125  1  0.49636623  0.33336385  0.00232260  1
  Te2-  Te126  1  0.49624947  0.32855882  0.33261590  1
  Te2-  Te127  1  0.49595171  0.33143593  0.67278431  1
  Te2-  Te128  1  0.50361170  0.66330789  0.00979502  1
  Te2-  Te129  1  0.49488127  0.66703704  0.32187678  1
  Te2-  Te130  1  0.49917579  0.66411902  0.67034174  1
  Te2-  Te131  1  0.83310592  -0.00161666  -0.00520450  1
  Te2-  Te132  1  0.83912870  -0.01111421  0.32694957  1
  Te2-  Te133  1  0.83303358  -0.00125828  0.66839997  1
  Te2-  Te134  1  0.83801443  0.32636516  -0.01031043  1
  Te2-  Te135  1  0.83592646  0.32818752  0.33629090  1
  Te2-  Te136  1  0.82618125  0.32806569  0.67634826  1
  Te2-  Te137  1  0.82736551  0.67026277  -0.00431774  1
  Te2-  Te138  1  0.84425047  0.67606693  0.33784611  1
  Te2-  Te139  1  0.83950153  0.66930217  0.66752240  1
  Te2-  Te140  1  -0.00577018  0.17428542  -0.00054388  1
  Te2-  Te141  1  -0.00027911  0.16418243  0.33830858  1
  Te2-  Te142  1  -0.00410696  0.16694547  0.66202219  1
  Te2-  Te143  1  0.01033307  0.49206375  -0.00421411  1
  Te2-  Te144  1  0.00945541  0.50845828  0.32757434  1
  Te2-  Te145  1  0.00104808  0.49813933  0.67726017  1
  Te2-  Te146  1  -0.00322385  0.83604960  0.00018819  1
  Te2-  Te147  1  -0.00009744  0.82631842  0.34101307  1
  Te2-  Te148  1  0.00827340  0.83230174  0.65774671  1
  Te2-  Te149  1  0.33493889  0.17510690  -0.01424598  1
  Te2-  Te150  1  0.33127516  0.16649742  0.34218086  1
  Te2-  Te151  1  0.33528562  0.15928381  0.67690119  1
  Te2-  Te152  1  0.31219219  0.49746020  0.00156950  1
  Te2-  Te153  1  0.31779779  0.49995702  0.33616638  1
  Te2-  Te154  1  0.32772309  0.50517913  0.66950634  1
  Te2-  Te155  1  0.33067009  0.83419315  -0.00962432  1
  Te2-  Te156  1  0.32692311  0.83457896  0.33409408  1
  Te2-  Te157  1  0.33333000  0.84233359  0.66661419  1
  Te2-  Te158  1  0.66659254  0.16301396  -0.01256210  1
  Te2-  Te159  1  0.66342547  0.17065042  0.33170054  1
  Te2-  Te160  1  0.66828420  0.16581623  0.68340165  1
  Te2-  Te161  1  0.65767675  0.51154717  -0.00510590  1
  Te2-  Te162  1  0.66852012  0.49884605  0.34318445  1
  Te2-  Te163  1  0.66718971  0.49665552  0.66296430  1
  Te2-  Te164  1  0.66759303  0.82033521  -0.00143922  1
  Te2-  Te165  1  0.67228935  0.83276418  0.32899083  1
  Te2-  Te166  1  0.65991284  0.83911872  0.67362922  1
  Te2-  Te167  1  0.00258098  0.00207902  0.16642156  1
  Te2-  Te168  1  -0.00940166  -0.00527190  0.50277172  1
  Te2-  Te169  1  0.01769526  0.00593112  0.83068215  1
  Te2-  Te170  1  -0.00171917  0.33152849  0.16379384  1
  Te2-  Te171  1  -0.00855793  0.33086562  0.51220651  1
  Te2-  Te172  1  -0.00523772  0.32869649  0.82400661  1
  Te2-  Te173  1  -0.00003627  0.66771177  0.16728700  1
  Te2-  Te174  1  -0.00186578  0.66770141  0.50479469  1
  Te2-  Te175  1  -0.00076516  0.66550171  0.83301913  1
  Te2-  Te176  1  0.33623683  -0.00184900  0.17215133  1
  Te2-  Te177  1  0.33422201  0.00022950  0.49504927  1
  Te2-  Te178  1  0.32474896  -0.00081127  0.83874212  1
  Te2-  Te179  1  0.33556802  0.33585806  0.16755244  1
  Te2-  Te180  1  0.32982188  0.33027844  0.51331447  1
  Te2-  Te181  1  0.33261079  0.34942917  0.82219932  1
  Te2-  Te182  1  0.33449515  0.67469180  0.15721282  1
  Te2-  Te183  1  0.33338571  0.67292176  0.49731913  1
  Te2-  Te184  1  0.33441338  0.65293518  0.84643277  1
  Te2-  Te185  1  0.65958742  0.00097124  0.15845056  1
  Te2-  Te186  1  0.67028648  -0.01123407  0.49942387  1
  Te2-  Te187  1  0.65979833  -0.01020254  0.83595129  1
  Te2-  Te188  1  0.66268433  0.34717822  0.16471084  1
  Te2-  Te189  1  0.66989152  0.33323372  0.50580115  1
  Te2-  Te190  1  0.66834840  0.35301678  0.83104694  1
  Te2-  Te191  1  0.66417213  0.65215289  0.16904290  1
  Te2-  Te192  1  0.67137322  0.67467838  0.51008892  1
  Te2-  Te193  1  0.67149124  0.66064612  0.81674852  1
  Pb2+  Pb194  1  0.49606766  0.83490196  0.33480289  1
  Pb2+  Pb195  1  0.00155027  0.33525213  0.33841371  1
  Pb2+  Pb196  1  0.83300387  0.50238780  0.67308953  1
  Pb2+  Pb197  1  0.16343447  0.32702437  0.50034480  1
  Pb2+  Pb198  1  0.49258783  0.49796419  0.32822507  1
  Pb2+  Pb199  1  0.49893626  0.33317209  0.50431394  1
  Pb2+  Pb200  1  0.49821079  0.83297254  -0.00365891  1
  Pb2+  Pb201  1  0.67353040  0.00479354  0.32802133  1
  Pb2+  Pb202  1  0.49390266  0.00255115  0.83202870  1
  Pb2+  Pb203  1  0.83031018  0.32938411  0.16192721  1
  Pb2+  Pb204  1  0.67124084  0.66493785  0.33840531  1
  Pb2+  Pb205  1  0.00841942  0.00603215  -0.00303425  1
  Pb2+  Pb206  1  0.33266932  0.67404042  0.67497631  1
  Pb2+  Pb207  1  0.16667287  0.66985534  0.50421642  1
  Pb2+  Pb208  1  0.00201902  0.83628332  0.82873985  1
  Pb2+  Pb209  1  -0.00100417  0.66370272  0.00242086  1
  Pb2+  Pb210  1  0.50334293  0.66944379  0.49618524  1
  Pb2+  Pb211  1  0.32895620  0.50086237  0.50399262  1
  Pb2+  Pb212  1  0.66638660  0.33794200  -0.00419062  1
  Pb2+  Pb213  1  0.83678087  0.50395229  0.32460656  1
  Pb2+  Pb214  1  0.16781741  0.33781994  0.16400565  1
  Pb2+  Pb215  1  0.67132715  0.16255990  0.51114716  1
