# generated using pymatgen
data_In22Ag21Sn22Bi21(Te54Pb11)2
_symmetry_space_group_name_H-M   'P 1'
_cell_length_a   19.11147204
_cell_length_b   19.10653088
_cell_length_c   19.12671367
_cell_angle_alpha   90.00108953
_cell_angle_beta   89.99712669
_cell_angle_gamma   89.99610788
_symmetry_Int_Tables_number   1
_chemical_formula_structural   In22Ag21Sn22Bi21(Te54Pb11)2
_chemical_formula_sum   'In22 Ag21 Sn22 Bi21 Te108 Pb22'
_cell_volume   6984.19465048
_cell_formula_units_Z   1
loop_
 _symmetry_equiv_pos_site_id
 _symmetry_equiv_pos_as_xyz
  1  'x, y, z'
loop_
 _atom_type_symbol
 _atom_type_oxidation_number
  In3+  3.0
  Ag+  1.0
  Sn2+  2.0
  Bi3+  3.0
  Te2-  -2.0
  Pb2+  2.0
loop_
 _atom_site_type_symbol
 _atom_site_label
 _atom_site_symmetry_multiplicity
 _atom_site_fract_x
 _atom_site_fract_y
 _atom_site_fract_z
 _atom_site_occupancy
  In3+  In0  1  0.66375839  0.16150619  0.84870493  1
  In3+  In1  1  0.35299543  0.66444976  0.33307563  1
  In3+  In2  1  -0.01398726  0.84108288  0.83824722  1
  In3+  In3  1  0.50837592  0.33800533  0.85918796  1
  In3+  In4  1  -0.01527854  0.33832398  0.32926391  1
  In3+  In5  1  0.49875189  0.02436797  0.15355691  1
  In3+  In6  1  0.34135184  0.49834714  0.15141248  1
  In3+  In7  1  0.82163251  0.50168106  0.66803664  1
  In3+  In8  1  0.00079841  0.01811899  0.31125002  1
  In3+  In9  1  0.66807101  0.50240099  0.49598623  1
  In3+  In10  1  -0.01337610  -0.00054292  0.68925682  1
  In3+  In11  1  0.16833161  0.66750831  0.15583216  1
  In3+  In12  1  0.66338745  -0.00768446  0.67825065  1
  In3+  In13  1  -0.01636872  0.50327711  0.84597885  1
  In3+  In14  1  0.66663600  0.82416872  0.16126860  1
  In3+  In15  1  0.67936850  0.66564519  0.33103486  1
  In3+  In16  1  0.17376770  0.49963891  0.31417761  1
  In3+  In17  1  -0.00285954  0.66562468  0.66453490  1
  In3+  In18  1  0.33599884  0.19567244  0.46833129  1
  In3+  In19  1  0.33830492  0.33264983  0.31516519  1
  In3+  In20  1  -0.01604966  0.34814268  0.66537480  1
  In3+  In21  1  0.81340195  0.34161013  0.15787165  1
  Ag+  Ag22  1  0.35741276  0.01702362  0.00092571  1
  Ag+  Ag23  1  0.83337540  0.63933177  0.48094201  1
  Ag+  Ag24  1  0.51347590  0.83507359  0.69360394  1
  Ag+  Ag25  1  0.82944405  0.02768839  0.85911702  1
  Ag+  Ag26  1  0.35137515  0.31395730  0.01978801  1
  Ag+  Ag27  1  0.51138337  0.32526776  0.16319228  1
  Ag+  Ag28  1  0.80743814  0.63533789  0.13908164  1
  Ag+  Ag29  1  0.19939378  0.49106323  -0.00224129  1
  Ag+  Ag30  1  0.34332069  0.51000911  0.47224597  1
  Ag+  Ag31  1  0.02740583  0.01950607  0.00821813  1
  Ag+  Ag32  1  0.67871717  0.49334035  0.85793148  1
  Ag+  Ag33  1  0.49969089  0.48807926  -0.00153437  1
  Ag+  Ag34  1  0.80651187  0.49819155  0.01899466  1
  Ag+  Ag35  1  0.64879392  0.34181671  0.00853644  1
  Ag+  Ag36  1  0.35413121  0.65594066  0.01024099  1
  Ag+  Ag37  1  0.64541086  0.17039388  0.14995126  1
  Ag+  Ag38  1  0.48999886  0.83102963  0.01881936  1
  Ag+  Ag39  1  0.50103788  0.14675781  0.31064536  1
  Ag+  Ag40  1  0.49808567  0.18683613  0.01401804  1
  Ag+  Ag41  1  0.35021936  0.14218373  0.15244705  1
  Ag+  Ag42  1  0.81949200  0.49927223  0.31694816  1
  Sn2+  Sn43  1  0.50148554  0.16720700  0.66608627  1
  Sn2+  Sn44  1  0.16839280  0.17293310  0.32967309  1
  Sn2+  Sn45  1  0.17722008  0.83146446  -0.00210445  1
  Sn2+  Sn46  1  0.50099282  0.50367127  0.67128991  1
  Sn2+  Sn47  1  0.00582141  0.16123924  0.50083126  1
  Sn2+  Sn48  1  0.65804739  0.49083223  0.16148505  1
  Sn2+  Sn49  1  0.49868106  0.65974267  0.84232991  1
  Sn2+  Sn50  1  0.16631056  0.34270574  0.50043003  1
  Sn2+  Sn51  1  0.16949805  0.00123758  0.49969155  1
  Sn2+  Sn52  1  0.83617710  0.34035395  0.49603086  1
  Sn2+  Sn53  1  0.66982183  0.00579286  0.33549511  1
  Sn2+  Sn54  1  0.50226499  0.49834499  0.32976608  1
  Sn2+  Sn55  1  0.00136513  0.16768545  0.16281041  1
  Sn2+  Sn56  1  0.34071743  0.83489367  0.84040950  1
  Sn2+  Sn57  1  0.66218979  0.32939223  0.68168158  1
  Sn2+  Sn58  1  0.49978615  0.84228888  0.32544156  1
  Sn2+  Sn59  1  0.33883094  0.83085580  0.15652527  1
  Sn2+  Sn60  1  0.00585468  0.49895343  0.49940303  1
  Sn2+  Sn61  1  0.83184253  0.33750299  0.84668081  1
  Sn2+  Sn62  1  0.81799021  0.17111405  0.32712925  1
  Sn2+  Sn63  1  0.65872284  0.82323453  0.83742213  1
  Sn2+  Sn64  1  0.15895391  0.65792558  0.49557699  1
  Bi3+  Bi65  1  -0.00374614  0.16833657  0.83412425  1
  Bi3+  Bi66  1  0.49874389  0.66257487  0.16493444  1
  Bi3+  Bi67  1  0.83369668  0.82788748  0.33248547  1
  Bi3+  Bi68  1  -0.00300992  0.83017526  0.16393786  1
  Bi3+  Bi69  1  0.17078151  0.83356068  0.66863736  1
  Bi3+  Bi70  1  0.16896461  0.33589745  0.16573762  1
  Bi3+  Bi71  1  0.33986636  0.16800844  0.83821706  1
  Bi3+  Bi72  1  0.33569317  0.33331738  0.67265232  1
  Bi3+  Bi73  1  0.66496200  0.66611036  0.66703947  1
  Bi3+  Bi74  1  0.17009250  0.33605375  0.83620317  1
  Bi3+  Bi75  1  -0.00091010  0.66693699  -0.00007492  1
  Bi3+  Bi76  1  0.33413529  0.82557711  0.49633686  1
  Bi3+  Bi77  1  0.66292797  0.17102302  0.49900083  1
  Bi3+  Bi78  1  0.83733785  0.00523437  0.49931780  1
  Bi3+  Bi79  1  -0.00328987  0.66117835  0.33614851  1
  Bi3+  Bi80  1  0.50257476  0.33661863  0.49543225  1
  Bi3+  Bi81  1  0.83222569  0.66445984  0.83307613  1
  Bi3+  Bi82  1  0.16814737  0.16531754  0.66376498  1
  Bi3+  Bi83  1  0.33912863  0.50032721  0.83696756  1
  Bi3+  Bi84  1  0.16658756  0.66360486  0.83869683  1
  Bi3+  Bi85  1  0.66361017  0.00204255  0.00404594  1
  Te2-  Te86  1  0.16660041  0.17047448  0.16927583  1
  Te2-  Te87  1  0.17929706  0.16801427  0.50011749  1
  Te2-  Te88  1  0.16473824  0.16909070  0.83090852  1
  Te2-  Te89  1  0.17303502  0.50241801  0.15656508  1
  Te2-  Te90  1  0.17309345  0.50163122  0.50192886  1
  Te2-  Te91  1  0.17091911  0.49921465  0.84455363  1
  Te2-  Te92  1  0.16332644  0.82612557  0.16591972  1
  Te2-  Te93  1  0.16843958  0.82753568  0.50415016  1
  Te2-  Te94  1  0.16977208  0.82725792  0.83053595  1
  Te2-  Te95  1  0.49394353  0.17581663  0.16527621  1
  Te2-  Te96  1  0.49307586  0.17199397  0.49855462  1
  Te2-  Te97  1  0.50476154  0.17458243  0.83233676  1
  Te2-  Te98  1  0.49761816  0.50057293  0.16143198  1
  Te2-  Te99  1  0.49161348  0.49843109  0.49759748  1
  Te2-  Te100  1  0.50134471  0.49371788  0.84092896  1
  Te2-  Te101  1  0.50592881  0.82444059  0.16743544  1
  Te2-  Te102  1  0.49726387  0.83155254  0.48995720  1
  Te2-  Te103  1  0.50109572  0.83049991  0.83739226  1
  Te2-  Te104  1  0.84138453  0.17810418  0.17189641  1
  Te2-  Te105  1  0.83005548  0.17058530  0.49262876  1
  Te2-  Te106  1  0.83045999  0.17307379  0.83074065  1
  Te2-  Te107  1  0.82888298  0.49501856  0.17011501  1
  Te2-  Te108  1  0.83415654  0.49570600  0.51189506  1
  Te2-  Te109  1  0.82473597  0.49827985  0.82585100  1
  Te2-  Te110  1  0.83009012  0.83031391  0.17088093  1
  Te2-  Te111  1  0.83097113  0.83935553  0.49655809  1
  Te2-  Te112  1  0.82920769  0.82776104  0.83269944  1
  Te2-  Te113  1  0.16961694  -0.00361550  -0.00154821  1
  Te2-  Te114  1  0.15969279  0.00163931  0.33323046  1
  Te2-  Te115  1  0.16401442  0.00022338  0.66545939  1
  Te2-  Te116  1  0.17041256  0.34286807  -0.00091232  1
  Te2-  Te117  1  0.18080001  0.33923422  0.33195307  1
  Te2-  Te118  1  0.16996727  0.32836223  0.67030764  1
  Te2-  Te119  1  0.16125353  0.66027677  0.00074298  1
  Te2-  Te120  1  0.15891383  0.65433466  0.32971265  1
  Te2-  Te121  1  0.16173573  0.66841241  0.67019210  1
  Te2-  Te122  1  0.50238574  -0.01624436  0.00683752  1
  Te2-  Te123  1  0.49941892  0.00029649  0.32614774  1
  Te2-  Te124  1  0.50737155  -0.01052860  0.66970713  1
  Te2-  Te125  1  0.49836505  0.33674686  0.00954964  1
  Te2-  Te126  1  0.49189390  0.33973643  0.32938878  1
  Te2-  Te127  1  0.49814602  0.33524848  0.66157482  1
  Te2-  Te128  1  0.49918068  0.67901464  0.00328019  1
  Te2-  Te129  1  0.50849803  0.66572328  0.33034251  1
  Te2-  Te130  1  0.50332773  0.67510637  0.67087148  1
  Te2-  Te131  1  0.82344680  0.00141100  0.00328870  1
  Te2-  Te132  1  0.83919656  -0.00029668  0.33601436  1
  Te2-  Te133  1  0.82846674  -0.00078097  0.66153396  1
  Te2-  Te134  1  0.83360888  0.34614063  0.00543732  1
  Te2-  Te135  1  0.83405465  0.34558676  0.32992987  1
  Te2-  Te136  1  0.83093577  0.33910715  0.66953566  1
  Te2-  Te137  1  0.83406987  0.65139562  -0.00466792  1
  Te2-  Te138  1  0.83375433  0.66015998  0.33465047  1
  Te2-  Te139  1  0.83263081  0.66105983  0.67086730  1
  Te2-  Te140  1  -0.00059017  0.16290893  -0.00440420  1
  Te2-  Te141  1  0.00019876  0.17188169  0.33317714  1
  Te2-  Te142  1  0.00459284  0.16347977  0.67022066  1
  Te2-  Te143  1  -0.00607062  0.50320623  -0.00263088  1
  Te2-  Te144  1  0.00527531  0.49508314  0.33819737  1
  Te2-  Te145  1  -0.00304694  0.49839426  0.66982851  1
  Te2-  Te146  1  0.00192065  0.82858818  -0.00005844  1
  Te2-  Te147  1  -0.00328458  0.82731083  0.33023845  1
  Te2-  Te148  1  0.00474958  0.83776234  0.67519002  1
  Te2-  Te149  1  0.34446456  0.16679357  0.00049438  1
  Te2-  Te150  1  0.34223453  0.17045213  0.31955949  1
  Te2-  Te151  1  0.33322559  0.16755540  0.67217131  1
  Te2-  Te152  1  0.34605546  0.50663010  -0.00027566  1
  Te2-  Te153  1  0.32989917  0.50647037  0.32693368  1
  Te2-  Te154  1  0.33555436  0.49824544  0.67269779  1
  Te2-  Te155  1  0.33550985  0.82425839  -0.00089545  1
  Te2-  Te156  1  0.33176068  0.82354690  0.33097352  1
  Te2-  Te157  1  0.33322838  0.83268013  0.66481707  1
  Te2-  Te158  1  0.65321513  0.16801323  -0.00162220  1
  Te2-  Te159  1  0.65425063  0.16734050  0.33798867  1
  Te2-  Te160  1  0.66255249  0.16497740  0.66124781  1
  Te2-  Te161  1  0.65746729  0.49094487  0.00564482  1
  Te2-  Te162  1  0.67281278  0.50592942  0.34035190  1
  Te2-  Te163  1  0.66292339  0.50081658  0.65567485  1
  Te2-  Te164  1  0.66468127  0.83533478  0.00547946  1
  Te2-  Te165  1  0.67069627  0.83454732  0.32388241  1
  Te2-  Te166  1  0.65963697  0.83239475  0.66759501  1
  Te2-  Te167  1  -0.00170066  -0.00417735  0.15543578  1
  Te2-  Te168  1  0.00032972  0.00388192  0.49646839  1
  Te2-  Te169  1  -0.01620111  0.00338204  0.84467468  1
  Te2-  Te170  1  0.00734818  0.33384260  0.17534412  1
  Te2-  Te171  1  0.00290675  0.33004334  0.50215047  1
  Te2-  Te172  1  0.00349842  0.33390509  0.82715009  1
  Te2-  Te173  1  0.00109651  0.66867972  0.16933497  1
  Te2-  Te174  1  -0.01199375  0.66429896  0.50097200  1
  Te2-  Te175  1  -0.00010333  0.66410008  0.83276108  1
  Te2-  Te176  1  0.34361601  -0.00466254  0.15602257  1
  Te2-  Te177  1  0.33197944  -0.00871060  0.49736222  1
  Te2-  Te178  1  0.33529596  0.00561574  0.84435982  1
  Te2-  Te179  1  0.32999688  0.34505540  0.16231024  1
  Te2-  Te180  1  0.33662131  0.34168822  0.50669721  1
  Te2-  Te181  1  0.33509322  0.33302504  0.83498927  1
  Te2-  Te182  1  0.33203184  0.66395239  0.16319932  1
  Te2-  Te183  1  0.33150946  0.66111517  0.49147265  1
  Te2-  Te184  1  0.33017276  0.66452342  0.84224426  1
  Te2-  Te185  1  0.65532227  0.01973064  0.16865544  1
  Te2-  Te186  1  0.67007581  0.00558159  0.49996216  1
  Te2-  Te187  1  0.67809217  0.00130650  0.83273808  1
  Te2-  Te188  1  0.66122655  0.32310301  0.16000343  1
  Te2-  Te189  1  0.66435035  0.33583622  0.50271582  1
  Te2-  Te190  1  0.66319286  0.34147214  0.83999024  1
  Te2-  Te191  1  0.66608358  0.66407954  0.17168957  1
  Te2-  Te192  1  0.68053125  0.65976901  0.50207494  1
  Te2-  Te193  1  0.66710339  0.65223299  0.82829075  1
  Pb2+  Pb194  1  0.66247156  0.65896219  -0.00254313  1
  Pb2+  Pb195  1  0.00392772  0.33446066  0.00087853  1
  Pb2+  Pb196  1  0.66292825  0.33602254  0.32937174  1
  Pb2+  Pb197  1  -0.00130700  0.83517993  0.50392411  1
  Pb2+  Pb198  1  0.66440125  0.83249935  0.49435020  1
  Pb2+  Pb199  1  0.50424965  0.00324418  0.83868123  1
  Pb2+  Pb200  1  0.82387389  0.17253199  0.00331436  1
  Pb2+  Pb201  1  0.83201972  0.83003429  0.66596398  1
  Pb2+  Pb202  1  0.49997562  0.00258631  0.49874124  1
  Pb2+  Pb203  1  0.83193163  0.82853275  0.00175937  1
  Pb2+  Pb204  1  0.83283367  0.16874220  0.66104579  1
  Pb2+  Pb205  1  0.33137615  -0.00082826  0.32964829  1
  Pb2+  Pb206  1  0.50521758  0.66439217  0.50238177  1
  Pb2+  Pb207  1  0.16517441  0.82524443  0.33382345  1
  Pb2+  Pb208  1  0.17727760  0.17140902  0.00281302  1
  Pb2+  Pb209  1  0.82264671  0.00171280  0.16814784  1
  Pb2+  Pb210  1  0.15964438  -0.00441536  0.83508648  1
  Pb2+  Pb211  1  0.33452060  0.66669114  0.67092780  1
  Pb2+  Pb212  1  0.00073380  0.50222611  0.16587955  1
  Pb2+  Pb213  1  0.17079896  -0.00249108  0.16224330  1
  Pb2+  Pb214  1  0.33572102  -0.00099950  0.66938450  1
  Pb2+  Pb215  1  0.16460831  0.49814809  0.67263263  1
