# generated using pymatgen
data_In22Ag21Sn22Bi21(Te54Pb11)2
_symmetry_space_group_name_H-M   'P 1'
_cell_length_a   19.16002879
_cell_length_b   19.14358334
_cell_length_c   19.13159362
_cell_angle_alpha   89.98320433
_cell_angle_beta   90.00108169
_cell_angle_gamma   89.98469261
_symmetry_Int_Tables_number   1
_chemical_formula_structural   In22Ag21Sn22Bi21(Te54Pb11)2
_chemical_formula_sum   'In22 Ag21 Sn22 Bi21 Te108 Pb22'
_cell_volume   7017.30743242
_cell_formula_units_Z   1
loop_
 _symmetry_equiv_pos_site_id
 _symmetry_equiv_pos_as_xyz
  1  'x, y, z'
loop_
 _atom_type_symbol
 _atom_type_oxidation_number
  In3+  3.0
  Ag+  1.0
  Sn2+  2.0
  Bi3+  3.0
  Te2-  -2.0
  Pb2+  2.0
loop_
 _atom_site_type_symbol
 _atom_site_label
 _atom_site_symmetry_multiplicity
 _atom_site_fract_x
 _atom_site_fract_y
 _atom_site_fract_z
 _atom_site_occupancy
  In3+  In0  1  0.01311255  -0.00118811  0.00513477  1
  In3+  In1  1  0.32385241  0.48310362  0.50251682  1
  In3+  In2  1  -0.02023514  0.33508858  0.34281501  1
  In3+  In3  1  0.16537108  0.00354020  0.18132253  1
  In3+  In4  1  0.83232296  0.16740184  0.00047809  1
  In3+  In5  1  0.33457518  0.31418949  0.01494870  1
  In3+  In6  1  0.31745092  -0.00940993  0.01065954  1
  In3+  In7  1  0.50677786  0.84969562  0.66647724  1
  In3+  In8  1  0.16499501  -0.00841708  0.50100722  1
  In3+  In9  1  0.85167225  0.00129346  0.83772717  1
  In3+  In10  1  -0.00434335  0.68825455  0.00437589  1
  In3+  In11  1  0.67059912  0.82621244  0.48959756  1
  In3+  In12  1  0.66766622  0.33844579  0.34514094  1
  In3+  In13  1  0.32241312  -0.00948425  0.66770021  1
  In3+  In14  1  0.66921612  0.48975467  0.50086597  1
  In3+  In15  1  0.68694960  0.00367850  0.66413902  1
  In3+  In16  1  0.16379307  0.16975754  0.33958725  1
  In3+  In17  1  0.67750081  -0.00531598  0.32635220  1
  In3+  In18  1  0.31676640  0.16282254  0.49787017  1
  In3+  In19  1  0.16504077  0.16009146  0.65429232  1
  In3+  In20  1  0.49323156  0.84952676  0.31361074  1
  In3+  In21  1  0.33879203  0.14448828  0.17166807  1
  Ag+  Ag22  1  0.02064278  -0.01496516  0.65277851  1
  Ag+  Ag23  1  0.01311567  0.16223434  0.51672162  1
  Ag+  Ag24  1  0.15396733  0.82086376  0.02222445  1
  Ag+  Ag25  1  0.85508666  0.83040421  0.31153938  1
  Ag+  Ag26  1  0.31913789  0.85416183  0.85459959  1
  Ag+  Ag27  1  0.70014834  0.30252546  0.64128137  1
  Ag+  Ag28  1  0.85806893  0.53442740  0.34893992  1
  Ag+  Ag29  1  0.31915763  0.82927850  0.15344984  1
  Ag+  Ag30  1  0.68104087  0.85135952  0.19438456  1
  Ag+  Ag31  1  0.85403898  0.69488279  0.20062081  1
  Ag+  Ag32  1  0.52649302  0.68986297  0.48740792  1
  Ag+  Ag33  1  0.52980634  0.30824635  0.14202548  1
  Ag+  Ag34  1  0.14641154  0.52568111  0.66542074  1
  Ag+  Ag35  1  0.51581772  -0.02394427  0.15948269  1
  Ag+  Ag36  1  0.15350086  -0.00975272  0.83027770  1
  Ag+  Ag37  1  0.33123044  -0.01251978  0.31491065  1
  Ag+  Ag38  1  0.13931177  0.70353719  0.16541356  1
  Ag+  Ag39  1  0.02670398  0.80727690  0.18164438  1
  Ag+  Ag40  1  0.85352664  0.35713865  0.49765107  1
  Ag+  Ag41  1  0.86238934  0.70024152  0.49092504  1
  Ag+  Ag42  1  0.13599156  0.35664698  0.52441717  1
  Sn2+  Sn43  1  0.83256458  0.83231061  0.01357934  1
  Sn2+  Sn44  1  0.00812278  0.32931785  0.00353604  1
  Sn2+  Sn45  1  0.16831900  0.68077136  0.84105548  1
  Sn2+  Sn46  1  0.83158190  0.83040361  0.66783808  1
  Sn2+  Sn47  1  0.16940231  0.66262910  0.48753136  1
  Sn2+  Sn48  1  0.32796253  0.15738276  0.83178474  1
  Sn2+  Sn49  1  0.00020568  0.49465881  0.83074050  1
  Sn2+  Sn50  1  0.16523277  0.83304405  0.67581526  1
  Sn2+  Sn51  1  0.16943473  0.33449392  0.82304156  1
  Sn2+  Sn52  1  0.50515031  0.66928993  0.17415478  1
  Sn2+  Sn53  1  0.33146213  0.67057901  0.66432819  1
  Sn2+  Sn54  1  0.49762171  0.33606255  0.83036384  1
  Sn2+  Sn55  1  0.83651794  0.00145733  0.50203847  1
  Sn2+  Sn56  1  0.66436116  0.66594076  0.65911470  1
  Sn2+  Sn57  1  0.83212001  0.50416000  0.65284826  1
  Sn2+  Sn58  1  0.32916772  0.51457268  0.16753711  1
  Sn2+  Sn59  1  0.49276864  0.83608007  -0.00131501  1
  Sn2+  Sn60  1  0.65887154  0.16221669  0.16882354  1
  Sn2+  Sn61  1  0.00797810  0.16402583  0.82349180  1
  Sn2+  Sn62  1  -0.00238844  0.33003713  0.66257563  1
  Sn2+  Sn63  1  0.84358026  0.16592237  0.66331039  1
  Sn2+  Sn64  1  0.67035391  0.66530139  0.32856889  1
  Bi3+  Bi65  1  0.32727694  0.67335621  0.00245996  1
  Bi3+  Bi66  1  0.49555284  0.66878743  0.82608485  1
  Bi3+  Bi67  1  0.33597767  0.32858368  0.32993952  1
  Bi3+  Bi68  1  0.66305924  0.83239510  0.83224176  1
  Bi3+  Bi69  1  0.83370744  0.33591193  0.17190880  1
  Bi3+  Bi70  1  0.16949213  0.33111120  0.16656707  1
  Bi3+  Bi71  1  0.00132903  0.16692572  0.16363982  1
  Bi3+  Bi72  1  0.50072170  0.50013267  0.66489765  1
  Bi3+  Bi73  1  0.66911968  0.66665759  0.00067441  1
  Bi3+  Bi74  1  0.33243270  0.83086547  0.50406584  1
  Bi3+  Bi75  1  0.66866354  0.15652302  0.49785327  1
  Bi3+  Bi76  1  -0.00018211  0.67257006  0.66916175  1
  Bi3+  Bi77  1  0.50057062  0.50484545  0.33660470  1
  Bi3+  Bi78  1  0.33461497  0.67150902  0.33101619  1
  Bi3+  Bi79  1  0.16393833  0.16389474  -0.00152467  1
  Bi3+  Bi80  1  0.66535391  0.50222981  0.17158725  1
  Bi3+  Bi81  1  0.49585191  -0.00197475  0.83887333  1
  Bi3+  Bi82  1  0.66855918  0.49787280  0.82546306  1
  Bi3+  Bi83  1  0.49641717  0.16529291  0.33380971  1
  Bi3+  Bi84  1  0.32959184  0.49813797  0.82918427  1
  Bi3+  Bi85  1  0.49640312  0.33431188  0.49874876  1
  Te2-  Te86  1  0.16841511  0.16455952  0.16077872  1
  Te2-  Te87  1  0.16046798  0.16225983  0.49780918  1
  Te2-  Te88  1  0.17048709  0.16580395  0.83748792  1
  Te2-  Te89  1  0.16798356  0.49252528  0.16364115  1
  Te2-  Te90  1  0.16943789  0.49759803  0.51275726  1
  Te2-  Te91  1  0.16993438  0.50015224  0.81735892  1
  Te2-  Te92  1  0.16909072  0.85023861  0.16554224  1
  Te2-  Te93  1  0.16679291  0.83662982  0.50371913  1
  Te2-  Te94  1  0.17425281  0.83929646  0.83213146  1
  Te2-  Te95  1  0.49686385  0.16810167  0.17142074  1
  Te2-  Te96  1  0.50369676  0.16574320  0.49612029  1
  Te2-  Te97  1  0.49704842  0.16415308  0.83355951  1
  Te2-  Te98  1  0.49991392  0.50104870  0.17440848  1
  Te2-  Te99  1  0.50637318  0.49692535  0.50112286  1
  Te2-  Te100  1  0.50005981  0.50318530  0.83135003  1
  Te2-  Te101  1  0.50038327  0.83041111  0.16363722  1
  Te2-  Te102  1  0.49769630  0.83124820  0.51341780  1
  Te2-  Te103  1  0.49634925  0.83164153  0.82747925  1
  Te2-  Te104  1  0.83405837  0.17092000  0.16427851  1
  Te2-  Te105  1  0.82808173  0.15863172  0.50135110  1
  Te2-  Te106  1  0.83533498  0.16042944  0.83366887  1
  Te2-  Te107  1  0.82696525  0.49518312  0.17896885  1
  Te2-  Te108  1  0.82147331  0.49941933  0.48953578  1
  Te2-  Te109  1  0.82933084  0.49925112  0.83021905  1
  Te2-  Te110  1  0.82424784  0.83440978  0.16770110  1
  Te2-  Te111  1  0.82270241  0.83985659  0.50570193  1
  Te2-  Te112  1  0.82876181  0.84329432  0.83472151  1
  Te2-  Te113  1  0.16683764  0.00310958  -0.01925292  1
  Te2-  Te114  1  0.18041590  0.00980409  0.33601435  1
  Te2-  Te115  1  0.16520387  0.00547125  0.67389145  1
  Te2-  Te116  1  0.17382424  0.33022353  -0.00065349  1
  Te2-  Te117  1  0.17482806  0.32434832  0.33099477  1
  Te2-  Te118  1  0.16239224  0.31595483  0.66332588  1
  Te2-  Te119  1  0.16217670  0.67427224  0.01118748  1
  Te2-  Te120  1  0.16966965  0.66531338  0.31684059  1
  Te2-  Te121  1  0.16150857  0.67217794  0.66593806  1
  Te2-  Te122  1  0.49221697  -0.00408233  0.00764227  1
  Te2-  Te123  1  0.48289535  0.00159849  0.31941218  1
  Te2-  Te124  1  0.48783865  0.00058299  0.66888565  1
  Te2-  Te125  1  0.49121546  0.33350527  0.00270713  1
  Te2-  Te126  1  0.49951470  0.33293138  0.33547229  1
  Te2-  Te127  1  0.49827197  0.33555687  0.66422553  1
  Te2-  Te128  1  0.49796124  0.67095466  -0.00521347  1
  Te2-  Te129  1  0.49681827  0.66619096  0.34343114  1
  Te2-  Te130  1  0.49809984  0.66208817  0.66427720  1
  Te2-  Te131  1  0.83579051  0.00268031  -0.00796409  1
  Te2-  Te132  1  0.82989026  -0.01531077  0.33382051  1
  Te2-  Te133  1  0.83734944  -0.00072157  0.67207536  1
  Te2-  Te134  1  0.83736701  0.32677543  0.00242625  1
  Te2-  Te135  1  0.82567885  0.32816191  0.34259459  1
  Te2-  Te136  1  0.84071274  0.33469972  0.65240834  1
  Te2-  Te137  1  0.83761282  0.66932519  -0.00360692  1
  Te2-  Te138  1  0.82784526  0.67862760  0.34302820  1
  Te2-  Te139  1  0.83813321  0.66444555  0.65867930  1
  Te2-  Te140  1  -0.00225777  0.16078323  -0.00069136  1
  Te2-  Te141  1  0.00546093  0.16897042  0.32634780  1
  Te2-  Te142  1  0.00407679  0.16200754  0.66523657  1
  Te2-  Te143  1  -0.00130652  0.49217447  -0.00505485  1
  Te2-  Te144  1  -0.00127852  0.49253994  0.33789561  1
  Te2-  Te145  1  -0.00027590  0.50401787  0.66993889  1
  Te2-  Te146  1  0.00493500  0.84220499  0.00684120  1
  Te2-  Te147  1  0.00221529  0.83619854  0.32615514  1
  Te2-  Te148  1  -0.00348659  0.83793838  0.66644443  1
  Te2-  Te149  1  0.32867219  0.15860375  0.00488618  1
  Te2-  Te150  1  0.33258350  0.16588911  0.33303243  1
  Te2-  Te151  1  0.32260498  0.16290036  0.66328293  1
  Te2-  Te152  1  0.32889586  0.51102932  -0.00436086  1
  Te2-  Te153  1  0.33618063  0.50098731  0.33919831  1
  Te2-  Te154  1  0.33656586  0.50103680  0.66395692  1
  Te2-  Te155  1  0.32423589  0.83581925  0.00154225  1
  Te2-  Te156  1  0.34062120  0.83759699  0.33968309  1
  Te2-  Te157  1  0.33327966  0.83317478  0.66483327  1
  Te2-  Te158  1  0.67170666  0.16302034  0.00347349  1
  Te2-  Te159  1  0.66229141  0.15481479  0.33321583  1
  Te2-  Te160  1  0.66809038  0.16219194  0.66365745  1
  Te2-  Te161  1  0.66506754  0.50151083  -0.00178416  1
  Te2-  Te162  1  0.66169311  0.49825011  0.33700383  1
  Te2-  Te163  1  0.66529882  0.49811257  0.66382495  1
  Te2-  Te164  1  0.66537116  0.82710724  -0.00532335  1
  Te2-  Te165  1  0.64845776  0.83819653  0.33615854  1
  Te2-  Te166  1  0.66536785  0.83534618  0.67128312  1
  Te2-  Te167  1  0.00611247  0.00550280  0.16336058  1
  Te2-  Te168  1  0.00848213  0.00805339  0.50529462  1
  Te2-  Te169  1  0.00393419  0.00204313  0.83164665  1
  Te2-  Te170  1  -0.00069607  0.32958706  0.17121395  1
  Te2-  Te171  1  -0.00130441  0.31716746  0.49318578  1
  Te2-  Te172  1  0.00347648  0.33291360  0.83372965  1
  Te2-  Te173  1  -0.00766600  0.66542541  0.15675924  1
  Te2-  Te174  1  0.00428782  0.66636856  0.50306627  1
  Te2-  Te175  1  0.00329801  0.66660015  0.83497606  1
  Te2-  Te176  1  0.32265197  -0.01267053  0.16462945  1
  Te2-  Te177  1  0.32517488  -0.00221414  0.50958184  1
  Te2-  Te178  1  0.33813154  -0.00217427  0.82476613  1
  Te2-  Te179  1  0.33043690  0.34238163  0.16739830  1
  Te2-  Te180  1  0.33184329  0.32719697  0.49524595  1
  Te2-  Te181  1  0.33592772  0.33497967  0.83995028  1
  Te2-  Te182  1  0.33614225  0.67698260  0.16729903  1
  Te2-  Te183  1  0.32533077  0.66862511  0.49411871  1
  Te2-  Te184  1  0.33312359  0.66297061  0.83583861  1
  Te2-  Te185  1  0.66152178  -0.00225471  0.16972084  1
  Te2-  Te186  1  0.66210471  -0.00619726  0.50871194  1
  Te2-  Te187  1  0.65672028  -0.00403306  0.82615135  1
  Te2-  Te188  1  0.67069705  0.33395749  0.17272693  1
  Te2-  Te189  1  0.66082754  0.32520625  0.50086686  1
  Te2-  Te190  1  0.66533491  0.33672948  0.83370835  1
  Te2-  Te191  1  0.66600696  0.66190076  0.16076319  1
  Te2-  Te192  1  0.67006982  0.67523847  0.50128217  1
  Te2-  Te193  1  0.66180871  0.66604480  0.83278857  1
  Pb2+  Pb194  1  0.00566006  0.83513081  0.83675294  1
  Pb2+  Pb195  1  0.16303842  0.50593550  -0.00940582  1
  Pb2+  Pb196  1  0.32915371  0.33302086  0.66937913  1
  Pb2+  Pb197  1  0.83571884  -0.00012547  0.16208020  1
  Pb2+  Pb198  1  0.49456006  0.50443296  0.00800057  1
  Pb2+  Pb199  1  -0.00603336  0.83811519  0.49779823  1
  Pb2+  Pb200  1  0.49356087  0.16796113  0.66483184  1
  Pb2+  Pb201  1  0.16849047  0.49386464  0.33518201  1
  Pb2+  Pb202  1  0.49889847  0.16276607  0.00162516  1
  Pb2+  Pb203  1  0.83680283  0.33130379  0.82422116  1
  Pb2+  Pb204  1  -0.00798591  0.49463385  0.50446409  1
  Pb2+  Pb205  1  0.00492249  0.00247127  0.33818227  1
  Pb2+  Pb206  1  0.66435374  -0.00801176  -0.00252322  1
  Pb2+  Pb207  1  0.17168783  0.83268259  0.33481676  1
  Pb2+  Pb208  1  0.83453746  0.15894143  0.33559963  1
  Pb2+  Pb209  1  0.83336970  0.67156792  0.82800621  1
  Pb2+  Pb210  1  0.66879787  0.16649069  0.83160614  1
  Pb2+  Pb211  1  0.49431018  -0.00400226  0.48905594  1
  Pb2+  Pb212  1  0.66845773  0.33183628  0.00269947  1
  Pb2+  Pb213  1  -0.00205660  0.66815264  0.33236661  1
  Pb2+  Pb214  1  0.83312584  0.50223635  0.00922980  1
  Pb2+  Pb215  1  -0.00244224  0.49852295  0.16567131  1
