# generated using pymatgen
data_In22Ag21Sn22Bi21(Te54Pb11)2
_symmetry_space_group_name_H-M   'P 1'
_cell_length_a   19.12485161
_cell_length_b   19.11654101
_cell_length_c   19.13221156
_cell_angle_alpha   90.00921130
_cell_angle_beta   89.97858920
_cell_angle_gamma   89.99399160
_symmetry_Int_Tables_number   1
_chemical_formula_structural   In22Ag21Sn22Bi21(Te54Pb11)2
_chemical_formula_sum   'In22 Ag21 Sn22 Bi21 Te108 Pb22'
_cell_volume   6994.75525660
_cell_formula_units_Z   1
loop_
 _symmetry_equiv_pos_site_id
 _symmetry_equiv_pos_as_xyz
  1  'x, y, z'
loop_
 _atom_type_symbol
 _atom_type_oxidation_number
  In3+  3.0
  Ag+  1.0
  Sn2+  2.0
  Bi3+  3.0
  Te2-  -2.0
  Pb2+  2.0
loop_
 _atom_site_type_symbol
 _atom_site_label
 _atom_site_symmetry_multiplicity
 _atom_site_fract_x
 _atom_site_fract_y
 _atom_site_fract_z
 _atom_site_occupancy
  In3+  In0  1  0.66344910  0.84815078  0.50064297  1
  In3+  In1  1  0.82531623  0.31795446  0.49753714  1
  In3+  In2  1  0.49578838  0.67766508  0.49345695  1
  In3+  In3  1  0.16098188  0.68422844  0.49768244  1
  In3+  In4  1  0.49062439  0.34131059  0.16962338  1
  In3+  In5  1  0.33060759  0.82345356  0.83541467  1
  In3+  In6  1  0.49962804  0.67258573  0.84416944  1
  In3+  In7  1  0.00188629  0.84142518  0.19446990  1
  In3+  In8  1  0.85173939  0.50059294  0.00009010  1
  In3+  In9  1  0.49444089  0.33282274  0.51814594  1
  In3+  In10  1  0.49830130  0.19515749  0.66128468  1
  In3+  In11  1  0.49956920  0.66775409  0.15740753  1
  In3+  In12  1  0.85461815  -0.00188785  0.16735764  1
  In3+  In13  1  0.85382610  0.66111446  0.50192135  1
  In3+  In14  1  0.00095659  -0.00720667  0.00932132  1
  In3+  In15  1  0.50089062  0.17077870  -0.00155785  1
  In3+  In16  1  0.68949245  0.66896844  0.35356794  1
  In3+  In17  1  0.31751259  -0.00471721  0.32528892  1
  In3+  In18  1  0.02212777  0.50115468  0.19758690  1
  In3+  In19  1  0.65408556  -0.00412319  0.00123052  1
  In3+  In20  1  0.16356867  0.34649031  0.50061620  1
  In3+  In21  1  0.65877669  0.34045610  0.00377895  1
  Ag+  Ag22  1  0.01430799  0.14071575  0.18106715  1
  Ag+  Ag23  1  0.67001002  0.32384758  0.64089013  1
  Ag+  Ag24  1  0.30995052  0.35056905  0.64975807  1
  Ag+  Ag25  1  0.33971613  0.48778987  0.14326440  1
  Ag+  Ag26  1  0.51543209  0.50272336  0.64823495  1
  Ag+  Ag27  1  0.33618829  0.47440545  0.49212334  1
  Ag+  Ag28  1  0.51178907  0.85520088  -0.00308390  1
  Ag+  Ag29  1  0.64453447  0.16693135  0.51750411  1
  Ag+  Ag30  1  0.00203206  0.18782520  0.52467700  1
  Ag+  Ag31  1  0.50228284  0.49723468  -0.01830315  1
  Ag+  Ag32  1  0.85500087  0.66483415  0.85486072  1
  Ag+  Ag33  1  -0.01828192  0.02822498  0.36354849  1
  Ag+  Ag34  1  -0.02609801  0.48376129  0.50369512  1
  Ag+  Ag35  1  0.15179081  0.67138858  0.80368524  1
  Ag+  Ag36  1  0.16990243  0.02310417  0.15761177  1
  Ag+  Ag37  1  0.35533482  -0.02462198  0.00808590  1
  Ag+  Ag38  1  -0.00304653  0.64270060  0.31422354  1
  Ag+  Ag39  1  0.34271410  0.81129137  0.53298765  1
  Ag+  Ag40  1  -0.02494490  0.83186231  0.49503956  1
  Ag+  Ag41  1  -0.02568032  0.84783648  0.85669209  1
  Ag+  Ag42  1  0.33776730  0.33668172  0.35668964  1
  Sn2+  Sn43  1  0.16687958  0.16080548  -0.00486984  1
  Sn2+  Sn44  1  0.66158163  0.01293948  0.66071330  1
  Sn2+  Sn45  1  -0.01076441  0.33575973  0.66104674  1
  Sn2+  Sn46  1  0.34187372  0.65351972  0.66392490  1
  Sn2+  Sn47  1  0.66258761  0.66005713  -0.00128950  1
  Sn2+  Sn48  1  0.17692074  0.50013716  -0.00137200  1
  Sn2+  Sn49  1  0.33670492  0.49860799  0.82521122  1
  Sn2+  Sn50  1  0.83194865  0.16993491  -0.00114216  1
  Sn2+  Sn51  1  0.33665432  0.00441224  0.67067132  1
  Sn2+  Sn52  1  0.82890526  0.83306777  -0.00610773  1
  Sn2+  Sn53  1  0.83316734  0.16631005  0.66132610  1
  Sn2+  Sn54  1  0.83149072  0.49940894  0.66868582  1
  Sn2+  Sn55  1  0.16743748  0.33055190  0.17224108  1
  Sn2+  Sn56  1  0.66197048  0.50030270  0.83041260  1
  Sn2+  Sn57  1  0.32113133  0.16639751  0.49648241  1
  Sn2+  Sn58  1  0.49788614  0.82699616  0.32545829  1
  Sn2+  Sn59  1  0.16909735  -0.00979075  0.83797281  1
  Sn2+  Sn60  1  0.66644222  0.83130404  0.83129895  1
  Sn2+  Sn61  1  0.65293901  0.33495108  0.33486002  1
  Sn2+  Sn62  1  0.83335073  0.32755422  0.16659852  1
  Sn2+  Sn63  1  0.66977157  0.16463384  0.82641077  1
  Sn2+  Sn64  1  0.48586525  -0.00166362  0.17295018  1
  Bi3+  Bi65  1  0.16945624  0.83328038  0.33308142  1
  Bi3+  Bi66  1  0.33485261  0.16448802  0.83537171  1
  Bi3+  Bi67  1  0.33223355  0.33339241  -0.00445370  1
  Bi3+  Bi68  1  0.16814610  0.16592662  0.33272268  1
  Bi3+  Bi69  1  0.66375537  0.66463628  0.66895821  1
  Bi3+  Bi70  1  0.65581456  0.50093097  0.16552635  1
  Bi3+  Bi71  1  0.16901835  0.00053906  0.49241114  1
  Bi3+  Bi72  1  0.17410472  0.49926228  0.34035188  1
  Bi3+  Bi73  1  0.16918146  0.66364375  0.17059003  1
  Bi3+  Bi74  1  0.49713651  0.50108423  0.33609728  1
  Bi3+  Bi75  1  0.33341618  0.66501122  0.00042775  1
  Bi3+  Bi76  1  0.17123314  0.50086315  0.66618224  1
  Bi3+  Bi77  1  0.33010369  0.83047428  0.16450156  1
  Bi3+  Bi78  1  0.66986840  0.16725498  0.16057994  1
  Bi3+  Bi79  1  -0.00077189  0.66895616  0.66555114  1
  Bi3+  Bi80  1  -0.00125034  0.50348490  0.82162441  1
  Bi3+  Bi81  1  0.83170736  0.83057288  0.66638279  1
  Bi3+  Bi82  1  -0.00234079  0.33272827  -0.00075795  1
  Bi3+  Bi83  1  0.00153122  -0.00264159  0.66224512  1
  Bi3+  Bi84  1  0.16794638  0.83436206  -0.00151794  1
  Bi3+  Bi85  1  0.50102222  0.33802122  0.83698863  1
  Te2-  Te86  1  0.16070480  0.17096246  0.16717103  1
  Te2-  Te87  1  0.15242776  0.16291061  0.49404596  1
  Te2-  Te88  1  0.17074233  0.16748879  0.83286610  1
  Te2-  Te89  1  0.17842803  0.50076680  0.17150374  1
  Te2-  Te90  1  0.18414589  0.49808998  0.50317409  1
  Te2-  Te91  1  0.16479547  0.51587760  0.82787112  1
  Te2-  Te92  1  0.16401355  0.82610946  0.16607016  1
  Te2-  Te93  1  0.19193420  0.83604174  0.49533209  1
  Te2-  Te94  1  0.17404912  0.82050335  0.83737579  1
  Te2-  Te95  1  0.50323872  0.16951356  0.15797913  1
  Te2-  Te96  1  0.49763357  0.17554076  0.50551935  1
  Te2-  Te97  1  0.50110794  0.17178667  0.83572760  1
  Te2-  Te98  1  0.49047713  0.50050330  0.17274293  1
  Te2-  Te99  1  0.49180499  0.48570526  0.50075627  1
  Te2-  Te100  1  0.49965266  0.49974709  0.83333085  1
  Te2-  Te101  1  0.49347507  0.82925476  0.15382556  1
  Te2-  Te102  1  0.49064806  0.83117302  0.49876501  1
  Te2-  Te103  1  0.49800309  0.82839220  0.84719357  1
  Te2-  Te104  1  0.83478145  0.16074771  0.15967795  1
  Te2-  Te105  1  0.85285664  0.16825438  0.50275901  1
  Te2-  Te106  1  0.83071692  0.16751410  0.83138299  1
  Te2-  Te107  1  0.82086587  0.49755391  0.15508709  1
  Te2-  Te108  1  0.82867609  0.51025939  0.49884949  1
  Te2-  Te109  1  0.83514756  0.51215732  0.83757257  1
  Te2-  Te110  1  0.83895681  0.83779863  0.16163478  1
  Te2-  Te111  1  0.82202362  0.82858942  0.50188331  1
  Te2-  Te112  1  0.83282064  0.81840339  0.83156481  1
  Te2-  Te113  1  0.15633363  -0.00082039  0.00592985  1
  Te2-  Te114  1  0.16697957  -0.00048599  0.32301139  1
  Te2-  Te115  1  0.16971415  -0.00008205  0.66382583  1
  Te2-  Te116  1  0.16560051  0.33395659  0.00134056  1
  Te2-  Te117  1  0.17962457  0.33505476  0.34048850  1
  Te2-  Te118  1  0.16337646  0.33536420  0.66080820  1
  Te2-  Te119  1  0.17081460  0.66782845  0.00605518  1
  Te2-  Te120  1  0.15525358  0.66564389  0.33514262  1
  Te2-  Te121  1  0.17021809  0.66561068  0.65695015  1
  Te2-  Te122  1  0.49889025  0.00414989  0.00296620  1
  Te2-  Te123  1  0.50001776  -0.00258951  0.32929998  1
  Te2-  Te124  1  0.50507716  -0.00522405  0.66702025  1
  Te2-  Te125  1  0.49806792  0.34085262  0.00304046  1
  Te2-  Te126  1  0.49163636  0.33620150  0.32624517  1
  Te2-  Te127  1  0.51858319  0.34605536  0.67119237  1
  Te2-  Te128  1  0.49561560  0.65169342  -0.00036162  1
  Te2-  Te129  1  0.49771395  0.66489080  0.33561693  1
  Te2-  Te130  1  0.50212029  0.65377117  0.66574803  1
  Te2-  Te131  1  0.84634993  -0.00016805  0.00579195  1
  Te2-  Te132  1  0.84190678  -0.00067754  0.32414819  1
  Te2-  Te133  1  0.83170301  -0.00370581  0.66933305  1
  Te2-  Te134  1  0.83398341  0.33998768  -0.00068136  1
  Te2-  Te135  1  0.83158451  0.33588956  0.33939913  1
  Te2-  Te136  1  0.82201675  0.33605459  0.65690304  1
  Te2-  Te137  1  0.82903454  0.66439884  -0.00014040  1
  Te2-  Te138  1  0.84780636  0.66560499  0.33649821  1
  Te2-  Te139  1  0.82852901  0.66722015  0.65873587  1
  Te2-  Te140  1  -0.00050855  0.17267917  0.00288779  1
  Te2-  Te141  1  0.00542266  0.16728864  0.32478866  1
  Te2-  Te142  1  -0.00065744  0.16243813  0.67024578  1
  Te2-  Te143  1  0.00558682  0.49782520  -0.01041190  1
  Te2-  Te144  1  0.00869342  0.50031677  0.35469208  1
  Te2-  Te145  1  0.00126873  0.50469311  0.65478344  1
  Te2-  Te146  1  0.00237942  0.83646458  -0.00057198  1
  Te2-  Te147  1  0.00787352  0.83334953  0.34335240  1
  Te2-  Te148  1  -0.00491613  0.83159669  0.65433740  1
  Te2-  Te149  1  0.33619501  0.17093074  -0.00125403  1
  Te2-  Te150  1  0.33059735  0.18022106  0.33265726  1
  Te2-  Te151  1  0.34627085  0.16442037  0.67081017  1
  Te2-  Te152  1  0.33691112  0.49922189  -0.00446526  1
  Te2-  Te153  1  0.33483275  0.49068180  0.34296708  1
  Te2-  Te154  1  0.33319191  0.49405795  0.66743401  1
  Te2-  Te155  1  0.33272558  0.83039232  -0.00164924  1
  Te2-  Te156  1  0.33477379  0.83551689  0.32643861  1
  Te2-  Te157  1  0.33472196  0.83661771  0.67929545  1
  Te2-  Te158  1  0.66411705  0.16656155  -0.00068966  1
  Te2-  Te159  1  0.66638281  0.16837050  0.32220401  1
  Te2-  Te160  1  0.66361893  0.17374566  0.66530359  1
  Te2-  Te161  1  0.65353743  0.49832736  0.00405790  1
  Te2-  Te162  1  0.66331405  0.50529532  0.32963684  1
  Te2-  Te163  1  0.66489076  0.50238999  0.66806643  1
  Te2-  Te164  1  0.66132386  0.83631570  -0.00244621  1
  Te2-  Te165  1  0.66337650  0.82978659  0.33804860  1
  Te2-  Te166  1  0.66818292  0.83413104  0.66264781  1
  Te2-  Te167  1  0.01036506  -0.00480836  0.16333639  1
  Te2-  Te168  1  0.00761973  -0.01522407  0.50147041  1
  Te2-  Te169  1  0.00607445  -0.01178406  0.82448544  1
  Te2-  Te170  1  -0.00191216  0.35123035  0.16168281  1
  Te2-  Te171  1  -0.00173843  0.33688811  0.50485707  1
  Te2-  Te172  1  -0.00118385  0.33831429  0.83115208  1
  Te2-  Te173  1  0.00168746  0.65233041  0.16619807  1
  Te2-  Te174  1  0.00612148  0.68133812  0.50438584  1
  Te2-  Te175  1  0.00283502  0.66517561  0.82695331  1
  Te2-  Te176  1  0.32460200  -0.00411016  0.15609983  1
  Te2-  Te177  1  0.33100174  0.00842857  0.49718714  1
  Te2-  Te178  1  0.32854851  0.00302189  0.84339620  1
  Te2-  Te179  1  0.33499192  0.33929797  0.15739475  1
  Te2-  Te180  1  0.34041466  0.32395627  0.50939816  1
  Te2-  Te181  1  0.33705811  0.32957544  0.83162785  1
  Te2-  Te182  1  0.33523514  0.66483562  0.16697906  1
  Te2-  Te183  1  0.34320313  0.66721875  0.50464993  1
  Te2-  Te184  1  0.34174381  0.66683498  0.83736684  1
  Te2-  Te185  1  0.66074921  0.00239940  0.15671597  1
  Te2-  Te186  1  0.66792193  0.01538928  0.49934884  1
  Te2-  Te187  1  0.66765886  -0.00140243  0.84164166  1
  Te2-  Te188  1  0.66526314  0.33427024  0.16319522  1
  Te2-  Te189  1  0.67142889  0.31981492  0.49243100  1
  Te2-  Te190  1  0.66329246  0.33347599  0.84746998  1
  Te2-  Te191  1  0.65768165  0.66526884  0.16648649  1
  Te2-  Te192  1  0.65056959  0.66752934  0.50459475  1
  Te2-  Te193  1  0.65706790  0.66718814  0.83082286  1
  Pb2+  Pb194  1  0.49815752  0.16725582  0.33250869  1
  Pb2+  Pb195  1  0.66012229  0.49535944  0.50058743  1
  Pb2+  Pb196  1  0.00140598  0.66899232  -0.00220048  1
  Pb2+  Pb197  1  0.83008621  0.34175398  0.82782536  1
  Pb2+  Pb198  1  0.66393940  0.83452369  0.16542285  1
  Pb2+  Pb199  1  0.00055349  0.15718247  0.83847350  1
  Pb2+  Pb200  1  0.49781769  -0.00076422  0.49968530  1
  Pb2+  Pb201  1  0.83572902  0.16913289  0.33073997  1
  Pb2+  Pb202  1  0.16421094  0.83345608  0.66676489  1
  Pb2+  Pb203  1  0.00730294  0.33106009  0.33431576  1
  Pb2+  Pb204  1  0.17534491  0.16714426  0.66162237  1
  Pb2+  Pb205  1  0.83515590  -0.00758828  0.83783902  1
  Pb2+  Pb206  1  0.83599096  0.49854418  0.32578403  1
  Pb2+  Pb207  1  0.32842894  0.66100890  0.33868633  1
  Pb2+  Pb208  1  0.49672403  0.00069059  0.83291604  1
  Pb2+  Pb209  1  0.83815286  -0.00075894  0.50148494  1
  Pb2+  Pb210  1  0.83920188  0.83316691  0.33321544  1
  Pb2+  Pb211  1  0.16854754  0.34419561  0.83348575  1
  Pb2+  Pb212  1  0.66954344  0.00009809  0.32823805  1
  Pb2+  Pb213  1  0.82801464  0.66608918  0.16653791  1
  Pb2+  Pb214  1  0.49980735  0.82242679  0.67217002  1
  Pb2+  Pb215  1  0.33177695  0.16791413  0.16679442  1
