# generated using pymatgen
data_In22Ag21Sn22Bi21(Te54Pb11)2
_symmetry_space_group_name_H-M   'P 1'
_cell_length_a   19.16450929
_cell_length_b   19.16056536
_cell_length_c   19.12836791
_cell_angle_alpha   90.01789189
_cell_angle_beta   90.00382412
_cell_angle_gamma   90.01423673
_symmetry_Int_Tables_number   1
_chemical_formula_structural   In22Ag21Sn22Bi21(Te54Pb11)2
_chemical_formula_sum   'In22 Ag21 Sn22 Bi21 Te108 Pb22'
_cell_volume   7023.99031243
_cell_formula_units_Z   1
loop_
 _symmetry_equiv_pos_site_id
 _symmetry_equiv_pos_as_xyz
  1  'x, y, z'
loop_
 _atom_type_symbol
 _atom_type_oxidation_number
  In3+  3.0
  Ag+  1.0
  Sn2+  2.0
  Bi3+  3.0
  Te2-  -2.0
  Pb2+  2.0
loop_
 _atom_site_type_symbol
 _atom_site_label
 _atom_site_symmetry_multiplicity
 _atom_site_fract_x
 _atom_site_fract_y
 _atom_site_fract_z
 _atom_site_occupancy
  In3+  In0  1  0.33352701  0.83783211  0.81902205  1
  In3+  In1  1  0.65099423  0.16784458  0.14032080  1
  In3+  In2  1  0.35195345  0.49929587  0.51383836  1
  In3+  In3  1  0.00360567  0.35271829  0.00669673  1
  In3+  In4  1  0.35050473  0.85679273  0.16694903  1
  In3+  In5  1  0.82766290  0.00042589  0.82974782  1
  In3+  In6  1  0.15561331  0.16991140  0.00847148  1
  In3+  In7  1  0.16460516  0.49861652  0.64299826  1
  In3+  In8  1  0.82627523  0.66099582  0.81018233  1
  In3+  In9  1  0.00249015  0.16844924  0.14691699  1
  In3+  In10  1  0.32934323  0.49467011  0.18255940  1
  In3+  In11  1  0.83654858  0.01888878  0.49317566  1
  In3+  In12  1  0.16467495  0.34916155  0.49268162  1
  In3+  In13  1  0.66719386  0.86205643  0.83760263  1
  In3+  In14  1  0.15330460  0.83609207  0.33102215  1
  In3+  In15  1  0.65551036  0.00005415  0.34308834  1
  In3+  In16  1  0.31900945  0.33330685  -0.00296735  1
  In3+  In17  1  0.01704227  0.16382483  0.49679085  1
  In3+  In18  1  -0.01834559  0.65891024  0.33932363  1
  In3+  In19  1  0.67126802  0.65385068  0.33365432  1
  In3+  In20  1  0.67155033  -0.01480359  0.00042524  1
  In3+  In21  1  0.82972978  0.16382064  0.00202590  1
  Ag+  Ag22  1  0.64862340  0.00336075  0.63979089  1
  Ag+  Ag23  1  0.35077895  0.31622923  0.64975161  1
  Ag+  Ag24  1  0.18722204  0.47117511  0.00489785  1
  Ag+  Ag25  1  -0.01545205  0.52659858  0.16076591  1
  Ag+  Ag26  1  0.51667710  0.00409278  0.14663627  1
  Ag+  Ag27  1  0.52824927  0.47819630  0.66733718  1
  Ag+  Ag28  1  0.02478356  0.63667227  0.69745093  1
  Ag+  Ag29  1  0.64156094  0.16589888  0.82482741  1
  Ag+  Ag30  1  0.63455009  0.51955964  0.16801396  1
  Ag+  Ag31  1  0.36190051  0.02387530  0.66239291  1
  Ag+  Ag32  1  0.51894304  0.64052690  0.49793452  1
  Ag+  Ag33  1  0.18150265  0.02351284  0.49903437  1
  Ag+  Ag34  1  0.85290190  0.66344998  0.50535904  1
  Ag+  Ag35  1  0.47685176  0.00187092  0.53217763  1
  Ag+  Ag36  1  0.47642459  0.19032557  0.68024193  1
  Ag+  Ag37  1  0.18101067  0.33046601  0.18963728  1
  Ag+  Ag38  1  -0.00294993  0.52254963  0.46664096  1
  Ag+  Ag39  1  0.50397112  0.35753215  0.85321487  1
  Ag+  Ag40  1  0.68789828  0.81154876  0.17688456  1
  Ag+  Ag41  1  0.80887559  0.49847693  0.32729235  1
  Ag+  Ag42  1  0.02582943  0.00267369  0.02924286  1
  Sn2+  Sn43  1  0.49745741  0.31613010  0.50740497  1
  Sn2+  Sn44  1  0.16946492  0.65132489  0.16899707  1
  Sn2+  Sn45  1  0.33593997  0.16862801  0.16642443  1
  Sn2+  Sn46  1  0.17931354  0.34159418  0.82753015  1
  Sn2+  Sn47  1  0.34211375  -0.00131944  0.35437104  1
  Sn2+  Sn48  1  0.00163304  0.83156172  0.83131080  1
  Sn2+  Sn49  1  0.67181351  0.66431411  0.00109632  1
  Sn2+  Sn50  1  0.00204862  0.67880285  0.00334044  1
  Sn2+  Sn51  1  0.16194354  0.83908211  0.66089829  1
  Sn2+  Sn52  1  0.49977708  0.16945341  -0.01199019  1
  Sn2+  Sn53  1  0.84283809  0.34927950  0.50139251  1
  Sn2+  Sn54  1  0.16186199  0.50586441  0.31411363  1
  Sn2+  Sn55  1  0.33148201  0.50016149  0.83042902  1
  Sn2+  Sn56  1  0.16525920  0.66996879  0.49833723  1
  Sn2+  Sn57  1  0.33883731  0.16742124  0.50121058  1
  Sn2+  Sn58  1  0.65982352  0.67601614  0.66166731  1
  Sn2+  Sn59  1  0.16094865  0.00043507  0.82069857  1
  Sn2+  Sn60  1  0.00391093  -0.00210902  0.33380708  1
  Sn2+  Sn61  1  0.16324508  0.15792281  0.33136081  1
  Sn2+  Sn62  1  0.33165775  0.65564556  -0.00075802  1
  Sn2+  Sn63  1  0.66170129  0.82843968  0.49678844  1
  Sn2+  Sn64  1  0.00137825  0.83180108  0.16125027  1
  Bi3+  Bi65  1  0.00137006  0.33381707  0.67249739  1
  Bi3+  Bi66  1  0.49606281  -0.00173974  0.83643777  1
  Bi3+  Bi67  1  0.33232970  0.16900058  0.83483166  1
  Bi3+  Bi68  1  0.83270022  0.83157701  -0.00199548  1
  Bi3+  Bi69  1  0.83159280  0.16190542  0.67017614  1
  Bi3+  Bi70  1  0.49848942  0.83306365  -0.00002382  1
  Bi3+  Bi71  1  0.16505963  0.83748039  0.00482329  1
  Bi3+  Bi72  1  -0.00341537  0.83249950  0.50040688  1
  Bi3+  Bi73  1  0.83631802  0.50080357  0.66258395  1
  Bi3+  Bi74  1  0.83939632  0.33166625  0.16622481  1
  Bi3+  Bi75  1  0.66558370  0.16491177  0.50671113  1
  Bi3+  Bi76  1  0.32820177  0.66677995  0.66528672  1
  Bi3+  Bi77  1  0.66998618  0.33309562  -0.00211841  1
  Bi3+  Bi78  1  0.50210997  0.83036583  0.66204121  1
  Bi3+  Bi79  1  0.82973153  0.83125903  0.66625801  1
  Bi3+  Bi80  1  0.49994777  0.83700580  0.33597534  1
  Bi3+  Bi81  1  -0.00256330  -0.00560274  0.66662000  1
  Bi3+  Bi82  1  0.49802380  0.16451042  0.34016006  1
  Bi3+  Bi83  1  0.83065800  0.49864730  0.00725106  1
  Bi3+  Bi84  1  0.00395332  0.16191835  0.82953446  1
  Bi3+  Bi85  1  0.33262024  0.66649376  0.33371712  1
  Te2-  Te86  1  0.16488993  0.17682729  0.16298391  1
  Te2-  Te87  1  0.17023080  0.16966358  0.49808866  1
  Te2-  Te88  1  0.16925818  0.16700592  0.83869075  1
  Te2-  Te89  1  0.17605851  0.48276580  0.15790043  1
  Te2-  Te90  1  0.14584259  0.50075588  0.49279193  1
  Te2-  Te91  1  0.17078373  0.49795016  0.85342842  1
  Te2-  Te92  1  0.16242310  0.83594234  0.16905262  1
  Te2-  Te93  1  0.16072063  0.83200152  0.49233242  1
  Te2-  Te94  1  0.17049661  0.83649598  0.83820224  1
  Te2-  Te95  1  0.50034113  0.15817131  0.17089594  1
  Te2-  Te96  1  0.50354388  0.15181640  0.50232136  1
  Te2-  Te97  1  0.49346781  0.16114081  0.82570567  1
  Te2-  Te98  1  0.48889025  0.49974628  0.16716454  1
  Te2-  Te99  1  0.50270263  0.49246900  0.51185219  1
  Te2-  Te100  1  0.49902470  0.49963466  0.81746152  1
  Te2-  Te101  1  0.50231262  0.84825657  0.16424629  1
  Te2-  Te102  1  0.50119356  0.85290076  0.49968785  1
  Te2-  Te103  1  0.50166367  0.83291761  0.83580635  1
  Te2-  Te104  1  0.84532878  0.16811338  0.16493211  1
  Te2-  Te105  1  0.83051088  0.17419976  0.50327782  1
  Te2-  Te106  1  0.84024808  0.16062026  0.83458794  1
  Te2-  Te107  1  0.83981941  0.49278048  0.16880938  1
  Te2-  Te108  1  0.84727234  0.50561285  0.50212922  1
  Te2-  Te109  1  0.83464368  0.50101406  0.83740825  1
  Te2-  Te110  1  0.83257383  0.83308457  0.16329054  1
  Te2-  Te111  1  0.83158031  0.81764095  0.50435095  1
  Te2-  Te112  1  0.82796034  0.82990991  0.83455338  1
  Te2-  Te113  1  0.16993899  0.00069480  -0.00246263  1
  Te2-  Te114  1  0.17013638  -0.00481070  0.34707967  1
  Te2-  Te115  1  0.15848551  -0.00285273  0.65282182  1
  Te2-  Te116  1  0.16051239  0.32517482  -0.00400386  1
  Te2-  Te117  1  0.16556656  0.33074607  0.33723599  1
  Te2-  Te118  1  0.16271769  0.34270650  0.66730211  1
  Te2-  Te119  1  0.16402986  0.67668058  0.00538303  1
  Te2-  Te120  1  0.17320853  0.67585752  0.32926984  1
  Te2-  Te121  1  0.16538659  0.66620705  0.66944854  1
  Te2-  Te122  1  0.50155835  -0.00283685  -0.00160564  1
  Te2-  Te123  1  0.50115544  0.00212421  0.33277869  1
  Te2-  Te124  1  0.50639540  -0.00998520  0.67680127  1
  Te2-  Te125  1  0.50521534  0.33055638  -0.00171267  1
  Te2-  Te126  1  0.49885851  0.32863276  0.33581363  1
  Te2-  Te127  1  0.49531616  0.33378434  0.66009486  1
  Te2-  Te128  1  0.50080570  0.67091491  0.00011798  1
  Te2-  Te129  1  0.49582564  0.67360625  0.34716982  1
  Te2-  Te130  1  0.49596922  0.67191948  0.64819782  1
  Te2-  Te131  1  0.82676961  -0.00557354  -0.00699126  1
  Te2-  Te132  1  0.83448520  -0.00033277  0.33797787  1
  Te2-  Te133  1  0.83477241  -0.00427208  0.66701333  1
  Te2-  Te134  1  0.83777802  0.33189067  0.00074164  1
  Te2-  Te135  1  0.83545592  0.34698419  0.33228091  1
  Te2-  Te136  1  0.83630829  0.33236241  0.66760231  1
  Te2-  Te137  1  0.83385720  0.66809052  0.00303816  1
  Te2-  Te138  1  0.82786093  0.65167815  0.34084648  1
  Te2-  Te139  1  0.82813957  0.66577848  0.65616268  1
  Te2-  Te140  1  -0.00065860  0.14759097  -0.00651586  1
  Te2-  Te141  1  0.00216542  0.16554348  0.34316031  1
  Te2-  Te142  1  -0.00361506  0.16466311  0.66427638  1
  Te2-  Te143  1  -0.00660983  0.50592780  0.01025031  1
  Te2-  Te144  1  0.00651206  0.50888457  0.31814227  1
  Te2-  Te145  1  0.00081821  0.49538276  0.67162329  1
  Te2-  Te146  1  -0.00184209  0.84716171  -0.00099941  1
  Te2-  Te147  1  -0.00297444  0.82868609  0.33490252  1
  Te2-  Te148  1  -0.00537088  0.82979363  0.66484229  1
  Te2-  Te149  1  0.33523284  0.17170074  -0.00126931  1
  Te2-  Te150  1  0.33472107  0.16317638  0.33588288  1
  Te2-  Te151  1  0.33148150  0.17046295  0.66728395  1
  Te2-  Te152  1  0.33220448  0.49561569  -0.00587823  1
  Te2-  Te153  1  0.32808728  0.50153865  0.33985509  1
  Te2-  Te154  1  0.31847794  0.50550732  0.66508900  1
  Te2-  Te155  1  0.33288509  0.82838701  0.01320770  1
  Te2-  Te156  1  0.33739589  0.83193913  0.32481394  1
  Te2-  Te157  1  0.33095984  0.82956085  0.66447215  1
  Te2-  Te158  1  0.66795121  0.17123267  -0.01241530  1
  Te2-  Te159  1  0.66425987  0.15752730  0.34010308  1
  Te2-  Te160  1  0.67320642  0.15221578  0.67010766  1
  Te2-  Te161  1  0.66733461  0.49787552  0.01599674  1
  Te2-  Te162  1  0.66175354  0.50147987  0.32059633  1
  Te2-  Te163  1  0.67466228  0.50267695  0.66670443  1
  Te2-  Te164  1  0.66523196  0.83046638  0.00678042  1
  Te2-  Te165  1  0.66100133  0.84593123  0.32090544  1
  Te2-  Te166  1  0.66746251  0.84166694  0.67076448  1
  Te2-  Te167  1  0.00030013  0.00526890  0.17408108  1
  Te2-  Te168  1  -0.00572526  -0.00239100  0.50184387  1
  Te2-  Te169  1  -0.00230222  -0.00065584  0.82855626  1
  Te2-  Te170  1  0.00321891  0.32184073  0.15918344  1
  Te2-  Te171  1  0.00629383  0.32206384  0.50724610  1
  Te2-  Te172  1  0.00289262  0.32444581  0.83872435  1
  Te2-  Te173  1  0.00287811  0.67229454  0.17281510  1
  Te2-  Te174  1  0.00137187  0.67022604  0.49290673  1
  Te2-  Te175  1  -0.00965306  0.67071643  0.83528261  1
  Te2-  Te176  1  0.33219935  0.00736891  0.16756659  1
  Te2-  Te177  1  0.32912777  0.00139303  0.51287795  1
  Te2-  Te178  1  0.33118162  0.00003966  0.81718897  1
  Te2-  Te179  1  0.32785985  0.33432683  0.16026556  1
  Te2-  Te180  1  0.32358530  0.34324474  0.50747638  1
  Te2-  Te181  1  0.34342048  0.33066246  0.84448759  1
  Te2-  Te182  1  0.33140438  0.65403347  0.16901157  1
  Te2-  Te183  1  0.32786625  0.65766927  0.49885864  1
  Te2-  Te184  1  0.33447430  0.67296557  0.83147950  1
  Te2-  Te185  1  0.66402233  0.01617549  0.15329162  1
  Te2-  Te186  1  0.68005019  -0.00116689  0.49725004  1
  Te2-  Te187  1  0.66592459  0.01534206  0.84318373  1
  Te2-  Te188  1  0.67324765  0.31988495  0.16242196  1
  Te2-  Te189  1  0.66834143  0.33044146  0.50008147  1
  Te2-  Te190  1  0.65566075  0.32411308  0.83597022  1
  Te2-  Te191  1  0.66260325  0.66724253  0.17564185  1
  Te2-  Te192  1  0.66275439  0.66915113  0.48962985  1
  Te2-  Te193  1  0.67249959  0.66257679  0.83259760  1
  Pb2+  Pb194  1  0.33150969  0.83101297  0.49580353  1
  Pb2+  Pb195  1  0.33382165  -0.00131144  -0.00892764  1
  Pb2+  Pb196  1  0.00072845  0.33985984  0.33146951  1
  Pb2+  Pb197  1  0.67586574  0.50031825  0.49858857  1
  Pb2+  Pb198  1  0.83382540  0.17193215  0.33239048  1
  Pb2+  Pb199  1  0.82904860  0.32818390  0.83385068  1
  Pb2+  Pb200  1  0.50291306  0.66413281  0.81887994  1
  Pb2+  Pb201  1  0.49662072  0.33069497  0.16361371  1
  Pb2+  Pb202  1  0.66760606  0.32769757  0.33232453  1
  Pb2+  Pb203  1  0.49620790  0.50444101  0.33903853  1
  Pb2+  Pb204  1  0.66035726  0.32225329  0.66888108  1
  Pb2+  Pb205  1  0.16706391  0.16909898  0.66713910  1
  Pb2+  Pb206  1  0.82801337  0.00000147  0.16615060  1
  Pb2+  Pb207  1  0.49688303  0.50091391  -0.00642880  1
  Pb2+  Pb208  1  0.16593052  0.66482965  0.83788976  1
  Pb2+  Pb209  1  0.33231821  0.33028854  0.33820967  1
  Pb2+  Pb210  1  0.82666300  0.82859972  0.33908092  1
  Pb2+  Pb211  1  0.16865322  0.00391775  0.17489158  1
  Pb2+  Pb212  1  0.00624469  0.49573119  0.84031915  1
  Pb2+  Pb213  1  0.66638883  0.49503452  0.83923636  1
  Pb2+  Pb214  1  0.49595163  0.67555684  0.17292077  1
  Pb2+  Pb215  1  0.83204018  0.65859345  0.17058807  1
