# generated using pymatgen
data_In22Ag21Sn22Bi21(Te54Pb11)2
_symmetry_space_group_name_H-M   'P 1'
_cell_length_a   19.20876792
_cell_length_b   19.16906410
_cell_length_c   19.15845990
_cell_angle_alpha   90.00149166
_cell_angle_beta   90.01174820
_cell_angle_gamma   89.99166008
_symmetry_Int_Tables_number   1
_chemical_formula_structural   In22Ag21Sn22Bi21(Te54Pb11)2
_chemical_formula_sum   'In22 Ag21 Sn22 Bi21 Te108 Pb22'
_cell_volume   7054.41491336
_cell_formula_units_Z   1
loop_
 _symmetry_equiv_pos_site_id
 _symmetry_equiv_pos_as_xyz
  1  'x, y, z'
loop_
 _atom_type_symbol
 _atom_type_oxidation_number
  In3+  3.0
  Ag+  1.0
  Sn2+  2.0
  Bi3+  3.0
  Te2-  -2.0
  Pb2+  2.0
loop_
 _atom_site_type_symbol
 _atom_site_label
 _atom_site_symmetry_multiplicity
 _atom_site_fract_x
 _atom_site_fract_y
 _atom_site_fract_z
 _atom_site_occupancy
  In3+  In0  1  0.47175360  0.84981912  0.33010138  1
  In3+  In1  1  0.31967715  0.84515468  0.50680881  1
  In3+  In2  1  0.48840283  0.49861788  0.01258046  1
  In3+  In3  1  0.83893081  0.15943197  0.69314771  1
  In3+  In4  1  0.33798187  0.16966232  0.81677440  1
  In3+  In5  1  0.01305681  0.66184905  0.67050076  1
  In3+  In6  1  0.16899314  0.67480502  0.15153296  1
  In3+  In7  1  0.15420513  0.84232307  0.31325773  1
  In3+  In8  1  0.66788334  0.82657014  0.16247835  1
  In3+  In9  1  0.31818844  0.33017876  0.00780309  1
  In3+  In10  1  0.49720314  0.32420564  0.15252178  1
  In3+  In11  1  0.67017175  0.49981968  0.48441355  1
  In3+  In12  1  0.67049418  0.33282271  -0.00883791  1
  In3+  In13  1  0.66503171  0.00356909  0.00345515  1
  In3+  In14  1  0.16127906  0.15277410  0.66440318  1
  In3+  In15  1  0.86534317  0.83317691  0.66561644  1
  In3+  In16  1  0.48651322  0.67167012  0.49678023  1
  In3+  In17  1  0.18118190  -0.01739960  0.83445275  1
  In3+  In18  1  0.84399778  0.17943309  0.01424869  1
  In3+  In19  1  0.01250267  0.66852797  0.01999429  1
  In3+  In20  1  0.83223696  -0.01303948  0.83278690  1
  In3+  In21  1  0.86051662  0.50079205  0.31810545  1
  Ag+  Ag22  1  0.02798073  0.02210367  0.31361728  1
  Ag+  Ag23  1  0.46861638  -0.03444037  0.13832064  1
  Ag+  Ag24  1  0.86532903  0.69751997  0.86314868  1
  Ag+  Ag25  1  0.86199299  0.34220058  0.14564483  1
  Ag+  Ag26  1  0.01314745  0.86358074  0.16238065  1
  Ag+  Ag27  1  0.47855917  0.33007835  0.85475052  1
  Ag+  Ag28  1  0.19777079  0.86449149  0.02083077  1
  Ag+  Ag29  1  0.02119945  0.47133448  0.15759620  1
  Ag+  Ag30  1  0.33786524  0.02258475  0.68602585  1
  Ag+  Ag31  1  0.12576097  0.13645810  0.29656181  1
  Ag+  Ag32  1  0.69056041  0.15716789  0.85903553  1
  Ag+  Ag33  1  0.31960087  -0.02454325  0.32067864  1
  Ag+  Ag34  1  0.03320939  0.15756586  0.15999909  1
  Ag+  Ag35  1  0.30298238  0.85471382  0.14154723  1
  Ag+  Ag36  1  0.16801779  0.49978519  0.30845474  1
  Ag+  Ag37  1  0.18381002  0.30830604  0.82760815  1
  Ag+  Ag38  1  0.16708805  0.85491005  0.64065216  1
  Ag+  Ag39  1  0.35518449  0.68836289  0.01662253  1
  Ag+  Ag40  1  0.13689152  0.02753589  0.19048240  1
  Ag+  Ag41  1  0.53125710  0.13624972  0.70191031  1
  Ag+  Ag42  1  0.02249285  0.31020964  0.00657034  1
  Sn2+  Sn43  1  0.66935967  0.33468626  0.32353093  1
  Sn2+  Sn44  1  0.15941921  0.49896623  -0.00035394  1
  Sn2+  Sn45  1  0.33194195  0.33091882  0.66846905  1
  Sn2+  Sn46  1  0.00736027  0.67308148  0.33006417  1
  Sn2+  Sn47  1  0.16691895  0.49642893  0.67522864  1
  Sn2+  Sn48  1  0.84007274  0.00377937  0.49473986  1
  Sn2+  Sn49  1  0.48942170  0.49875054  0.33502266  1
  Sn2+  Sn50  1  0.66777909  0.67239410  0.33359055  1
  Sn2+  Sn51  1  0.16486918  0.33495825  0.49835512  1
  Sn2+  Sn52  1  0.33808033  0.14894088  0.17471231  1
  Sn2+  Sn53  1  0.00379587  0.17273501  0.84050255  1
  Sn2+  Sn54  1  0.32644957  0.50761783  0.16387447  1
  Sn2+  Sn55  1  0.50109517  0.65154534  0.82731191  1
  Sn2+  Sn56  1  0.65841757  0.83633802  0.82965615  1
  Sn2+  Sn57  1  0.65886589  -0.00044177  0.32698939  1
  Sn2+  Sn58  1  0.66571041  0.16592969  0.51170845  1
  Sn2+  Sn59  1  0.16385896  0.66520666  0.49489687  1
  Sn2+  Sn60  1  0.67673754  0.67039568  0.66827811  1
  Sn2+  Sn61  1  0.83616737  0.50471569  0.66478335  1
  Sn2+  Sn62  1  0.50044942  0.17041840  -0.00434171  1
  Sn2+  Sn63  1  0.00519004  0.50263466  0.48598082  1
  Sn2+  Sn64  1  0.84299810  0.66088774  0.16326040  1
  Bi3+  Bi65  1  0.16854914  0.66616669  0.83422744  1
  Bi3+  Bi66  1  0.33222989  0.66547762  0.67363477  1
  Bi3+  Bi67  1  0.83071027  0.50174370  0.00246845  1
  Bi3+  Bi68  1  0.83346727  0.33375672  0.50143499  1
  Bi3+  Bi69  1  0.16894913  0.16614862  -0.00746532  1
  Bi3+  Bi70  1  0.50066232  0.33462361  0.50173474  1
  Bi3+  Bi71  1  0.50128818  0.00105145  0.49867327  1
  Bi3+  Bi72  1  0.82464236  0.17002786  0.33300146  1
  Bi3+  Bi73  1  0.83248155  0.33773216  0.83420688  1
  Bi3+  Bi74  1  0.33105003  0.33472929  0.33150584  1
  Bi3+  Bi75  1  0.50345089  0.49621099  0.66823727  1
  Bi3+  Bi76  1  0.83147895  0.66494908  0.49924414  1
  Bi3+  Bi77  1  0.83192527  0.83375987  0.00455624  1
  Bi3+  Bi78  1  0.33238632  0.16569245  0.49776898  1
  Bi3+  Bi79  1  0.83677281  0.83159458  0.33212727  1
  Bi3+  Bi80  1  0.66806410  0.83067196  0.49976787  1
  Bi3+  Bi81  1  0.66444927  0.49319344  0.83029208  1
  Bi3+  Bi82  1  0.66579019  0.16588756  0.16615300  1
  Bi3+  Bi83  1  0.00031812  0.16847635  0.49906570  1
  Bi3+  Bi84  1  0.66559971  0.33262830  0.66832755  1
  Bi3+  Bi85  1  0.49465569  0.16706229  0.33713840  1
  Te2-  Te86  1  0.17719634  0.16914709  0.15909288  1
  Te2-  Te87  1  0.16532541  0.17125132  0.50294498  1
  Te2-  Te88  1  0.16220996  0.16295697  0.82884381  1
  Te2-  Te89  1  0.16545330  0.50719525  0.15887972  1
  Te2-  Te90  1  0.16170685  0.49832672  0.51099485  1
  Te2-  Te91  1  0.16231401  0.50387035  0.83766615  1
  Te2-  Te92  1  0.15973080  0.82649678  0.16107617  1
  Te2-  Te93  1  0.16785390  0.82946938  0.49511935  1
  Te2-  Te94  1  0.16395445  0.83138898  0.85004225  1
  Te2-  Te95  1  0.50305040  0.16879163  0.17216265  1
  Te2-  Te96  1  0.49713092  0.16776176  0.50182988  1
  Te2-  Te97  1  0.48853858  0.17745493  0.83471378  1
  Te2-  Te98  1  0.49619486  0.49644329  0.16621687  1
  Te2-  Te99  1  0.50393324  0.50077072  0.50226167  1
  Te2-  Te100  1  0.50311916  0.48387193  0.83067477  1
  Te2-  Te101  1  0.51101972  0.83295244  0.18074487  1
  Te2-  Te102  1  0.50570454  0.83302911  0.48883959  1
  Te2-  Te103  1  0.50243319  0.83125796  0.83224505  1
  Te2-  Te104  1  0.82628187  0.18411741  0.16905858  1
  Te2-  Te105  1  0.83370326  0.16975186  0.49577023  1
  Te2-  Te106  1  0.83580664  0.17412098  0.84736173  1
  Te2-  Te107  1  0.83177757  0.48995401  0.16792865  1
  Te2-  Te108  1  0.83115611  0.49948774  0.49712455  1
  Te2-  Te109  1  0.82591792  0.50200043  0.83557642  1
  Te2-  Te110  1  0.82370828  0.83099267  0.17006610  1
  Te2-  Te111  1  0.83240154  0.83191666  0.49864232  1
  Te2-  Te112  1  0.82535276  0.83317674  0.83059270  1
  Te2-  Te113  1  0.16485901  0.00449772  -0.00994442  1
  Te2-  Te114  1  0.17134515  -0.00762331  0.33200994  1
  Te2-  Te115  1  0.17755465  -0.00145653  0.67755961  1
  Te2-  Te116  1  0.16645953  0.32985145  -0.01741067  1
  Te2-  Te117  1  0.17106127  0.34439642  0.33580283  1
  Te2-  Te118  1  0.16795173  0.33800426  0.67788632  1
  Te2-  Te119  1  0.16447910  0.66415656  -0.00260675  1
  Te2-  Te120  1  0.16174050  0.65098442  0.33937453  1
  Te2-  Te121  1  0.16910544  0.66295541  0.67061046  1
  Te2-  Te122  1  0.50773079  0.00249377  0.00219950  1
  Te2-  Te123  1  0.49789390  0.00338710  0.33591143  1
  Te2-  Te124  1  0.48740150  0.00154843  0.66310734  1
  Te2-  Te125  1  0.50572502  0.33732907  -0.00110976  1
  Te2-  Te126  1  0.49859277  0.33270281  0.33961988  1
  Te2-  Te127  1  0.50254673  0.33427232  0.66087617  1
  Te2-  Te128  1  0.49615164  0.65334527  -0.00128673  1
  Te2-  Te129  1  0.49799506  0.66226050  0.34109159  1
  Te2-  Te130  1  0.49749320  0.66217603  0.66091636  1
  Te2-  Te131  1  0.82514120  -0.00467514  -0.00454015  1
  Te2-  Te132  1  0.82688191  -0.00188725  0.33535649  1
  Te2-  Te133  1  0.83266550  -0.00128753  0.66696621  1
  Te2-  Te134  1  0.82830806  0.33729641  0.00086804  1
  Te2-  Te135  1  0.82889097  0.33924298  0.33982960  1
  Te2-  Te136  1  0.83098009  0.33143528  0.66634896  1
  Te2-  Te137  1  0.82892900  0.66689876  0.00084390  1
  Te2-  Te138  1  0.83526137  0.66385996  0.33428815  1
  Te2-  Te139  1  0.83543877  0.67206890  0.66083083  1
  Te2-  Te140  1  -0.00255169  0.16442068  0.01066577  1
  Te2-  Te141  1  -0.01292781  0.16457005  0.33753289  1
  Te2-  Te142  1  0.00182135  0.16755706  0.66396876  1
  Te2-  Te143  1  -0.00918787  0.51352787  0.01448073  1
  Te2-  Te144  1  0.00914627  0.49810004  0.32033711  1
  Te2-  Te145  1  -0.00369898  0.50664686  0.66821448  1
  Te2-  Te146  1  -0.00960853  0.82453979  0.01436931  1
  Te2-  Te147  1  -0.00052140  0.83738190  0.31760102  1
  Te2-  Te148  1  0.01770923  0.83079470  0.66391290  1
  Te2-  Te149  1  0.33291841  0.17628733  0.00431438  1
  Te2-  Te150  1  0.33228096  0.17340289  0.33714373  1
  Te2-  Te151  1  0.32476671  0.16708376  0.66137952  1
  Te2-  Te152  1  0.33476461  0.48511657  0.00034437  1
  Te2-  Te153  1  0.32228458  0.49697760  0.33242362  1
  Te2-  Te154  1  0.33817063  0.50151254  0.66622240  1
  Te2-  Te155  1  0.33981233  0.83367508  0.00059062  1
  Te2-  Te156  1  0.32433535  0.82949935  0.33600674  1
  Te2-  Te157  1  0.31881002  0.82663143  0.66087195  1
  Te2-  Te158  1  0.66588792  0.17014566  0.00326538  1
  Te2-  Te159  1  0.66257556  0.16724170  0.33626242  1
  Te2-  Te160  1  0.67004466  0.16938298  0.66829763  1
  Te2-  Te161  1  0.66531832  0.49230320  -0.00453562  1
  Te2-  Te162  1  0.65762937  0.50187988  0.33392722  1
  Te2-  Te163  1  0.66721627  0.49818469  0.66795320  1
  Te2-  Te164  1  0.66984428  0.83596019  0.00017749  1
  Te2-  Te165  1  0.67545086  0.83356368  0.33717717  1
  Te2-  Te166  1  0.65971308  0.83245407  0.66269538  1
  Te2-  Te167  1  -0.00591404  0.00932689  0.16967954  1
  Te2-  Te168  1  0.00167293  0.00285465  0.49703259  1
  Te2-  Te169  1  -0.01515953  0.00307347  0.83229940  1
  Te2-  Te170  1  0.00641229  0.32536788  0.15636658  1
  Te2-  Te171  1  -0.00405690  0.33422196  0.50246860  1
  Te2-  Te172  1  -0.00736855  0.33223766  0.84806131  1
  Te2-  Te173  1  0.00192767  0.66593203  0.17108412  1
  Te2-  Te174  1  -0.00632303  0.66341820  0.50231450  1
  Te2-  Te175  1  0.00147860  0.66794338  0.82375257  1
  Te2-  Te176  1  0.33149245  -0.00553180  0.17438764  1
  Te2-  Te177  1  0.33843857  -0.00149323  0.49481638  1
  Te2-  Te178  1  0.33363486  0.00811693  0.83318050  1
  Te2-  Te179  1  0.34213701  0.33673758  0.16549888  1
  Te2-  Te180  1  0.33485013  0.33166180  0.49982668  1
  Te2-  Te181  1  0.33166477  0.32376872  0.83334461  1
  Te2-  Te182  1  0.32325201  0.66658265  0.15833407  1
  Te2-  Te183  1  0.33359915  0.67246529  0.50538702  1
  Te2-  Te184  1  0.33416816  0.66252110  0.83750040  1
  Te2-  Te185  1  0.66375447  0.00269205  0.16089812  1
  Te2-  Te186  1  0.66543579  -0.00314498  0.50052956  1
  Te2-  Te187  1  0.67357195  0.00962647  0.83934691  1
  Te2-  Te188  1  0.65402721  0.32907724  0.16367354  1
  Te2-  Te189  1  0.66740156  0.33599266  0.50137760  1
  Te2-  Te190  1  0.67063425  0.32475322  0.83288162  1
  Te2-  Te191  1  0.66658861  0.67024975  0.16867448  1
  Te2-  Te192  1  0.67001234  0.66501394  0.49998809  1
  Te2-  Te193  1  0.65995124  0.66157203  0.82874587  1
  Pb2+  Pb194  1  0.50511239  0.00684813  0.83504492  1
  Pb2+  Pb195  1  0.33209127  0.49472869  0.83347941  1
  Pb2+  Pb196  1  0.16998350  0.33835287  0.16437203  1
  Pb2+  Pb197  1  0.48868808  0.83409099  0.66077150  1
  Pb2+  Pb198  1  0.00175735  0.83184963  0.48840957  1
  Pb2+  Pb199  1  0.66473348  -0.00068878  0.66898209  1
  Pb2+  Pb200  1  0.50291045  0.83052482  0.00459670  1
  Pb2+  Pb201  1  0.82927046  0.00721861  0.16727845  1
  Pb2+  Pb202  1  0.66624212  0.49727772  0.16656905  1
  Pb2+  Pb203  1  0.00021175  0.83563217  0.84117690  1
  Pb2+  Pb204  1  0.33055660  0.83105899  0.83152074  1
  Pb2+  Pb205  1  0.49497613  0.66631284  0.17310326  1
  Pb2+  Pb206  1  0.00351163  0.32907649  0.32270756  1
  Pb2+  Pb207  1  0.17064173  0.00356338  0.50249522  1
  Pb2+  Pb208  1  0.32602224  0.66577572  0.33002225  1
  Pb2+  Pb209  1  0.33315292  0.00726671  0.00717718  1
  Pb2+  Pb210  1  -0.00150155  -0.00571300  0.00272013  1
  Pb2+  Pb211  1  0.00305061  0.33663532  0.67857392  1
  Pb2+  Pb212  1  -0.00507991  0.50039246  0.84520213  1
  Pb2+  Pb213  1  0.00185170  -0.00043349  0.66437074  1
  Pb2+  Pb214  1  0.66276968  0.66337120  -0.00434546  1
  Pb2+  Pb215  1  0.32945669  0.50337813  0.49912412  1
