# generated using pymatgen
data_In22Ag21Sn22Bi21(Te54Pb11)2
_symmetry_space_group_name_H-M   'P 1'
_cell_length_a   19.16649991
_cell_length_b   19.19482308
_cell_length_c   19.17877496
_cell_angle_alpha   90.01195488
_cell_angle_beta   90.02724487
_cell_angle_gamma   90.01439731
_symmetry_Int_Tables_number   1
_chemical_formula_structural   In22Ag21Sn22Bi21(Te54Pb11)2
_chemical_formula_sum   'In22 Ag21 Sn22 Bi21 Te108 Pb22'
_cell_volume   7055.82362003
_cell_formula_units_Z   1
loop_
 _symmetry_equiv_pos_site_id
 _symmetry_equiv_pos_as_xyz
  1  'x, y, z'
loop_
 _atom_type_symbol
 _atom_type_oxidation_number
  In3+  3.0
  Ag+  1.0
  Sn2+  2.0
  Bi3+  3.0
  Te2-  -2.0
  Pb2+  2.0
loop_
 _atom_site_type_symbol
 _atom_site_label
 _atom_site_symmetry_multiplicity
 _atom_site_fract_x
 _atom_site_fract_y
 _atom_site_fract_z
 _atom_site_occupancy
  In3+  In0  1  0.48167916  0.84020799  0.02251258  1
  In3+  In1  1  0.48549525  0.33342774  0.18282466  1
  In3+  In2  1  0.30623910  0.32649790  0.66183179  1
  In3+  In3  1  0.65604989  0.16563138  0.17449552  1
  In3+  In4  1  0.00753298  0.83206069  0.48475008  1
  In3+  In5  1  0.16391660  0.48870765  0.33328133  1
  In3+  In6  1  0.48687920  0.31709314  0.83488157  1
  In3+  In7  1  0.84439183  0.31668515  0.50085552  1
  In3+  In8  1  0.66689125  0.18756632  0.83562244  1
  In3+  In9  1  0.85543876  0.66728332  0.84067618  1
  In3+  In10  1  0.49526791  0.00181168  0.47045075  1
  In3+  In11  1  0.84398550  0.47919786  0.03939466  1
  In3+  In12  1  0.66883196  0.85683168  0.48756209  1
  In3+  In13  1  0.65532931  0.32812536  0.01027864  1
  In3+  In14  1  0.68049131  0.84468063  0.16603895  1
  In3+  In15  1  0.14240620  0.00338519  0.49842833  1
  In3+  In16  1  0.01425581  0.84877090  0.83169601  1
  In3+  In17  1  0.00312783  0.82816160  0.17727821  1
  In3+  In18  1  0.00127749  0.66077755  0.66689482  1
  In3+  In19  1  0.00201620  0.67013875  0.02119270  1
  In3+  In20  1  0.83620919  0.83527630  0.65790238  1
  In3+  In21  1  -0.00218811  0.49427157  0.83714790  1
  Ag+  Ag22  1  0.00203464  0.35756152  0.64509031  1
  Ag+  Ag23  1  0.18819980  0.86016389  -0.00439110  1
  Ag+  Ag24  1  0.85374869  0.01731695  0.16123844  1
  Ag+  Ag25  1  0.82758007  0.01607303  0.52347886  1
  Ag+  Ag26  1  0.52136902  0.81958394  0.33656575  1
  Ag+  Ag27  1  0.35354494  0.02579692  0.00318544  1
  Ag+  Ag28  1  0.48371786  0.69375317  0.19544333  1
  Ag+  Ag29  1  0.17100392  0.82068250  0.35695308  1
  Ag+  Ag30  1  0.14778551  0.33435314  0.81332400  1
  Ag+  Ag31  1  0.51883099  -0.01803430  0.16630159  1
  Ag+  Ag32  1  0.83102193  0.30838303  0.20121668  1
  Ag+  Ag33  1  0.69481293  0.17149558  0.47279298  1
  Ag+  Ag34  1  0.52291315  0.14128042  0.00289564  1
  Ag+  Ag35  1  -0.02086297  0.64438378  0.35230010  1
  Ag+  Ag36  1  0.14225054  0.35218399  0.46675985  1
  Ag+  Ag37  1  0.49564874  0.47502528  0.30442118  1
  Ag+  Ag38  1  0.83253336  0.19424592  0.30242205  1
  Ag+  Ag39  1  0.33389253  0.36508241  0.31201589  1
  Ag+  Ag40  1  0.86148468  0.48351193  0.33827845  1
  Ag+  Ag41  1  0.30347233  0.14567603  0.81433181  1
  Ag+  Ag42  1  0.00642563  0.47503967  0.18731430  1
  Sn2+  Sn43  1  0.32666185  0.50334471  0.17260577  1
  Sn2+  Sn44  1  0.16686184  0.65587846  0.83507162  1
  Sn2+  Sn45  1  0.67403497  0.67110560  0.66126969  1
  Sn2+  Sn46  1  0.15445106  0.34055255  0.16865051  1
  Sn2+  Sn47  1  0.00096971  0.33641013  0.00150642  1
  Sn2+  Sn48  1  0.67231427  0.33072645  0.65862754  1
  Sn2+  Sn49  1  0.33492002  0.32688357  -0.00734020  1
  Sn2+  Sn50  1  0.16605749  0.66599599  0.48676890  1
  Sn2+  Sn51  1  0.33629655  0.85111607  0.83115383  1
  Sn2+  Sn52  1  0.00007289  -0.01384650  0.00358931  1
  Sn2+  Sn53  1  0.66183971  0.83182962  0.83508240  1
  Sn2+  Sn54  1  0.17074245  0.67346057  0.17049376  1
  Sn2+  Sn55  1  0.33192520  0.00155543  0.32309244  1
  Sn2+  Sn56  1  0.15830607  0.49684698  0.00747570  1
  Sn2+  Sn57  1  0.83435870  0.16804302  0.00108937  1
  Sn2+  Sn58  1  0.50214007  0.83897168  0.66459866  1
  Sn2+  Sn59  1  0.00167076  0.17803714  0.83360628  1
  Sn2+  Sn60  1  0.84076433  0.83816092  0.33461482  1
  Sn2+  Sn61  1  -0.00604121  0.17558769  0.16238355  1
  Sn2+  Sn62  1  0.33398245  0.83419628  0.49413081  1
  Sn2+  Sn63  1  0.15802855  0.15852313  0.33641759  1
  Sn2+  Sn64  1  0.50005391  0.00066867  0.84454198  1
  Bi3+  Bi65  1  0.50066673  0.32663762  0.50822206  1
  Bi3+  Bi66  1  0.66715299  0.66481176  -0.00124631  1
  Bi3+  Bi67  1  0.67319112  0.00072313  0.32899205  1
  Bi3+  Bi68  1  0.66959738  0.50174509  0.83366298  1
  Bi3+  Bi69  1  0.33438116  0.67404115  0.33447310  1
  Bi3+  Bi70  1  -0.00521507  0.00139852  0.33086637  1
  Bi3+  Bi71  1  0.82950344  0.66831396  0.16568702  1
  Bi3+  Bi72  1  0.00290770  0.16080154  0.49856166  1
  Bi3+  Bi73  1  0.33656119  0.16025732  0.50015874  1
  Bi3+  Bi74  1  0.50800741  0.50341447  -0.00193247  1
  Bi3+  Bi75  1  0.16313130  -0.00080123  0.16969138  1
  Bi3+  Bi76  1  0.82936005  0.82773035  -0.00322874  1
  Bi3+  Bi77  1  0.32886441  0.65876552  0.00257490  1
  Bi3+  Bi78  1  0.50152359  0.49817337  0.66986708  1
  Bi3+  Bi79  1  0.16330042  0.17089357  0.00580223  1
  Bi3+  Bi80  1  0.32997777  0.49703395  0.83869670  1
  Bi3+  Bi81  1  0.33379955  0.16658130  0.16632642  1
  Bi3+  Bi82  1  0.83155336  0.67150948  0.49597750  1
  Bi3+  Bi83  1  0.67120070  0.49877945  0.16730598  1
  Bi3+  Bi84  1  0.83416912  0.16637016  0.67213364  1
  Bi3+  Bi85  1  0.50039125  0.66621312  0.83603766  1
  Te2-  Te86  1  0.16446191  0.16611150  0.17135916  1
  Te2-  Te87  1  0.16795148  0.16486002  0.49625206  1
  Te2-  Te88  1  0.16368218  0.18128433  0.84037180  1
  Te2-  Te89  1  0.15389993  0.50170670  0.17511519  1
  Te2-  Te90  1  0.16884187  0.49613682  0.49058228  1
  Te2-  Te91  1  0.16848930  0.48694581  0.83931877  1
  Te2-  Te92  1  0.15475731  0.83735702  0.14497385  1
  Te2-  Te93  1  0.15987642  0.83868068  0.50403699  1
  Te2-  Te94  1  0.16534131  0.83036045  0.84526563  1
  Te2-  Te95  1  0.50211389  0.18139308  0.15226983  1
  Te2-  Te96  1  0.49821111  0.15809889  0.50207773  1
  Te2-  Te97  1  0.51021465  0.16794167  0.85195926  1
  Te2-  Te98  1  0.50293753  0.48718699  0.15695106  1
  Te2-  Te99  1  0.50112158  0.49359831  0.50886517  1
  Te2-  Te100  1  0.50168917  0.50081223  0.83505576  1
  Te2-  Te101  1  0.49838068  0.83610512  0.17026871  1
  Te2-  Te102  1  0.50892397  0.84677961  0.49291383  1
  Te2-  Te103  1  0.49434531  0.82750736  0.82928043  1
  Te2-  Te104  1  0.82928352  0.16258024  0.15675962  1
  Te2-  Te105  1  0.83786314  0.16329456  0.50761992  1
  Te2-  Te106  1  0.83170021  0.16487440  0.83317629  1
  Te2-  Te107  1  0.83904388  0.50807841  0.18619197  1
  Te2-  Te108  1  0.83255491  0.50938864  0.48578408  1
  Te2-  Te109  1  0.83293311  0.51221109  0.82642589  1
  Te2-  Te110  1  0.84042321  0.82865346  0.16074902  1
  Te2-  Te111  1  0.82709591  0.83226900  0.50394380  1
  Te2-  Te112  1  0.82936774  0.81938149  0.83335376  1
  Te2-  Te113  1  0.15840771  0.00604956  0.00267113  1
  Te2-  Te114  1  0.16081042  -0.00128326  0.33401847  1
  Te2-  Te115  1  0.16887647  -0.00105183  0.66570547  1
  Te2-  Te116  1  0.16439454  0.33293475  0.01164096  1
  Te2-  Te117  1  0.18273733  0.33607541  0.32858057  1
  Te2-  Te118  1  0.15441178  0.33348952  0.66587592  1
  Te2-  Te119  1  0.16371271  0.65599168  0.00297616  1
  Te2-  Te120  1  0.17335547  0.67477064  0.32965008  1
  Te2-  Te121  1  0.15856274  0.66517803  0.66231447  1
  Te2-  Te122  1  0.49699648  -0.00629242  0.01181643  1
  Te2-  Te123  1  0.50339462  -0.00119582  0.31856157  1
  Te2-  Te124  1  0.49943601  -0.00237612  0.67727475  1
  Te2-  Te125  1  0.50472459  0.34208383  -0.00728032  1
  Te2-  Te126  1  0.48526080  0.33025374  0.33850246  1
  Te2-  Te127  1  0.50869362  0.33314821  0.67345967  1
  Te2-  Te128  1  0.50132367  0.66730701  -0.00160319  1
  Te2-  Te129  1  0.49573522  0.67628993  0.33928437  1
  Te2-  Te130  1  0.50146868  0.66510748  0.67038900  1
  Te2-  Te131  1  0.83447120  -0.00871295  0.00955669  1
  Te2-  Te132  1  0.83399708  -0.00807525  0.31271252  1
  Te2-  Te133  1  0.83110182  -0.00648832  0.67132704  1
  Te2-  Te134  1  0.84104856  0.33687172  -0.00701011  1
  Te2-  Te135  1  0.83144738  0.33760640  0.34838813  1
  Te2-  Te136  1  0.84334491  0.33212771  0.65634663  1
  Te2-  Te137  1  0.83324530  0.66478533  -0.00029699  1
  Te2-  Te138  1  0.83820270  0.67830651  0.33111175  1
  Te2-  Te139  1  0.84208389  0.67333122  0.66037485  1
  Te2-  Te140  1  0.00066746  0.16410577  -0.00176869  1
  Te2-  Te141  1  -0.01440776  0.16443210  0.33579270  1
  Te2-  Te142  1  -0.00451530  0.16373113  0.66383136  1
  Te2-  Te143  1  -0.00998006  0.51002123  -0.00924171  1
  Te2-  Te144  1  0.01016612  0.50297033  0.33211063  1
  Te2-  Te145  1  -0.00069218  0.50202224  0.67064564  1
  Te2-  Te146  1  -0.00895562  0.81953590  -0.01755131  1
  Te2-  Te147  1  0.01428694  0.83757541  0.33198062  1
  Te2-  Te148  1  -0.00724570  0.82822864  0.67841949  1
  Te2-  Te149  1  0.32515733  0.17043453  0.00508606  1
  Te2-  Te150  1  0.33106794  0.15951916  0.33237914  1
  Te2-  Te151  1  0.33512014  0.17070107  0.67342724  1
  Te2-  Te152  1  0.33715956  0.49744545  0.00221772  1
  Te2-  Te153  1  0.34670719  0.51010284  0.32860823  1
  Te2-  Te154  1  0.33693797  0.49229097  0.67296969  1
  Te2-  Te155  1  0.33052954  0.82083097  -0.00286014  1
  Te2-  Te156  1  0.31944182  0.83708915  0.33644095  1
  Te2-  Te157  1  0.33445659  0.83098706  0.66310936  1
  Te2-  Te158  1  0.66722669  0.17242307  -0.00667359  1
  Te2-  Te159  1  0.67860111  0.16588586  0.32735108  1
  Te2-  Te160  1  0.67199389  0.16721970  0.67900660  1
  Te2-  Te161  1  0.67762643  0.50068356  -0.00133574  1
  Te2-  Te162  1  0.64608880  0.49904279  0.32694888  1
  Te2-  Te163  1  0.66528666  0.49979394  0.66882502  1
  Te2-  Te164  1  0.66365733  0.82636282  0.00398472  1
  Te2-  Te165  1  0.66711259  0.83784246  0.33095657  1
  Te2-  Te166  1  0.66934287  0.82855075  0.66607367  1
  Te2-  Te167  1  0.00197047  0.00157671  0.16737626  1
  Te2-  Te168  1  -0.02028445  -0.00299649  0.49422162  1
  Te2-  Te169  1  0.00012025  0.00109599  0.83505813  1
  Te2-  Te170  1  -0.01703221  0.33223238  0.16697314  1
  Te2-  Te171  1  0.00190498  0.32809316  0.50015061  1
  Te2-  Te172  1  0.00187513  0.33897941  0.83684187  1
  Te2-  Te173  1  -0.00183267  0.67323085  0.17060947  1
  Te2-  Te174  1  -0.00025887  0.67723372  0.49600646  1
  Te2-  Te175  1  0.00703442  0.65698149  0.82456546  1
  Te2-  Te176  1  0.32499222  0.00615078  0.15539580  1
  Te2-  Te177  1  0.34197297  -0.00032911  0.49621943  1
  Te2-  Te178  1  0.33701209  0.00679272  0.84918757  1
  Te2-  Te179  1  0.33184463  0.33163978  0.16693398  1
  Te2-  Te180  1  0.33882876  0.32081559  0.51110209  1
  Te2-  Te181  1  0.33701538  0.33661527  0.82912977  1
  Te2-  Te182  1  0.34097534  0.66668396  0.16400745  1
  Te2-  Te183  1  0.32795288  0.66676488  0.50069056  1
  Te2-  Te184  1  0.33259384  0.66248475  0.83803180  1
  Te2-  Te185  1  0.66313130  0.01153792  0.16685606  1
  Te2-  Te186  1  0.67924141  0.00831991  0.49278338  1
  Te2-  Te187  1  0.66237055  -0.00963622  0.83478850  1
  Te2-  Te188  1  0.68837994  0.33610672  0.15908724  1
  Te2-  Te189  1  0.66135057  0.31684680  0.50073904  1
  Te2-  Te190  1  0.66939470  0.34008897  0.83457136  1
  Te2-  Te191  1  0.66521049  0.66162429  0.16088866  1
  Te2-  Te192  1  0.66849670  0.66690851  0.49981438  1
  Te2-  Te193  1  0.66337191  0.66329872  0.83316011  1
  Pb2+  Pb194  1  0.32595003  0.83814746  0.16807854  1
  Pb2+  Pb195  1  0.00011979  -0.00230680  0.66289604  1
  Pb2+  Pb196  1  0.65859334  0.33447432  0.32584844  1
  Pb2+  Pb197  1  0.33600708  0.49026150  0.49639124  1
  Pb2+  Pb198  1  0.16277832  0.16777558  0.66640542  1
  Pb2+  Pb199  1  -0.00159996  0.50558903  0.49997188  1
  Pb2+  Pb200  1  0.66712927  0.49201171  0.49374136  1
  Pb2+  Pb201  1  0.33213887  0.66359413  0.67089002  1
  Pb2+  Pb202  1  0.00669048  0.32938586  0.33224661  1
  Pb2+  Pb203  1  0.66608464  -0.00103505  0.00090095  1
  Pb2+  Pb204  1  0.66426722  -0.00216738  0.66270549  1
  Pb2+  Pb205  1  0.33528675  -0.00158076  0.66711085  1
  Pb2+  Pb206  1  0.83545516  0.33979898  0.82692538  1
  Pb2+  Pb207  1  0.16689829  0.49806976  0.66973675  1
  Pb2+  Pb208  1  0.16405085  0.83104981  0.67551875  1
  Pb2+  Pb209  1  0.83178228  0.50419306  0.65610192  1
  Pb2+  Pb210  1  0.16893866  0.00777491  0.83646395  1
  Pb2+  Pb211  1  0.49920733  0.67282923  0.50215561  1
  Pb2+  Pb212  1  0.66888886  0.66429944  0.33028600  1
  Pb2+  Pb213  1  0.50271081  0.16529269  0.67595774  1
  Pb2+  Pb214  1  0.49949396  0.16369726  0.32835175  1
  Pb2+  Pb215  1  0.83053581  -0.00754666  0.84212412  1
