# generated using pymatgen
data_In22Ag21Sn22Bi21(Te54Pb11)2
_symmetry_space_group_name_H-M   'P 1'
_cell_length_a   19.17053060
_cell_length_b   19.14704895
_cell_length_c   19.16150105
_cell_angle_alpha   89.99073466
_cell_angle_beta   90.00375591
_cell_angle_gamma   90.01291497
_symmetry_Int_Tables_number   1
_chemical_formula_structural   In22Ag21Sn22Bi21(Te54Pb11)2
_chemical_formula_sum   'In22 Ag21 Sn22 Bi21 Te108 Pb22'
_cell_volume   7033.40280842
_cell_formula_units_Z   1
loop_
 _symmetry_equiv_pos_site_id
 _symmetry_equiv_pos_as_xyz
  1  'x, y, z'
loop_
 _atom_type_symbol
 _atom_type_oxidation_number
  In3+  3.0
  Ag+  1.0
  Sn2+  2.0
  Bi3+  3.0
  Te2-  -2.0
  Pb2+  2.0
loop_
 _atom_site_type_symbol
 _atom_site_label
 _atom_site_symmetry_multiplicity
 _atom_site_fract_x
 _atom_site_fract_y
 _atom_site_fract_z
 _atom_site_occupancy
  In3+  In0  1  0.33495952  0.16451083  0.48504979  1
  In3+  In1  1  0.81252391  0.50381070  0.34703552  1
  In3+  In2  1  0.49481339  0.82957394  0.64411155  1
  In3+  In3  1  0.33589303  0.83407240  0.16860460  1
  In3+  In4  1  0.51065735  0.34888385  0.49305419  1
  In3+  In5  1  0.00889948  0.18046886  0.83550737  1
  In3+  In6  1  0.34877969  0.33191150  0.32726129  1
  In3+  In7  1  0.16597406  0.67496949  0.49367833  1
  In3+  In8  1  0.83602514  0.36252311  0.16439397  1
  In3+  In9  1  -0.01413579  0.66697170  0.32451938  1
  In3+  In10  1  0.00194908  0.34316672  -0.00750226  1
  In3+  In11  1  0.64673617  -0.01839243  0.33314362  1
  In3+  In12  1  0.81443755  0.82935352  0.67164445  1
  In3+  In13  1  0.33703162  0.83021216  0.83428266  1
  In3+  In14  1  0.34458919  0.32864961  0.65745673  1
  In3+  In15  1  0.17214443  0.83773118  0.33348584  1
  In3+  In16  1  0.18325383  0.16595510  0.65827635  1
  In3+  In17  1  0.68017206  0.66245874  0.66795307  1
  In3+  In18  1  0.00093665  0.53563594  0.85487053  1
  In3+  In19  1  0.50562818  0.52240481  0.00952696  1
  In3+  In20  1  0.16681736  0.82396294  0.67836640  1
  In3+  In21  1  -0.02436370  0.33166155  0.66634446  1
  Ag+  Ag22  1  0.64515356  0.52527963  0.51418201  1
  Ag+  Ag23  1  0.14127133  0.19297742  0.30562606  1
  Ag+  Ag24  1  0.64929895  0.35997206  0.65647918  1
  Ag+  Ag25  1  0.69123975  0.84758804  0.14374839  1
  Ag+  Ag26  1  0.51651512  0.69510270  0.82712246  1
  Ag+  Ag27  1  0.48790170  0.52387038  0.33710668  1
  Ag+  Ag28  1  -0.02810397  0.47783480  0.18266469  1
  Ag+  Ag29  1  -0.02272288  0.83254871  0.80780259  1
  Ag+  Ag30  1  0.80800688  0.67085765  0.84651435  1
  Ag+  Ag31  1  0.81354752  0.66922362  0.13975594  1
  Ag+  Ag32  1  0.80012448  0.84418939  0.03301871  1
  Ag+  Ag33  1  0.33249493  -0.01171671  0.02498603  1
  Ag+  Ag34  1  0.80366485  0.68332846  0.49846784  1
  Ag+  Ag35  1  -0.01484588  0.84112269  0.17227427  1
  Ag+  Ag36  1  0.67515154  0.82247355  0.50255868  1
  Ag+  Ag37  1  0.15225531  0.68493483  0.80159707  1
  Ag+  Ag38  1  0.68991751  -0.04598061  0.03195219  1
  Ag+  Ag39  1  0.31458640  -0.02683435  0.66391646  1
  Ag+  Ag40  1  0.70175953  0.66427687  0.03371264  1
  Ag+  Ag41  1  0.53163111  0.81235301  0.31114599  1
  Ag+  Ag42  1  0.50679502  0.16632187  0.35751898  1
  Sn2+  Sn43  1  0.00926168  -0.00275187  0.33441500  1
  Sn2+  Sn44  1  0.82805844  -0.01003935  0.49761552  1
  Sn2+  Sn45  1  0.17260761  0.33469436  0.50154811  1
  Sn2+  Sn46  1  0.66762547  0.50335076  0.83135852  1
  Sn2+  Sn47  1  0.33586224  0.00184072  0.34120417  1
  Sn2+  Sn48  1  0.49775153  0.67062143  0.50328938  1
  Sn2+  Sn49  1  0.33674415  0.15985760  0.17167610  1
  Sn2+  Sn50  1  0.33751441  0.66509229  0.33499161  1
  Sn2+  Sn51  1  0.15749441  0.66923585  0.17063975  1
  Sn2+  Sn52  1  0.16734641  -0.01011427  0.83605162  1
  Sn2+  Sn53  1  -0.00289098  -0.01169437  -0.00397755  1
  Sn2+  Sn54  1  0.83216657  0.16357064  0.66825561  1
  Sn2+  Sn55  1  -0.00186160  0.66307775  0.66961354  1
  Sn2+  Sn56  1  0.33860161  0.66543338  0.67872579  1
  Sn2+  Sn57  1  0.66408994  0.66607859  0.33743804  1
  Sn2+  Sn58  1  0.16253298  0.83612999  0.00076695  1
  Sn2+  Sn59  1  0.16803949  0.15653991  0.00130166  1
  Sn2+  Sn60  1  0.49658240  -0.00013032  0.16169388  1
  Sn2+  Sn61  1  0.50087189  0.15854111  0.66330942  1
  Sn2+  Sn62  1  0.32453538  0.15163090  0.83590194  1
  Sn2+  Sn63  1  0.16408334  -0.00766081  0.16331635  1
  Sn2+  Sn64  1  0.33543136  0.32291360  -0.00305293  1
  Bi3+  Bi65  1  0.16767441  -0.00024357  0.50002293  1
  Bi3+  Bi66  1  0.83613198  0.50342842  0.66509179  1
  Bi3+  Bi67  1  0.00080606  0.50127038  0.49370277  1
  Bi3+  Bi68  1  0.16906929  0.49975759  -0.00018832  1
  Bi3+  Bi69  1  0.33248983  0.49959991  0.83617012  1
  Bi3+  Bi70  1  0.66620683  -0.00137994  0.66714573  1
  Bi3+  Bi71  1  0.66880651  0.16652223  0.83251922  1
  Bi3+  Bi72  1  0.49763108  0.00332227  0.83111346  1
  Bi3+  Bi73  1  0.33673948  0.50187949  0.16527638  1
  Bi3+  Bi74  1  0.83370021  0.82891803  0.33762183  1
  Bi3+  Bi75  1  0.50037487  0.33610124  0.82972327  1
  Bi3+  Bi76  1  0.83103640  0.33312731  0.49700297  1
  Bi3+  Bi77  1  0.00265969  0.33649118  0.33587851  1
  Bi3+  Bi78  1  0.83595509  0.50661838  -0.00443238  1
  Bi3+  Bi79  1  0.66672546  0.50313006  0.16873311  1
  Bi3+  Bi80  1  0.49483573  0.83713025  0.00490565  1
  Bi3+  Bi81  1  0.00600823  0.67361904  0.00902201  1
  Bi3+  Bi82  1  0.33270947  0.66970178  0.00117482  1
  Bi3+  Bi83  1  0.66923396  0.33239487  0.33583864  1
  Bi3+  Bi84  1  0.49891081  0.16299505  -0.00432787  1
  Bi3+  Bi85  1  0.49971615  -0.00081621  0.50008703  1
  Te2-  Te86  1  0.16957386  0.16413092  0.16615582  1
  Te2-  Te87  1  0.17748390  0.16403755  0.50176095  1
  Te2-  Te88  1  0.16224087  0.16384029  0.83152203  1
  Te2-  Te89  1  0.17427331  0.50023372  0.16299358  1
  Te2-  Te90  1  0.16531928  0.50036498  0.49973868  1
  Te2-  Te91  1  0.16380335  0.50210048  0.83749635  1
  Te2-  Te92  1  0.17930701  0.83277590  0.17465278  1
  Te2-  Te93  1  0.16818345  0.83548141  0.49290425  1
  Te2-  Te94  1  0.18158482  0.82666024  0.83076926  1
  Te2-  Te95  1  0.49872473  0.16581308  0.15715409  1
  Te2-  Te96  1  0.49243632  0.16359385  0.50558124  1
  Te2-  Te97  1  0.49905348  0.16963928  0.83072926  1
  Te2-  Te98  1  0.50188150  0.50105454  0.17458287  1
  Te2-  Te99  1  0.50252944  0.50133335  0.49043390  1
  Te2-  Te100  1  0.49849716  0.49553551  0.83611243  1
  Te2-  Te101  1  0.49321058  0.83705268  0.17080015  1
  Te2-  Te102  1  0.50290525  0.83843090  0.49108469  1
  Te2-  Te103  1  0.49054812  0.84031511  0.83570978  1
  Te2-  Te104  1  0.83408185  0.15679581  0.16435095  1
  Te2-  Te105  1  0.83673483  0.16914243  0.50384052  1
  Te2-  Te106  1  0.83462434  0.16788663  0.82933999  1
  Te2-  Te107  1  0.83121823  0.51680398  0.16477727  1
  Te2-  Te108  1  0.83823029  0.49478819  0.50001593  1
  Te2-  Te109  1  0.83969903  0.51495623  0.82914269  1
  Te2-  Te110  1  0.83294563  0.81623706  0.17627413  1
  Te2-  Te111  1  0.82822833  0.82989937  0.50403099  1
  Te2-  Te112  1  0.83070952  0.81776197  0.82046712  1
  Te2-  Te113  1  0.18189524  -0.00122847  -0.00291112  1
  Te2-  Te114  1  0.16849500  -0.00311986  0.33919255  1
  Te2-  Te115  1  0.17194425  0.00963138  0.66307212  1
  Te2-  Te116  1  0.16399805  0.33361979  -0.00144774  1
  Te2-  Te117  1  0.16695062  0.33229586  0.33953996  1
  Te2-  Te118  1  0.17684597  0.32439568  0.65984759  1
  Te2-  Te119  1  0.17076909  0.66347474  0.00184057  1
  Te2-  Te120  1  0.17223668  0.67393091  0.33828015  1
  Te2-  Te121  1  0.16906885  0.66853957  0.65751096  1
  Te2-  Te122  1  0.48742364  -0.00000078  -0.00529085  1
  Te2-  Te123  1  0.49723003  0.01338909  0.33711316  1
  Te2-  Te124  1  0.50377983  -0.00919128  0.66579951  1
  Te2-  Te125  1  0.49933973  0.32819393  -0.00436797  1
  Te2-  Te126  1  0.50333269  0.32062517  0.33963938  1
  Te2-  Te127  1  0.50406738  0.33375217  0.66193256  1
  Te2-  Te128  1  0.49243607  0.67335862  -0.01684021  1
  Te2-  Te129  1  0.49544022  0.67224232  0.33491591  1
  Te2-  Te130  1  0.49546924  0.67682651  0.67596830  1
  Te2-  Te131  1  0.83158427  -0.01399880  -0.00128590  1
  Te2-  Te132  1  0.84027126  -0.00566565  0.33969018  1
  Te2-  Te133  1  0.83152442  -0.01008586  0.66426207  1
  Te2-  Te134  1  0.83780366  0.34166277  0.00219718  1
  Te2-  Te135  1  0.83538977  0.33961631  0.33123715  1
  Te2-  Te136  1  0.81964940  0.33778689  0.66166787  1
  Te2-  Te137  1  0.84466995  0.66573528  -0.00939939  1
  Te2-  Te138  1  0.83486926  0.66189044  0.35073991  1
  Te2-  Te139  1  0.83339415  0.66753744  0.64857530  1
  Te2-  Te140  1  0.00184833  0.15763009  -0.01149417  1
  Te2-  Te141  1  0.00010285  0.16959564  0.33479792  1
  Te2-  Te142  1  -0.00258850  0.17097211  0.67704412  1
  Te2-  Te143  1  0.00202038  0.50071550  0.01309766  1
  Te2-  Te144  1  0.00272939  0.50074345  0.32772362  1
  Te2-  Te145  1  -0.00265193  0.49439906  0.66177253  1
  Te2-  Te146  1  0.00699242  0.83268401  0.02117139  1
  Te2-  Te147  1  -0.00050732  0.82575665  0.32623460  1
  Te2-  Te148  1  0.01663977  0.82949376  0.66408186  1
  Te2-  Te149  1  0.33396115  0.16327846  -0.00127106  1
  Te2-  Te150  1  0.34247348  0.17379420  0.33362184  1
  Te2-  Te151  1  0.33418132  0.17540454  0.67124515  1
  Te2-  Te152  1  0.33504006  0.49711528  0.00068836  1
  Te2-  Te153  1  0.34362774  0.49054387  0.32980314  1
  Te2-  Te154  1  0.33333576  0.49540409  0.67132477  1
  Te2-  Te155  1  0.33171374  0.83741456  0.00718785  1
  Te2-  Te156  1  0.32884701  0.83435531  0.32719477  1
  Te2-  Te157  1  0.33140980  0.82675636  0.66715823  1
  Te2-  Te158  1  0.66579807  0.16610346  -0.00586313  1
  Te2-  Te159  1  0.65989461  0.17137943  0.33191998  1
  Te2-  Te160  1  0.66832066  0.16003918  0.66998580  1
  Te2-  Te161  1  0.67011070  0.51351825  0.00121940  1
  Te2-  Te162  1  0.66154084  0.49380750  0.33288360  1
  Te2-  Te163  1  0.67030770  0.50589385  0.65926822  1
  Te2-  Te164  1  0.65747502  0.81147462  0.00048425  1
  Te2-  Te165  1  0.67158949  0.83332602  0.34889501  1
  Te2-  Te166  1  0.65912414  0.83316143  0.65599582  1
  Te2-  Te167  1  0.00650504  -0.00755190  0.16800986  1
  Te2-  Te168  1  0.00316284  -0.00069520  0.50135887  1
  Te2-  Te169  1  0.00515940  -0.02191284  0.83766416  1
  Te2-  Te170  1  -0.00733779  0.33264234  0.17300787  1
  Te2-  Te171  1  -0.00177541  0.33628389  0.50029451  1
  Te2-  Te172  1  -0.00054199  0.33336505  0.83133898  1
  Te2-  Te173  1  0.00371999  0.67313315  0.17228152  1
  Te2-  Te174  1  0.01124203  0.66141852  0.49820270  1
  Te2-  Te175  1  0.00949535  0.68350960  0.83573952  1
  Te2-  Te176  1  0.33179493  -0.00171002  0.17250172  1
  Te2-  Te177  1  0.33415227  0.00548553  0.51218854  1
  Te2-  Te178  1  0.33631084  -0.00629590  0.81521759  1
  Te2-  Te179  1  0.33492829  0.33570927  0.17018639  1
  Te2-  Te180  1  0.34130939  0.32683198  0.50046082  1
  Te2-  Te181  1  0.33769899  0.33453748  0.83084684  1
  Te2-  Te182  1  0.33462497  0.66401252  0.16546276  1
  Te2-  Te183  1  0.33081686  0.66565428  0.49975382  1
  Te2-  Te184  1  0.33278007  0.66157444  0.83955928  1
  Te2-  Te185  1  0.66401942  -0.00932908  0.17600137  1
  Te2-  Te186  1  0.66419698  -0.00099575  0.49999586  1
  Te2-  Te187  1  0.66295412  0.00203592  0.83227069  1
  Te2-  Te188  1  0.67524511  0.33863196  0.16582147  1
  Te2-  Te189  1  0.66549556  0.33543638  0.50281909  1
  Te2-  Te190  1  0.66434009  0.33366145  0.82486983  1
  Te2-  Te191  1  0.66855668  0.66446059  0.17942671  1
  Te2-  Te192  1  0.65557307  0.67056777  0.50573298  1
  Te2-  Te193  1  0.66176536  0.66034035  0.81946782  1
  Pb2+  Pb194  1  0.00642228  0.00028619  0.67242323  1
  Pb2+  Pb195  1  0.00810371  0.16777435  0.50415647  1
  Pb2+  Pb196  1  0.16426815  0.33278867  0.16647212  1
  Pb2+  Pb197  1  0.50058961  0.50675357  0.66892485  1
  Pb2+  Pb198  1  0.33731597  0.83379442  0.49321069  1
  Pb2+  Pb199  1  0.66599529  0.34277194  -0.00705221  1
  Pb2+  Pb200  1  0.83369783  0.16202676  -0.00124891  1
  Pb2+  Pb201  1  0.82749241  0.16486023  0.33163811  1
  Pb2+  Pb202  1  0.50426703  0.33245664  0.16778326  1
  Pb2+  Pb203  1  0.66466937  0.83232343  0.83027797  1
  Pb2+  Pb204  1  0.00073895  0.16281167  0.16055055  1
  Pb2+  Pb205  1  -0.00331482  0.82852968  0.49609222  1
  Pb2+  Pb206  1  0.16971705  0.33415205  0.82855568  1
  Pb2+  Pb207  1  0.17082506  0.50544086  0.33084912  1
  Pb2+  Pb208  1  0.16428038  0.49828069  0.66862430  1
  Pb2+  Pb209  1  0.83252425  0.34268390  0.83142104  1
  Pb2+  Pb210  1  0.83606443  -0.00910615  0.83282303  1
  Pb2+  Pb211  1  0.50381642  0.67043864  0.16080264  1
  Pb2+  Pb212  1  0.66531630  0.16713244  0.49890069  1
  Pb2+  Pb213  1  0.83802864  -0.01235554  0.16994674  1
  Pb2+  Pb214  1  0.66698826  0.16141289  0.16304531  1
  Pb2+  Pb215  1  0.33552190  0.49729477  0.49986889  1
