# generated using pymatgen
data_In22Ag21Sn22Bi21(Te54Pb11)2
_symmetry_space_group_name_H-M   'P 1'
_cell_length_a   19.17013588
_cell_length_b   19.15542919
_cell_length_c   19.12593809
_cell_angle_alpha   90.01423643
_cell_angle_beta   89.98950162
_cell_angle_gamma   90.00499468
_symmetry_Int_Tables_number   1
_chemical_formula_structural   In22Ag21Sn22Bi21(Te54Pb11)2
_chemical_formula_sum   'In22 Ag21 Sn22 Bi21 Te108 Pb22'
_cell_volume   7023.27706962
_cell_formula_units_Z   1
loop_
 _symmetry_equiv_pos_site_id
 _symmetry_equiv_pos_as_xyz
  1  'x, y, z'
loop_
 _atom_type_symbol
 _atom_type_oxidation_number
  In3+  3.0
  Ag+  1.0
  Sn2+  2.0
  Bi3+  3.0
  Te2-  -2.0
  Pb2+  2.0
loop_
 _atom_site_type_symbol
 _atom_site_label
 _atom_site_symmetry_multiplicity
 _atom_site_fract_x
 _atom_site_fract_y
 _atom_site_fract_z
 _atom_site_occupancy
  In3+  In0  1  0.16371263  0.17096648  0.00621820  1
  In3+  In1  1  0.32878121  0.16760286  0.16450812  1
  In3+  In2  1  0.84543902  0.33220914  0.49483483  1
  In3+  In3  1  0.81648075  0.16368883  0.01495686  1
  In3+  In4  1  0.50070221  0.65318184  0.49320113  1
  In3+  In5  1  0.65849776  0.33367477  0.32959126  1
  In3+  In6  1  0.16568262  0.50813163  0.33479175  1
  In3+  In7  1  0.16491948  0.81384353  0.31866453  1
  In3+  In8  1  0.33626521  0.33431033  0.33724059  1
  In3+  In9  1  0.16727817  0.51803386  0.00690352  1
  In3+  In10  1  0.31325953  -0.00148618  0.67259874  1
  In3+  In11  1  0.68607361  0.65312383  0.00241873  1
  In3+  In12  1  0.82768974  0.16890670  0.68439520  1
  In3+  In13  1  0.82004866  0.16650606  0.32701113  1
  In3+  In14  1  -0.00489093  0.18377321  0.83903178  1
  In3+  In15  1  -0.00387573  0.00507570  0.70249927  1
  In3+  In16  1  0.33225636  0.65829570  0.01576357  1
  In3+  In17  1  0.17798996  0.33497499  0.49833970  1
  In3+  In18  1  0.16381098  0.16811958  0.31818811  1
  In3+  In19  1  0.00578340  0.33198816  0.32024360  1
  In3+  In20  1  0.83145764  0.63451004  0.82518345  1
  In3+  In21  1  0.16009167  0.84860262  0.01819072  1
  Ag+  Ag22  1  0.68290722  0.15831778  0.15223288  1
  Ag+  Ag23  1  0.14126603  0.69591037  0.48735444  1
  Ag+  Ag24  1  0.15105074  -0.02425771  0.16897570  1
  Ag+  Ag25  1  0.30823850  0.52451268  0.49688513  1
  Ag+  Ag26  1  0.33315802  0.81357327  0.16412036  1
  Ag+  Ag27  1  -0.01403924  0.66587318  0.02721285  1
  Ag+  Ag28  1  0.82287337  0.33002226  0.86021493  1
  Ag+  Ag29  1  0.47065929  0.52737560  -0.02587226  1
  Ag+  Ag30  1  0.51820919  0.35145128  0.49798261  1
  Ag+  Ag31  1  0.52296620  0.80549533  0.32648167  1
  Ag+  Ag32  1  0.02036583  0.02409516  0.00906182  1
  Ag+  Ag33  1  0.68908705  0.00178745  0.02790373  1
  Ag+  Ag34  1  0.65840612  0.18944409  0.85753471  1
  Ag+  Ag35  1  -0.02221255  0.82552704  0.17392110  1
  Ag+  Ag36  1  0.16260152  0.68250823  0.13853770  1
  Ag+  Ag37  1  0.85273548  -0.02259443  0.16169123  1
  Ag+  Ag38  1  0.64838863  0.47631060  0.85077368  1
  Ag+  Ag39  1  0.85346133  0.69792587  0.48853727  1
  Ag+  Ag40  1  0.81012125  0.52164277  -0.00131198  1
  Ag+  Ag41  1  0.53403128  0.34184333  0.85912198  1
  Ag+  Ag42  1  -0.02712276  0.30767832  0.65944411  1
  Sn2+  Sn43  1  0.83892669  0.01261204  0.48480666  1
  Sn2+  Sn44  1  0.33045489  -0.00058567  0.33015192  1
  Sn2+  Sn45  1  0.51122523  0.00883285  0.83521260  1
  Sn2+  Sn46  1  0.66559731  0.00330494  0.32524815  1
  Sn2+  Sn47  1  0.33618267  0.83402098  0.48713577  1
  Sn2+  Sn48  1  0.50432770  0.65904313  0.83098702  1
  Sn2+  Sn49  1  0.66401926  0.33240584  -0.00473239  1
  Sn2+  Sn50  1  0.66973456  0.50107516  0.50929721  1
  Sn2+  Sn51  1  -0.00803389  0.66935014  0.32654958  1
  Sn2+  Sn52  1  0.49430207  0.83162153  0.65430338  1
  Sn2+  Sn53  1  0.00079494  0.16569321  0.50191884  1
  Sn2+  Sn54  1  0.49823926  0.16279389  0.33170498  1
  Sn2+  Sn55  1  0.33081886  -0.00890834  0.00616453  1
  Sn2+  Sn56  1  0.15978089  0.66456650  0.82308819  1
  Sn2+  Sn57  1  0.66220885  0.17173625  0.50265501  1
  Sn2+  Sn58  1  0.49327491  0.67500730  0.15972805  1
  Sn2+  Sn59  1  -0.00340534  0.15144089  0.16416907  1
  Sn2+  Sn60  1  0.83158905  0.33450632  0.16493250  1
  Sn2+  Sn61  1  0.50237466  0.33428392  0.17073793  1
  Sn2+  Sn62  1  0.33290547  0.16625811  0.49686349  1
  Sn2+  Sn63  1  0.16363173  0.34081222  0.16560785  1
  Sn2+  Sn64  1  0.49971577  0.49305960  0.67074831  1
  Bi3+  Bi65  1  0.49980183  0.49418456  0.33343154  1
  Bi3+  Bi66  1  0.50306847  0.16486719  0.66913246  1
  Bi3+  Bi67  1  0.00114972  0.00673134  0.32277106  1
  Bi3+  Bi68  1  0.66777431  0.49318195  0.16028966  1
  Bi3+  Bi69  1  0.66272315  0.83517377  0.49918309  1
  Bi3+  Bi70  1  0.66911415  0.66409439  0.67303516  1
  Bi3+  Bi71  1  0.16364311  0.16567791  0.66759343  1
  Bi3+  Bi72  1  0.49393389  0.00342420  0.16827810  1
  Bi3+  Bi73  1  0.33669965  0.33006562  0.66171377  1
  Bi3+  Bi74  1  0.16640850  0.82938310  0.66458628  1
  Bi3+  Bi75  1  0.50082040  -0.00142773  0.49904515  1
  Bi3+  Bi76  1  0.50001004  0.16667160  0.00273410  1
  Bi3+  Bi77  1  0.66451241  0.83774206  0.83805995  1
  Bi3+  Bi78  1  0.83403125  0.00709870  0.84005138  1
  Bi3+  Bi79  1  0.16691323  0.33101235  0.82929917  1
  Bi3+  Bi80  1  0.66965103  0.00119123  0.66413249  1
  Bi3+  Bi81  1  0.66271718  0.33393164  0.66339288  1
  Bi3+  Bi82  1  0.33541315  0.66576465  0.66549305  1
  Bi3+  Bi83  1  -0.00272722  0.66867834  0.66437265  1
  Bi3+  Bi84  1  0.00096424  0.50048016  0.83436963  1
  Bi3+  Bi85  1  0.00186386  0.82979288  0.83985618  1
  Te2-  Te86  1  0.16730609  0.17441538  0.16337336  1
  Te2-  Te87  1  0.16594911  0.17059952  0.50677824  1
  Te2-  Te88  1  0.16376906  0.16449211  0.82995053  1
  Te2-  Te89  1  0.17024483  0.49744800  0.17126782  1
  Te2-  Te90  1  0.16624622  0.48818208  0.49077010  1
  Te2-  Te91  1  0.16727497  0.49626941  0.83771466  1
  Te2-  Te92  1  0.18095497  0.83015637  0.16869050  1
  Te2-  Te93  1  0.16989542  0.83873122  0.50179842  1
  Te2-  Te94  1  0.16557782  0.83200868  0.82698917  1
  Te2-  Te95  1  0.49607583  0.16959954  0.16670165  1
  Te2-  Te96  1  0.49783509  0.15969057  0.50475430  1
  Te2-  Te97  1  0.51212055  0.17570799  0.83387918  1
  Te2-  Te98  1  0.50682529  0.50013120  0.17108965  1
  Te2-  Te99  1  0.50873338  0.49848937  0.49751462  1
  Te2-  Te100  1  0.50366004  0.48971580  0.83613920  1
  Te2-  Te101  1  0.48688827  0.83475381  0.17910416  1
  Te2-  Te102  1  0.50159953  0.83650518  0.48339107  1
  Te2-  Te103  1  0.50284260  0.83471065  0.83031403  1
  Te2-  Te104  1  0.82854056  0.17128282  0.16976354  1
  Te2-  Te105  1  0.83293030  0.16789346  0.48609998  1
  Te2-  Te106  1  0.83818837  0.17297914  0.83694674  1
  Te2-  Te107  1  0.82982143  0.50024473  0.15222726  1
  Te2-  Te108  1  0.82827072  0.48709817  0.49822055  1
  Te2-  Te109  1  0.84199795  0.48321099  0.85039603  1
  Te2-  Te110  1  0.83037913  0.83212579  0.16485529  1
  Te2-  Te111  1  0.82821448  0.84139000  0.49868549  1
  Te2-  Te112  1  0.83612033  0.84368329  0.83225334  1
  Te2-  Te113  1  0.16809628  0.00104141  0.01614730  1
  Te2-  Te114  1  0.16335247  0.01382077  0.31653796  1
  Te2-  Te115  1  0.15729146  -0.00056635  0.66501934  1
  Te2-  Te116  1  0.16763204  0.32498282  -0.00542251  1
  Te2-  Te117  1  0.16177340  0.32376719  0.33637049  1
  Te2-  Te118  1  0.17238765  0.32854753  0.66348864  1
  Te2-  Te119  1  0.18014663  0.66697882  -0.00807938  1
  Te2-  Te120  1  0.16279027  0.66064943  0.34554454  1
  Te2-  Te121  1  0.16857704  0.66656917  0.65647177  1
  Te2-  Te122  1  0.49529749  0.00503434  0.00127392  1
  Te2-  Te123  1  0.49763002  0.00332475  0.33469699  1
  Te2-  Te124  1  0.50657077  0.00021110  0.66566955  1
  Te2-  Te125  1  0.50413209  0.32808316  0.00328047  1
  Te2-  Te126  1  0.49935303  0.33212315  0.34446892  1
  Te2-  Te127  1  0.49983770  0.32715629  0.65401602  1
  Te2-  Te128  1  0.48817299  0.66913791  0.00173901  1
  Te2-  Te129  1  0.49961507  0.65978013  0.33090589  1
  Te2-  Te130  1  0.50283277  0.66490209  0.67031920  1
  Te2-  Te131  1  0.83301107  0.01235444  0.00668322  1
  Te2-  Te132  1  0.83575207  0.00917113  0.31364664  1
  Te2-  Te133  1  0.83469925  0.00981797  0.66696533  1
  Te2-  Te134  1  0.83330279  0.31609431  0.00560702  1
  Te2-  Te135  1  0.84373062  0.32543289  0.33573183  1
  Te2-  Te136  1  0.82647089  0.32328283  0.65598822  1
  Te2-  Te137  1  0.83812127  0.66798717  -0.00296153  1
  Te2-  Te138  1  0.83631049  0.66265765  0.34390571  1
  Te2-  Te139  1  0.83118919  0.66491208  0.65774443  1
  Te2-  Te140  1  0.00883631  0.17102276  -0.00343232  1
  Te2-  Te141  1  0.00557419  0.17081940  0.33146320  1
  Te2-  Te142  1  0.00016341  0.16251537  0.67311655  1
  Te2-  Te143  1  0.01378241  0.51452005  -0.00130704  1
  Te2-  Te144  1  0.00581326  0.48970272  0.33258238  1
  Te2-  Te145  1  -0.00011603  0.50644119  0.67037653  1
  Te2-  Te146  1  0.01268589  0.81415719  -0.00023871  1
  Te2-  Te147  1  0.01115302  0.83864253  0.31982554  1
  Te2-  Te148  1  0.00316443  0.83312625  0.66791932  1
  Te2-  Te149  1  0.33263450  0.16404002  0.00442541  1
  Te2-  Te150  1  0.32860544  0.17356729  0.33249355  1
  Te2-  Te151  1  0.33427805  0.16291888  0.66685519  1
  Te2-  Te152  1  0.33054744  0.50124478  0.00186647  1
  Te2-  Te153  1  0.33454568  0.49155586  0.34824719  1
  Te2-  Te154  1  0.33768457  0.49773195  0.64868655  1
  Te2-  Te155  1  0.32397321  0.83434352  0.01029621  1
  Te2-  Te156  1  0.31736438  0.83734707  0.32831843  1
  Te2-  Te157  1  0.33287082  0.83263841  0.66377165  1
  Te2-  Te158  1  0.66411621  0.15918373  0.00141664  1
  Te2-  Te159  1  0.66731668  0.17488753  0.33556785  1
  Te2-  Te160  1  0.66795019  0.16590882  0.66860763  1
  Te2-  Te161  1  0.66445742  0.50100542  -0.00348611  1
  Te2-  Te162  1  0.66604205  0.49152016  0.32971950  1
  Te2-  Te163  1  0.66705503  0.50182899  0.67720396  1
  Te2-  Te164  1  0.66511668  0.84464583  -0.00192709  1
  Te2-  Te165  1  0.66804019  0.83195473  0.33449456  1
  Te2-  Te166  1  0.66300046  0.83285661  0.66539544  1
  Te2-  Te167  1  0.00017699  -0.00532764  0.15811911  1
  Te2-  Te168  1  -0.00110563  0.00002074  0.48621140  1
  Te2-  Te169  1  -0.00203151  -0.00668041  0.85932892  1
  Te2-  Te170  1  -0.00003613  0.32974666  0.16620147  1
  Te2-  Te171  1  -0.00410424  0.32670772  0.51279981  1
  Te2-  Te172  1  0.00457187  0.33509109  0.82086789  1
  Te2-  Te173  1  0.01411544  0.67621134  0.17264002  1
  Te2-  Te174  1  -0.00279851  0.66479914  0.49969346  1
  Te2-  Te175  1  -0.00379661  0.66671509  0.82613484  1
  Te2-  Te176  1  0.33483360  0.01416452  0.16966328  1
  Te2-  Te177  1  0.33796149  -0.00120222  0.50284904  1
  Te2-  Te178  1  0.33653906  -0.00127723  0.83092140  1
  Te2-  Te179  1  0.33314001  0.32863536  0.17582159  1
  Te2-  Te180  1  0.33203258  0.32775897  0.49728667  1
  Te2-  Te181  1  0.33065871  0.33195406  0.82693256  1
  Te2-  Te182  1  0.32078897  0.66490644  0.16805394  1
  Te2-  Te183  1  0.34551706  0.66745057  0.50409461  1
  Te2-  Te184  1  0.33481052  0.66396731  0.82487984  1
  Te2-  Te185  1  0.65543099  0.01215743  0.16988616  1
  Te2-  Te186  1  0.66713316  -0.00043253  0.49843430  1
  Te2-  Te187  1  0.67266444  0.00034486  0.82605769  1
  Te2-  Te188  1  0.66700576  0.32988768  0.17162692  1
  Te2-  Te189  1  0.66602725  0.33160709  0.49875099  1
  Te2-  Te190  1  0.67825465  0.33293572  0.82626402  1
  Te2-  Te191  1  0.66496437  0.66295845  0.15933352  1
  Te2-  Te192  1  0.65770342  0.66988025  0.50731491  1
  Te2-  Te193  1  0.67128027  0.67406337  0.83659746  1
  Pb2+  Pb194  1  0.83908725  0.84007201  0.33174531  1
  Pb2+  Pb195  1  0.83841741  0.66699185  0.16955601  1
  Pb2+  Pb196  1  0.33664321  0.33176771  0.00282900  1
  Pb2+  Pb197  1  0.33541646  0.83061187  0.83899709  1
  Pb2+  Pb198  1  0.33169567  0.66671305  0.33491702  1
  Pb2+  Pb199  1  0.83355680  0.83440940  0.66707750  1
  Pb2+  Pb200  1  0.00175424  0.50542030  0.16423244  1
  Pb2+  Pb201  1  0.33848563  0.49744788  0.82369855  1
  Pb2+  Pb202  1  0.84126520  0.83981870  -0.00136492  1
  Pb2+  Pb203  1  0.00277653  0.83183751  0.49364929  1
  Pb2+  Pb204  1  -0.00277889  0.49476701  0.50121081  1
  Pb2+  Pb205  1  0.00019781  0.34241830  -0.00494335  1
  Pb2+  Pb206  1  0.83356008  0.49357399  0.67466907  1
  Pb2+  Pb207  1  0.34209739  0.16616075  0.83542706  1
  Pb2+  Pb208  1  0.65644286  0.83966056  0.16388735  1
  Pb2+  Pb209  1  0.49778388  0.83724933  0.00345558  1
  Pb2+  Pb210  1  0.16839841  0.00446815  0.48501480  1
  Pb2+  Pb211  1  0.16929741  0.49727242  0.66768720  1
  Pb2+  Pb212  1  0.33979098  0.49798651  0.17479565  1
  Pb2+  Pb213  1  0.66739334  0.66150791  0.33577396  1
  Pb2+  Pb214  1  0.16676582  -0.00131729  0.84332596  1
  Pb2+  Pb215  1  0.83546110  0.49209492  0.32622815  1
