# generated using pymatgen
data_In22Ag21Sn22Bi21(Te54Pb11)2
_symmetry_space_group_name_H-M   'P 1'
_cell_length_a   19.12093935
_cell_length_b   19.13613373
_cell_length_c   19.15061301
_cell_angle_alpha   89.98488209
_cell_angle_beta   89.99484373
_cell_angle_gamma   90.00462842
_symmetry_Int_Tables_number   1
_chemical_formula_structural   In22Ag21Sn22Bi21(Te54Pb11)2
_chemical_formula_sum   'In22 Ag21 Sn22 Bi21 Te108 Pb22'
_cell_volume   7007.22533036
_cell_formula_units_Z   1
loop_
 _symmetry_equiv_pos_site_id
 _symmetry_equiv_pos_as_xyz
  1  'x, y, z'
loop_
 _atom_type_symbol
 _atom_type_oxidation_number
  In3+  3.0
  Ag+  1.0
  Sn2+  2.0
  Bi3+  3.0
  Te2-  -2.0
  Pb2+  2.0
loop_
 _atom_site_type_symbol
 _atom_site_label
 _atom_site_symmetry_multiplicity
 _atom_site_fract_x
 _atom_site_fract_y
 _atom_site_fract_z
 _atom_site_occupancy
  In3+  In0  1  0.47780416  0.33402567  0.16342619  1
  In3+  In1  1  0.33770627  0.67283470  0.65019385  1
  In3+  In2  1  0.33741272  0.34628158  0.66265068  1
  In3+  In3  1  -0.01143061  0.52060614  0.83239722  1
  In3+  In4  1  0.83675234  0.31671187  0.15251232  1
  In3+  In5  1  0.84291985  0.68782039  0.50451825  1
  In3+  In6  1  0.17117682  0.48915220  0.65736047  1
  In3+  In7  1  -0.01201990  0.32507202  0.66847859  1
  In3+  In8  1  0.50509043  -0.01574672  0.50029436  1
  In3+  In9  1  0.16497229  0.83388641  0.00411622  1
  In3+  In10  1  0.83671809  0.66879141  0.17533020  1
  In3+  In11  1  0.49153053  0.83413992  0.33538012  1
  In3+  In12  1  0.49805231  0.65933195  0.49481836  1
  In3+  In13  1  0.50628942  0.15943481  0.33514375  1
  In3+  In14  1  0.83186809  -0.00054853  0.49138862  1
  In3+  In15  1  -0.00910479  0.15047175  0.49257878  1
  In3+  In16  1  0.83516656  0.16656662  -0.01860839  1
  In3+  In17  1  0.15650028  0.69816880  0.50066418  1
  In3+  In18  1  0.33163319  0.66967542  0.33370624  1
  In3+  In19  1  0.31781851  0.13437694  0.16531244  1
  In3+  In20  1  0.49887778  0.83652343  0.01965966  1
  In3+  In21  1  0.16988904  0.51174229  -0.00388661  1
  Ag+  Ag22  1  -0.02356973  0.83765031  0.47726776  1
  Ag+  Ag23  1  0.83211370  0.33354507  0.85042952  1
  Ag+  Ag24  1  -0.03594806  0.81926673  0.79855589  1
  Ag+  Ag25  1  0.14495866  -0.00009084  0.47680000  1
  Ag+  Ag26  1  0.85399189  0.16930723  0.31427795  1
  Ag+  Ag27  1  -0.02352917  0.66286858  0.33014257  1
  Ag+  Ag28  1  -0.00334174  0.35562373  -0.03094120  1
  Ag+  Ag29  1  0.32257568  0.52058619  0.49068761  1
  Ag+  Ag30  1  0.68767703  0.16682766  0.81472385  1
  Ag+  Ag31  1  0.82551941  -0.01796761  0.86346541  1
  Ag+  Ag32  1  0.86501529  0.86346406  0.69315630  1
  Ag+  Ag33  1  0.68837754  0.33364191  0.69457549  1
  Ag+  Ag34  1  0.64428664  0.16904329  0.51849527  1
  Ag+  Ag35  1  0.33610652  0.85361124  0.48600297  1
  Ag+  Ag36  1  -0.02280040  0.19386903  0.19512059  1
  Ag+  Ag37  1  0.83132460  0.68798417  0.85529636  1
  Ag+  Ag38  1  0.31276439  0.82986932  0.19267346  1
  Ag+  Ag39  1  0.83634329  0.81331032  0.34577317  1
  Ag+  Ag40  1  0.52595073  0.47410622  -0.02660773  1
  Ag+  Ag41  1  0.33617209  0.02774536  0.35821766  1
  Ag+  Ag42  1  0.69476206  0.00361146  -0.02618175  1
  Sn2+  Sn43  1  0.34134855  0.66411157  0.00210164  1
  Sn2+  Sn44  1  0.50934704  0.16842603  0.66066367  1
  Sn2+  Sn45  1  0.15896325  0.33128376  0.15951192  1
  Sn2+  Sn46  1  0.67335663  0.49099182  0.83272993  1
  Sn2+  Sn47  1  0.32870946  0.50760142  0.83146997  1
  Sn2+  Sn48  1  0.33097923  -0.00315377  0.66334700  1
  Sn2+  Sn49  1  0.67032701  0.32292756  -0.00551363  1
  Sn2+  Sn50  1  0.67177905  0.66686150  0.33884683  1
  Sn2+  Sn51  1  0.00319470  -0.01062701  0.33322842  1
  Sn2+  Sn52  1  0.66688166  0.67714690  -0.00580868  1
  Sn2+  Sn53  1  0.66264965  0.49948573  0.15914892  1
  Sn2+  Sn54  1  0.83294653  -0.00411267  0.17953512  1
  Sn2+  Sn55  1  0.66501905  0.85129235  0.83058881  1
  Sn2+  Sn56  1  0.33626609  0.33268607  0.33832504  1
  Sn2+  Sn57  1  0.33195494  0.16015355  0.49767705  1
  Sn2+  Sn58  1  0.67036639  0.66123772  0.67298432  1
  Sn2+  Sn59  1  -0.00146177  -0.00184686  0.66773519  1
  Sn2+  Sn60  1  0.14426884  -0.00666895  0.82925547  1
  Sn2+  Sn61  1  0.83600376  0.48902669  0.33402525  1
  Sn2+  Sn62  1  0.49974196  0.50221720  0.33823295  1
  Sn2+  Sn63  1  0.51711527  0.66327151  0.83389221  1
  Sn2+  Sn64  1  0.50026863  0.50013442  0.66814671  1
  Bi3+  Bi65  1  0.67028966  0.83360872  0.16668929  1
  Bi3+  Bi66  1  0.33459275  -0.00383859  -0.00388455  1
  Bi3+  Bi67  1  0.17128429  0.16114487  0.66581767  1
  Bi3+  Bi68  1  0.83333092  0.49982123  0.66517149  1
  Bi3+  Bi69  1  0.50418163  0.66356655  0.16750237  1
  Bi3+  Bi70  1  0.16413523  0.33391324  0.83403369  1
  Bi3+  Bi71  1  0.16498596  -0.00204150  0.17124664  1
  Bi3+  Bi72  1  0.33392239  0.83163779  0.83347037  1
  Bi3+  Bi73  1  0.50442161  0.83035371  0.66737997  1
  Bi3+  Bi74  1  0.16017301  0.16492660  0.00097817  1
  Bi3+  Bi75  1  0.67029515  0.16654108  0.16606465  1
  Bi3+  Bi76  1  -0.00129131  0.66825085  0.66238129  1
  Bi3+  Bi77  1  0.83378153  0.16383330  0.66375670  1
  Bi3+  Bi78  1  0.50247804  0.33476671  0.49641724  1
  Bi3+  Bi79  1  0.83250625  0.33125325  0.49832291  1
  Bi3+  Bi80  1  0.16638287  0.83357718  0.66882330  1
  Bi3+  Bi81  1  0.66453425  -0.00175143  0.33215213  1
  Bi3+  Bi82  1  0.00150799  -0.00244588  -0.00063901  1
  Bi3+  Bi83  1  -0.00015329  0.83471980  0.16805722  1
  Bi3+  Bi84  1  -0.00407703  0.50137948  0.16928674  1
  Bi3+  Bi85  1  0.33407538  0.16655299  0.83350577  1
  Te2-  Te86  1  0.16074630  0.16334758  0.16296535  1
  Te2-  Te87  1  0.16495641  0.15058890  0.50462192  1
  Te2-  Te88  1  0.16959228  0.16482314  0.83223437  1
  Te2-  Te89  1  0.16180630  0.49854022  0.16097395  1
  Te2-  Te90  1  0.17753052  0.49370046  0.50736121  1
  Te2-  Te91  1  0.16180861  0.49663581  0.83619893  1
  Te2-  Te92  1  0.16483684  0.83286255  0.16828062  1
  Te2-  Te93  1  0.18503606  0.84703819  0.50763232  1
  Te2-  Te94  1  0.16868949  0.83308719  0.83211508  1
  Te2-  Te95  1  0.50590994  0.17901181  0.17092131  1
  Te2-  Te96  1  0.49764249  0.17292593  0.49340569  1
  Te2-  Te97  1  0.49484189  0.16665097  0.83270997  1
  Te2-  Te98  1  0.50168365  0.50072555  0.16848499  1
  Te2-  Te99  1  0.49103087  0.50047261  0.50233765  1
  Te2-  Te100  1  0.49957245  0.50314755  0.83358234  1
  Te2-  Te101  1  0.50664079  0.83066527  0.17460343  1
  Te2-  Te102  1  0.48913016  0.82844205  0.50146693  1
  Te2-  Te103  1  0.50019374  0.82951403  0.82847322  1
  Te2-  Te104  1  0.83546954  0.16444918  0.16777613  1
  Te2-  Te105  1  0.83872326  0.16657833  0.50384774  1
  Te2-  Te106  1  0.83425765  0.18036089  0.82762815  1
  Te2-  Te107  1  0.83408806  0.51292455  0.17099084  1
  Te2-  Te108  1  0.83445573  0.49534480  0.50184600  1
  Te2-  Te109  1  0.83891933  0.48411832  0.82812375  1
  Te2-  Te110  1  0.83444227  0.82597802  0.17313205  1
  Te2-  Te111  1  0.82966023  0.84006127  0.49343383  1
  Te2-  Te112  1  0.82051826  0.83560538  0.83166867  1
  Te2-  Te113  1  0.16849342  0.00032050  0.00175282  1
  Te2-  Te114  1  0.18453147  -0.00094946  0.33378744  1
  Te2-  Te115  1  0.16431601  -0.00100952  0.66818626  1
  Te2-  Te116  1  0.14897617  0.32702277  -0.00286067  1
  Te2-  Te117  1  0.16773860  0.33129225  0.33167269  1
  Te2-  Te118  1  0.17334878  0.32857527  0.67052446  1
  Te2-  Te119  1  0.16847806  0.66683970  -0.00159201  1
  Te2-  Te120  1  0.17704879  0.66747041  0.34463018  1
  Te2-  Te121  1  0.16623544  0.66602649  0.65784941  1
  Te2-  Te122  1  0.49601113  -0.00204022  0.00215814  1
  Te2-  Te123  1  0.49066717  -0.00385088  0.33967636  1
  Te2-  Te124  1  0.50105612  -0.00302896  0.65945058  1
  Te2-  Te125  1  0.49693755  0.33642060  0.00949646  1
  Te2-  Te126  1  0.49752630  0.33724990  0.32906854  1
  Te2-  Te127  1  0.49379880  0.33398272  0.66167671  1
  Te2-  Te128  1  0.50301839  0.67353158  0.00525072  1
  Te2-  Te129  1  0.50218237  0.67043389  0.33370390  1
  Te2-  Te130  1  0.49756914  0.66586236  0.66646587  1
  Te2-  Te131  1  0.83800460  0.00678734  0.00794612  1
  Te2-  Te132  1  0.83172181  0.01563116  0.33750240  1
  Te2-  Te133  1  0.83805642  0.00124510  0.65052823  1
  Te2-  Te134  1  0.84724847  0.32419734  -0.00222005  1
  Te2-  Te135  1  0.83436379  0.32109164  0.33672533  1
  Te2-  Te136  1  0.83343726  0.33340599  0.66172437  1
  Te2-  Te137  1  0.82827735  0.66587426  0.00086851  1
  Te2-  Te138  1  0.83026216  0.66313992  0.34749429  1
  Te2-  Te139  1  0.83572507  0.66177635  0.65576047  1
  Te2-  Te140  1  -0.00283602  0.15877251  0.00088165  1
  Te2-  Te141  1  0.00060561  0.16085067  0.33814445  1
  Te2-  Te142  1  0.00455765  0.16478638  0.66096508  1
  Te2-  Te143  1  0.00370608  0.50003147  0.00062657  1
  Te2-  Te144  1  0.00016994  0.51234627  0.33493779  1
  Te2-  Te145  1  0.00362576  0.50487257  0.67162803  1
  Te2-  Te146  1  0.00225750  0.83390229  0.00261400  1
  Te2-  Te147  1  -0.00987329  0.82938836  0.33004747  1
  Te2-  Te148  1  0.00558903  0.83080256  0.65485587  1
  Te2-  Te149  1  0.33031947  0.16443798  0.00279605  1
  Te2-  Te150  1  0.34287162  0.17017249  0.32162327  1
  Te2-  Te151  1  0.33351164  0.16214534  0.67086691  1
  Te2-  Te152  1  0.32531913  0.50273637  0.00029684  1
  Te2-  Te153  1  0.33858763  0.50324920  0.34322280  1
  Te2-  Te154  1  0.32989945  0.50376476  0.66636941  1
  Te2-  Te155  1  0.33890546  0.83305759  -0.00584310  1
  Te2-  Te156  1  0.33979308  0.82406911  0.33833905  1
  Te2-  Te157  1  0.33550581  0.82853339  0.67119448  1
  Te2-  Te158  1  0.67884177  0.15624348  0.00483219  1
  Te2-  Te159  1  0.65989137  0.16013811  0.32788791  1
  Te2-  Te160  1  0.66811813  0.17806821  0.66576227  1
  Te2-  Te161  1  0.66686415  0.49704196  -0.00263922  1
  Te2-  Te162  1  0.66887553  0.50221354  0.33146252  1
  Te2-  Te163  1  0.67000940  0.48702297  0.67140668  1
  Te2-  Te164  1  0.65999789  0.84733631  0.00247172  1
  Te2-  Te165  1  0.68122277  0.83656274  0.33013247  1
  Te2-  Te166  1  0.66339534  0.82846934  0.66303802  1
  Te2-  Te167  1  0.00306700  -0.00305017  0.16708651  1
  Te2-  Te168  1  -0.00124518  -0.00763624  0.49337145  1
  Te2-  Te169  1  -0.01497245  -0.01211849  0.83688351  1
  Te2-  Te170  1  -0.00972488  0.33940529  0.17183361  1
  Te2-  Te171  1  -0.00012472  0.33524560  0.51015055  1
  Te2-  Te172  1  0.00368232  0.33258901  0.82326291  1
  Te2-  Te173  1  -0.00149860  0.66765444  0.17910198  1
  Te2-  Te174  1  0.00160422  0.68008209  0.49581256  1
  Te2-  Te175  1  -0.01354261  0.67560867  0.82989107  1
  Te2-  Te176  1  0.32947656  -0.02132850  0.16098369  1
  Te2-  Te177  1  0.34945789  0.00146859  0.50174605  1
  Te2-  Te178  1  0.32954815  -0.00029126  0.83301444  1
  Te2-  Te179  1  0.32627137  0.33847682  0.16797717  1
  Te2-  Te180  1  0.33865443  0.32504477  0.50568647  1
  Te2-  Te181  1  0.33039796  0.33349898  0.82897491  1
  Te2-  Te182  1  0.33967558  0.67912507  0.17303089  1
  Te2-  Te183  1  0.34052194  0.66531614  0.50067996  1
  Te2-  Te184  1  0.33482634  0.66811390  0.83722509  1
  Te2-  Te185  1  0.66483393  -0.00117590  0.17051507  1
  Te2-  Te186  1  0.65936883  0.01503467  0.49363999  1
  Te2-  Te187  1  0.67784914  0.01219171  0.82930988  1
  Te2-  Te188  1  0.68216183  0.33198997  0.15850742  1
  Te2-  Te189  1  0.66404091  0.32272283  0.49590970  1
  Te2-  Te190  1  0.67214703  0.32142322  0.83993259  1
  Te2-  Te191  1  0.66666806  0.67060655  0.16564176  1
  Te2-  Te192  1  0.65193520  0.66426084  0.50294726  1
  Te2-  Te193  1  0.67937159  0.66218041  0.83318666  1
  Pb2+  Pb194  1  0.00405593  0.50621413  0.50420333  1
  Pb2+  Pb195  1  0.33523834  0.50751039  0.17142027  1
  Pb2+  Pb196  1  0.16382673  0.66549162  0.82594779  1
  Pb2+  Pb197  1  0.16980528  0.32290859  0.50100861  1
  Pb2+  Pb198  1  0.66514728  0.49459888  0.50203658  1
  Pb2+  Pb199  1  0.66729295  0.33188987  0.32927135  1
  Pb2+  Pb200  1  0.16904793  0.66555139  0.16936223  1
  Pb2+  Pb201  1  0.16179216  0.83545759  0.34131291  1
  Pb2+  Pb202  1  0.50430598  -0.00145833  0.83246197  1
  Pb2+  Pb203  1  0.66175227  0.83599991  0.49623017  1
  Pb2+  Pb204  1  -0.00067320  0.33799012  0.34063468  1
  Pb2+  Pb205  1  0.16971010  0.16307626  0.33454239  1
  Pb2+  Pb206  1  0.17019568  0.49942037  0.33680645  1
  Pb2+  Pb207  1  0.32113827  0.33459123  -0.00131605  1
  Pb2+  Pb208  1  0.67061579  0.00240580  0.66396015  1
  Pb2+  Pb209  1  -0.00337346  0.66703615  0.00586828  1
  Pb2+  Pb210  1  -0.00162685  0.15895104  0.83434755  1
  Pb2+  Pb211  1  0.83079692  0.83600222  0.00392909  1
  Pb2+  Pb212  1  0.50848922  0.16820927  0.00123660  1
  Pb2+  Pb213  1  0.83323143  0.49490208  0.00016050  1
  Pb2+  Pb214  1  0.50467343  0.33372737  0.83159284  1
  Pb2+  Pb215  1  0.49740332  0.00776114  0.17068919  1
