# generated using pymatgen
data_In22Ag21Sn22Bi21(Te54Pb11)2
_symmetry_space_group_name_H-M   'P 1'
_cell_length_a   19.12797267
_cell_length_b   19.14052436
_cell_length_c   19.12944227
_cell_angle_alpha   90.00236329
_cell_angle_beta   89.99612505
_cell_angle_gamma   90.01170940
_symmetry_Int_Tables_number   1
_chemical_formula_structural   In22Ag21Sn22Bi21(Te54Pb11)2
_chemical_formula_sum   'In22 Ag21 Sn22 Bi21 Te108 Pb22'
_cell_volume   7003.66026995
_cell_formula_units_Z   1
loop_
 _symmetry_equiv_pos_site_id
 _symmetry_equiv_pos_as_xyz
  1  'x, y, z'
loop_
 _atom_type_symbol
 _atom_type_oxidation_number
  In3+  3.0
  Ag+  1.0
  Sn2+  2.0
  Bi3+  3.0
  Te2-  -2.0
  Pb2+  2.0
loop_
 _atom_site_type_symbol
 _atom_site_label
 _atom_site_symmetry_multiplicity
 _atom_site_fract_x
 _atom_site_fract_y
 _atom_site_fract_z
 _atom_site_occupancy
  In3+  In0  1  0.00633952  0.35418052  -0.00072386  1
  In3+  In1  1  0.84258485  0.66545214  0.84008431  1
  In3+  In2  1  0.49768327  0.00220984  0.49801583  1
  In3+  In3  1  0.33843246  0.16336771  0.50793314  1
  In3+  In4  1  0.16693373  0.83707455  0.65067697  1
  In3+  In5  1  0.33332540  0.18840917  0.17366406  1
  In3+  In6  1  -0.01297260  0.65586389  0.33072998  1
  In3+  In7  1  0.67032509  0.49623576  0.48476103  1
  In3+  In8  1  -0.01606365  0.83778823  0.17329776  1
  In3+  In9  1  0.18006624  0.49855851  0.00407977  1
  In3+  In10  1  0.49333012  0.65398060  0.84085403  1
  In3+  In11  1  -0.01723140  -0.00089313  0.67941170  1
  In3+  In12  1  0.82675736  0.00275822  0.14093722  1
  In3+  In13  1  -0.01465903  0.16311700  0.49835872  1
  In3+  In14  1  0.82842650  0.34063784  0.49202364  1
  In3+  In15  1  0.33501855  0.83114221  0.17691240  1
  In3+  In16  1  0.15668978  0.66366631  0.16988290  1
  In3+  In17  1  0.49362098  0.83541370  0.67096059  1
  In3+  In18  1  0.68970156  0.49044099  0.16320605  1
  In3+  In19  1  0.15241119  0.82627392  0.00366553  1
  In3+  In20  1  0.81410756  0.83031721  0.66955100  1
  In3+  In21  1  0.83993818  0.18377716  0.67063684  1
  Ag+  Ag22  1  -0.00109767  0.80518884  0.52528753  1
  Ag+  Ag23  1  0.68508106  0.83131980  0.82965670  1
  Ag+  Ag24  1  -0.01739149  0.36429950  0.36273729  1
  Ag+  Ag25  1  0.50037604  0.35184298  0.80437851  1
  Ag+  Ag26  1  0.81351434  0.83052399  0.01884419  1
  Ag+  Ag27  1  0.14277981  0.31076942  0.18326977  1
  Ag+  Ag28  1  0.68965782  0.35737583  0.34006485  1
  Ag+  Ag29  1  0.83543259  0.48431835  0.65004738  1
  Ag+  Ag30  1  0.31018652  0.49674219  0.85563474  1
  Ag+  Ag31  1  -0.00302280  0.18457396  0.85821334  1
  Ag+  Ag32  1  0.33351538  0.64667649  0.31056491  1
  Ag+  Ag33  1  0.32897178  0.68746677  0.01459599  1
  Ag+  Ag34  1  0.69050219  -0.00134590  0.35910310  1
  Ag+  Ag35  1  0.00423535  0.36179618  0.64969109  1
  Ag+  Ag36  1  0.00720838  0.47984971  0.16139021  1
  Ag+  Ag37  1  0.30847751  0.35382966  0.35952364  1
  Ag+  Ag38  1  0.68779994  0.13908497  0.49216068  1
  Ag+  Ag39  1  0.83385293  -0.00849894  0.83152451  1
  Ag+  Ag40  1  0.68501146  0.83111100  0.19105915  1
  Ag+  Ag41  1  0.83712565  0.48036080  0.01329790  1
  Ag+  Ag42  1  0.31533095  0.00956162  0.69139756  1
  Sn2+  Sn43  1  0.66142426  0.15612939  0.18343500  1
  Sn2+  Sn44  1  0.50710536  0.50453069  0.67030468  1
  Sn2+  Sn45  1  0.51087018  -0.00401848  0.17209865  1
  Sn2+  Sn46  1  -0.00510775  0.49200988  0.83295413  1
  Sn2+  Sn47  1  0.33202210  -0.01200929  -0.00070178  1
  Sn2+  Sn48  1  0.16096295  0.33259789  0.48504506  1
  Sn2+  Sn49  1  0.00332983  0.66166903  0.00236722  1
  Sn2+  Sn50  1  0.66240633  0.67507165  0.00006959  1
  Sn2+  Sn51  1  0.66918549  0.65956556  0.67161834  1
  Sn2+  Sn52  1  0.50275916  0.82770005  0.33339549  1
  Sn2+  Sn53  1  0.50935023  0.00472829  0.83002270  1
  Sn2+  Sn54  1  0.83554504  0.83702708  0.33648244  1
  Sn2+  Sn55  1  0.16267067  0.82698310  0.32672421  1
  Sn2+  Sn56  1  0.32435819  0.83847196  0.49673600  1
  Sn2+  Sn57  1  0.32963003  0.50623076  0.16557697  1
  Sn2+  Sn58  1  0.83061107  0.66893355  0.15044186  1
  Sn2+  Sn59  1  0.16301097  0.16877073  -0.00522575  1
  Sn2+  Sn60  1  0.16874000  0.00280464  0.50353573  1
  Sn2+  Sn61  1  0.00193898  0.16893055  0.17153218  1
  Sn2+  Sn62  1  0.51170750  0.83187070  -0.00478554  1
  Sn2+  Sn63  1  0.49665478  0.49058597  0.33287861  1
  Sn2+  Sn64  1  0.83247725  0.67159996  0.50093436  1
  Bi3+  Bi65  1  0.33507375  0.66994233  0.66699454  1
  Bi3+  Bi66  1  0.50039457  0.33682454  0.16657767  1
  Bi3+  Bi67  1  0.83178450  0.34255762  0.83314305  1
  Bi3+  Bi68  1  0.66769950  0.33507387  0.00425979  1
  Bi3+  Bi69  1  0.16511899  0.33333026  0.83415546  1
  Bi3+  Bi70  1  0.66601552  -0.00235793  -0.00535281  1
  Bi3+  Bi71  1  0.00026753  0.00270055  0.33246776  1
  Bi3+  Bi72  1  0.49953684  0.16621171  -0.00280398  1
  Bi3+  Bi73  1  0.17165879  0.66664491  0.83857834  1
  Bi3+  Bi74  1  0.49973435  0.66951609  0.16343611  1
  Bi3+  Bi75  1  0.49927815  0.16190931  0.33157675  1
  Bi3+  Bi76  1  0.33443987  0.00007585  0.32891372  1
  Bi3+  Bi77  1  0.50115453  0.67091057  0.49827764  1
  Bi3+  Bi78  1  0.50359241  0.16356417  0.66632288  1
  Bi3+  Bi79  1  0.33556136  0.82753482  0.83202421  1
  Bi3+  Bi80  1  -0.00073990  -0.00359104  -0.00229004  1
  Bi3+  Bi81  1  0.33204632  0.32834975  -0.00143747  1
  Bi3+  Bi82  1  0.66181794  0.00029377  0.66985214  1
  Bi3+  Bi83  1  0.33872611  0.50330405  0.50192186  1
  Bi3+  Bi84  1  0.16819714  0.16474787  0.33112182  1
  Bi3+  Bi85  1  0.67094139  0.50425705  0.83622007  1
  Te2-  Te86  1  0.17217059  0.16724085  0.16509438  1
  Te2-  Te87  1  0.18232137  0.17110530  0.49454029  1
  Te2-  Te88  1  0.15360909  0.16934453  0.83258214  1
  Te2-  Te89  1  0.15604388  0.50956226  0.15505324  1
  Te2-  Te90  1  0.16977217  0.49907756  0.50060813  1
  Te2-  Te91  1  0.16143913  0.50098885  0.84171837  1
  Te2-  Te92  1  0.17889992  0.82857875  0.15798327  1
  Te2-  Te93  1  0.15317586  0.83365763  0.49784928  1
  Te2-  Te94  1  0.17109890  0.82880983  0.84449093  1
  Te2-  Te95  1  0.49742668  0.16574445  0.16422916  1
  Te2-  Te96  1  0.49571847  0.16330722  0.49985559  1
  Te2-  Te97  1  0.49989994  0.16884663  0.83169020  1
  Te2-  Te98  1  0.50133572  0.50315468  0.17018014  1
  Te2-  Te99  1  0.50599855  0.50518194  0.50176072  1
  Te2-  Te100  1  0.50752989  0.49562227  0.83055935  1
  Te2-  Te101  1  0.49277719  0.83075884  0.16474228  1
  Te2-  Te102  1  0.49787104  0.83233005  0.50257249  1
  Te2-  Te103  1  0.49379451  0.83782707  0.82758609  1
  Te2-  Te104  1  0.82958800  0.15690441  0.16506916  1
  Te2-  Te105  1  0.83014060  0.17166150  0.50655267  1
  Te2-  Te106  1  0.84413311  0.17737187  0.82444502  1
  Te2-  Te107  1  0.84102215  0.50714252  0.16112815  1
  Te2-  Te108  1  0.82956680  0.50008812  0.50260851  1
  Te2-  Te109  1  0.83137505  0.50896368  0.84137073  1
  Te2-  Te110  1  0.83025701  0.83574901  0.16587495  1
  Te2-  Te111  1  0.84682058  0.82818160  0.50652513  1
  Te2-  Te112  1  0.83173646  0.81741501  0.82219936  1
  Te2-  Te113  1  0.16232778  -0.00355774  -0.00153099  1
  Te2-  Te114  1  0.16741292  -0.00020957  0.33306138  1
  Te2-  Te115  1  0.17218271  -0.00454427  0.66337927  1
  Te2-  Te116  1  0.16593428  0.33612323  -0.00186814  1
  Te2-  Te117  1  0.16829757  0.32805313  0.32588122  1
  Te2-  Te118  1  0.15224270  0.33497097  0.67120811  1
  Te2-  Te119  1  0.17765453  0.66782569  0.00044310  1
  Te2-  Te120  1  0.18380568  0.66853265  0.32211201  1
  Te2-  Te121  1  0.16910750  0.67377408  0.67038534  1
  Te2-  Te122  1  0.50388377  0.00379041  -0.00158796  1
  Te2-  Te123  1  0.49648688  -0.00138959  0.33681187  1
  Te2-  Te124  1  0.49953804  -0.00024033  0.66211518  1
  Te2-  Te125  1  0.50250101  0.32931536  0.00246158  1
  Te2-  Te126  1  0.49808432  0.32433053  0.32615921  1
  Te2-  Te127  1  0.50189502  0.32901380  0.66231807  1
  Te2-  Te128  1  0.48642352  0.66645988  -0.00193717  1
  Te2-  Te129  1  0.48932983  0.66616898  0.33256687  1
  Te2-  Te130  1  0.49834511  0.67080647  0.66422133  1
  Te2-  Te131  1  0.83386294  -0.01339437  -0.01356063  1
  Te2-  Te132  1  0.83723183  -0.00303402  0.33736201  1
  Te2-  Te133  1  0.82809319  -0.01087828  0.67801420  1
  Te2-  Te134  1  0.83081954  0.33151538  -0.00239911  1
  Te2-  Te135  1  0.83807377  0.33314848  0.33685279  1
  Te2-  Te136  1  0.84813448  0.33762656  0.67081027  1
  Te2-  Te137  1  0.83275883  0.68293069  -0.00676272  1
  Te2-  Te138  1  0.83343068  0.67297704  0.32925044  1
  Te2-  Te139  1  0.83164305  0.67583985  0.66617429  1
  Te2-  Te140  1  0.00206265  0.15759979  0.00367755  1
  Te2-  Te141  1  0.00497405  0.16662618  0.33521182  1
  Te2-  Te142  1  -0.00684201  0.15205726  0.65564031  1
  Te2-  Te143  1  -0.01195629  0.50585180  0.00613467  1
  Te2-  Te144  1  0.00263217  0.50198922  0.31739479  1
  Te2-  Te145  1  -0.01053119  0.50775103  0.66536647  1
  Te2-  Te146  1  0.00001761  0.83319740  0.00800410  1
  Te2-  Te147  1  0.00303597  0.83967734  0.32685237  1
  Te2-  Te148  1  0.01119608  0.84566401  0.66636625  1
  Te2-  Te149  1  0.33409912  0.16418998  0.00290384  1
  Te2-  Te150  1  0.33366036  0.16328651  0.33390700  1
  Te2-  Te151  1  0.33737109  0.15594415  0.66511220  1
  Te2-  Te152  1  0.33463060  0.49258633  -0.00035915  1
  Te2-  Te153  1  0.33607213  0.49837779  0.33815126  1
  Te2-  Te154  1  0.33716112  0.50428293  0.66280910  1
  Te2-  Te155  1  0.34112251  0.83209617  -0.00834002  1
  Te2-  Te156  1  0.33194432  0.83749282  0.33349161  1
  Te2-  Te157  1  0.33207351  0.83667424  0.66716922  1
  Te2-  Te158  1  0.66343095  0.16726852  0.00246672  1
  Te2-  Te159  1  0.66082888  0.14790238  0.34198033  1
  Te2-  Te160  1  0.66845192  0.16518970  0.65597974  1
  Te2-  Te161  1  0.67957069  0.49979220  0.00555108  1
  Te2-  Te162  1  0.66531029  0.50205145  0.32675737  1
  Te2-  Te163  1  0.67957005  0.50011261  0.67202519  1
  Te2-  Te164  1  0.67018426  0.83551032  -0.01749590  1
  Te2-  Te165  1  0.66406791  0.84597154  0.33624111  1
  Te2-  Te166  1  0.65939130  0.83380874  0.67798233  1
  Te2-  Te167  1  -0.00537749  -0.00327802  0.16561091  1
  Te2-  Te168  1  0.00483923  0.00832388  0.49417295  1
  Te2-  Te169  1  -0.01248099  0.00063719  0.83215114  1
  Te2-  Te170  1  0.00204429  0.33065447  0.15265709  1
  Te2-  Te171  1  -0.00204859  0.32345613  0.50181634  1
  Te2-  Te172  1  -0.00146929  0.33141714  0.84342825  1
  Te2-  Te173  1  0.00399855  0.68210491  0.17265264  1
  Te2-  Te174  1  0.00046353  0.66279711  0.48514653  1
  Te2-  Te175  1  0.00641997  0.66439952  0.83576831  1
  Te2-  Te176  1  0.33868932  -0.01008827  0.16672851  1
  Te2-  Te177  1  0.33813347  -0.00061845  0.49504859  1
  Te2-  Te178  1  0.33549509  -0.00301682  0.83557895  1
  Te2-  Te179  1  0.33638464  0.34132929  0.16048884  1
  Te2-  Te180  1  0.33137733  0.33839390  0.50242005  1
  Te2-  Te181  1  0.33045063  0.34226527  0.83455438  1
  Te2-  Te182  1  0.33629361  0.66781695  0.16292909  1
  Te2-  Te183  1  0.33836358  0.66923328  0.50354078  1
  Te2-  Te184  1  0.33596209  0.65325212  0.82894453  1
  Te2-  Te185  1  0.67231447  -0.01245263  0.15679405  1
  Te2-  Te186  1  0.66457600  -0.00571867  0.50656145  1
  Te2-  Te187  1  0.67765654  -0.00215373  0.83144280  1
  Te2-  Te188  1  0.66597077  0.33271247  0.16969883  1
  Te2-  Te189  1  0.67357472  0.34147277  0.48829926  1
  Te2-  Te190  1  0.66724910  0.33596905  0.83839150  1
  Te2-  Te191  1  0.66094186  0.68420727  0.16040188  1
  Te2-  Te192  1  0.66496219  0.66016273  0.49903573  1
  Te2-  Te193  1  0.64876554  0.66610404  0.83458780  1
  Pb2+  Pb194  1  0.16522395  0.50125213  0.67142051  1
  Pb2+  Pb195  1  0.32608607  0.33118255  0.66883001  1
  Pb2+  Pb196  1  0.50799307  0.50014720  0.00249988  1
  Pb2+  Pb197  1  0.83401484  0.16005605  -0.00877465  1
  Pb2+  Pb198  1  0.00035715  0.49222707  0.49824759  1
  Pb2+  Pb199  1  0.16855776  0.49784806  0.32501597  1
  Pb2+  Pb200  1  0.17101174  0.66856581  0.49305964  1
  Pb2+  Pb201  1  0.67115183  0.16624555  0.82619525  1
  Pb2+  Pb202  1  -0.00260592  0.67361655  0.66482081  1
  Pb2+  Pb203  1  0.16862806  -0.00239664  0.16508300  1
  Pb2+  Pb204  1  0.66989004  0.82866901  0.50433874  1
  Pb2+  Pb205  1  -0.00284420  0.83336814  0.83674033  1
  Pb2+  Pb206  1  0.66215205  0.67662194  0.32745680  1
  Pb2+  Pb207  1  0.82850213  0.16352946  0.33468887  1
  Pb2+  Pb208  1  0.83344488  0.50438779  0.33248983  1
  Pb2+  Pb209  1  0.83626940  0.33144078  0.16643948  1
  Pb2+  Pb210  1  0.83857233  -0.00348300  0.50749239  1
  Pb2+  Pb211  1  0.67263952  0.33470733  0.66262504  1
  Pb2+  Pb212  1  0.16073204  0.16739635  0.66198332  1
  Pb2+  Pb213  1  0.16073361  -0.00062753  0.83062057  1
  Pb2+  Pb214  1  0.32981492  0.16980053  0.83559847  1
  Pb2+  Pb215  1  0.50130474  0.33393474  0.49172176  1
