# generated using pymatgen
data_In22Ag21Sn22Bi21(Te54Pb11)2
_symmetry_space_group_name_H-M   'P 1'
_cell_length_a   19.14360840
_cell_length_b   19.15087194
_cell_length_c   19.15003343
_cell_angle_alpha   90.00361420
_cell_angle_beta   89.99712834
_cell_angle_gamma   90.01613230
_symmetry_Int_Tables_number   1
_chemical_formula_structural   In22Ag21Sn22Bi21(Te54Pb11)2
_chemical_formula_sum   'In22 Ag21 Sn22 Bi21 Te108 Pb22'
_cell_volume   7020.72354051
_cell_formula_units_Z   1
loop_
 _symmetry_equiv_pos_site_id
 _symmetry_equiv_pos_as_xyz
  1  'x, y, z'
loop_
 _atom_type_symbol
 _atom_type_oxidation_number
  In3+  3.0
  Ag+  1.0
  Sn2+  2.0
  Bi3+  3.0
  Te2-  -2.0
  Pb2+  2.0
loop_
 _atom_site_type_symbol
 _atom_site_label
 _atom_site_symmetry_multiplicity
 _atom_site_fract_x
 _atom_site_fract_y
 _atom_site_fract_z
 _atom_site_occupancy
  In3+  In0  1  0.83445225  -0.00541496  0.50121554  1
  In3+  In1  1  0.65825347  0.82367314  0.49995272  1
  In3+  In2  1  0.17023005  0.49082918  0.68583467  1
  In3+  In3  1  0.16346203  0.82467901  0.32395510  1
  In3+  In4  1  0.49298896  0.82596892  0.65412692  1
  In3+  In5  1  0.65022200  0.00166584  0.66156684  1
  In3+  In6  1  0.67921475  0.34282459  0.33424350  1
  In3+  In7  1  -0.01669222  -0.00445176  0.33171854  1
  In3+  In8  1  0.14399485  0.16286915  0.33792672  1
  In3+  In9  1  0.83224023  0.16638146  0.65647596  1
  In3+  In10  1  0.66158937  0.17507501  0.17963855  1
  In3+  In11  1  0.83602671  0.33351476  0.81393995  1
  In3+  In12  1  0.17199629  0.50357197  0.01345009  1
  In3+  In13  1  0.82896139  0.64507605  0.16479152  1
  In3+  In14  1  0.17388199  0.33298829  0.81922274  1
  In3+  In15  1  0.00059359  0.34785761  0.00382616  1
  In3+  In16  1  0.35593803  0.83489451  0.17906604  1
  In3+  In17  1  0.00558983  -0.00258181  0.64736183  1
  In3+  In18  1  0.67067928  0.17051746  0.49379827  1
  In3+  In19  1  0.50944726  -0.00076457  0.49284925  1
  In3+  In20  1  0.34169328  0.33444896  0.32310723  1
  In3+  In21  1  0.00004187  0.49883462  0.51803136  1
  Ag+  Ag22  1  -0.00256311  0.52630641  0.18391497  1
  Ag+  Ag23  1  0.53007091  -0.00230188  0.19166451  1
  Ag+  Ag24  1  0.36050375  0.03392412  0.64095902  1
  Ag+  Ag25  1  0.19681639  0.64100743  0.16912439  1
  Ag+  Ag26  1  0.34665179  0.48323108  0.80907655  1
  Ag+  Ag27  1  0.63737355  0.64268432  0.66300242  1
  Ag+  Ag28  1  0.81947945  0.16719666  0.32852134  1
  Ag+  Ag29  1  0.46735265  0.19415611  0.63982259  1
  Ag+  Ag30  1  0.35922566  0.35952029  0.65304679  1
  Ag+  Ag31  1  0.36242567  0.47465691  0.16982009  1
  Ag+  Ag32  1  0.66233787  0.68857114  0.31618776  1
  Ag+  Ag33  1  0.52471180  0.47708618  0.64204481  1
  Ag+  Ag34  1  0.49909276  0.81269230  0.35289529  1
  Ag+  Ag35  1  -0.00040808  0.81288742  0.47775806  1
  Ag+  Ag36  1  0.81621518  0.33749768  0.15533691  1
  Ag+  Ag37  1  -0.03008489  0.01025755  -0.02473482  1
  Ag+  Ag38  1  0.49876601  0.64591529  0.47981485  1
  Ag+  Ag39  1  0.47171996  0.35717305  0.16345792  1
  Ag+  Ag40  1  0.48124888  0.64569523  0.19072578  1
  Ag+  Ag41  1  0.66876572  0.64450245  0.02236537  1
  Ag+  Ag42  1  -0.00193821  0.31191906  0.63907088  1
  Sn2+  Sn43  1  0.49618117  0.50365186  -0.00169722  1
  Sn2+  Sn44  1  0.00044201  0.67274816  0.00500898  1
  Sn2+  Sn45  1  0.00195759  0.33712230  0.32228418  1
  Sn2+  Sn46  1  0.81987100  0.66624023  0.83458791  1
  Sn2+  Sn47  1  0.83213276  0.82840509  0.00873999  1
  Sn2+  Sn48  1  0.33616196  0.00150278  -0.00039067  1
  Sn2+  Sn49  1  0.66627633  -0.01070593  0.33481554  1
  Sn2+  Sn50  1  0.16197374  0.66206549  0.84850680  1
  Sn2+  Sn51  1  0.82688510  0.83085553  0.33350431  1
  Sn2+  Sn52  1  0.66668473  -0.00548761  0.00072854  1
  Sn2+  Sn53  1  0.83642467  0.33312718  0.49001262  1
  Sn2+  Sn54  1  0.16650108  0.00430737  0.83961990  1
  Sn2+  Sn55  1  0.83317344  0.17198179  0.01213959  1
  Sn2+  Sn56  1  0.32390031  0.83174823  0.50091813  1
  Sn2+  Sn57  1  0.66654895  0.51463354  0.50205737  1
  Sn2+  Sn58  1  -0.00664244  0.66586527  0.33469522  1
  Sn2+  Sn59  1  -0.00626226  0.17020418  0.50377511  1
  Sn2+  Sn60  1  0.16140197  0.16790545  0.00745028  1
  Sn2+  Sn61  1  0.83350433  0.01474839  0.16562088  1
  Sn2+  Sn62  1  0.17178707  -0.00572119  0.50341937  1
  Sn2+  Sn63  1  0.35149934  0.66084041  0.00538183  1
  Sn2+  Sn64  1  0.33151524  0.34489488  -0.00816475  1
  Bi3+  Bi65  1  0.83384817  0.83731169  0.66475858  1
  Bi3+  Bi66  1  0.33266681  0.66610620  0.66841169  1
  Bi3+  Bi67  1  0.67406172  0.49814275  0.16742555  1
  Bi3+  Bi68  1  0.00230868  0.50034947  0.83829776  1
  Bi3+  Bi69  1  0.66911651  0.16892879  0.83607520  1
  Bi3+  Bi70  1  0.16649512  0.82986552  0.66408068  1
  Bi3+  Bi71  1  -0.00199869  0.16351109  0.16899871  1
  Bi3+  Bi72  1  0.16123234  0.33466060  0.16676351  1
  Bi3+  Bi73  1  0.49509618  0.66682165  0.83649039  1
  Bi3+  Bi74  1  0.16788779  -0.00153807  0.17148097  1
  Bi3+  Bi75  1  -0.00527393  0.83506858  0.16675058  1
  Bi3+  Bi76  1  0.66785531  0.83516563  0.82657282  1
  Bi3+  Bi77  1  0.33401876  0.82895534  0.83401178  1
  Bi3+  Bi78  1  0.50473209  0.16642685  0.33391259  1
  Bi3+  Bi79  1  0.50003815  0.16715446  -0.00265653  1
  Bi3+  Bi80  1  0.49555623  0.00129395  0.83233903  1
  Bi3+  Bi81  1  0.50039168  0.83372189  -0.00173600  1
  Bi3+  Bi82  1  0.16600352  0.49931225  0.32804401  1
  Bi3+  Bi83  1  0.00114793  0.83249450  0.83706155  1
  Bi3+  Bi84  1  0.33154459  0.00170893  0.33645377  1
  Bi3+  Bi85  1  0.82707506  0.67351664  0.49993382  1
  Te2-  Te86  1  0.16635850  0.16469948  0.17562475  1
  Te2-  Te87  1  0.16211064  0.16410105  0.49413781  1
  Te2-  Te88  1  0.16552742  0.17452897  0.83769644  1
  Te2-  Te89  1  0.14789266  0.50032722  0.16699341  1
  Te2-  Te90  1  0.15655148  0.50494684  0.49118550  1
  Te2-  Te91  1  0.16530025  0.49775097  0.84200446  1
  Te2-  Te92  1  0.15934196  0.83505283  0.17249156  1
  Te2-  Te93  1  0.15245596  0.83388330  0.49997770  1
  Te2-  Te94  1  0.16631515  0.82994974  0.83187284  1
  Te2-  Te95  1  0.51093959  0.15087911  0.16445628  1
  Te2-  Te96  1  0.51207255  0.15997215  0.50384208  1
  Te2-  Te97  1  0.50634927  0.16422532  0.83206066  1
  Te2-  Te98  1  0.50892833  0.50444937  0.15967249  1
  Te2-  Te99  1  0.50536350  0.50034303  0.49974804  1
  Te2-  Te100  1  0.48940124  0.50419978  0.83921141  1
  Te2-  Te101  1  0.50458198  0.85206006  0.15869798  1
  Te2-  Te102  1  0.50150304  0.84299929  0.49960123  1
  Te2-  Te103  1  0.50068006  0.83579622  0.83091503  1
  Te2-  Te104  1  0.83332925  0.17344077  0.17757320  1
  Te2-  Te105  1  0.82707248  0.16287683  0.50136452  1
  Te2-  Te106  1  0.83080659  0.17477116  0.83854896  1
  Te2-  Te107  1  0.84327436  0.48950097  0.16797544  1
  Te2-  Te108  1  0.83852540  0.50714353  0.50059770  1
  Te2-  Te109  1  0.83552356  0.49610091  0.83397401  1
  Te2-  Te110  1  0.83331654  0.84233827  0.17347069  1
  Te2-  Te111  1  0.84855674  0.83769635  0.50119278  1
  Te2-  Te112  1  0.83432892  0.83369467  0.83194374  1
  Te2-  Te113  1  0.17495092  0.00206675  0.00682547  1
  Te2-  Te114  1  0.17084316  0.00088860  0.33589378  1
  Te2-  Te115  1  0.16088090  -0.00673857  0.66838216  1
  Te2-  Te116  1  0.16225342  0.33338164  0.00530462  1
  Te2-  Te117  1  0.17066469  0.33011862  0.33034291  1
  Te2-  Te118  1  0.14595608  0.33738536  0.66930084  1
  Te2-  Te119  1  0.16808798  0.66027595  0.01605400  1
  Te2-  Te120  1  0.16680141  0.66899719  0.32004499  1
  Te2-  Te121  1  0.16972017  0.66634348  0.66610352  1
  Te2-  Te122  1  0.49830717  0.00218539  -0.00482481  1
  Te2-  Te123  1  0.49751085  0.00512719  0.33770668  1
  Te2-  Te124  1  0.49625278  -0.00802607  0.66783007  1
  Te2-  Te125  1  0.49745055  0.32924809  0.01373383  1
  Te2-  Te126  1  0.49600210  0.32636926  0.31647550  1
  Te2-  Te127  1  0.50263157  0.33414389  0.67173027  1
  Te2-  Te128  1  0.51685309  0.67182543  -0.00359880  1
  Te2-  Te129  1  0.51166146  0.66766037  0.33330867  1
  Te2-  Te130  1  0.49341424  0.67300178  0.67192426  1
  Te2-  Te131  1  0.82706039  0.00000126  -0.00161055  1
  Te2-  Te132  1  0.83241303  0.00636400  0.34275518  1
  Te2-  Te133  1  0.84245371  0.00237876  0.66013121  1
  Te2-  Te134  1  0.84351174  0.32859232  0.01007784  1
  Te2-  Te135  1  0.83056883  0.32071253  0.33415076  1
  Te2-  Te136  1  0.84554220  0.33023295  0.66043111  1
  Te2-  Te137  1  0.82264998  0.66979307  0.00329433  1
  Te2-  Te138  1  0.82009771  0.67142970  0.33879060  1
  Te2-  Te139  1  0.83334121  0.67510312  0.66417109  1
  Te2-  Te140  1  0.00124385  0.15175065  0.00702033  1
  Te2-  Te141  1  -0.00747657  0.16443480  0.33415553  1
  Te2-  Te142  1  -0.00926924  0.16539423  0.66737957  1
  Te2-  Te143  1  0.00773304  0.50428759  0.00030783  1
  Te2-  Te144  1  0.00368465  0.50135652  0.32928581  1
  Te2-  Te145  1  0.00759427  0.50367983  0.67229958  1
  Te2-  Te146  1  -0.00120866  0.83980968  -0.00029865  1
  Te2-  Te147  1  0.00167813  0.83824938  0.33219082  1
  Te2-  Te148  1  0.00072767  0.84117019  0.67328496  1
  Te2-  Te149  1  0.33596549  0.17147160  0.00060360  1
  Te2-  Te150  1  0.34198827  0.16922555  0.33564527  1
  Te2-  Te151  1  0.32635104  0.17156708  0.66813967  1
  Te2-  Te152  1  0.32877394  0.50075749  0.02021009  1
  Te2-  Te153  1  0.32954670  0.49484257  0.32057630  1
  Te2-  Te154  1  0.32105450  0.50130803  0.66564684  1
  Te2-  Te155  1  0.33661180  0.83011473  -0.00409298  1
  Te2-  Te156  1  0.34753525  0.83917305  0.33561883  1
  Te2-  Te157  1  0.32852504  0.83221532  0.66809688  1
  Te2-  Te158  1  0.66542041  0.16330497  -0.00078688  1
  Te2-  Te159  1  0.66883692  0.16118390  0.33725870  1
  Te2-  Te160  1  0.67651538  0.15756127  0.67016879  1
  Te2-  Te161  1  0.66781400  0.49797639  0.00327699  1
  Te2-  Te162  1  0.66947718  0.49555125  0.33298792  1
  Te2-  Te163  1  0.66786568  0.49724025  0.66610791  1
  Te2-  Te164  1  0.66598908  0.83429634  -0.00885256  1
  Te2-  Te165  1  0.65569575  0.83259279  0.34297761  1
  Te2-  Te166  1  0.67235926  0.84504852  0.66296301  1
  Te2-  Te167  1  0.00355353  -0.00083781  0.17424305  1
  Te2-  Te168  1  -0.00109711  0.00713537  0.49462044  1
  Te2-  Te169  1  0.00615474  -0.00335152  0.83422766  1
  Te2-  Te170  1  0.00073516  0.32407765  0.16204904  1
  Te2-  Te171  1  -0.00290917  0.34116199  0.49308371  1
  Te2-  Te172  1  -0.00548922  0.33941263  0.84672805  1
  Te2-  Te173  1  -0.01596619  0.67359510  0.16773832  1
  Te2-  Te174  1  -0.00496091  0.66475952  0.49464471  1
  Te2-  Te175  1  -0.00465192  0.66729899  0.83919959  1
  Te2-  Te176  1  0.32961447  -0.00907129  0.17090705  1
  Te2-  Te177  1  0.33650034  -0.00347304  0.49969691  1
  Te2-  Te178  1  0.33208117  -0.00741786  0.83169484  1
  Te2-  Te179  1  0.32511834  0.33047211  0.16746619  1
  Te2-  Te180  1  0.33376351  0.33671916  0.50946562  1
  Te2-  Te181  1  0.32508484  0.33956747  0.83231143  1
  Te2-  Te182  1  0.34050486  0.68262498  0.16488794  1
  Te2-  Te183  1  0.34789234  0.66931766  0.50166681  1
  Te2-  Te184  1  0.32918709  0.66678666  0.83622190  1
  Te2-  Te185  1  0.67546079  0.00327272  0.17004883  1
  Te2-  Te186  1  0.67041571  -0.00078302  0.50369730  1
  Te2-  Te187  1  0.66315148  0.00036616  0.82794412  1
  Te2-  Te188  1  0.67062793  0.33081367  0.17647176  1
  Te2-  Te189  1  0.66868286  0.32872461  0.49388059  1
  Te2-  Te190  1  0.67428308  0.33289119  0.83516518  1
  Te2-  Te191  1  0.67660074  0.66105077  0.16938367  1
  Te2-  Te192  1  0.66180403  0.67182698  0.51422169  1
  Te2-  Te193  1  0.66185402  0.67362604  0.81455915  1
  Pb2+  Pb194  1  0.34251033  0.66877237  0.33200052  1
  Pb2+  Pb195  1  -0.00127005  0.17047906  0.83845249  1
  Pb2+  Pb196  1  0.17221103  0.66966253  0.49455493  1
  Pb2+  Pb197  1  0.16723766  0.33526360  0.50050351  1
  Pb2+  Pb198  1  0.50114808  0.50045813  0.32996207  1
  Pb2+  Pb199  1  0.65737530  0.50620749  0.83481036  1
  Pb2+  Pb200  1  0.00101710  0.67175838  0.66641767  1
  Pb2+  Pb201  1  0.16809350  0.82987637  0.00409972  1
  Pb2+  Pb202  1  0.49744199  0.33535549  0.84067770  1
  Pb2+  Pb203  1  0.50007211  0.33155512  0.49345510  1
  Pb2+  Pb204  1  0.34171259  0.16055978  0.16751528  1
  Pb2+  Pb205  1  0.66784999  0.32988675  0.00556713  1
  Pb2+  Pb206  1  0.66614225  0.83027558  0.16688511  1
  Pb2+  Pb207  1  0.33371309  0.16838909  0.50214932  1
  Pb2+  Pb208  1  0.67036019  0.32582126  0.66382547  1
  Pb2+  Pb209  1  0.33537048  0.16461114  0.83258309  1
  Pb2+  Pb210  1  0.83370532  0.00441584  0.82781424  1
  Pb2+  Pb211  1  0.83686813  0.49718058  0.33451022  1
  Pb2+  Pb212  1  0.83868280  0.49990879  0.00071586  1
  Pb2+  Pb213  1  0.83475192  0.50568721  0.66724721  1
  Pb2+  Pb214  1  0.33122209  0.50166096  0.49512663  1
  Pb2+  Pb215  1  0.16217486  0.16254507  0.66470942  1
