# generated using pymatgen
data_In22Ag21Sn22Bi21(Te54Pb11)2
_symmetry_space_group_name_H-M   'P 1'
_cell_length_a   19.09093820
_cell_length_b   19.08934141
_cell_length_c   19.09755544
_cell_angle_alpha   90.01780979
_cell_angle_beta   90.01225115
_cell_angle_gamma   89.99711067
_symmetry_Int_Tables_number   1
_chemical_formula_structural   In22Ag21Sn22Bi21(Te54Pb11)2
_chemical_formula_sum   'In22 Ag21 Sn22 Bi21 Te108 Pb22'
_cell_volume   6959.78726600
_cell_formula_units_Z   1
loop_
 _symmetry_equiv_pos_site_id
 _symmetry_equiv_pos_as_xyz
  1  'x, y, z'
loop_
 _atom_type_symbol
 _atom_type_oxidation_number
  In3+  3.0
  Ag+  1.0
  Sn2+  2.0
  Bi3+  3.0
  Te2-  -2.0
  Pb2+  2.0
loop_
 _atom_site_type_symbol
 _atom_site_label
 _atom_site_symmetry_multiplicity
 _atom_site_fract_x
 _atom_site_fract_y
 _atom_site_fract_z
 _atom_site_occupancy
  In3+  In0  1  0.84970277  0.17255581  0.66193386  1
  In3+  In1  1  0.33403278  0.32866169  0.66286664  1
  In3+  In2  1  0.82429676  0.50216267  0.34494147  1
  In3+  In3  1  0.83442575  0.50434429  0.66610253  1
  In3+  In4  1  0.50228965  0.82989546  0.01704869  1
  In3+  In5  1  0.52457805  0.69390685  0.49745869  1
  In3+  In6  1  0.49838395  0.16068755  0.65363854  1
  In3+  In7  1  0.49323442  0.84068492  0.66817582  1
  In3+  In8  1  -0.01768970  0.49872961  0.50380845  1
  In3+  In9  1  0.16715897  0.16691677  0.66504607  1
  In3+  In10  1  0.66120213  0.32547735  0.33507805  1
  In3+  In11  1  0.34063732  0.65325277  0.66628231  1
  In3+  In12  1  0.66558778  0.50853257  0.16303640  1
  In3+  In13  1  0.32892140  0.32993597  0.01542015  1
  In3+  In14  1  0.48069744  0.33344335  0.84038914  1
  In3+  In15  1  0.66825215  0.16338644  0.18455915  1
  In3+  In16  1  0.15623374  0.00280933  0.83455592  1
  In3+  In17  1  0.49915071  0.51516958  0.00155919  1
  In3+  In18  1  0.32765606  0.17363618  0.82871409  1
  In3+  In19  1  0.00151754  0.81530794  0.83898301  1
  In3+  In20  1  0.16747162  0.18177991  0.32418660  1
  In3+  In21  1  0.33335048  0.00616474  0.66368740  1
  Ag+  Ag22  1  0.02466369  0.65429404  0.00247957  1
  Ag+  Ag23  1  -0.02398453  0.50446131  0.84273082  1
  Ag+  Ag24  1  0.83957500  0.68607343  0.49458315  1
  Ag+  Ag25  1  -0.01255477  0.14580912  0.83051217  1
  Ag+  Ag26  1  0.31509851  0.34759206  0.31641915  1
  Ag+  Ag27  1  0.14240590  0.16454056  0.02375946  1
  Ag+  Ag28  1  0.66319610  0.66605046  0.32027068  1
  Ag+  Ag29  1  0.84776576  0.33299810  0.49946495  1
  Ag+  Ag30  1  0.31331875  0.17604184  0.50092222  1
  Ag+  Ag31  1  0.31911410  0.50286038  0.82156501  1
  Ag+  Ag32  1  0.66480514  0.01905468  0.35459525  1
  Ag+  Ag33  1  0.66699921  0.64964743  0.01935494  1
  Ag+  Ag34  1  0.14430282  0.33021179  0.13951504  1
  Ag+  Ag35  1  0.51612315  0.81499163  0.31515773  1
  Ag+  Ag36  1  0.49563967  0.01074250  0.48275955  1
  Ag+  Ag37  1  0.32691884  0.85486243  0.14485911  1
  Ag+  Ag38  1  0.85838173  0.51279684  0.02919524  1
  Ag+  Ag39  1  -0.01856128  0.02102820  0.66689693  1
  Ag+  Ag40  1  0.19322973  0.32875316  0.49118903  1
  Ag+  Ag41  1  0.49732431  0.68314816  0.14646355  1
  Ag+  Ag42  1  0.66982122  0.16330405  0.51306257  1
  Sn2+  Sn43  1  0.50435759  0.50443015  0.33228229  1
  Sn2+  Sn44  1  0.66690762  0.16551564  0.82746058  1
  Sn2+  Sn45  1  0.17493011  0.01072687  0.50063631  1
  Sn2+  Sn46  1  0.66682271  0.34215429  0.00250384  1
  Sn2+  Sn47  1  0.66899557  -0.00008959  0.65766297  1
  Sn2+  Sn48  1  0.83240231  0.83150890  0.66796309  1
  Sn2+  Sn49  1  0.48866603  0.15886341  0.34188270  1
  Sn2+  Sn50  1  0.66581845  0.83844177  0.49199737  1
  Sn2+  Sn51  1  0.16492884  0.49721887  0.66907954  1
  Sn2+  Sn52  1  0.84240668  0.00076738  0.83583899  1
  Sn2+  Sn53  1  0.33186327  0.00752250  -0.00710662  1
  Sn2+  Sn54  1  0.16640028  0.83851516  0.66404077  1
  Sn2+  Sn55  1  0.00273086  0.33479750  0.66828252  1
  Sn2+  Sn56  1  0.83535886  0.66587432  0.83430275  1
  Sn2+  Sn57  1  0.66344223  0.32810744  0.66039094  1
  Sn2+  Sn58  1  0.32829338  0.49526741  0.50078503  1
  Sn2+  Sn59  1  -0.00027680  0.16883379  0.14506187  1
  Sn2+  Sn60  1  0.50277678  -0.00711536  0.17994203  1
  Sn2+  Sn61  1  0.17708121  0.65275409  0.16387242  1
  Sn2+  Sn62  1  0.82614138  0.66699234  0.16619584  1
  Sn2+  Sn63  1  0.49988338  0.49680511  0.66625818  1
  Sn2+  Sn64  1  0.82899396  0.80971834  -0.00102145  1
  Bi3+  Bi65  1  0.66609087  0.49580246  0.83123816  1
  Bi3+  Bi66  1  0.16393374  0.33183617  0.83062725  1
  Bi3+  Bi67  1  -0.00177801  0.66448300  0.67083589  1
  Bi3+  Bi68  1  0.66478816  0.00341909  -0.00502341  1
  Bi3+  Bi69  1  0.33294353  0.83560138  0.50261320  1
  Bi3+  Bi70  1  0.50123142  0.32670971  0.50084615  1
  Bi3+  Bi71  1  0.66750995  0.66683736  0.66548310  1
  Bi3+  Bi72  1  0.49952300  0.00518787  0.83475433  1
  Bi3+  Bi73  1  0.16819847  0.49770174  0.33631567  1
  Bi3+  Bi74  1  0.33964782  -0.00137099  0.33964197  1
  Bi3+  Bi75  1  0.65827855  0.49314178  0.49788770  1
  Bi3+  Bi76  1  0.83315073  0.33645326  0.16683901  1
  Bi3+  Bi77  1  0.33722061  0.49835168  0.16586522  1
  Bi3+  Bi78  1  0.50204767  0.16480886  -0.00279542  1
  Bi3+  Bi79  1  0.00480197  0.83187707  0.16398225  1
  Bi3+  Bi80  1  0.83491860  0.33407275  0.82686538  1
  Bi3+  Bi81  1  0.17360109  0.83232015  0.33331151  1
  Bi3+  Bi82  1  -0.00022326  0.33976136  -0.00587809  1
  Bi3+  Bi83  1  0.82472010  0.82784276  0.33239923  1
  Bi3+  Bi84  1  0.83059522  0.00333930  0.50352491  1
  Bi3+  Bi85  1  0.50559070  0.33062038  0.16730045  1
  Te2-  Te86  1  0.16710386  0.17740660  0.16902697  1
  Te2-  Te87  1  0.16659904  0.17200619  0.50936174  1
  Te2-  Te88  1  0.17592625  0.16762158  0.82309027  1
  Te2-  Te89  1  0.17140046  0.48473840  0.17047274  1
  Te2-  Te90  1  0.17133871  0.48525366  0.50085803  1
  Te2-  Te91  1  0.17110664  0.49519698  0.83000761  1
  Te2-  Te92  1  0.17353997  0.82953757  0.16975243  1
  Te2-  Te93  1  0.16757155  0.83317300  0.49789732  1
  Te2-  Te94  1  0.16346114  0.84148730  0.83378514  1
  Te2-  Te95  1  0.50810087  0.16746462  0.16553161  1
  Te2-  Te96  1  0.51431831  0.16119946  0.50082971  1
  Te2-  Te97  1  0.49434553  0.17211435  0.83183663  1
  Te2-  Te98  1  0.50401677  0.49348898  0.16301182  1
  Te2-  Te99  1  0.49608136  0.49358164  0.50035118  1
  Te2-  Te100  1  0.50415825  0.48869193  0.83759710  1
  Te2-  Te101  1  0.48565680  0.82917842  0.17098764  1
  Te2-  Te102  1  0.49714645  0.84643639  0.51150476  1
  Te2-  Te103  1  0.50070065  0.83882813  0.82414553  1
  Te2-  Te104  1  0.83060978  0.17260711  0.16811078  1
  Te2-  Te105  1  0.82425029  0.16994111  0.50790826  1
  Te2-  Te106  1  0.83983842  0.17103356  0.82114650  1
  Te2-  Te107  1  0.82537046  0.49966254  0.17253148  1
  Te2-  Te108  1  0.82577956  0.48300019  0.50130868  1
  Te2-  Te109  1  0.82823399  0.49678425  0.82590410  1
  Te2-  Te110  1  0.83817264  0.83009858  0.16880230  1
  Te2-  Te111  1  0.83285412  0.83637641  0.49641691  1
  Te2-  Te112  1  0.84149148  0.83325028  0.83522766  1
  Te2-  Te113  1  0.17128029  0.01637540  -0.00741870  1
  Te2-  Te114  1  0.16974196  -0.00481882  0.33836833  1
  Te2-  Te115  1  0.17643414  0.00467473  0.66777832  1
  Te2-  Te116  1  0.16967489  0.31873028  -0.00372380  1
  Te2-  Te117  1  0.17245479  0.33287923  0.34468242  1
  Te2-  Te118  1  0.17420711  0.32731927  0.66831498  1
  Te2-  Te119  1  0.17221429  0.66680677  0.00377843  1
  Te2-  Te120  1  0.16725574  0.66418741  0.33219462  1
  Te2-  Te121  1  0.16171121  0.66723029  0.66607290  1
  Te2-  Te122  1  0.49840485  0.00021890  -0.00158434  1
  Te2-  Te123  1  0.50881124  -0.00098379  0.33593384  1
  Te2-  Te124  1  0.49824841  0.00195539  0.67341973  1
  Te2-  Te125  1  0.49838811  0.32730557  -0.00006748  1
  Te2-  Te126  1  0.50462247  0.33058597  0.33291411  1
  Te2-  Te127  1  0.49485112  0.32920308  0.66932524  1
  Te2-  Te128  1  0.51284395  0.67176563  -0.00112698  1
  Te2-  Te129  1  0.51010584  0.67167911  0.34915621  1
  Te2-  Te130  1  0.50096535  0.66808822  0.65765902  1
  Te2-  Te131  1  0.82927644  0.00181348  -0.00394116  1
  Te2-  Te132  1  0.82069883  -0.00384400  0.33849000  1
  Te2-  Te133  1  0.83319450  0.00043456  0.66618628  1
  Te2-  Te134  1  0.83622439  0.34646231  0.00031935  1
  Te2-  Te135  1  0.82803404  0.34116539  0.33290360  1
  Te2-  Te136  1  0.83178362  0.32777992  0.66177352  1
  Te2-  Te137  1  0.81819432  0.65506245  0.00449938  1
  Te2-  Te138  1  0.82430770  0.66348365  0.34106149  1
  Te2-  Te139  1  0.83415390  0.66447451  0.65765773  1
  Te2-  Te140  1  -0.00080548  0.17160013  -0.01512948  1
  Te2-  Te141  1  0.00804187  0.16540003  0.33226904  1
  Te2-  Te142  1  0.00503092  0.16680874  0.67757247  1
  Te2-  Te143  1  0.00186451  0.50528175  -0.00661008  1
  Te2-  Te144  1  0.00187845  0.50065192  0.33650626  1
  Te2-  Te145  1  -0.00371823  0.50272545  0.66391523  1
  Te2-  Te146  1  -0.00206429  0.83037766  -0.00174094  1
  Te2-  Te147  1  -0.00040987  0.83301431  0.33009754  1
  Te2-  Te148  1  0.00070676  0.82577299  0.67807744  1
  Te2-  Te149  1  0.33957883  0.17334361  -0.00696031  1
  Te2-  Te150  1  0.32435961  0.15868553  0.34725542  1
  Te2-  Te151  1  0.33991279  0.16579204  0.65714170  1
  Te2-  Te152  1  0.34232377  0.49033822  -0.00086599  1
  Te2-  Te153  1  0.33359047  0.49407667  0.33306609  1
  Te2-  Te154  1  0.33581728  0.49936258  0.67288503  1
  Te2-  Te155  1  0.34147734  0.83515074  0.00000604  1
  Te2-  Te156  1  0.33554564  0.83573745  0.34132501  1
  Te2-  Te157  1  0.33305004  0.83469039  0.66542557  1
  Te2-  Te158  1  0.66457779  0.16969431  -0.00610675  1
  Te2-  Te159  1  0.66365816  0.16609681  0.33532981  1
  Te2-  Te160  1  0.65664246  0.16844270  0.66324277  1
  Te2-  Te161  1  0.65807768  0.50179798  -0.00264285  1
  Te2-  Te162  1  0.66572479  0.51109500  0.33581673  1
  Te2-  Te163  1  0.66770417  0.49879009  0.66430767  1
  Te2-  Te164  1  0.66216351  0.84010202  0.00048084  1
  Te2-  Te165  1  0.66416492  0.82205947  0.33448249  1
  Te2-  Te166  1  0.66785431  0.82908047  0.66143513  1
  Te2-  Te167  1  0.00028898  -0.00150753  0.16447932  1
  Te2-  Te168  1  -0.00141153  0.00033047  0.51416545  1
  Te2-  Te169  1  0.00518044  -0.00021240  0.81936364  1
  Te2-  Te170  1  -0.00323858  0.33097349  0.16136855  1
  Te2-  Te171  1  -0.00615677  0.34157560  0.50707741  1
  Te2-  Te172  1  -0.00146063  0.34938989  0.83327928  1
  Te2-  Te173  1  0.00148601  0.67024736  0.15440777  1
  Te2-  Te174  1  -0.01277672  0.65691675  0.50382906  1
  Te2-  Te175  1  -0.00387552  0.65883393  0.84157195  1
  Te2-  Te176  1  0.33491630  -0.00040904  0.17025107  1
  Te2-  Te177  1  0.34448722  0.00138027  0.50515262  1
  Te2-  Te178  1  0.33619464  0.00783419  0.82582831  1
  Te2-  Te179  1  0.34123536  0.33154499  0.17148142  1
  Te2-  Te180  1  0.34114848  0.32459270  0.50763932  1
  Te2-  Te181  1  0.32912176  0.34016061  0.82612799  1
  Te2-  Te182  1  0.34648577  0.65688210  0.16929307  1
  Te2-  Te183  1  0.33274663  0.66727326  0.51112236  1
  Te2-  Te184  1  0.33595167  0.65660208  0.82533554  1
  Te2-  Te185  1  0.66345659  0.00437287  0.15931772  1
  Te2-  Te186  1  0.66618623  0.00598146  0.50143667  1
  Te2-  Te187  1  0.66610176  0.00210386  0.83064182  1
  Te2-  Te188  1  0.66909668  0.33518424  0.17108151  1
  Te2-  Te189  1  0.66245751  0.32945283  0.49264278  1
  Te2-  Te190  1  0.67238700  0.33297993  0.83222440  1
  Te2-  Te191  1  0.65542292  0.66147208  0.16841821  1
  Te2-  Te192  1  0.67402684  0.65851824  0.50558927  1
  Te2-  Te193  1  0.66987072  0.66230477  0.82792195  1
  Pb2+  Pb194  1  0.16803123  0.84056655  0.00231723  1
  Pb2+  Pb195  1  0.16309101  0.65484086  0.50080135  1
  Pb2+  Pb196  1  0.34289329  0.66406473  0.33978926  1
  Pb2+  Pb197  1  0.50188831  0.66248792  0.82783692  1
  Pb2+  Pb198  1  -0.00042084  0.83083809  0.50825931  1
  Pb2+  Pb199  1  0.34056283  0.66341059  0.00297969  1
  Pb2+  Pb200  1  0.33341125  0.83469505  0.83287761  1
  Pb2+  Pb201  1  -0.00120099  0.50336456  0.16355991  1
  Pb2+  Pb202  1  -0.00874535  0.66617284  0.32591910  1
  Pb2+  Pb203  1  0.83133219  0.17575369  -0.00533504  1
  Pb2+  Pb204  1  0.33845147  0.16459193  0.17155830  1
  Pb2+  Pb205  1  0.83416938  0.16879199  0.34000843  1
  Pb2+  Pb206  1  -0.00173315  -0.00219216  -0.00862604  1
  Pb2+  Pb207  1  0.17151906  0.49171266  -0.00081023  1
  Pb2+  Pb208  1  0.00165852  0.33359357  0.33847319  1
  Pb2+  Pb209  1  -0.00285814  0.00043980  0.34379898  1
  Pb2+  Pb210  1  -0.00118771  0.16972304  0.50506478  1
  Pb2+  Pb211  1  0.66039935  0.83026380  0.16817424  1
  Pb2+  Pb212  1  0.83063106  0.00073974  0.16741340  1
  Pb2+  Pb213  1  0.16777403  0.00422941  0.16911034  1
  Pb2+  Pb214  1  0.16654414  0.66478519  0.83335201  1
  Pb2+  Pb215  1  0.67006376  0.83307260  0.83164028  1
