# generated using pymatgen
data_In22Ag21Sn22Bi21(Te54Pb11)2
_symmetry_space_group_name_H-M   'P 1'
_cell_length_a   19.18435784
_cell_length_b   19.15876868
_cell_length_c   19.16723787
_cell_angle_alpha   90.00112424
_cell_angle_beta   90.00948857
_cell_angle_gamma   90.00356691
_symmetry_Int_Tables_number   1
_chemical_formula_structural   In22Ag21Sn22Bi21(Te54Pb11)2
_chemical_formula_sum   'In22 Ag21 Sn22 Bi21 Te108 Pb22'
_cell_volume   7044.89275285
_cell_formula_units_Z   1
loop_
 _symmetry_equiv_pos_site_id
 _symmetry_equiv_pos_as_xyz
  1  'x, y, z'
loop_
 _atom_type_symbol
 _atom_type_oxidation_number
  In3+  3.0
  Ag+  1.0
  Sn2+  2.0
  Bi3+  3.0
  Te2-  -2.0
  Pb2+  2.0
loop_
 _atom_site_type_symbol
 _atom_site_label
 _atom_site_symmetry_multiplicity
 _atom_site_fract_x
 _atom_site_fract_y
 _atom_site_fract_z
 _atom_site_occupancy
  In3+  In0  1  0.67208335  0.15785119  0.51169514  1
  In3+  In1  1  0.52616439  0.84925500  0.65657444  1
  In3+  In2  1  0.16301323  0.17021743  -0.01124854  1
  In3+  In3  1  0.33051735  0.51650047  0.49267950  1
  In3+  In4  1  0.00107653  0.31943889  0.67440836  1
  In3+  In5  1  0.17349422  0.66531859  0.17668206  1
  In3+  In6  1  0.82915133  0.82905137  0.34424283  1
  In3+  In7  1  0.34793526  0.16471366  0.83178366  1
  In3+  In8  1  0.51916600  0.82719723  -0.02420953  1
  In3+  In9  1  0.33490180  -0.01510569  0.66631499  1
  In3+  In10  1  -0.01531850  0.48524487  0.50504601  1
  In3+  In11  1  0.32846388  0.17693806  0.18616244  1
  In3+  In12  1  0.00737276  0.82817013  0.50868647  1
  In3+  In13  1  0.31220947  0.16209977  0.50867483  1
  In3+  In14  1  -0.00486594  0.53357047  0.83341555  1
  In3+  In15  1  0.50154689  0.32057761  0.49799213  1
  In3+  In16  1  -0.01056406  0.67279061  0.33859693  1
  In3+  In17  1  0.16760496  0.81814904  0.33853990  1
  In3+  In18  1  0.66438817  0.64542408  0.33952191  1
  In3+  In19  1  0.50178056  0.66521386  0.50520231  1
  In3+  In20  1  0.50057684  0.49830685  0.66138439  1
  In3+  In21  1  0.67723944  0.48053194  0.50244080  1
  Ag+  Ag22  1  0.47787721  0.02446714  0.50452214  1
  Ag+  Ag23  1  0.14549261  0.66556619  0.51527588  1
  Ag+  Ag24  1  0.14359154  0.30970264  0.15861695  1
  Ag+  Ag25  1  0.69628851  0.01994125  0.68177375  1
  Ag+  Ag26  1  0.52135284  0.67057676  0.80373935  1
  Ag+  Ag27  1  0.66097216  0.80722693  0.80551460  1
  Ag+  Ag28  1  0.31677855  0.68865274  0.33862622  1
  Ag+  Ag29  1  -0.04206208  0.83709332  0.80697203  1
  Ag+  Ag30  1  0.64636241  0.64680586  -0.02481673  1
  Ag+  Ag31  1  0.84772684  0.67065636  0.51630516  1
  Ag+  Ag32  1  0.84256376  0.84647566  0.68994507  1
  Ag+  Ag33  1  0.82701358  -0.02977860  0.80916057  1
  Ag+  Ag34  1  0.85214196  0.31303293  0.49969905  1
  Ag+  Ag35  1  0.17463098  0.14232713  0.69009845  1
  Ag+  Ag36  1  0.69057888  0.34446848  0.34830819  1
  Ag+  Ag37  1  0.80283484  0.13674630  0.68475052  1
  Ag+  Ag38  1  0.70591986  0.12734903  0.80086382  1
  Ag+  Ag39  1  -0.03131300  0.30462720  -0.03272105  1
  Ag+  Ag40  1  0.81132948  0.67962837  0.86622588  1
  Ag+  Ag41  1  0.14505934  0.02305792  0.49826633  1
  Ag+  Ag42  1  0.35011403  0.33188018  0.35505649  1
  Sn2+  Sn43  1  -0.00683660  0.66333627  0.66986195  1
  Sn2+  Sn44  1  0.00143042  0.00155351  -0.01510947  1
  Sn2+  Sn45  1  0.66412136  0.50357308  0.16838473  1
  Sn2+  Sn46  1  0.00675387  -0.00002399  0.32748078  1
  Sn2+  Sn47  1  0.33401427  0.49278657  0.17175163  1
  Sn2+  Sn48  1  0.33011454  0.33058320  0.00607993  1
  Sn2+  Sn49  1  0.33102701  0.00368776  -0.00972973  1
  Sn2+  Sn50  1  0.50327196  0.82731844  0.34052407  1
  Sn2+  Sn51  1  0.15847721  -0.00132264  0.82365330  1
  Sn2+  Sn52  1  0.66243950  0.01175092  0.34988911  1
  Sn2+  Sn53  1  0.51912162  -0.00291232  0.82664565  1
  Sn2+  Sn54  1  0.82572000  0.16172591  0.34366760  1
  Sn2+  Sn55  1  0.49282688  0.49624106  0.34362343  1
  Sn2+  Sn56  1  0.16574925  0.83684435  0.00111804  1
  Sn2+  Sn57  1  -0.00214117  0.15702276  0.83066395  1
  Sn2+  Sn58  1  0.83603531  0.66974158  0.16671954  1
  Sn2+  Sn59  1  0.68099982  0.33387220  0.66400261  1
  Sn2+  Sn60  1  0.00097698  0.49604989  0.16359368  1
  Sn2+  Sn61  1  0.83408210  0.83623185  -0.01466823  1
  Sn2+  Sn62  1  0.83172203  -0.00896977  0.50416669  1
  Sn2+  Sn63  1  0.49977623  0.16942115  0.33230844  1
  Sn2+  Sn64  1  0.32873299  0.33339066  0.66087680  1
  Bi3+  Bi65  1  0.50104904  0.33384110  0.17086784  1
  Bi3+  Bi66  1  -0.00062381  0.16772206  0.17105924  1
  Bi3+  Bi67  1  0.16401365  0.16807047  0.33416259  1
  Bi3+  Bi68  1  0.33256111  0.50266754  0.83037920  1
  Bi3+  Bi69  1  0.33346623  0.83243522  0.16917030  1
  Bi3+  Bi70  1  0.66774982  -0.00025369  -0.00507539  1
  Bi3+  Bi71  1  0.66831584  0.83166357  0.17299430  1
  Bi3+  Bi72  1  0.66543216  0.16623797  0.16889407  1
  Bi3+  Bi73  1  0.66675529  0.49948173  0.82675320  1
  Bi3+  Bi74  1  0.50017652  0.66784904  0.17172255  1
  Bi3+  Bi75  1  0.49743095  0.16061764  -0.00129587  1
  Bi3+  Bi76  1  0.00500549  0.00139435  0.66480708  1
  Bi3+  Bi77  1  0.16544259  0.50344377  0.66409390  1
  Bi3+  Bi78  1  -0.00976412  0.16064122  0.50181085  1
  Bi3+  Bi79  1  0.67076264  0.83856556  0.49802272  1
  Bi3+  Bi80  1  0.83520286  0.50273584  0.66423991  1
  Bi3+  Bi81  1  0.00081624  0.34033007  0.33284336  1
  Bi3+  Bi82  1  0.16848796  0.49695189  0.33253278  1
  Bi3+  Bi83  1  0.00182323  0.67007943  0.00233995  1
  Bi3+  Bi84  1  0.83366904  -0.00098865  0.16981478  1
  Bi3+  Bi85  1  0.00036021  0.82903508  0.16668275  1
  Te2-  Te86  1  0.16574740  0.16425945  0.17138981  1
  Te2-  Te87  1  0.15975306  0.17255796  0.49756050  1
  Te2-  Te88  1  0.16203124  0.16197767  0.83414094  1
  Te2-  Te89  1  0.16859996  0.50783156  0.16997348  1
  Te2-  Te90  1  0.17541787  0.51303280  0.49870689  1
  Te2-  Te91  1  0.16774170  0.50189052  0.82858205  1
  Te2-  Te92  1  0.16691698  0.83078991  0.17404819  1
  Te2-  Te93  1  0.16137241  0.81610441  0.49201635  1
  Te2-  Te94  1  0.17255318  0.84288458  0.83901480  1
  Te2-  Te95  1  0.49939329  0.16721736  0.16449303  1
  Te2-  Te96  1  0.51545513  0.16639642  0.49819861  1
  Te2-  Te97  1  0.49999150  0.16593613  0.83530950  1
  Te2-  Te98  1  0.50116464  0.50043379  0.16802689  1
  Te2-  Te99  1  0.50026766  0.50861813  0.50352546  1
  Te2-  Te100  1  0.49859892  0.51314208  0.82326540  1
  Te2-  Te101  1  0.50026289  0.83215865  0.17410510  1
  Te2-  Te102  1  0.50436226  0.83278531  0.50438337  1
  Te2-  Te103  1  0.50971991  0.82421996  0.82361580  1
  Te2-  Te104  1  0.83376223  0.16380115  0.16919064  1
  Te2-  Te105  1  0.82916979  0.16567685  0.50591156  1
  Te2-  Te106  1  0.84351143  0.17151641  0.82523647  1
  Te2-  Te107  1  0.83108338  0.50267803  0.16796247  1
  Te2-  Te108  1  0.82593352  0.51922684  0.50094041  1
  Te2-  Te109  1  0.83372309  0.50597511  0.82616228  1
  Te2-  Te110  1  0.83452106  0.83707271  0.17007339  1
  Te2-  Te111  1  0.83521191  0.82236703  0.49423165  1
  Te2-  Te112  1  0.81402077  0.82318549  0.83233365  1
  Te2-  Te113  1  0.16682413  0.00922133  -0.00224790  1
  Te2-  Te114  1  0.16590017  0.00592719  0.34713065  1
  Te2-  Te115  1  0.16621262  -0.00002600  0.65257547  1
  Te2-  Te116  1  0.17226009  0.32369341  0.01166364  1
  Te2-  Te117  1  0.16117076  0.33311985  0.32243875  1
  Te2-  Te118  1  0.15867252  0.34295645  0.66126801  1
  Te2-  Te119  1  0.16525631  0.66926987  0.00535918  1
  Te2-  Te120  1  0.17050308  0.66233853  0.33118264  1
  Te2-  Te121  1  0.16230654  0.66548798  0.66126889  1
  Te2-  Te122  1  0.50203262  -0.00478779  -0.00502717  1
  Te2-  Te123  1  0.50115333  0.00202695  0.34899853  1
  Te2-  Te124  1  0.49021064  -0.00206569  0.65870407  1
  Te2-  Te125  1  0.49734264  0.32929207  0.00335837  1
  Te2-  Te126  1  0.49674626  0.33077405  0.33459037  1
  Te2-  Te127  1  0.50431441  0.34045302  0.65585095  1
  Te2-  Te128  1  0.50604357  0.67570149  0.00790666  1
  Te2-  Te129  1  0.50981185  0.66468219  0.33177641  1
  Te2-  Te130  1  0.50146967  0.66812041  0.65986095  1
  Te2-  Te131  1  0.83121402  0.00003762  0.00502140  1
  Te2-  Te132  1  0.83683842  -0.00288755  0.33226725  1
  Te2-  Te133  1  0.84312417  -0.00262916  0.66448249  1
  Te2-  Te134  1  0.83141355  0.33339790  0.00164574  1
  Te2-  Te135  1  0.83793219  0.33383622  0.34886100  1
  Te2-  Te136  1  0.83647065  0.34089239  0.64801413  1
  Te2-  Te137  1  0.84033487  0.67113411  0.00857028  1
  Te2-  Te138  1  0.83257914  0.67296554  0.33035447  1
  Te2-  Te139  1  0.83907410  0.66370896  0.66249717  1
  Te2-  Te140  1  0.00571392  0.16838396  0.00765204  1
  Te2-  Te141  1  -0.00281650  0.17012814  0.33492659  1
  Te2-  Te142  1  0.01337045  0.16559624  0.66122820  1
  Te2-  Te143  1  0.00231975  0.50698114  -0.00373929  1
  Te2-  Te144  1  0.00607852  0.50647042  0.33690334  1
  Te2-  Te145  1  0.00146788  0.50090164  0.66415674  1
  Te2-  Te146  1  0.00442192  0.83490695  0.00702536  1
  Te2-  Te147  1  0.00603029  0.83049387  0.32616476  1
  Te2-  Te148  1  -0.00918325  0.83457460  0.66141471  1
  Te2-  Te149  1  0.33559256  0.16446054  -0.01208517  1
  Te2-  Te150  1  0.32937131  0.17827135  0.34504965  1
  Te2-  Te151  1  0.31932357  0.17537626  0.66673976  1
  Te2-  Te152  1  0.33453030  0.50041105  -0.00388804  1
  Te2-  Te153  1  0.33041389  0.48461835  0.34038545  1
  Te2-  Te154  1  0.33368670  0.49814762  0.66509833  1
  Te2-  Te155  1  0.33043469  0.83785329  0.00778734  1
  Te2-  Te156  1  0.33106379  0.83604968  0.33129761  1
  Te2-  Te157  1  0.33098888  0.83216264  0.66787604  1
  Te2-  Te158  1  0.66008127  0.16294121  0.00388046  1
  Te2-  Te159  1  0.66741088  0.17223609  0.32938935  1
  Te2-  Te160  1  0.65772109  0.16636672  0.66488749  1
  Te2-  Te161  1  0.66653094  0.50284401  -0.00326898  1
  Te2-  Te162  1  0.66494231  0.49092782  0.33933443  1
  Te2-  Te163  1  0.66473631  0.50230505  0.66080559  1
  Te2-  Te164  1  0.66663878  0.83801998  0.01211689  1
  Te2-  Te165  1  0.67013619  0.84348841  0.33380268  1
  Te2-  Te166  1  0.67623266  0.84373682  0.66187778  1
  Te2-  Te167  1  -0.00135774  0.00067425  0.16205922  1
  Te2-  Te168  1  -0.00021213  -0.00407127  0.49781410  1
  Te2-  Te169  1  -0.01085122  -0.01211342  0.82833970  1
  Te2-  Te170  1  -0.00092254  0.33385309  0.16863630  1
  Te2-  Te171  1  0.00079391  0.32914618  0.49648488  1
  Te2-  Te172  1  0.00165492  0.32834844  0.82865084  1
  Te2-  Te173  1  0.00486170  0.66644449  0.17065722  1
  Te2-  Te174  1  -0.00133372  0.67684175  0.49019180  1
  Te2-  Te175  1  -0.00263830  0.68838090  0.83756741  1
  Te2-  Te176  1  0.33485891  -0.00196630  0.16535217  1
  Te2-  Te177  1  0.33213320  0.00783262  0.51086758  1
  Te2-  Te178  1  0.33385981  0.00862149  0.82192475  1
  Te2-  Te179  1  0.34046236  0.33285136  0.16677427  1
  Te2-  Te180  1  0.34449395  0.32671267  0.50240131  1
  Te2-  Te181  1  0.33292537  0.33787266  0.83189554  1
  Te2-  Te182  1  0.33583554  0.66702195  0.18066322  1
  Te2-  Te183  1  0.34592751  0.66769896  0.48661968  1
  Te2-  Te184  1  0.33183587  0.66388035  0.83665824  1
  Te2-  Te185  1  0.66885637  0.00196598  0.17113897  1
  Te2-  Te186  1  0.67271618  0.00215258  0.51224948  1
  Te2-  Te187  1  0.67435233  -0.00889612  0.83210826  1
  Te2-  Te188  1  0.66322111  0.33148612  0.17662706  1
  Te2-  Te189  1  0.65693438  0.33302382  0.49299523  1
  Te2-  Te190  1  0.66366035  0.33901359  0.83033522  1
  Te2-  Te191  1  0.66544856  0.67001407  0.18007753  1
  Te2-  Te192  1  0.65852518  0.67627616  0.48990508  1
  Te2-  Te193  1  0.66804535  0.66049422  0.83131627  1
  Pb2+  Pb194  1  0.48766036  0.16744856  0.66478699  1
  Pb2+  Pb195  1  0.33453076  0.66478534  0.66441067  1
  Pb2+  Pb196  1  0.49812051  0.34075585  0.82543772  1
  Pb2+  Pb197  1  0.33490688  0.00819316  0.33580141  1
  Pb2+  Pb198  1  0.16614565  0.33122668  0.83542244  1
  Pb2+  Pb199  1  0.83174419  0.16533323  -0.00910859  1
  Pb2+  Pb200  1  0.83164713  0.33282586  0.17620536  1
  Pb2+  Pb201  1  0.16347454  0.67357158  0.83474066  1
  Pb2+  Pb202  1  0.33572003  0.67030131  0.00704263  1
  Pb2+  Pb203  1  0.50093599  -0.00144606  0.17245749  1
  Pb2+  Pb204  1  0.83727999  0.50161983  0.33450233  1
  Pb2+  Pb205  1  0.50087037  0.50405279  -0.00457316  1
  Pb2+  Pb206  1  0.16880232  -0.00183970  0.17112398  1
  Pb2+  Pb207  1  0.83594647  0.50294830  -0.00412834  1
  Pb2+  Pb208  1  0.17382520  0.34196494  0.49520633  1
  Pb2+  Pb209  1  0.66538784  0.33377826  0.00315174  1
  Pb2+  Pb210  1  0.83098541  0.33762667  0.82056297  1
  Pb2+  Pb211  1  0.34151507  0.83655865  0.83729246  1
  Pb2+  Pb212  1  0.67343540  0.67554765  0.65901305  1
  Pb2+  Pb213  1  0.33165290  0.83558977  0.49979386  1
  Pb2+  Pb214  1  0.16651182  0.49542447  0.00106038  1
  Pb2+  Pb215  1  0.16033466  0.83475790  0.66880223  1
