# generated using pymatgen
data_In22Ag21Sn22Bi21(Te54Pb11)2
_symmetry_space_group_name_H-M   'P 1'
_cell_length_a   19.10854265
_cell_length_b   19.12958805
_cell_length_c   19.10877431
_cell_angle_alpha   90.01232965
_cell_angle_beta   90.00397043
_cell_angle_gamma   89.98800192
_symmetry_Int_Tables_number   1
_chemical_formula_structural   In22Ag21Sn22Bi21(Te54Pb11)2
_chemical_formula_sum   'In22 Ag21 Sn22 Bi21 Te108 Pb22'
_cell_volume   6984.99330531
_cell_formula_units_Z   1
loop_
 _symmetry_equiv_pos_site_id
 _symmetry_equiv_pos_as_xyz
  1  'x, y, z'
loop_
 _atom_type_symbol
 _atom_type_oxidation_number
  In3+  3.0
  Ag+  1.0
  Sn2+  2.0
  Bi3+  3.0
  Te2-  -2.0
  Pb2+  2.0
loop_
 _atom_site_type_symbol
 _atom_site_label
 _atom_site_symmetry_multiplicity
 _atom_site_fract_x
 _atom_site_fract_y
 _atom_site_fract_z
 _atom_site_occupancy
  In3+  In0  1  0.80968517  0.16869699  0.67262100  1
  In3+  In1  1  0.19138763  0.33943638  0.16640011  1
  In3+  In2  1  0.50048579  0.66029915  0.16708581  1
  In3+  In3  1  0.33048970  0.49728177  0.16998256  1
  In3+  In4  1  0.02609379  0.32386262  0.66549115  1
  In3+  In5  1  0.64833914  0.66350928  0.65932492  1
  In3+  In6  1  0.17492529  0.82380967  0.00279840  1
  In3+  In7  1  0.49893162  0.49797463  0.32870925  1
  In3+  In8  1  0.00641690  0.64648255  0.66562591  1
  In3+  In9  1  0.81419479  -0.00014472  0.16451496  1
  In3+  In10  1  0.16731498  0.03019400  0.50933719  1
  In3+  In11  1  0.65907481  0.00389664  0.01464180  1
  In3+  In12  1  0.66458059  0.65541156  0.00476275  1
  In3+  In13  1  0.47971042  0.17774019  0.69098357  1
  In3+  In14  1  -0.00717236  0.49536488  0.16284361  1
  In3+  In15  1  0.33726662  0.66360598  0.67897861  1
  In3+  In16  1  0.16497257  0.65165730  0.16047191  1
  In3+  In17  1  0.48226749  0.02738501  0.16591728  1
  In3+  In18  1  0.33414149  0.83427815  0.16217464  1
  In3+  In19  1  0.50868865  0.82899676  0.00044473  1
  In3+  In20  1  0.33985547  0.33984662  -0.01062325  1
  In3+  In21  1  0.33461878  0.83224817  0.82833606  1
  Ag+  Ag22  1  0.16604087  0.49681274  0.34573518  1
  Ag+  Ag23  1  0.63933167  0.49303697  0.17168435  1
  Ag+  Ag24  1  0.18855870  0.33461829  0.53311277  1
  Ag+  Ag25  1  0.16971531  0.50778267  0.00251227  1
  Ag+  Ag26  1  0.80607158  0.47136658  0.00751584  1
  Ag+  Ag27  1  0.51468408  0.19305322  -0.01060458  1
  Ag+  Ag28  1  0.51992545  0.66873887  0.83781142  1
  Ag+  Ag29  1  0.16943974  -0.03016037  0.19798724  1
  Ag+  Ag30  1  0.50314539  0.69028886  0.47261024  1
  Ag+  Ag31  1  0.50171200  0.33841971  0.14787822  1
  Ag+  Ag32  1  0.64237175  0.14646420  0.16541782  1
  Ag+  Ag33  1  0.32970557  0.31126315  0.65384929  1
  Ag+  Ag34  1  0.18162963  0.64015008  0.80895687  1
  Ag+  Ag35  1  0.68070771  0.35565909  0.00458552  1
  Ag+  Ag36  1  0.63410895  0.02288915  0.66166495  1
  Ag+  Ag37  1  0.17893404  0.20023875  0.64134873  1
  Ag+  Ag38  1  0.16729127  0.51244320  0.64317616  1
  Ag+  Ag39  1  0.33089169  0.01582070  0.65368970  1
  Ag+  Ag40  1  0.51829516  0.30569170  0.85639358  1
  Ag+  Ag41  1  0.66640465  0.85472543  0.49321637  1
  Ag+  Ag42  1  0.33419250  0.19232356  0.82978438  1
  Sn2+  Sn43  1  0.83702834  0.50248884  0.32033686  1
  Sn2+  Sn44  1  0.00798380  0.33855869  0.33368076  1
  Sn2+  Sn45  1  0.83258737  -0.00045640  0.49904794  1
  Sn2+  Sn46  1  0.17550988  0.65467412  0.50093939  1
  Sn2+  Sn47  1  0.16169216  0.82330836  0.33942423  1
  Sn2+  Sn48  1  0.66544669  0.83463716  0.82277231  1
  Sn2+  Sn49  1  0.66576702  0.33298877  0.30853875  1
  Sn2+  Sn50  1  0.49775995  -0.00701288  0.50418582  1
  Sn2+  Sn51  1  0.49726802  0.49690868  -0.00555870  1
  Sn2+  Sn52  1  -0.00624407  0.66156937  -0.00259079  1
  Sn2+  Sn53  1  0.16576500  0.83265395  0.66815699  1
  Sn2+  Sn54  1  0.00653037  0.50146902  0.83886566  1
  Sn2+  Sn55  1  0.84452651  0.49841448  0.67744790  1
  Sn2+  Sn56  1  0.83597967  0.66531749  0.16617067  1
  Sn2+  Sn57  1  0.50074542  0.17670148  0.32765805  1
  Sn2+  Sn58  1  0.82785349  0.83623753  0.33968951  1
  Sn2+  Sn59  1  -0.00278507  0.82931337  0.50573699  1
  Sn2+  Sn60  1  0.00881679  -0.00175894  0.32916947  1
  Sn2+  Sn61  1  0.66134146  0.16606851  0.49049044  1
  Sn2+  Sn62  1  0.00795458  0.66474623  0.33973500  1
  Sn2+  Sn63  1  0.33638577  0.16941304  0.15448574  1
  Sn2+  Sn64  1  0.81562084  0.66801028  0.50487316  1
  Bi3+  Bi65  1  0.83122904  0.33541987  0.50239593  1
  Bi3+  Bi66  1  0.83366958  0.83574250  0.00395984  1
  Bi3+  Bi67  1  0.66548103  0.49678633  0.49410234  1
  Bi3+  Bi68  1  0.50089844  0.83325323  0.66854234  1
  Bi3+  Bi69  1  0.33324728  0.50369046  0.83569088  1
  Bi3+  Bi70  1  0.83277861  0.66309384  0.83486686  1
  Bi3+  Bi71  1  0.33498784  0.50232917  0.50014008  1
  Bi3+  Bi72  1  0.01116037  0.00303175  0.66562233  1
  Bi3+  Bi73  1  0.83104787  -0.00007339  0.82639338  1
  Bi3+  Bi74  1  0.33490268  0.00062587  0.33694727  1
  Bi3+  Bi75  1  0.17644037  0.16625842  -0.00269897  1
  Bi3+  Bi76  1  0.00200632  0.16871319  0.16611953  1
  Bi3+  Bi77  1  0.49207828  0.49788462  0.66704974  1
  Bi3+  Bi78  1  0.82491072  0.16210760  0.00360743  1
  Bi3+  Bi79  1  0.82682319  0.33518539  0.83019082  1
  Bi3+  Bi80  1  0.83066495  0.16909168  0.33322154  1
  Bi3+  Bi81  1  0.17162858  -0.00214303  0.83254074  1
  Bi3+  Bi82  1  0.33016976  0.66552297  0.33393457  1
  Bi3+  Bi83  1  0.33243860  0.00154712  -0.00049175  1
  Bi3+  Bi84  1  0.17043336  0.33707976  0.84269791  1
  Bi3+  Bi85  1  0.50066623  0.33101383  0.50154132  1
  Te2-  Te86  1  0.16713445  0.17945705  0.15949995  1
  Te2-  Te87  1  0.16921785  0.18555310  0.49503762  1
  Te2-  Te88  1  0.18217531  0.16753725  0.83783893  1
  Te2-  Te89  1  0.17443257  0.49711607  0.15323023  1
  Te2-  Te90  1  0.17099427  0.48945419  0.49455987  1
  Te2-  Te91  1  0.16908284  0.49901091  0.84923579  1
  Te2-  Te92  1  0.17475324  0.82662631  0.16408978  1
  Te2-  Te93  1  0.16536685  0.81634550  0.49928768  1
  Te2-  Te94  1  0.17470238  0.83498688  0.84034078  1
  Te2-  Te95  1  0.49824527  0.17785194  0.15979734  1
  Te2-  Te96  1  0.50404958  0.16663638  0.49492218  1
  Te2-  Te97  1  0.48958902  0.16258021  0.84019107  1
  Te2-  Te98  1  0.49162998  0.50307503  0.16671775  1
  Te2-  Te99  1  0.50022906  0.49459240  0.50299130  1
  Te2-  Te100  1  0.49498897  0.51429399  0.82794002  1
  Te2-  Te101  1  0.49510434  0.81973736  0.16004781  1
  Te2-  Te102  1  0.50993953  0.83538083  0.50296721  1
  Te2-  Te103  1  0.49629301  0.82135502  0.83404012  1
  Te2-  Te104  1  0.83756973  0.16148189  0.16687057  1
  Te2-  Te105  1  0.82718988  0.16940839  0.49819680  1
  Te2-  Te106  1  0.83575931  0.16559045  0.83557868  1
  Te2-  Te107  1  0.83931903  0.50593655  0.15153926  1
  Te2-  Te108  1  0.82917506  0.49978087  0.50110586  1
  Te2-  Te109  1  0.83422695  0.49850061  0.84661125  1
  Te2-  Te110  1  0.83393045  0.83778840  0.16763890  1
  Te2-  Te111  1  0.82084433  0.82923775  0.49824420  1
  Te2-  Te112  1  0.83366877  0.83386182  0.83614825  1
  Te2-  Te113  1  0.17028806  0.00103353  -0.00350077  1
  Te2-  Te114  1  0.17235577  -0.00334426  0.34504370  1
  Te2-  Te115  1  0.17788927  -0.00653087  0.66630343  1
  Te2-  Te116  1  0.17335287  0.32943714  0.00625499  1
  Te2-  Te117  1  0.16471659  0.34484129  0.31920622  1
  Te2-  Te118  1  0.17811007  0.34229409  0.68051332  1
  Te2-  Te119  1  0.16438856  0.67016765  0.00764942  1
  Te2-  Te120  1  0.16795041  0.65449778  0.32809793  1
  Te2-  Te121  1  0.16116780  0.66005654  0.66566536  1
  Te2-  Te122  1  0.49569889  -0.01247433  0.00858006  1
  Te2-  Te123  1  0.49598292  0.00461824  0.32900068  1
  Te2-  Te124  1  0.48698537  -0.00491997  0.66334245  1
  Te2-  Te125  1  0.49195679  0.33815765  -0.00208038  1
  Te2-  Te126  1  0.50026396  0.33970766  0.33787262  1
  Te2-  Te127  1  0.48550856  0.33230489  0.66743884  1
  Te2-  Te128  1  0.50694100  0.67173751  -0.00661988  1
  Te2-  Te129  1  0.49670815  0.66143813  0.32666017  1
  Te2-  Te130  1  0.49510902  0.66389051  0.67875217  1
  Te2-  Te131  1  0.82792761  0.00077339  -0.00614173  1
  Te2-  Te132  1  0.83739697  0.00398044  0.33407569  1
  Te2-  Te133  1  0.84502156  0.00817372  0.66584037  1
  Te2-  Te134  1  0.82587944  0.32436054  -0.00531877  1
  Te2-  Te135  1  0.83574468  0.33464014  0.33732023  1
  Te2-  Te136  1  0.82857544  0.33242289  0.66843703  1
  Te2-  Te137  1  0.82442433  0.67546318  -0.00221950  1
  Te2-  Te138  1  0.84024748  0.66218613  0.33262023  1
  Te2-  Te139  1  0.84353808  0.65902972  0.67205197  1
  Te2-  Te140  1  -0.00203516  0.16902276  0.00348384  1
  Te2-  Te141  1  -0.00365364  0.16794508  0.32999089  1
  Te2-  Te142  1  0.02592770  0.16799566  0.66546031  1
  Te2-  Te143  1  0.01323103  0.50573803  0.00771109  1
  Te2-  Te144  1  0.00853234  0.49944678  0.32240245  1
  Te2-  Te145  1  0.01296863  0.49381936  0.66769276  1
  Te2-  Te146  1  -0.00276829  0.83137194  0.00350247  1
  Te2-  Te147  1  -0.00232286  0.83212392  0.33767591  1
  Te2-  Te148  1  -0.00051618  0.84069761  0.66548189  1
  Te2-  Te149  1  0.34006664  0.16395448  -0.00301412  1
  Te2-  Te150  1  0.33523429  0.16290134  0.32848991  1
  Te2-  Te151  1  0.33086888  0.16321412  0.67763013  1
  Te2-  Te152  1  0.32798707  0.49801085  0.00306315  1
  Te2-  Te153  1  0.32484922  0.50299642  0.33048947  1
  Te2-  Te154  1  0.32357970  0.50949147  0.66615450  1
  Te2-  Te155  1  0.33568856  0.83558048  0.00385034  1
  Te2-  Te156  1  0.33121153  0.83312977  0.32758529  1
  Te2-  Te157  1  0.33549855  0.82053965  0.66860200  1
  Te2-  Te158  1  0.65972150  0.15702306  0.01116504  1
  Te2-  Te159  1  0.66968704  0.16923128  0.31630472  1
  Te2-  Te160  1  0.65573446  0.16870110  0.66708220  1
  Te2-  Te161  1  0.66117067  0.50241826  0.01035920  1
  Te2-  Te162  1  0.66795843  0.49889416  0.32600911  1
  Te2-  Te163  1  0.66369831  0.50557582  0.66314124  1
  Te2-  Te164  1  0.66719453  0.84655161  -0.00452109  1
  Te2-  Te165  1  0.66768348  0.83427191  0.34165850  1
  Te2-  Te166  1  0.66236026  0.81873699  0.65812901  1
  Te2-  Te167  1  0.02297944  0.00431943  0.17236474  1
  Te2-  Te168  1  0.00884036  -0.00281839  0.50201893  1
  Te2-  Te169  1  0.00113155  -0.00052254  0.83145728  1
  Te2-  Te170  1  -0.00785110  0.33620480  0.16588526  1
  Te2-  Te171  1  -0.00668013  0.33459952  0.50840802  1
  Te2-  Te172  1  -0.00265977  0.33502620  0.82767875  1
  Te2-  Te173  1  0.00607669  0.66137488  0.16739659  1
  Te2-  Te174  1  -0.00243405  0.66701841  0.50824480  1
  Te2-  Te175  1  -0.00336157  0.66224469  0.82795277  1
  Te2-  Te176  1  0.32418853  -0.00395151  0.16967004  1
  Te2-  Te177  1  0.32638403  -0.00168496  0.50358114  1
  Te2-  Te178  1  0.33305968  -0.01253616  0.83578045  1
  Te2-  Te179  1  0.34677793  0.33833952  0.16576568  1
  Te2-  Te180  1  0.33591430  0.33781487  0.50622188  1
  Te2-  Te181  1  0.33496991  0.34184518  0.83766754  1
  Te2-  Te182  1  0.33383095  0.66298458  0.16994470  1
  Te2-  Te183  1  0.34926427  0.66267519  0.49423534  1
  Te2-  Te184  1  0.32288559  0.67056187  0.83463336  1
  Te2-  Te185  1  0.65285629  -0.00246215  0.16966316  1
  Te2-  Te186  1  0.66969602  0.00183035  0.51428476  1
  Te2-  Te187  1  0.67073921  -0.00329466  0.80948911  1
  Te2-  Te188  1  0.65478701  0.34582318  0.15594751  1
  Te2-  Te189  1  0.66610779  0.33391242  0.49555086  1
  Te2-  Te190  1  0.66347600  0.33314002  0.84278810  1
  Te2-  Te191  1  0.66239451  0.65984898  0.16117912  1
  Te2-  Te192  1  0.65213429  0.65721964  0.50205807  1
  Te2-  Te193  1  0.66939617  0.67048550  0.83602966  1
  Pb2+  Pb194  1  -0.00437147  0.16593353  0.50190829  1
  Pb2+  Pb195  1  0.82077721  0.33552144  0.16721860  1
  Pb2+  Pb196  1  0.16686272  0.17135338  0.32609622  1
  Pb2+  Pb197  1  0.65592994  0.33622457  0.66825242  1
  Pb2+  Pb198  1  0.01460924  0.16811913  0.83184801  1
  Pb2+  Pb199  1  0.00033903  0.34086502  -0.00101166  1
  Pb2+  Pb200  1  0.66459470  0.82802975  0.16508331  1
  Pb2+  Pb201  1  0.66346045  0.16234154  0.84144470  1
  Pb2+  Pb202  1  0.33224014  0.83046180  0.50003894  1
  Pb2+  Pb203  1  0.00184633  0.00049610  0.00713052  1
  Pb2+  Pb204  1  0.33796450  0.16622582  0.50649073  1
  Pb2+  Pb205  1  0.33231923  0.33466424  0.33658715  1
  Pb2+  Pb206  1  0.82986131  0.83220058  0.66560879  1
  Pb2+  Pb207  1  0.66313382  0.50112053  0.83703933  1
  Pb2+  Pb208  1  0.33661859  0.66541847  0.00190242  1
  Pb2+  Pb209  1  0.49861995  0.83556952  0.33007430  1
  Pb2+  Pb210  1  0.66780547  0.00354881  0.34626596  1
  Pb2+  Pb211  1  0.00740902  0.82845683  0.83410376  1
  Pb2+  Pb212  1  0.00588999  0.83111438  0.17076979  1
  Pb2+  Pb213  1  0.50160695  -0.00806474  0.83512014  1
  Pb2+  Pb214  1  0.00191277  0.50084565  0.49519118  1
  Pb2+  Pb215  1  0.67174368  0.66517795  0.33306467  1
