# generated using pymatgen
data_In22Ag21Sn22Bi21(Te54Pb11)2
_symmetry_space_group_name_H-M   'P 1'
_cell_length_a   19.15125992
_cell_length_b   19.15880543
_cell_length_c   19.16815738
_cell_angle_alpha   90.00318000
_cell_angle_beta   89.98942887
_cell_angle_gamma   90.00514482
_symmetry_Int_Tables_number   1
_chemical_formula_structural   In22Ag21Sn22Bi21(Te54Pb11)2
_chemical_formula_sum   'In22 Ag21 Sn22 Bi21 Te108 Pb22'
_cell_volume   7033.08933609
_cell_formula_units_Z   1
loop_
 _symmetry_equiv_pos_site_id
 _symmetry_equiv_pos_as_xyz
  1  'x, y, z'
loop_
 _atom_type_symbol
 _atom_type_oxidation_number
  In3+  3.0
  Ag+  1.0
  Sn2+  2.0
  Bi3+  3.0
  Te2-  -2.0
  Pb2+  2.0
loop_
 _atom_site_type_symbol
 _atom_site_label
 _atom_site_symmetry_multiplicity
 _atom_site_fract_x
 _atom_site_fract_y
 _atom_site_fract_z
 _atom_site_occupancy
  In3+  In0  1  0.82101116  0.32009574  0.17087148  1
  In3+  In1  1  0.66848408  0.16363114  0.81994491  1
  In3+  In2  1  0.00512789  0.01749830  0.32904302  1
  In3+  In3  1  0.83972908  0.83722181  0.31961843  1
  In3+  In4  1  0.30556205  0.83642073  0.50183633  1
  In3+  In5  1  0.14742666  0.16721710  0.32655571  1
  In3+  In6  1  0.64885129  0.16873275  0.16502286  1
  In3+  In7  1  0.00186064  0.33232831  -0.00046121  1
  In3+  In8  1  0.84049429  0.32510059  0.51708251  1
  In3+  In9  1  0.15667764  0.32840749  0.50790501  1
  In3+  In10  1  0.17810108  0.16969446  0.00378147  1
  In3+  In11  1  0.32185049  0.49559494  0.84771232  1
  In3+  In12  1  0.84191307  -0.00424705  0.50348962  1
  In3+  In13  1  0.66986763  0.47523000  0.51941297  1
  In3+  In14  1  0.30289860  0.32766690  0.33545507  1
  In3+  In15  1  0.50103141  0.33160566  0.81796035  1
  In3+  In16  1  0.50800957  0.00530764  0.50285957  1
  In3+  In17  1  -0.00070467  0.48055851  0.16616704  1
  In3+  In18  1  0.82948064  0.68860080  0.50668177  1
  In3+  In19  1  0.16814501  0.32738361  0.14792517  1
  In3+  In20  1  0.66180983  0.84532211  0.50356368  1
  In3+  In21  1  0.66742904  0.85036486  0.14827859  1
  Ag+  Ag22  1  0.85849269  0.84678200  0.64954752  1
  Ag+  Ag23  1  0.00346388  -0.00816827  0.68927985  1
  Ag+  Ag24  1  0.00258298  0.85433010  0.47518615  1
  Ag+  Ag25  1  0.64557539  -0.00102718  -0.02516902  1
  Ag+  Ag26  1  0.18851970  0.51611125  0.00787594  1
  Ag+  Ag27  1  -0.00104471  0.31010999  0.30820666  1
  Ag+  Ag28  1  0.18955950  0.31130652  0.85309211  1
  Ag+  Ag29  1  0.53540682  0.63741726  0.51977676  1
  Ag+  Ag30  1  0.36306533  0.32816584  -0.02432295  1
  Ag+  Ag31  1  0.03291290  0.86894996  0.13949335  1
  Ag+  Ag32  1  0.02222818  0.14873512  0.50536442  1
  Ag+  Ag33  1  0.30011936  0.47223670  0.14353703  1
  Ag+  Ag34  1  0.52497194  0.16666712  0.67837560  1
  Ag+  Ag35  1  0.16948012  -0.02688758  0.18471018  1
  Ag+  Ag36  1  0.53037732  0.02373488  0.13393915  1
  Ag+  Ag37  1  0.19403638  0.87545843  0.03129712  1
  Ag+  Ag38  1  0.00603573  0.15853539  0.14209993  1
  Ag+  Ag39  1  0.63429240  0.46454187  0.81367425  1
  Ag+  Ag40  1  0.17860213  0.02142817  0.85586991  1
  Ag+  Ag41  1  0.65386090  0.32860283  0.68514739  1
  Ag+  Ag42  1  0.67289922  0.15950817  0.51814614  1
  Sn2+  Sn43  1  0.32422475  0.65778906  0.00133694  1
  Sn2+  Sn44  1  0.34080980  0.66847535  0.66432135  1
  Sn2+  Sn45  1  0.83144386  0.16732747  0.33862369  1
  Sn2+  Sn46  1  0.00014335  0.16715885  0.82259468  1
  Sn2+  Sn47  1  0.66524834  0.32419640  0.00015216  1
  Sn2+  Sn48  1  0.66887501  0.50193074  0.15319218  1
  Sn2+  Sn49  1  0.32043639  0.00003917  0.67081138  1
  Sn2+  Sn50  1  0.33627795  0.50869524  0.49280055  1
  Sn2+  Sn51  1  0.49627694  0.32615173  0.50044627  1
  Sn2+  Sn52  1  0.66346194  0.83338182  0.82484888  1
  Sn2+  Sn53  1  0.48883875  0.00265268  0.82190389  1
  Sn2+  Sn54  1  0.67999089  0.33363778  0.34291755  1
  Sn2+  Sn55  1  0.16256027  0.84287455  0.67633790  1
  Sn2+  Sn56  1  0.83699443  0.66326106  0.17307798  1
  Sn2+  Sn57  1  0.67020008  0.66555251  0.66727721  1
  Sn2+  Sn58  1  0.67312881  0.00405666  0.66977328  1
  Sn2+  Sn59  1  0.83449618  0.16048091  0.66013092  1
  Sn2+  Sn60  1  0.66157185  0.66917934  0.00446399  1
  Sn2+  Sn61  1  0.31998020  0.15979719  0.16757641  1
  Sn2+  Sn62  1  0.32161079  0.82787596  0.83679504  1
  Sn2+  Sn63  1  0.83960216  0.83701871  -0.00006013  1
  Sn2+  Sn64  1  0.16783558  0.49235784  0.32952174  1
  Bi3+  Bi65  1  -0.00453175  0.32824325  0.66880332  1
  Bi3+  Bi66  1  0.66608193  0.66621279  0.33416561  1
  Bi3+  Bi67  1  0.50258008  0.16944214  0.33855533  1
  Bi3+  Bi68  1  0.49817701  0.84399616  0.66402126  1
  Bi3+  Bi69  1  0.83115648  0.50224473  -0.00117901  1
  Bi3+  Bi70  1  0.15999120  0.16471740  0.66441130  1
  Bi3+  Bi71  1  0.16884781  0.66411093  0.83297123  1
  Bi3+  Bi72  1  -0.00282484  0.66471886  0.33418221  1
  Bi3+  Bi73  1  0.16301975  0.66097857  0.50024287  1
  Bi3+  Bi74  1  0.66792786  -0.00032220  0.34000166  1
  Bi3+  Bi75  1  0.83420944  0.16808237  0.00357883  1
  Bi3+  Bi76  1  0.82884662  0.67225382  0.83536808  1
  Bi3+  Bi77  1  -0.00142468  0.00398430  0.00174718  1
  Bi3+  Bi78  1  0.00001104  0.49819874  0.83606428  1
  Bi3+  Bi79  1  0.83437791  0.49822826  0.33068592  1
  Bi3+  Bi80  1  0.50483509  0.83417515  0.33777005  1
  Bi3+  Bi81  1  -0.00218636  0.83375777  0.83660088  1
  Bi3+  Bi82  1  0.50201100  0.66743169  0.17126745  1
  Bi3+  Bi83  1  0.50194310  0.50037280  0.33361475  1
  Bi3+  Bi84  1  0.33624574  0.66339021  0.33262169  1
  Bi3+  Bi85  1  -0.00438586  0.49984998  0.49678638  1
  Te2-  Te86  1  0.15444975  0.17562853  0.17290921  1
  Te2-  Te87  1  0.16826354  0.17296094  0.49588003  1
  Te2-  Te88  1  0.16017820  0.16678266  0.82898216  1
  Te2-  Te89  1  0.15620004  0.48997927  0.15698939  1
  Te2-  Te90  1  0.16186910  0.49951000  0.49874757  1
  Te2-  Te91  1  0.16504309  0.50220186  0.84528628  1
  Te2-  Te92  1  0.16974018  0.82675564  0.16746760  1
  Te2-  Te93  1  0.15046034  0.82644024  0.50265584  1
  Te2-  Te94  1  0.16187563  0.82447627  0.83588734  1
  Te2-  Te95  1  0.49319878  0.16118116  0.17144745  1
  Te2-  Te96  1  0.51059841  0.16227209  0.49865314  1
  Te2-  Te97  1  0.50418395  0.17241781  0.82553423  1
  Te2-  Te98  1  0.50253720  0.50285605  0.17222676  1
  Te2-  Te99  1  0.51070652  0.49572167  0.49538831  1
  Te2-  Te100  1  0.49258842  0.49106800  0.83258497  1
  Te2-  Te101  1  0.50817292  0.83316117  0.17458551  1
  Te2-  Te102  1  0.50621512  0.84370846  0.50070384  1
  Te2-  Te103  1  0.49606082  0.83491466  0.82591791  1
  Te2-  Te104  1  0.85537774  0.17220639  0.16771146  1
  Te2-  Te105  1  0.82023793  0.17467117  0.49632905  1
  Te2-  Te106  1  0.82630415  0.16791753  0.83767788  1
  Te2-  Te107  1  0.83809883  0.49661322  0.16512129  1
  Te2-  Te108  1  0.82944982  0.48665016  0.49385189  1
  Te2-  Te109  1  0.83508019  0.50778161  0.83541336  1
  Te2-  Te110  1  0.82580486  0.83323519  0.16764858  1
  Te2-  Te111  1  0.83893032  0.83969906  0.50429123  1
  Te2-  Te112  1  0.83114129  0.83306942  0.83329570  1
  Te2-  Te113  1  0.16008840  0.01559860  0.00065318  1
  Te2-  Te114  1  0.16273320  0.00850589  0.33075763  1
  Te2-  Te115  1  0.15342843  0.00325964  0.66553825  1
  Te2-  Te116  1  0.15640656  0.32276894  -0.00598651  1
  Te2-  Te117  1  0.15020584  0.33264598  0.34036172  1
  Te2-  Te118  1  0.16180892  0.33005662  0.66394785  1
  Te2-  Te119  1  0.16815171  0.66246511  -0.00267177  1
  Te2-  Te120  1  0.16902762  0.66230334  0.33711077  1
  Te2-  Te121  1  0.17076323  0.66862488  0.66552396  1
  Te2-  Te122  1  0.49940218  0.00038996  -0.00618494  1
  Te2-  Te123  1  0.50464251  -0.00070887  0.34083791  1
  Te2-  Te124  1  0.49764004  0.01067230  0.66326219  1
  Te2-  Te125  1  0.50707325  0.33108322  0.00557502  1
  Te2-  Te126  1  0.50966524  0.33460174  0.33740263  1
  Te2-  Te127  1  0.50601791  0.32047098  0.66530198  1
  Te2-  Te128  1  0.49739780  0.66725673  0.00372924  1
  Te2-  Te129  1  0.50127858  0.66872565  0.33843860  1
  Te2-  Te130  1  0.50118175  0.67352558  0.65770648  1
  Te2-  Te131  1  0.83744816  0.00427151  0.00255496  1
  Te2-  Te132  1  0.83032574  -0.00399430  0.34131452  1
  Te2-  Te133  1  0.84172334  -0.00308969  0.65877233  1
  Te2-  Te134  1  0.83238997  0.33484191  0.00945873  1
  Te2-  Te135  1  0.84712246  0.33749230  0.32227420  1
  Te2-  Te136  1  0.83075880  0.33328412  0.66982209  1
  Te2-  Te137  1  0.82694759  0.66762969  0.00124753  1
  Te2-  Te138  1  0.83037963  0.66438399  0.34076980  1
  Te2-  Te139  1  0.82987792  0.67777219  0.66871381  1
  Te2-  Te140  1  -0.00473784  0.17150677  -0.00727019  1
  Te2-  Te141  1  -0.00264142  0.17009680  0.35447184  1
  Te2-  Te142  1  -0.00366231  0.16683333  0.65522768  1
  Te2-  Te143  1  -0.00712371  0.49346473  0.00025990  1
  Te2-  Te144  1  -0.00211519  0.50200546  0.33091993  1
  Te2-  Te145  1  0.00014591  0.49836027  0.66748429  1
  Te2-  Te146  1  -0.00090120  0.83739915  0.00026244  1
  Te2-  Te147  1  -0.00944708  0.82627881  0.33247531  1
  Te2-  Te148  1  0.00253251  0.84391948  0.67509108  1
  Te2-  Te149  1  0.33024831  0.18314278  0.00150097  1
  Te2-  Te150  1  0.33987837  0.17540471  0.33388713  1
  Te2-  Te151  1  0.32392089  0.16481808  0.66563598  1
  Te2-  Te152  1  0.33147066  0.48414673  0.00135490  1
  Te2-  Te153  1  0.33815777  0.50051098  0.33286091  1
  Te2-  Te154  1  0.33485029  0.50162548  0.65352435  1
  Te2-  Te155  1  0.33000865  0.83143226  -0.00307352  1
  Te2-  Te156  1  0.33670001  0.83088523  0.34103634  1
  Te2-  Te157  1  0.33551187  0.83611199  0.66204570  1
  Te2-  Te158  1  0.67347538  0.15381688  0.01377786  1
  Te2-  Te159  1  0.66452229  0.16459460  0.32019911  1
  Te2-  Te160  1  0.67203217  0.17432405  0.66620540  1
  Te2-  Te161  1  0.67032416  0.49845495  -0.00559277  1
  Te2-  Te162  1  0.66900678  0.50300833  0.32618605  1
  Te2-  Te163  1  0.66651303  0.49362575  0.67260451  1
  Te2-  Te164  1  0.66841056  0.84657155  -0.00341404  1
  Te2-  Te165  1  0.67111419  0.83159968  0.34651684  1
  Te2-  Te166  1  0.65974354  0.83716595  0.66076773  1
  Te2-  Te167  1  0.00876834  0.00808575  0.17484109  1
  Te2-  Te168  1  -0.00767868  0.00217143  0.48414091  1
  Te2-  Te169  1  0.00467240  -0.00163878  0.83780032  1
  Te2-  Te170  1  0.01291081  0.32896639  0.16272406  1
  Te2-  Te171  1  -0.00237029  0.33916938  0.50665521  1
  Te2-  Te172  1  0.00100673  0.33703480  0.83077821  1
  Te2-  Te173  1  -0.00477362  0.67026805  0.17301350  1
  Te2-  Te174  1  -0.00534902  0.66148346  0.49958654  1
  Te2-  Te175  1  -0.00219945  0.66393021  0.83484639  1
  Te2-  Te176  1  0.31789263  0.00344312  0.16778596  1
  Te2-  Te177  1  0.33006908  -0.00832680  0.50202421  1
  Te2-  Te178  1  0.32268338  -0.00318803  0.83166498  1
  Te2-  Te179  1  0.31952163  0.33158652  0.18112111  1
  Te2-  Te180  1  0.32806448  0.33746672  0.48965547  1
  Te2-  Te181  1  0.33234689  0.34029129  0.83134490  1
  Te2-  Te182  1  0.33881258  0.66260442  0.16936157  1
  Te2-  Te183  1  0.32734803  0.67486834  0.49660636  1
  Te2-  Te184  1  0.33292298  0.65824239  0.83315334  1
  Te2-  Te185  1  0.66818836  0.00017979  0.17679137  1
  Te2-  Te186  1  0.67014827  0.00837356  0.50234684  1
  Te2-  Te187  1  0.66252519  0.00715289  0.82883283  1
  Te2-  Te188  1  0.66822904  0.32997804  0.16818180  1
  Te2-  Te189  1  0.67002234  0.32708059  0.49857912  1
  Te2-  Te190  1  0.66184910  0.32298551  0.83378432  1
  Te2-  Te191  1  0.66534948  0.66965335  0.17039558  1
  Te2-  Te192  1  0.67612415  0.66734585  0.49827941  1
  Te2-  Te193  1  0.66723930  0.67087635  0.83451933  1
  Pb2+  Pb194  1  0.84018198  0.00492273  0.17041836  1
  Pb2+  Pb195  1  0.33692205  0.00503922  0.33143399  1
  Pb2+  Pb196  1  0.16893311  0.49914384  0.67403247  1
  Pb2+  Pb197  1  0.33201920  0.00540168  0.00286351  1
  Pb2+  Pb198  1  0.83344818  0.33662966  0.83854562  1
  Pb2+  Pb199  1  0.33406065  0.33274128  0.66070177  1
  Pb2+  Pb200  1  0.49942504  0.49703721  0.66548234  1
  Pb2+  Pb201  1  0.83644050  0.00099603  0.82955748  1
  Pb2+  Pb202  1  0.00162050  0.67752043  0.66639264  1
  Pb2+  Pb203  1  0.50487159  0.16595979  -0.00573515  1
  Pb2+  Pb204  1  0.15872868  0.83384361  0.33338410  1
  Pb2+  Pb205  1  0.16212373  0.00097092  0.50143007  1
  Pb2+  Pb206  1  0.49165960  0.33173213  0.17258291  1
  Pb2+  Pb207  1  0.83392742  0.50633264  0.66274345  1
  Pb2+  Pb208  1  0.49983238  0.83398190  0.00045967  1
  Pb2+  Pb209  1  0.50195790  0.66548912  0.82767666  1
  Pb2+  Pb210  1  0.16515734  0.65769507  0.16587861  1
  Pb2+  Pb211  1  0.33210553  0.16702210  0.83206710  1
  Pb2+  Pb212  1  0.34062404  0.83197827  0.16922187  1
  Pb2+  Pb213  1  -0.00225412  0.66703769  0.00663944  1
  Pb2+  Pb214  1  0.49954718  0.49950515  0.00294071  1
  Pb2+  Pb215  1  0.34033941  0.16487821  0.50114249  1
