# generated using pymatgen
data_In22Ag21Sn22Bi21(Te54Pb11)2
_symmetry_space_group_name_H-M   'P 1'
_cell_length_a   19.16136505
_cell_length_b   19.17366350
_cell_length_c   19.16966963
_cell_angle_alpha   90.00214454
_cell_angle_beta   89.99640207
_cell_angle_gamma   89.97682852
_symmetry_Int_Tables_number   1
_chemical_formula_structural   In22Ag21Sn22Bi21(Te54Pb11)2
_chemical_formula_sum   'In22 Ag21 Sn22 Bi21 Te108 Pb22'
_cell_volume   7042.81268135
_cell_formula_units_Z   1
loop_
 _symmetry_equiv_pos_site_id
 _symmetry_equiv_pos_as_xyz
  1  'x, y, z'
loop_
 _atom_type_symbol
 _atom_type_oxidation_number
  In3+  3.0
  Ag+  1.0
  Sn2+  2.0
  Bi3+  3.0
  Te2-  -2.0
  Pb2+  2.0
loop_
 _atom_site_type_symbol
 _atom_site_label
 _atom_site_symmetry_multiplicity
 _atom_site_fract_x
 _atom_site_fract_y
 _atom_site_fract_z
 _atom_site_occupancy
  In3+  In0  1  0.14195278  0.84076450  0.31943877  1
  In3+  In1  1  0.85289402  0.02360392  0.16960361  1
  In3+  In2  1  0.83345530  0.67186920  0.20268890  1
  In3+  In3  1  0.67465884  0.32469474  0.00113379  1
  In3+  In4  1  0.14297306  0.15259176  0.00308291  1
  In3+  In5  1  0.67653081  0.01319259  0.00229953  1
  In3+  In6  1  0.33641418  0.67593152  0.00747063  1
  In3+  In7  1  0.50128621  0.49254284  0.00177584  1
  In3+  In8  1  0.83506648  -0.00853856  0.47441061  1
  In3+  In9  1  0.34205546  0.84535779  0.50296906  1
  In3+  In10  1  0.50750830  0.01335619  0.16718243  1
  In3+  In11  1  0.67348991  0.14497673  0.17283502  1
  In3+  In12  1  0.51575296  0.67161842  0.50325361  1
  In3+  In13  1  0.83217441  0.16733782  0.65569822  1
  In3+  In14  1  0.66919211  0.48462312  0.83546119  1
  In3+  In15  1  0.49798247  0.00293871  0.81602749  1
  In3+  In16  1  0.17643786  0.16611759  0.65099875  1
  In3+  In17  1  0.67320756  0.66312740  -0.02702816  1
  In3+  In18  1  0.15520554  0.51734764  0.34141544  1
  In3+  In19  1  0.31898750  0.32662501  0.00227052  1
  In3+  In20  1  0.49806775  0.50364787  0.65186223  1
  In3+  In21  1  0.84049627  0.50441064  -0.01795981  1
  Ag+  Ag22  1  0.14200891  0.80850117  -0.01412712  1
  Ag+  Ag23  1  0.13942375  0.65115096  0.14534079  1
  Ag+  Ag24  1  0.83275627  0.86445937  0.31486996  1
  Ag+  Ag25  1  0.86419330  0.32989646  0.46965662  1
  Ag+  Ag26  1  0.50747496  0.31195209  0.13760819  1
  Ag+  Ag27  1  0.49413310  0.52525865  0.34939708  1
  Ag+  Ag28  1  -0.02164914  -0.01409404  0.00006868  1
  Ag+  Ag29  1  0.81493881  0.69340435  0.50522194  1
  Ag+  Ag30  1  -0.02579480  0.35432941  0.33644095  1
  Ag+  Ag31  1  0.83955811  0.30343307  0.82140311  1
  Ag+  Ag32  1  -0.02924773  -0.00251876  0.35927988  1
  Ag+  Ag33  1  0.67366470  0.00541459  0.64593868  1
  Ag+  Ag34  1  -0.03014919  0.47312531  0.49517273  1
  Ag+  Ag35  1  0.47179667  -0.02391460  0.52822839  1
  Ag+  Ag36  1  0.66436276  0.64290136  0.67470775  1
  Ag+  Ag37  1  0.81249469  0.01436815  0.81350296  1
  Ag+  Ag38  1  0.13401698  0.53150652  0.63968947  1
  Ag+  Ag39  1  0.84049406  0.14749294  0.00244582  1
  Ag+  Ag40  1  0.64959298  0.01942640  0.35302514  1
  Ag+  Ag41  1  0.31198589  -0.00465942  0.67186046  1
  Ag+  Ag42  1  0.85488237  0.15921913  0.35897133  1
  Sn2+  Sn43  1  0.15276098  0.16520356  0.32958073  1
  Sn2+  Sn44  1  0.67440083  0.32586870  0.67087655  1
  Sn2+  Sn45  1  0.16617860  0.33801042  0.49696458  1
  Sn2+  Sn46  1  -0.00073392  0.84046126  0.16625724  1
  Sn2+  Sn47  1  0.68213128  0.16491014  0.82960640  1
  Sn2+  Sn48  1  0.32791318  0.83553985  0.17828492  1
  Sn2+  Sn49  1  0.33990876  0.16675697  0.50057490  1
  Sn2+  Sn50  1  -0.01477596  0.00336638  0.68206327  1
  Sn2+  Sn51  1  -0.00421665  0.32793037  0.00707843  1
  Sn2+  Sn52  1  -0.00091503  0.16865785  0.49510228  1
  Sn2+  Sn53  1  0.17283605  0.50169481  -0.00189842  1
  Sn2+  Sn54  1  0.50149559  0.16485958  0.66597157  1
  Sn2+  Sn55  1  0.51489184  0.83875874  0.33157240  1
  Sn2+  Sn56  1  0.82907774  0.83784802  0.66779737  1
  Sn2+  Sn57  1  -0.00678485  0.16572409  0.82748361  1
  Sn2+  Sn58  1  0.83294587  0.67879812  0.81886861  1
  Sn2+  Sn59  1  0.50820154  0.16132209  -0.00624428  1
  Sn2+  Sn60  1  0.34061699  0.00117102  -0.00591012  1
  Sn2+  Sn61  1  0.82986122  0.49627203  0.65979367  1
  Sn2+  Sn62  1  0.14955888  0.00261296  0.83550300  1
  Sn2+  Sn63  1  0.50658384  0.32924747  0.83582383  1
  Sn2+  Sn64  1  0.50682510  0.66217778  0.16881614  1
  Bi3+  Bi65  1  0.17065025  0.67026951  0.49819216  1
  Bi3+  Bi66  1  0.66613615  0.49549422  0.50273456  1
  Bi3+  Bi67  1  0.82551280  0.49184605  0.33353429  1
  Bi3+  Bi68  1  0.33669317  0.50211287  0.16534144  1
  Bi3+  Bi69  1  0.33680476  0.33299168  0.33181470  1
  Bi3+  Bi70  1  0.66666872  0.82685648  0.16982302  1
  Bi3+  Bi71  1  0.33707243  0.49856720  0.83526526  1
  Bi3+  Bi72  1  0.49857104  0.32490390  0.50409996  1
  Bi3+  Bi73  1  0.33435384  0.50179186  0.49824734  1
  Bi3+  Bi74  1  0.00184702  0.50047673  0.17207101  1
  Bi3+  Bi75  1  0.49831554  0.16608622  0.33470115  1
  Bi3+  Bi76  1  0.50003171  0.83030204  0.00636942  1
  Bi3+  Bi77  1  -0.01040047  0.66671879  0.66263078  1
  Bi3+  Bi78  1  0.15733030  0.33002176  0.83594117  1
  Bi3+  Bi79  1  -0.00143305  0.83520004  0.83448081  1
  Bi3+  Bi80  1  0.16987355  -0.00382750  0.16151075  1
  Bi3+  Bi81  1  0.00357597  0.83371800  0.50001116  1
  Bi3+  Bi82  1  0.66888046  0.66619344  0.33720803  1
  Bi3+  Bi83  1  0.66702920  0.50175411  0.16345697  1
  Bi3+  Bi84  1  0.82997860  0.34069890  0.16297986  1
  Bi3+  Bi85  1  0.67155310  0.83949857  0.83289419  1
  Te2-  Te86  1  0.16742531  0.16650063  0.15985719  1
  Te2-  Te87  1  0.16937073  0.16497131  0.49687787  1
  Te2-  Te88  1  0.16436425  0.17034633  0.84988072  1
  Te2-  Te89  1  0.16798936  0.50817042  0.16958775  1
  Te2-  Te90  1  0.17428170  0.50404329  0.50114088  1
  Te2-  Te91  1  0.16951177  0.49066405  0.83310784  1
  Te2-  Te92  1  0.16740337  0.83409624  0.16775643  1
  Te2-  Te93  1  0.16686114  0.83350439  0.49552039  1
  Te2-  Te94  1  0.16406859  0.83514846  0.84220589  1
  Te2-  Te95  1  0.50937843  0.16786161  0.16772493  1
  Te2-  Te96  1  0.50077649  0.16045179  0.49838113  1
  Te2-  Te97  1  0.50638255  0.16087556  0.83198033  1
  Te2-  Te98  1  0.50241202  0.50237889  0.15764405  1
  Te2-  Te99  1  0.50041294  0.49494116  0.49570205  1
  Te2-  Te100  1  0.50393524  0.49548541  0.84152162  1
  Te2-  Te101  1  0.50197790  0.82738153  0.16903632  1
  Te2-  Te102  1  0.50041946  0.83494091  0.50062291  1
  Te2-  Te103  1  0.50591981  0.84007418  0.84053259  1
  Te2-  Te104  1  0.82446815  0.17612536  0.15247116  1
  Te2-  Te105  1  0.83876820  0.18216819  0.50254219  1
  Te2-  Te106  1  0.83570292  0.15999481  0.85203351  1
  Te2-  Te107  1  0.83449581  0.50482147  0.17098796  1
  Te2-  Te108  1  0.82446726  0.47635375  0.49640188  1
  Te2-  Te109  1  0.82398558  0.50807701  0.82909744  1
  Te2-  Te110  1  0.83202658  0.82592706  0.17366244  1
  Te2-  Te111  1  0.84172105  0.83883580  0.50232094  1
  Te2-  Te112  1  0.83531154  0.83971706  0.83605423  1
  Te2-  Te113  1  0.18101008  0.00523332  -0.00005526  1
  Te2-  Te114  1  0.16969307  -0.00576388  0.32373694  1
  Te2-  Te115  1  0.16328832  0.01059741  0.67310593  1
  Te2-  Te116  1  0.16481085  0.33386106  0.00140593  1
  Te2-  Te117  1  0.17772604  0.32584082  0.33391082  1
  Te2-  Te118  1  0.16673575  0.31975097  0.67275012  1
  Te2-  Te119  1  0.17223301  0.66617069  0.00333496  1
  Te2-  Te120  1  0.16675087  0.67768458  0.33344248  1
  Te2-  Te121  1  0.16573719  0.67076960  0.66668444  1
  Te2-  Te122  1  0.50182254  -0.00570800  0.01219383  1
  Te2-  Te123  1  0.50738960  0.00092894  0.32413660  1
  Te2-  Te124  1  0.51881096  0.00804287  0.66366264  1
  Te2-  Te125  1  0.51460725  0.33476681  -0.00662964  1
  Te2-  Te126  1  0.49695929  0.32706109  0.33979632  1
  Te2-  Te127  1  0.50302475  0.32857900  0.66833743  1
  Te2-  Te128  1  0.49973782  0.66713049  0.00057085  1
  Te2-  Te129  1  0.50684450  0.67059709  0.34238264  1
  Te2-  Te130  1  0.51333483  0.66504800  0.66001584  1
  Te2-  Te131  1  0.83005258  -0.00045696  0.01918762  1
  Te2-  Te132  1  0.82867289  0.01406784  0.32072721  1
  Te2-  Te133  1  0.82995676  0.01238223  0.66992511  1
  Te2-  Te134  1  0.82903588  0.35159601  0.00274462  1
  Te2-  Te135  1  0.83006138  0.32577698  0.32379493  1
  Te2-  Te136  1  0.83185654  0.32328490  0.67642373  1
  Te2-  Te137  1  0.82843287  0.65930942  -0.00761435  1
  Te2-  Te138  1  0.83174410  0.65462075  0.35810721  1
  Te2-  Te139  1  0.82906956  0.66672607  0.65516790  1
  Te2-  Te140  1  -0.00840910  0.17152484  0.00120573  1
  Te2-  Te141  1  -0.00149784  0.14780660  0.33529751  1
  Te2-  Te142  1  -0.00268203  0.16322627  0.66906231  1
  Te2-  Te143  1  0.00017629  0.49895980  0.00551151  1
  Te2-  Te144  1  -0.00448168  0.50066467  0.33873555  1
  Te2-  Te145  1  -0.00684600  0.50111615  0.65520614  1
  Te2-  Te146  1  -0.00028199  0.83714186  -0.00048360  1
  Te2-  Te147  1  -0.01247824  0.84642742  0.33514457  1
  Te2-  Te148  1  -0.00241018  0.83260405  0.66927832  1
  Te2-  Te149  1  0.34618670  0.17293061  0.00074127  1
  Te2-  Te150  1  0.33278028  0.16775598  0.33407455  1
  Te2-  Te151  1  0.32952553  0.15383108  0.66496897  1
  Te2-  Te152  1  0.33773682  0.49584338  -0.00044343  1
  Te2-  Te153  1  0.34731484  0.49628399  0.33028390  1
  Te2-  Te154  1  0.34153859  0.49969805  0.66905806  1
  Te2-  Te155  1  0.33851627  0.83055952  0.00567193  1
  Te2-  Te156  1  0.34427409  0.83280519  0.34368566  1
  Te2-  Te157  1  0.33411350  0.84175910  0.66299823  1
  Te2-  Te158  1  0.66770477  0.16847389  0.00668931  1
  Te2-  Te159  1  0.66300235  0.16359020  0.32410394  1
  Te2-  Te160  1  0.67530064  0.15801153  0.67197437  1
  Te2-  Te161  1  0.66488050  0.51177349  -0.00207037  1
  Te2-  Te162  1  0.65993706  0.50156393  0.33062289  1
  Te2-  Te163  1  0.66023571  0.49612445  0.66869534  1
  Te2-  Te164  1  0.66313029  0.82094048  0.00320763  1
  Te2-  Te165  1  0.68325689  0.82740260  0.33143008  1
  Te2-  Te166  1  0.67233977  0.85225383  0.67086664  1
  Te2-  Te167  1  0.00419568  -0.00035767  0.15057226  1
  Te2-  Te168  1  -0.01068138  -0.00242728  0.50723828  1
  Te2-  Te169  1  -0.00474969  -0.00414105  0.84881082  1
  Te2-  Te170  1  -0.00045504  0.33994646  0.17964681  1
  Te2-  Te171  1  0.01096551  0.33258507  0.48658580  1
  Te2-  Te172  1  -0.00854640  0.33425069  0.83638004  1
  Te2-  Te173  1  -0.00427882  0.66578670  0.16865556  1
  Te2-  Te174  1  0.00966853  0.67091127  0.50367100  1
  Te2-  Te175  1  -0.00032884  0.66720680  0.82885449  1
  Te2-  Te176  1  0.33474063  -0.00348217  0.16452357  1
  Te2-  Te177  1  0.32925234  -0.00232927  0.51051789  1
  Te2-  Te178  1  0.34397058  0.00002362  0.82325538  1
  Te2-  Te179  1  0.34907462  0.33937696  0.16049512  1
  Te2-  Te180  1  0.33560763  0.33686882  0.50252572  1
  Te2-  Te181  1  0.33280942  0.33708035  0.84143071  1
  Te2-  Te182  1  0.33761764  0.66314265  0.16251790  1
  Te2-  Te183  1  0.33533308  0.66271284  0.50041299  1
  Te2-  Te184  1  0.33701247  0.66210337  0.83544714  1
  Te2-  Te185  1  0.66390658  -0.01007683  0.15960886  1
  Te2-  Te186  1  0.68533696  0.00085277  0.49329245  1
  Te2-  Te187  1  0.67195140  -0.00130855  0.85110630  1
  Te2-  Te188  1  0.65807999  0.34290031  0.15638919  1
  Te2-  Te189  1  0.65968154  0.33402920  0.50494524  1
  Te2-  Te190  1  0.68098878  0.33617350  0.84275976  1
  Te2-  Te191  1  0.67417428  0.66393928  0.17108319  1
  Te2-  Te192  1  0.66936929  0.66036136  0.50483068  1
  Te2-  Te193  1  0.67020222  0.67640301  0.81905748  1
  Pb2+  Pb194  1  0.33262970  0.66547904  0.33082892  1
  Pb2+  Pb195  1  0.33464951  0.32884818  0.67156217  1
  Pb2+  Pb196  1  0.66274024  0.33033295  0.32946801  1
  Pb2+  Pb197  1  0.33311582  0.16472063  0.83413835  1
  Pb2+  Pb198  1  0.15851530  0.00004304  0.49434080  1
  Pb2+  Pb199  1  -0.00096726  0.33042306  0.66111292  1
  Pb2+  Pb200  1  0.33991589  0.66857611  0.66465248  1
  Pb2+  Pb201  1  0.50455508  0.83826946  0.66974944  1
  Pb2+  Pb202  1  0.16873830  0.66075648  0.83507335  1
  Pb2+  Pb203  1  -0.00086501  0.67378927  0.33748798  1
  Pb2+  Pb204  1  0.67025004  0.16684518  0.49983146  1
  Pb2+  Pb205  1  -0.00254618  0.17127974  0.17098600  1
  Pb2+  Pb206  1  0.33902667  -0.00233913  0.33773086  1
  Pb2+  Pb207  1  0.16576353  0.84104666  0.66842045  1
  Pb2+  Pb208  1  0.33676503  0.16591615  0.16649175  1
  Pb2+  Pb209  1  -0.00426440  0.49733890  0.82767426  1
  Pb2+  Pb210  1  0.50418182  0.66417280  0.83347090  1
  Pb2+  Pb211  1  -0.00402779  0.66788208  0.00067507  1
  Pb2+  Pb212  1  0.67023763  0.83569983  0.49998374  1
  Pb2+  Pb213  1  0.33304951  0.83605916  0.83855403  1
  Pb2+  Pb214  1  0.83058238  0.83090378  0.00783491  1
  Pb2+  Pb215  1  0.17241976  0.34093910  0.17103291  1
