# generated using pymatgen
data_In22Ag21Sn22Bi21(Te54Pb11)2
_symmetry_space_group_name_H-M   'P 1'
_cell_length_a   19.12189384
_cell_length_b   19.14624889
_cell_length_c   19.13387584
_cell_angle_alpha   90.00910209
_cell_angle_beta   89.99172774
_cell_angle_gamma   90.00706243
_symmetry_Int_Tables_number   1
_chemical_formula_structural   In22Ag21Sn22Bi21(Te54Pb11)2
_chemical_formula_sum   'In22 Ag21 Sn22 Bi21 Te108 Pb22'
_cell_volume   7005.15164236
_cell_formula_units_Z   1
loop_
 _symmetry_equiv_pos_site_id
 _symmetry_equiv_pos_as_xyz
  1  'x, y, z'
loop_
 _atom_type_symbol
 _atom_type_oxidation_number
  In3+  3.0
  Ag+  1.0
  Sn2+  2.0
  Bi3+  3.0
  Te2-  -2.0
  Pb2+  2.0
loop_
 _atom_site_type_symbol
 _atom_site_label
 _atom_site_symmetry_multiplicity
 _atom_site_fract_x
 _atom_site_fract_y
 _atom_site_fract_z
 _atom_site_occupancy
  In3+  In0  1  0.68111853  0.50096890  0.17285129  1
  In3+  In1  1  0.33053471  0.69735757  0.01343172  1
  In3+  In2  1  0.33393377  0.52062183  0.83116240  1
  In3+  In3  1  0.66602044  0.13986148  0.84146768  1
  In3+  In4  1  0.84428485  0.15746812  0.00576898  1
  In3+  In5  1  0.83268163  0.83544461  0.65206315  1
  In3+  In6  1  0.00096550  -0.02225946  0.66187962  1
  In3+  In7  1  0.33110191  0.50378018  0.15785883  1
  In3+  In8  1  0.67544686  0.32961159  0.33615532  1
  In3+  In9  1  0.50952923  -0.00286296  0.84279639  1
  In3+  In10  1  0.32752194  0.33825228  0.31869389  1
  In3+  In11  1  0.81715807  0.83227948  0.00323502  1
  In3+  In12  1  0.33048399  0.16209321  0.86361896  1
  In3+  In13  1  0.83246362  0.67115332  0.82264749  1
  In3+  In14  1  0.00613884  0.00197667  0.00765408  1
  In3+  In15  1  -0.01106020  0.16613943  0.82331297  1
  In3+  In16  1  0.34218211  0.68075951  0.33363703  1
  In3+  In17  1  -0.00477503  0.67958299  0.33836115  1
  In3+  In18  1  0.51217293  -0.00975035  0.50233310  1
  In3+  In19  1  0.83792869  0.68127799  0.16709419  1
  In3+  In20  1  -0.00590486  0.49186820  0.16961722  1
  In3+  In21  1  0.33655478  0.00054162  0.68059295  1
  Ag+  Ag22  1  0.67204510  0.14751872  0.15383704  1
  Ag+  Ag23  1  0.14444156  0.14929428  -0.00262369  1
  Ag+  Ag24  1  -0.01367801  0.03832245  0.30261602  1
  Ag+  Ag25  1  0.30878773  0.00353768  0.02964650  1
  Ag+  Ag26  1  0.83631306  0.65164067  0.52195739  1
  Ag+  Ag27  1  -0.03353268  0.83523469  0.47759499  1
  Ag+  Ag28  1  0.19353295  0.02901549  0.16044557  1
  Ag+  Ag29  1  -0.02113279  0.33468510  0.34844196  1
  Ag+  Ag30  1  -0.02245653  0.65941426  0.63763718  1
  Ag+  Ag31  1  0.84436101  0.35344838  0.49919377  1
  Ag+  Ag32  1  0.33144596  0.69971810  0.63582438  1
  Ag+  Ag33  1  0.68552345  0.66710426  0.63590187  1
  Ag+  Ag34  1  0.34024708  0.85295178  0.16620067  1
  Ag+  Ag35  1  0.66641487  0.82266773  0.51688036  1
  Ag+  Ag36  1  0.30531314  0.14628955  0.16475322  1
  Ag+  Ag37  1  0.69174158  0.84912546  0.16799011  1
  Ag+  Ag38  1  0.01381898  0.13771999  0.18632121  1
  Ag+  Ag39  1  0.66960936  0.52590091  0.47273066  1
  Ag+  Ag40  1  0.67834030  0.83170766  0.81667988  1
  Ag+  Ag41  1  0.83286211  0.02060529  0.16739196  1
  Ag+  Ag42  1  0.68133956  -0.00570352  0.02592070  1
  Sn2+  Sn43  1  0.67109931  0.67713684  0.33337836  1
  Sn2+  Sn44  1  0.16177160  0.32609014  0.16571565  1
  Sn2+  Sn45  1  0.00580241  0.83993035  0.17268401  1
  Sn2+  Sn46  1  0.66869091  0.35081492  0.66373930  1
  Sn2+  Sn47  1  0.82704181  0.16147162  0.66577740  1
  Sn2+  Sn48  1  0.51596247  0.82552409  0.66896541  1
  Sn2+  Sn49  1  0.34418934  0.83783687  0.83634904  1
  Sn2+  Sn50  1  0.33018061  0.16764550  0.48462330  1
  Sn2+  Sn51  1  0.82902022  0.84013282  0.33232193  1
  Sn2+  Sn52  1  0.32949078  0.31977427  0.00803871  1
  Sn2+  Sn53  1  0.16348445  0.83493937  0.00805765  1
  Sn2+  Sn54  1  0.16798259  0.32751753  0.83591876  1
  Sn2+  Sn55  1  0.66380217  0.67458309  -0.00037351  1
  Sn2+  Sn56  1  -0.00751718  0.33912750  0.65288429  1
  Sn2+  Sn57  1  0.67080389  0.16697952  0.49344520  1
  Sn2+  Sn58  1  -0.00600605  0.15407351  0.48497525  1
  Sn2+  Sn59  1  0.16341162  0.49872700  0.33278018  1
  Sn2+  Sn60  1  0.50461788  0.32850895  0.16871469  1
  Sn2+  Sn61  1  0.83547516  0.32219340  0.17367110  1
  Sn2+  Sn62  1  0.66970788  0.32101177  0.00464630  1
  Sn2+  Sn63  1  0.83908690  -0.00481122  0.48815612  1
  Sn2+  Sn64  1  0.83426006  0.16373452  0.32936939  1
  Bi3+  Bi65  1  0.32556841  0.00307568  0.33399112  1
  Bi3+  Bi66  1  0.16364929  0.16423754  0.67614360  1
  Bi3+  Bi67  1  0.16722289  0.50214734  0.66888903  1
  Bi3+  Bi68  1  0.16247968  -0.00126157  0.49081836  1
  Bi3+  Bi69  1  0.50167086  0.67189085  0.83399257  1
  Bi3+  Bi70  1  0.50137791  0.32880095  0.83237459  1
  Bi3+  Bi71  1  0.16423233  0.83350132  0.33229459  1
  Bi3+  Bi72  1  0.66629205  0.51030634  0.83636127  1
  Bi3+  Bi73  1  -0.00387497  0.83493989  0.83778670  1
  Bi3+  Bi74  1  0.49610000  0.49867913  0.00100446  1
  Bi3+  Bi75  1  0.16855212  0.49460268  0.00127133  1
  Bi3+  Bi76  1  0.67417705  0.00356207  0.33203158  1
  Bi3+  Bi77  1  0.50210287  0.16549602  0.33179374  1
  Bi3+  Bi78  1  0.50133344  0.83579477  0.00064697  1
  Bi3+  Bi79  1  -0.00384480  0.33081017  0.00068101  1
  Bi3+  Bi80  1  0.16237753  0.66458659  0.16934318  1
  Bi3+  Bi81  1  0.33041301  0.32466086  0.67020512  1
  Bi3+  Bi82  1  0.16511257  0.66780061  0.83478789  1
  Bi3+  Bi83  1  0.50470916  0.16549907  0.00322156  1
  Bi3+  Bi84  1  0.50833575  0.32925739  0.49905675  1
  Bi3+  Bi85  1  0.83446926  -0.00430071  0.83941814  1
  Te2-  Te86  1  0.15669630  0.17091682  0.15453053  1
  Te2-  Te87  1  0.15888383  0.16100919  0.50513215  1
  Te2-  Te88  1  0.17154472  0.16360369  0.84340634  1
  Te2-  Te89  1  0.17141033  0.50034657  0.16378501  1
  Te2-  Te90  1  0.16593889  0.50099599  0.50372210  1
  Te2-  Te91  1  0.16970051  0.50158543  0.83524173  1
  Te2-  Te92  1  0.16864077  0.82487958  0.16706342  1
  Te2-  Te93  1  0.17186291  0.83528066  0.49859568  1
  Te2-  Te94  1  0.16556277  0.83033764  0.83990911  1
  Te2-  Te95  1  0.51595425  0.16927972  0.16661363  1
  Te2-  Te96  1  0.50168885  0.16298229  0.49712233  1
  Te2-  Te97  1  0.50383214  0.16416385  0.83596070  1
  Te2-  Te98  1  0.48730493  0.49864922  0.16242844  1
  Te2-  Te99  1  0.51757480  0.49471974  0.50073078  1
  Te2-  Te100  1  0.49861717  0.49941844  0.83773245  1
  Te2-  Te101  1  0.48971082  0.83114625  0.16110257  1
  Te2-  Te102  1  0.51444192  0.83448580  0.50061229  1
  Te2-  Te103  1  0.51048074  0.83476913  0.83713925  1
  Te2-  Te104  1  0.82304355  0.16885604  0.15891328  1
  Te2-  Te105  1  0.83684751  0.15403004  0.50329393  1
  Te2-  Te106  1  0.82875584  0.16028232  0.83756116  1
  Te2-  Te107  1  0.83588969  0.49180370  0.16769602  1
  Te2-  Te108  1  0.82214545  0.50311102  0.49962926  1
  Te2-  Te109  1  0.83197623  0.50694478  0.83453844  1
  Te2-  Te110  1  0.83975788  0.83180034  0.15893804  1
  Te2-  Te111  1  0.82132732  0.83853124  0.50041668  1
  Te2-  Te112  1  0.82837767  0.83128313  0.84778345  1
  Te2-  Te113  1  0.16163343  0.00198973  0.01283391  1
  Te2-  Te114  1  0.15971852  -0.00329636  0.32540096  1
  Te2-  Te115  1  0.16198784  0.00278758  0.66613747  1
  Te2-  Te116  1  0.16342390  0.33399787  -0.00409937  1
  Te2-  Te117  1  0.17535512  0.33036989  0.33355301  1
  Te2-  Te118  1  0.16448942  0.33035395  0.66967520  1
  Te2-  Te119  1  0.17048207  0.66059649  0.00148950  1
  Te2-  Te120  1  0.15674419  0.66709695  0.33270173  1
  Te2-  Te121  1  0.18749520  0.66444025  0.67386436  1
  Te2-  Te122  1  0.51000004  0.00045792  -0.00599350  1
  Te2-  Te123  1  0.49975525  0.00355181  0.34019896  1
  Te2-  Te124  1  0.49708212  -0.00555341  0.66056607  1
  Te2-  Te125  1  0.50041175  0.33248838  -0.00381703  1
  Te2-  Te126  1  0.49229144  0.32687552  0.33753020  1
  Te2-  Te127  1  0.50023511  0.33055998  0.66718609  1
  Te2-  Te128  1  0.49168683  0.66474391  -0.00372331  1
  Te2-  Te129  1  0.49713256  0.66482133  0.33500743  1
  Te2-  Te130  1  0.47648761  0.67053751  0.67531008  1
  Te2-  Te131  1  0.82714131  0.00319595  0.00011310  1
  Te2-  Te132  1  0.84034269  0.00305278  0.32355645  1
  Te2-  Te133  1  0.84004035  -0.00824057  0.67432564  1
  Te2-  Te134  1  0.83134919  0.32667460  -0.00350874  1
  Te2-  Te135  1  0.82881335  0.32972506  0.34523393  1
  Te2-  Te136  1  0.83289433  0.33156779  0.65461866  1
  Te2-  Te137  1  0.83091933  0.66967004  0.01216945  1
  Te2-  Te138  1  0.83886070  0.67043054  0.32162459  1
  Te2-  Te139  1  0.83404717  0.67835599  0.66861191  1
  Te2-  Te140  1  -0.00088034  0.16541124  0.00028257  1
  Te2-  Te141  1  -0.00296089  0.18196587  0.32665286  1
  Te2-  Te142  1  0.00197097  0.17118035  0.67219920  1
  Te2-  Te143  1  0.00245822  0.49774744  0.00420619  1
  Te2-  Te144  1  0.00532849  0.48089305  0.32658571  1
  Te2-  Te145  1  0.00451362  0.51273571  0.66413814  1
  Te2-  Te146  1  -0.00153904  0.84271913  -0.00152280  1
  Te2-  Te147  1  0.00188656  0.83350447  0.33461991  1
  Te2-  Te148  1  -0.00728659  0.82551109  0.67614234  1
  Te2-  Te149  1  0.34264447  0.15376818  0.01525262  1
  Te2-  Te150  1  0.33666544  0.16703965  0.31757693  1
  Te2-  Te151  1  0.32644417  0.15949187  0.65992357  1
  Te2-  Te152  1  0.33194471  0.49124051  -0.00152357  1
  Te2-  Te153  1  0.32830147  0.49130132  0.33295368  1
  Te2-  Te154  1  0.32871869  0.48779939  0.67054299  1
  Te2-  Te155  1  0.33510135  0.85202893  0.00551298  1
  Te2-  Te156  1  0.32938672  0.83599491  0.32440479  1
  Te2-  Te157  1  0.33548734  0.84613060  0.66869878  1
  Te2-  Te158  1  0.66571067  0.16108876  0.00182981  1
  Te2-  Te159  1  0.66488466  0.16920308  0.32450789  1
  Te2-  Te160  1  0.66996884  0.16618367  0.67004271  1
  Te2-  Te161  1  0.65869665  0.49956117  0.00183439  1
  Te2-  Te162  1  0.66567785  0.49677935  0.32731891  1
  Te2-  Te163  1  0.66634260  0.51853730  0.67564101  1
  Te2-  Te164  1  0.66445271  0.84004078  0.01813257  1
  Te2-  Te165  1  0.66965149  0.83856917  0.31682888  1
  Te2-  Te166  1  0.67350330  0.82042759  0.66626889  1
  Te2-  Te167  1  -0.01615746  -0.00263840  0.16024206  1
  Te2-  Te168  1  0.00233581  -0.01619443  0.50713280  1
  Te2-  Te169  1  -0.00267937  0.00217644  0.83650841  1
  Te2-  Te170  1  -0.00307315  0.33724868  0.15934782  1
  Te2-  Te171  1  -0.00734443  0.33005007  0.49808803  1
  Te2-  Te172  1  -0.00263130  0.32665358  0.83462691  1
  Te2-  Te173  1  -0.00174663  0.65928401  0.17439493  1
  Te2-  Te174  1  -0.01462033  0.67833876  0.49309077  1
  Te2-  Te175  1  -0.00083548  0.67122065  0.83835822  1
  Te2-  Te176  1  0.33834211  -0.00030098  0.17491850  1
  Te2-  Te177  1  0.32721141  0.00588767  0.49413751  1
  Te2-  Te178  1  0.34035159  0.00571868  0.83360696  1
  Te2-  Te179  1  0.33489325  0.33555021  0.16596106  1
  Te2-  Te180  1  0.33952439  0.32759393  0.50724982  1
  Te2-  Te181  1  0.33905468  0.31833657  0.83233498  1
  Te2-  Te182  1  0.32669002  0.65952742  0.17490522  1
  Te2-  Te183  1  0.33590201  0.66512689  0.49012538  1
  Te2-  Te184  1  0.33302035  0.67731067  0.84603674  1
  Te2-  Te185  1  0.67798214  -0.00071505  0.17345720  1
  Te2-  Te186  1  0.66713622  -0.00171143  0.49323806  1
  Te2-  Te187  1  0.66811361  -0.01553764  0.82905614  1
  Te2-  Te188  1  0.66567800  0.34578175  0.17316034  1
  Te2-  Te189  1  0.66767086  0.32496847  0.49735192  1
  Te2-  Te190  1  0.66235704  0.34306627  0.83088386  1
  Te2-  Te191  1  0.67384831  0.65585448  0.16822556  1
  Te2-  Te192  1  0.68054285  0.67289844  0.48910516  1
  Te2-  Te193  1  0.66661008  0.67586751  0.84018429  1
  Pb2+  Pb194  1  0.34036279  0.49607005  0.50091171  1
  Pb2+  Pb195  1  0.49783544  0.49504691  0.33256506  1
  Pb2+  Pb196  1  0.34156152  0.83703563  0.49852368  1
  Pb2+  Pb197  1  0.66974951  -0.00398071  0.66221589  1
  Pb2+  Pb198  1  0.82898064  0.33046183  0.82508775  1
  Pb2+  Pb199  1  0.50891707  0.00065910  0.16367347  1
  Pb2+  Pb200  1  0.50098186  0.50262392  0.66756643  1
  Pb2+  Pb201  1  0.16384079  0.33171822  0.49939719  1
  Pb2+  Pb202  1  0.00223260  0.49897779  0.83200690  1
  Pb2+  Pb203  1  0.16597167  0.16312215  0.32709575  1
  Pb2+  Pb204  1  0.16291119  0.83065809  0.66903547  1
  Pb2+  Pb205  1  0.15841595  0.66937082  0.50349728  1
  Pb2+  Pb206  1  0.16825578  -0.00212406  0.84143445  1
  Pb2+  Pb207  1  0.83164305  0.50159879  0.66358260  1
  Pb2+  Pb208  1  -0.00093664  0.67533739  0.00527934  1
  Pb2+  Pb209  1  0.50543958  0.66811841  0.16601032  1
  Pb2+  Pb210  1  0.50007899  0.16140281  0.66674026  1
  Pb2+  Pb211  1  0.83583536  0.50204743  0.33558102  1
  Pb2+  Pb212  1  0.50382797  0.83486685  0.32909436  1
  Pb2+  Pb213  1  0.82792853  0.49804531  0.00179433  1
  Pb2+  Pb214  1  0.51281045  0.66534618  0.50734894  1
  Pb2+  Pb215  1  -0.00731876  0.50552072  0.49508443  1
