# generated using pymatgen
data_In22Ag21Sn22Bi21(Te54Pb11)2
_symmetry_space_group_name_H-M   'P 1'
_cell_length_a   19.15949538
_cell_length_b   19.16441213
_cell_length_c   19.13922033
_cell_angle_alpha   90.01145309
_cell_angle_beta   89.99641347
_cell_angle_gamma   89.99685026
_symmetry_Int_Tables_number   1
_chemical_formula_structural   In22Ag21Sn22Bi21(Te54Pb11)2
_chemical_formula_sum   'In22 Ag21 Sn22 Bi21 Te108 Pb22'
_cell_volume   7027.54766517
_cell_formula_units_Z   1
loop_
 _symmetry_equiv_pos_site_id
 _symmetry_equiv_pos_as_xyz
  1  'x, y, z'
loop_
 _atom_type_symbol
 _atom_type_oxidation_number
  In3+  3.0
  Ag+  1.0
  Sn2+  2.0
  Bi3+  3.0
  Te2-  -2.0
  Pb2+  2.0
loop_
 _atom_site_type_symbol
 _atom_site_label
 _atom_site_symmetry_multiplicity
 _atom_site_fract_x
 _atom_site_fract_y
 _atom_site_fract_z
 _atom_site_occupancy
  In3+  In0  1  0.50951029  0.67768726  0.50320260  1
  In3+  In1  1  0.82243251  0.49968935  0.02057680  1
  In3+  In2  1  0.00258294  0.81966676  0.50569557  1
  In3+  In3  1  0.66614216  0.33791555  0.32592630  1
  In3+  In4  1  0.15995000  0.50914747  0.67440173  1
  In3+  In5  1  0.49585358  0.34121450  0.48974338  1
  In3+  In6  1  0.67238636  0.15980941  0.15950095  1
  In3+  In7  1  0.34540380  0.83349123  0.49203674  1
  In3+  In8  1  0.35058455  0.51750885  0.16768688  1
  In3+  In9  1  0.33190157  -0.01867078  0.67779144  1
  In3+  In10  1  0.33144066  0.16156263  0.85405870  1
  In3+  In11  1  0.83189652  0.16987557  0.30678253  1
  In3+  In12  1  -0.00028935  0.67675324  0.01816219  1
  In3+  In13  1  0.16947577  0.15498510  0.01270136  1
  In3+  In14  1  0.33161226  0.51973697  0.49377526  1
  In3+  In15  1  0.33599801  0.84067644  0.16722997  1
  In3+  In16  1  -0.01445960  0.00525974  -0.00299136  1
  In3+  In17  1  0.68471644  -0.01836696  0.66737433  1
  In3+  In18  1  0.16617055  0.34887109  0.50972694  1
  In3+  In19  1  0.49249621  0.14897048  0.33206951  1
  In3+  In20  1  -0.00073102  0.52692033  0.83691355  1
  In3+  In21  1  0.85126900  0.33095405  0.84018337  1
  Ag+  Ag22  1  0.80175470  0.86054869  -0.03188711  1
  Ag+  Ag23  1  0.68403736  -0.00080525  0.02306449  1
  Ag+  Ag24  1  -0.01032878  0.69152665  0.66781123  1
  Ag+  Ag25  1  0.01928365  0.16462575  0.14698164  1
  Ag+  Ag26  1  0.64441784  0.81629662  0.50639812  1
  Ag+  Ag27  1  0.63987115  0.69622329  0.30568666  1
  Ag+  Ag28  1  0.47914870  0.80836571  0.30755122  1
  Ag+  Ag29  1  0.36100881  0.19115557  0.17853427  1
  Ag+  Ag30  1  0.02475408  0.32974559  0.30968313  1
  Ag+  Ag31  1  0.35321104  0.67049700  0.30933300  1
  Ag+  Ag32  1  0.52608048  0.69271978  0.20416804  1
  Ag+  Ag33  1  0.19418387  0.69440889  0.48253594  1
  Ag+  Ag34  1  0.16513478  0.81220589  0.66619354  1
  Ag+  Ag35  1  0.35667496  0.84408504  0.85354148  1
  Ag+  Ag36  1  0.85629281  0.69392947  0.13967814  1
  Ag+  Ag37  1  -0.00063554  0.83710560  0.86194341  1
  Ag+  Ag38  1  0.82123947  -0.03454257  0.85756672  1
  Ag+  Ag39  1  0.80666285  0.15077296  -0.00669950  1
  Ag+  Ag40  1  0.47476463  0.02335553  0.16501599  1
  Ag+  Ag41  1  0.14826081  0.30111777  0.84513138  1
  Ag+  Ag42  1  0.64840856  0.52424320  0.16568064  1
  Sn2+  Sn43  1  0.32887023  0.66865527  0.00065344  1
  Sn2+  Sn44  1  0.83502828  0.66218057  0.83584756  1
  Sn2+  Sn45  1  0.82808119  0.16796772  0.68444364  1
  Sn2+  Sn46  1  0.48490174  0.83551901  0.66558453  1
  Sn2+  Sn47  1  0.16590627  -0.01100898  0.50498464  1
  Sn2+  Sn48  1  0.50063386  -0.00094221  0.49158443  1
  Sn2+  Sn49  1  0.16542441  0.33231506  0.15810560  1
  Sn2+  Sn50  1  0.50245305  0.50774662  0.00150297  1
  Sn2+  Sn51  1  0.00033172  0.50487333  0.50103563  1
  Sn2+  Sn52  1  0.00611039  -0.00832136  0.67392630  1
  Sn2+  Sn53  1  0.15306055  -0.00893068  0.82763343  1
  Sn2+  Sn54  1  0.49373379  0.33129980  0.16382377  1
  Sn2+  Sn55  1  0.83412029  0.32750989  0.50172387  1
  Sn2+  Sn56  1  0.33087893  0.33617917  -0.00395241  1
  Sn2+  Sn57  1  0.16340647  0.83409941  -0.01377015  1
  Sn2+  Sn58  1  0.67496624  0.66845121  0.66486554  1
  Sn2+  Sn59  1  0.00334527  0.01142224  0.33344817  1
  Sn2+  Sn60  1  0.66469015  0.33292554  0.66561989  1
  Sn2+  Sn61  1  0.32794111  0.15970441  0.49094098  1
  Sn2+  Sn62  1  0.00239250  0.84245268  0.17020436  1
  Sn2+  Sn63  1  0.49392495  0.16180284  0.65826373  1
  Sn2+  Sn64  1  0.49629778  0.66979670  0.83143874  1
  Bi3+  Bi65  1  0.83389556  0.49829651  0.66681053  1
  Bi3+  Bi66  1  0.33142889  0.66584805  0.66935425  1
  Bi3+  Bi67  1  0.83515099  0.00257134  0.49987630  1
  Bi3+  Bi68  1  0.66631268  0.83184366  0.17522995  1
  Bi3+  Bi69  1  0.49787242  0.50038024  0.66888307  1
  Bi3+  Bi70  1  0.16572037  0.49889849  0.00027490  1
  Bi3+  Bi71  1  -0.00237116  0.16773809  0.49841444  1
  Bi3+  Bi72  1  0.33367387  -0.00281195  -0.00188893  1
  Bi3+  Bi73  1  0.16483727  0.67250810  0.83020388  1
  Bi3+  Bi74  1  0.83171882  0.32928850  0.16789311  1
  Bi3+  Bi75  1  0.66601336  0.16824647  0.49817575  1
  Bi3+  Bi76  1  0.49904082  0.83136907  0.00270519  1
  Bi3+  Bi77  1  0.83338628  0.66754127  0.49958428  1
  Bi3+  Bi78  1  0.33329542  0.33194942  0.66451702  1
  Bi3+  Bi79  1  0.83550111  -0.00145657  0.17125340  1
  Bi3+  Bi80  1  0.00155531  0.33070195  0.66637867  1
  Bi3+  Bi81  1  0.17052885  0.16943492  0.66184315  1
  Bi3+  Bi82  1  0.16374066  0.49929479  0.33776940  1
  Bi3+  Bi83  1  0.83313190  0.82740191  0.33231852  1
  Bi3+  Bi84  1  0.83307298  0.49610672  0.33540431  1
  Bi3+  Bi85  1  0.49597899  0.33237732  0.83136030  1
  Te2-  Te86  1  0.16578471  0.17172786  0.16495625  1
  Te2-  Te87  1  0.16370528  0.15970354  0.49997543  1
  Te2-  Te88  1  0.17930735  0.16014289  0.82555557  1
  Te2-  Te89  1  0.16417286  0.49297093  0.16540739  1
  Te2-  Te90  1  0.16934890  0.49961672  0.50086592  1
  Te2-  Te91  1  0.16283766  0.50563118  0.83444422  1
  Te2-  Te92  1  0.17314421  0.82845757  0.16384739  1
  Te2-  Te93  1  0.15693084  0.83297696  0.51041041  1
  Te2-  Te94  1  0.15175851  0.83347693  0.82561424  1
  Te2-  Te95  1  0.50580215  0.16682493  0.17725073  1
  Te2-  Te96  1  0.50088857  0.16189553  0.49031274  1
  Te2-  Te97  1  0.49137938  0.16720642  0.83007630  1
  Te2-  Te98  1  0.50349855  0.49729399  0.16140977  1
  Te2-  Te99  1  0.49468295  0.49595117  0.50507071  1
  Te2-  Te100  1  0.49900931  0.49945428  0.83165825  1
  Te2-  Te101  1  0.49615057  0.83206155  0.16401405  1
  Te2-  Te102  1  0.50038817  0.83630584  0.49831744  1
  Te2-  Te103  1  0.50212120  0.83161381  0.83232103  1
  Te2-  Te104  1  0.82943326  0.16635194  0.14786608  1
  Te2-  Te105  1  0.83177065  0.16598213  0.51086784  1
  Te2-  Te106  1  0.83446957  0.17664297  0.84624804  1
  Te2-  Te107  1  0.83216621  0.49210741  0.17324845  1
  Te2-  Te108  1  0.83190325  0.49804144  0.50219131  1
  Te2-  Te109  1  0.84035846  0.49355433  0.82783270  1
  Te2-  Te110  1  0.83192603  0.83501679  0.16978917  1
  Te2-  Te111  1  0.84502268  0.83552467  0.49785220  1
  Te2-  Te112  1  0.84570536  0.82057609  0.83335941  1
  Te2-  Te113  1  0.17146824  0.00035091  -0.00694141  1
  Te2-  Te114  1  0.16378219  -0.00107193  0.33382036  1
  Te2-  Te115  1  0.17539520  0.00747543  0.66662012  1
  Te2-  Te116  1  0.17174094  0.33604422  -0.01186356  1
  Te2-  Te117  1  0.16952096  0.33743810  0.33635068  1
  Te2-  Te118  1  0.16885481  0.33443526  0.67110630  1
  Te2-  Te119  1  0.15874885  0.66397709  -0.00324774  1
  Te2-  Te120  1  0.16044630  0.66023553  0.34305903  1
  Te2-  Te121  1  0.17006055  0.66034563  0.66462344  1
  Te2-  Te122  1  0.49288657  -0.00354976  0.00995073  1
  Te2-  Te123  1  0.49908018  -0.00110001  0.32152129  1
  Te2-  Te124  1  0.48701528  -0.00363688  0.66525746  1
  Te2-  Te125  1  0.49665690  0.33499569  -0.00382692  1
  Te2-  Te126  1  0.50441718  0.33553554  0.33466243  1
  Te2-  Te127  1  0.49771442  0.33619864  0.66492837  1
  Te2-  Te128  1  0.49861901  0.66755961  -0.00712195  1
  Te2-  Te129  1  0.49901032  0.66755567  0.34994087  1
  Te2-  Te130  1  0.49865481  0.66370137  0.66141153  1
  Te2-  Te131  1  0.83411398  0.00170776  0.00374036  1
  Te2-  Te132  1  0.83789683  0.00285901  0.33613709  1
  Te2-  Te133  1  0.83756422  0.00229505  0.66332645  1
  Te2-  Te134  1  0.83389563  0.34365226  -0.00050336  1
  Te2-  Te135  1  0.82533564  0.33158510  0.33497749  1
  Te2-  Te136  1  0.83407211  0.33482956  0.67085706  1
  Te2-  Te137  1  0.84568159  0.65400895  0.00016686  1
  Te2-  Te138  1  0.83020812  0.66169200  0.33970493  1
  Te2-  Te139  1  0.84132337  0.66051684  0.66367409  1
  Te2-  Te140  1  0.01541747  0.15896385  -0.00180075  1
  Te2-  Te141  1  -0.00974116  0.18010846  0.33910079  1
  Te2-  Te142  1  0.00252347  0.16511323  0.66454318  1
  Te2-  Te143  1  0.00409146  0.50231568  -0.00860661  1
  Te2-  Te144  1  -0.00117175  0.48338815  0.33528838  1
  Te2-  Te145  1  -0.00015301  0.49208442  0.67065486  1
  Te2-  Te146  1  0.00376435  0.83233791  0.01017206  1
  Te2-  Te147  1  -0.00333224  0.83579359  0.33044905  1
  Te2-  Te148  1  0.01260408  0.83820124  0.65875369  1
  Te2-  Te149  1  0.32599052  0.16294839  0.01148862  1
  Te2-  Te150  1  0.33896281  0.16739578  0.32394295  1
  Te2-  Te151  1  0.33303594  0.16998498  0.65623630  1
  Te2-  Te152  1  0.32972579  0.50325297  0.00631450  1
  Te2-  Te153  1  0.32882282  0.51631695  0.32715874  1
  Te2-  Te154  1  0.33369850  0.49794468  0.66362552  1
  Te2-  Te155  1  0.33312676  0.83216800  -0.00086358  1
  Te2-  Te156  1  0.33410159  0.81947721  0.33805830  1
  Te2-  Te157  1  0.32115661  0.82982458  0.66069201  1
  Te2-  Te158  1  0.65995971  0.15082266  0.00343893  1
  Te2-  Te159  1  0.67228770  0.17237282  0.33766119  1
  Te2-  Te160  1  0.66121362  0.17140744  0.66110777  1
  Te2-  Te161  1  0.66993406  0.50072378  0.01221826  1
  Te2-  Te162  1  0.66928102  0.49376191  0.32139259  1
  Te2-  Te163  1  0.66545827  0.50098032  0.66530670  1
  Te2-  Te164  1  0.66191396  0.84621695  0.00516862  1
  Te2-  Te165  1  0.67246321  0.83510029  0.33915038  1
  Te2-  Te166  1  0.66270799  0.83074107  0.65589620  1
  Te2-  Te167  1  -0.00396772  0.01281837  0.16490412  1
  Te2-  Te168  1  -0.00253238  0.00595491  0.49874035  1
  Te2-  Te169  1  -0.01541591  -0.01227926  0.84371641  1
  Te2-  Te170  1  -0.00393390  0.31778315  0.16592930  1
  Te2-  Te171  1  0.00406175  0.33229539  0.50543834  1
  Te2-  Te172  1  0.00475415  0.32819573  0.82896400  1
  Te2-  Te173  1  -0.00191806  0.66599843  0.17001481  1
  Te2-  Te174  1  -0.00338341  0.66489958  0.51524114  1
  Te2-  Te175  1  0.00389336  0.67597046  0.81925942  1
  Te2-  Te176  1  0.33080399  -0.00648418  0.16429599  1
  Te2-  Te177  1  0.33438159  -0.00750871  0.50184199  1
  Te2-  Te178  1  0.33303069  -0.01010928  0.83163306  1
  Te2-  Te179  1  0.33526802  0.33492625  0.16403997  1
  Te2-  Te180  1  0.33664499  0.32556892  0.50158217  1
  Te2-  Te181  1  0.33556567  0.33119175  0.82891705  1
  Te2-  Te182  1  0.33865927  0.66776898  0.16269469  1
  Te2-  Te183  1  0.33705455  0.67578597  0.50729941  1
  Te2-  Te184  1  0.32879663  0.67807099  0.83121868  1
  Te2-  Te185  1  0.67310197  0.00220183  0.17016270  1
  Te2-  Te186  1  0.67000269  0.00509244  0.51112445  1
  Te2-  Te187  1  0.67852027  -0.00206268  0.81948024  1
  Te2-  Te188  1  0.66791535  0.32004581  0.16946676  1
  Te2-  Te189  1  0.66095708  0.33157014  0.49836471  1
  Te2-  Te190  1  0.65894145  0.33195146  0.83418301  1
  Te2-  Te191  1  0.66814283  0.67030562  0.16517239  1
  Te2-  Te192  1  0.66762323  0.67114310  0.50311020  1
  Te2-  Te193  1  0.66775898  0.66466654  0.83233517  1
  Pb2+  Pb194  1  0.67267102  0.67504935  0.00185534  1
  Pb2+  Pb195  1  0.32944970  0.50523912  0.83510324  1
  Pb2+  Pb196  1  0.66369344  0.50312158  0.48996239  1
  Pb2+  Pb197  1  0.50469442  -0.00111303  0.83758867  1
  Pb2+  Pb198  1  0.83982575  0.83217817  0.66662869  1
  Pb2+  Pb199  1  -0.00510943  0.66031126  0.34313514  1
  Pb2+  Pb200  1  0.16940971  0.66182824  0.17162642  1
  Pb2+  Pb201  1  -0.00240432  0.49082022  0.16411538  1
  Pb2+  Pb202  1  0.66629378  0.00129175  0.33881055  1
  Pb2+  Pb203  1  0.16012626  0.16935359  0.33273312  1
  Pb2+  Pb204  1  0.50107657  0.50325334  0.33056785  1
  Pb2+  Pb205  1  0.67356668  0.83216683  0.83077462  1
  Pb2+  Pb206  1  0.00338955  0.15413398  0.83077333  1
  Pb2+  Pb207  1  0.16654756  0.82868052  0.33609704  1
  Pb2+  Pb208  1  0.33374312  -0.00543783  0.33480136  1
  Pb2+  Pb209  1  0.00304575  0.33118033  -0.00007440  1
  Pb2+  Pb210  1  0.16308850  -0.00410939  0.16253016  1
  Pb2+  Pb211  1  0.66606195  0.32580610  0.00287554  1
  Pb2+  Pb212  1  0.33514258  0.34335463  0.33202992  1
  Pb2+  Pb213  1  0.66780376  0.16414079  0.83029567  1
  Pb2+  Pb214  1  0.49462321  0.16463783  0.00385836  1
  Pb2+  Pb215  1  0.67230487  0.49739113  0.84040608  1
