# generated using pymatgen
data_In22Ag21Sn22Bi21(Te54Pb11)2
_symmetry_space_group_name_H-M   'P 1'
_cell_length_a   19.16365856
_cell_length_b   19.12016921
_cell_length_c   19.13815460
_cell_angle_alpha   89.99933842
_cell_angle_beta   89.99210511
_cell_angle_gamma   90.01684471
_symmetry_Int_Tables_number   1
_chemical_formula_structural   In22Ag21Sn22Bi21(Te54Pb11)2
_chemical_formula_sum   'In22 Ag21 Sn22 Bi21 Te108 Pb22'
_cell_volume   7012.45668069
_cell_formula_units_Z   1
loop_
 _symmetry_equiv_pos_site_id
 _symmetry_equiv_pos_as_xyz
  1  'x, y, z'
loop_
 _atom_type_symbol
 _atom_type_oxidation_number
  In3+  3.0
  Ag+  1.0
  Sn2+  2.0
  Bi3+  3.0
  Te2-  -2.0
  Pb2+  2.0
loop_
 _atom_site_type_symbol
 _atom_site_label
 _atom_site_symmetry_multiplicity
 _atom_site_fract_x
 _atom_site_fract_y
 _atom_site_fract_z
 _atom_site_occupancy
  In3+  In0  1  0.83450893  0.66517260  0.17503734  1
  In3+  In1  1  0.49297926  0.83661615  -0.00747438  1
  In3+  In2  1  -0.00493223  0.19088380  0.82616616  1
  In3+  In3  1  0.01050767  0.83307538  0.83756742  1
  In3+  In4  1  0.49774157  0.01230792  0.83852478  1
  In3+  In5  1  0.83308289  0.67554069  0.49933806  1
  In3+  In6  1  0.66459965  0.66211435  -0.02154616  1
  In3+  In7  1  0.33472575  0.48825076  0.83775563  1
  In3+  In8  1  0.50511500  0.50221734  0.67538407  1
  In3+  In9  1  0.32998805  0.15658015  0.51015161  1
  In3+  In10  1  0.84850560  0.80817807  0.67224463  1
  In3+  In11  1  0.50337144  0.65867839  0.16944358  1
  In3+  In12  1  0.33535398  0.33749035  0.65353586  1
  In3+  In13  1  0.48423297  0.34671958  0.16345836  1
  In3+  In14  1  0.66283041  0.35371537  0.32869411  1
  In3+  In15  1  0.33472015  0.50385844  0.48006651  1
  In3+  In16  1  0.65781635  0.83968151  0.15704118  1
  In3+  In17  1  0.49762178  0.66627658  0.85700526  1
  In3+  In18  1  0.02627186  -0.00546468  -0.00699440  1
  In3+  In19  1  0.85084158  -0.00762007  0.16228153  1
  In3+  In20  1  0.84158921  0.33901039  0.49167412  1
  In3+  In21  1  0.67186588  0.66377713  0.32102593  1
  Ag+  Ag22  1  0.50247563  0.48535290  -0.02178030  1
  Ag+  Ag23  1  0.31213615  0.86315670  0.52370619  1
  Ag+  Ag24  1  -0.02441430  0.33890680  0.64402130  1
  Ag+  Ag25  1  0.86163994  0.51322741  0.35234281  1
  Ag+  Ag26  1  0.49459799  -0.02697355  0.53870056  1
  Ag+  Ag27  1  0.18842268  0.35269329  0.18164442  1
  Ag+  Ag28  1  0.33029945  -0.02928426  -0.00105715  1
  Ag+  Ag29  1  0.30794264  0.32461612  0.35146515  1
  Ag+  Ag30  1  0.15019063  -0.02208319  0.19250915  1
  Ag+  Ag31  1  0.68119598  0.02429912  -0.00290929  1
  Ag+  Ag32  1  0.19288956  0.83171824  0.01816692  1
  Ag+  Ag33  1  0.34047718  -0.03313864  0.63501599  1
  Ag+  Ag34  1  0.50984001  0.48732976  0.35004056  1
  Ag+  Ag35  1  0.02265040  0.29559362  0.00521750  1
  Ag+  Ag36  1  0.80152639  0.51092456  0.64229468  1
  Ag+  Ag37  1  0.31558052  0.32737857  0.00209821  1
  Ag+  Ag38  1  0.19872719  0.86040712  0.63336805  1
  Ag+  Ag39  1  0.69101457  0.49632767  0.83457556  1
  Ag+  Ag40  1  0.02467440  0.66471747  0.34497950  1
  Ag+  Ag41  1  0.19175833  0.66532143  0.51725849  1
  Ag+  Ag42  1  0.85945791  0.67029067  0.85933182  1
  Sn2+  Sn43  1  0.00041246  0.67058804  0.00314904  1
  Sn2+  Sn44  1  0.67093038  0.33234676  0.66874884  1
  Sn2+  Sn45  1  0.50161589  0.67209268  0.49485001  1
  Sn2+  Sn46  1  0.32818382  0.65711111  -0.00282925  1
  Sn2+  Sn47  1  0.33164475  0.84318278  0.17308945  1
  Sn2+  Sn48  1  0.65925820  -0.00238256  0.68070038  1
  Sn2+  Sn49  1  0.17067079  0.49954646  0.33300708  1
  Sn2+  Sn50  1  0.33689684  0.00691325  0.31999515  1
  Sn2+  Sn51  1  0.16473939  0.66985310  0.16883101  1
  Sn2+  Sn52  1  0.00313789  0.65550501  0.66019210  1
  Sn2+  Sn53  1  0.66907931  0.34081367  0.00173769  1
  Sn2+  Sn54  1  0.66925470  0.17592528  0.83533945  1
  Sn2+  Sn55  1  0.32716806  0.16250502  0.84012748  1
  Sn2+  Sn56  1  0.16599316  0.82572404  0.33464481  1
  Sn2+  Sn57  1  0.83669452  0.16765050  0.00378240  1
  Sn2+  Sn58  1  0.49835149  0.82690163  0.66582738  1
  Sn2+  Sn59  1  0.81615180  0.00126574  0.50422717  1
  Sn2+  Sn60  1  0.32697229  0.83975524  0.83201582  1
  Sn2+  Sn61  1  0.32972725  0.66026297  0.66576953  1
  Sn2+  Sn62  1  0.17234175  0.50146818  0.00298251  1
  Sn2+  Sn63  1  0.49849939  0.17296012  0.33471167  1
  Sn2+  Sn64  1  0.65699257  0.83690308  0.49889640  1
  Bi3+  Bi65  1  0.49477243  -0.00117220  0.16139844  1
  Bi3+  Bi66  1  0.00149972  0.50855252  0.83285646  1
  Bi3+  Bi67  1  -0.00124055  0.16484281  0.50286004  1
  Bi3+  Bi68  1  0.66160677  0.16556076  0.50072712  1
  Bi3+  Bi69  1  -0.00265014  0.82930802  0.16720302  1
  Bi3+  Bi70  1  0.82715315  0.83371203  -0.00249031  1
  Bi3+  Bi71  1  0.83401545  0.16877298  0.66717206  1
  Bi3+  Bi72  1  0.33355651  0.66532594  0.32963466  1
  Bi3+  Bi73  1  0.82991104  0.50242795  -0.00106625  1
  Bi3+  Bi74  1  0.17269800  -0.00077468  0.83232784  1
  Bi3+  Bi75  1  0.17047946  0.33493806  0.83995373  1
  Bi3+  Bi76  1  0.16915411  0.50037847  0.66918234  1
  Bi3+  Bi77  1  0.00039743  0.83165931  0.50146273  1
  Bi3+  Bi78  1  0.66107546  0.67148817  0.66176842  1
  Bi3+  Bi79  1  0.33152422  0.50567707  0.16078944  1
  Bi3+  Bi80  1  0.83186305  0.16627765  0.33356201  1
  Bi3+  Bi81  1  0.33254050  0.16972430  0.16574563  1
  Bi3+  Bi82  1  0.50302072  0.33586163  0.49680460  1
  Bi3+  Bi83  1  0.49485645  0.83176204  0.32972636  1
  Bi3+  Bi84  1  0.83154305  0.33448655  0.16424914  1
  Bi3+  Bi85  1  0.16959065  0.16569017  0.66786308  1
  Te2-  Te86  1  0.17099640  0.16780878  0.16483061  1
  Te2-  Te87  1  0.16673101  0.16793820  0.50362972  1
  Te2-  Te88  1  0.15811971  0.16652525  0.83143561  1
  Te2-  Te89  1  0.16778232  0.50042685  0.16156211  1
  Te2-  Te90  1  0.17636820  0.50914074  0.50481939  1
  Te2-  Te91  1  0.17126908  0.50204450  0.83531497  1
  Te2-  Te92  1  0.16106099  0.83381674  0.16387126  1
  Te2-  Te93  1  0.16549756  0.82084701  0.49655823  1
  Te2-  Te94  1  0.16352880  0.83793229  0.83251715  1
  Te2-  Te95  1  0.49799114  0.16731120  0.16955120  1
  Te2-  Te96  1  0.49669810  0.17381545  0.49681785  1
  Te2-  Te97  1  0.50046688  0.16849689  0.83277189  1
  Te2-  Te98  1  0.49583241  0.50235778  0.17204398  1
  Te2-  Te99  1  0.49220424  0.49876250  0.49800457  1
  Te2-  Te100  1  0.48986426  0.50722927  0.83265211  1
  Te2-  Te101  1  0.49973359  0.83188951  0.16498040  1
  Te2-  Te102  1  0.49692289  0.83288880  0.49341195  1
  Te2-  Te103  1  0.49574810  0.82125747  0.83828580  1
  Te2-  Te104  1  0.83387167  0.16559502  0.16937758  1
  Te2-  Te105  1  0.83302632  0.16743469  0.50014961  1
  Te2-  Te106  1  0.83560815  0.16723203  0.83070671  1
  Te2-  Te107  1  0.82757282  0.50211230  0.16335317  1
  Te2-  Te108  1  0.83167253  0.48994025  0.49770096  1
  Te2-  Te109  1  0.83913894  0.51556675  0.83832251  1
  Te2-  Te110  1  0.82974429  0.82971700  0.16523959  1
  Te2-  Te111  1  0.83187267  0.83667850  0.50744917  1
  Te2-  Te112  1  0.83094425  0.81880089  0.83047182  1
  Te2-  Te113  1  0.17633258  -0.01470605  -0.00670252  1
  Te2-  Te114  1  0.17243976  -0.00254872  0.33450404  1
  Te2-  Te115  1  0.18089051  0.00299296  0.66942325  1
  Te2-  Te116  1  0.16346499  0.34097932  -0.00081417  1
  Te2-  Te117  1  0.16435774  0.33864469  0.32553883  1
  Te2-  Te118  1  0.17735296  0.33206676  0.67420256  1
  Te2-  Te119  1  0.16092451  0.67800696  0.00288885  1
  Te2-  Te120  1  0.17208982  0.66353717  0.33257543  1
  Te2-  Te121  1  0.16054774  0.66234881  0.66181165  1
  Te2-  Te122  1  0.48680274  -0.00890806  -0.00494606  1
  Te2-  Te123  1  0.49640132  -0.00236606  0.32503970  1
  Te2-  Te124  1  0.48639887  -0.00387713  0.68252895  1
  Te2-  Te125  1  0.50998688  0.34063276  0.01031569  1
  Te2-  Te126  1  0.50790011  0.34070764  0.33094967  1
  Te2-  Te127  1  0.49533359  0.34006379  0.66382447  1
  Te2-  Te128  1  0.50695188  0.66799450  0.01006720  1
  Te2-  Te129  1  0.49757983  0.66934342  0.32660924  1
  Te2-  Te130  1  0.50049175  0.65840981  0.65874378  1
  Te2-  Te131  1  0.82536716  -0.00442344  0.00381584  1
  Te2-  Te132  1  0.82920808  0.00040955  0.33034188  1
  Te2-  Te133  1  0.83045755  0.00687695  0.66789735  1
  Te2-  Te134  1  0.82979507  0.33700961  0.00083674  1
  Te2-  Te135  1  0.82731305  0.33255007  0.33086415  1
  Te2-  Te136  1  0.83056005  0.33256878  0.66435476  1
  Te2-  Te137  1  0.82453149  0.66786065  0.00608368  1
  Te2-  Te138  1  0.82427425  0.65402688  0.33362172  1
  Te2-  Te139  1  0.82888927  0.65565044  0.65757486  1
  Te2-  Te140  1  -0.00447495  0.15067812  -0.00707768  1
  Te2-  Te141  1  -0.00386381  0.16446626  0.33902630  1
  Te2-  Te142  1  0.00041930  0.17807834  0.66458741  1
  Te2-  Te143  1  -0.00360048  0.51181369  -0.00483884  1
  Te2-  Te144  1  0.00595184  0.51021669  0.33505895  1
  Te2-  Te145  1  0.00557102  0.48586812  0.67253260  1
  Te2-  Te146  1  -0.01191235  0.83735798  0.00185835  1
  Te2-  Te147  1  -0.00351812  0.82191828  0.33311589  1
  Te2-  Te148  1  -0.00305615  0.83066071  0.66311765  1
  Te2-  Te149  1  0.33474028  0.17817942  0.00032122  1
  Te2-  Te150  1  0.33803406  0.17996216  0.33054526  1
  Te2-  Te151  1  0.33054731  0.17640905  0.66930678  1
  Te2-  Te152  1  0.34659718  0.50026796  -0.00234993  1
  Te2-  Te153  1  0.33486317  0.49730754  0.32515140  1
  Te2-  Te154  1  0.33272861  0.49607876  0.67746777  1
  Te2-  Te155  1  0.33882199  0.82127343  0.00144204  1
  Te2-  Te156  1  0.33299907  0.83199787  0.33235112  1
  Te2-  Te157  1  0.33719521  0.82149877  0.66401575  1
  Te2-  Te158  1  0.66921001  0.17114627  -0.00613235  1
  Te2-  Te159  1  0.66973384  0.16256849  0.33906776  1
  Te2-  Te160  1  0.66780588  0.16516524  0.66668540  1
  Te2-  Te161  1  0.66035793  0.50679271  -0.01333282  1
  Te2-  Te162  1  0.65627617  0.50834191  0.33200682  1
  Te2-  Te163  1  0.66059725  0.50251356  0.67541710  1
  Te2-  Te164  1  0.66326693  0.82055140  0.00239384  1
  Te2-  Te165  1  0.66162322  0.82572218  0.33235990  1
  Te2-  Te166  1  0.66274703  0.83512710  0.66449067  1
  Te2-  Te167  1  0.00671937  -0.00508267  0.16294564  1
  Te2-  Te168  1  -0.00156612  -0.00080547  0.50232633  1
  Te2-  Te169  1  0.00069784  -0.01154796  0.83393929  1
  Te2-  Te170  1  -0.00766060  0.33261200  0.15215666  1
  Te2-  Te171  1  0.00003232  0.32976628  0.49758991  1
  Te2-  Te172  1  0.00583810  0.34037613  0.85406335  1
  Te2-  Te173  1  -0.00639919  0.67052297  0.17513740  1
  Te2-  Te174  1  -0.01195777  0.67116586  0.49139508  1
  Te2-  Te175  1  0.00169703  0.67345294  0.82826647  1
  Te2-  Te176  1  0.33438116  0.00439027  0.15379650  1
  Te2-  Te177  1  0.34755377  0.00415186  0.49198300  1
  Te2-  Te178  1  0.33676453  0.00241062  0.84571423  1
  Te2-  Te179  1  0.33138824  0.33679577  0.15447797  1
  Te2-  Te180  1  0.33811919  0.34321652  0.49500301  1
  Te2-  Te181  1  0.33249151  0.33414560  0.85065220  1
  Te2-  Te182  1  0.33270199  0.66881629  0.16686367  1
  Te2-  Te183  1  0.33649666  0.65911065  0.49361614  1
  Te2-  Te184  1  0.34217981  0.66907323  0.83378278  1
  Te2-  Te185  1  0.65676264  -0.00547096  0.14979729  1
  Te2-  Te186  1  0.64859672  0.00356869  0.50698408  1
  Te2-  Te187  1  0.65576142  0.00181890  0.84524643  1
  Te2-  Te188  1  0.66909760  0.33207123  0.17172240  1
  Te2-  Te189  1  0.66522771  0.32899985  0.49898515  1
  Te2-  Te190  1  0.66686335  0.34501547  0.82957756  1
  Te2-  Te191  1  0.66461605  0.67261736  0.17007861  1
  Te2-  Te192  1  0.67375657  0.66965815  0.50052551  1
  Te2-  Te193  1  0.65248819  0.65698981  0.82431460  1
  Pb2+  Pb194  1  0.82910045  -0.00789682  0.83549066  1
  Pb2+  Pb195  1  0.82985391  0.82615000  0.33639519  1
  Pb2+  Pb196  1  0.16929234  0.34062993  0.50178791  1
  Pb2+  Pb197  1  0.00486978  0.16862766  0.16486694  1
  Pb2+  Pb198  1  -0.00070297  -0.00854375  0.33475971  1
  Pb2+  Pb199  1  0.66584261  0.16207021  0.16692178  1
  Pb2+  Pb200  1  0.00356083  0.50548189  0.50519156  1
  Pb2+  Pb201  1  0.17379337  0.67178580  0.83204373  1
  Pb2+  Pb202  1  0.66303457  0.82916939  0.83321542  1
  Pb2+  Pb203  1  0.66169224  0.50170097  0.15700664  1
  Pb2+  Pb204  1  0.17513299  -0.00922668  0.49977314  1
  Pb2+  Pb205  1  0.17032805  0.16054469  0.00116216  1
  Pb2+  Pb206  1  0.00462458  0.00207726  0.66847845  1
  Pb2+  Pb207  1  -0.00420629  0.34043607  0.32131679  1
  Pb2+  Pb208  1  0.83647707  0.34538475  0.83158820  1
  Pb2+  Pb209  1  0.66219010  0.50063496  0.50245022  1
  Pb2+  Pb210  1  0.50051352  0.33766742  0.83888883  1
  Pb2+  Pb211  1  0.49746037  0.16466967  0.66357666  1
  Pb2+  Pb212  1  0.17207320  0.16748380  0.32971214  1
  Pb2+  Pb213  1  0.49917217  0.16709074  0.00223243  1
  Pb2+  Pb214  1  0.66106276  -0.00525145  0.32915727  1
  Pb2+  Pb215  1  -0.00289124  0.50085974  0.16377510  1
