# generated using pymatgen
data_In22Ag21Sn22Bi21(Te54Pb11)2
_symmetry_space_group_name_H-M   'P 1'
_cell_length_a   19.20507020
_cell_length_b   19.16943058
_cell_length_c   19.20207176
_cell_angle_alpha   89.98596090
_cell_angle_beta   90.01356476
_cell_angle_gamma   89.99520978
_symmetry_Int_Tables_number   1
_chemical_formula_structural   In22Ag21Sn22Bi21(Te54Pb11)2
_chemical_formula_sum   'In22 Ag21 Sn22 Bi21 Te108 Pb22'
_cell_volume   7069.24727790
_cell_formula_units_Z   1
loop_
 _symmetry_equiv_pos_site_id
 _symmetry_equiv_pos_as_xyz
  1  'x, y, z'
loop_
 _atom_type_symbol
 _atom_type_oxidation_number
  In3+  3.0
  Ag+  1.0
  Sn2+  2.0
  Bi3+  3.0
  Te2-  -2.0
  Pb2+  2.0
loop_
 _atom_site_type_symbol
 _atom_site_label
 _atom_site_symmetry_multiplicity
 _atom_site_fract_x
 _atom_site_fract_y
 _atom_site_fract_z
 _atom_site_occupancy
  In3+  In0  1  0.67088214  0.68551793  0.00602859  1
  In3+  In1  1  0.00246532  0.00033475  0.01225392  1
  In3+  In2  1  0.33691341  0.83542465  0.84955420  1
  In3+  In3  1  0.51791679  0.49014889  0.33043659  1
  In3+  In4  1  0.85037027  0.83655648  0.67746055  1
  In3+  In5  1  0.66182678  0.47590280  0.50092721  1
  In3+  In6  1  0.16291260  0.68752683  0.84901162  1
  In3+  In7  1  0.35287776  0.32534328  0.65155900  1
  In3+  In8  1  0.67208069  0.32382890  0.65554650  1
  In3+  In9  1  0.50165724  0.48217586  -0.01911853  1
  In3+  In10  1  0.67933510  0.83643165  0.50677812  1
  In3+  In11  1  0.15886857  0.01724161  0.47647484  1
  In3+  In12  1  0.00738322  0.31516411  -0.01041158  1
  In3+  In13  1  0.00747441  0.48275873  0.15818883  1
  In3+  In14  1  0.01822835  0.33109061  0.64728885  1
  In3+  In15  1  0.33324744  0.15542739  0.48702965  1
  In3+  In16  1  0.81813595  0.00639780  0.50159771  1
  In3+  In17  1  0.16141991  0.47285054  0.33859889  1
  In3+  In18  1  0.16125257  0.69312560  0.50115825  1
  In3+  In19  1  0.16968983  0.16394493  0.02749164  1
  In3+  In20  1  0.66907937  0.00338039  0.01839810  1
  In3+  In21  1  0.51018568  0.32503471  0.17312343  1
  Ag+  Ag22  1  0.50413715  0.33336441  0.81451811  1
  Ag+  Ag23  1  0.14525258  0.31880247  0.46991521  1
  Ag+  Ag24  1  0.86738941  0.85423363  -0.03105576  1
  Ag+  Ag25  1  0.14743716  0.16918471  0.33947592  1
  Ag+  Ag26  1  0.50193716  0.30269048  0.51937113  1
  Ag+  Ag27  1  0.83909515  0.64004039  0.14261074  1
  Ag+  Ag28  1  0.19275890  -0.02221528  0.14847111  1
  Ag+  Ag29  1  0.30449768  -0.01890907  -0.00063407  1
  Ag+  Ag30  1  -0.02468068  0.86628154  0.50300759  1
  Ag+  Ag31  1  0.67523220  0.33795986  0.31248171  1
  Ag+  Ag32  1  0.80443839  0.16864566  0.36230239  1
  Ag+  Ag33  1  0.53699161  0.86252368  0.69954246  1
  Ag+  Ag34  1  0.80496690  0.66055793  0.85366052  1
  Ag+  Ag35  1  -0.02061308  0.18267947  0.49136085  1
  Ag+  Ag36  1  0.16756592  0.31247947  0.16858106  1
  Ag+  Ag37  1  0.68255088  0.17837777  0.49594993  1
  Ag+  Ag38  1  -0.02341705  0.83359375  0.85931366  1
  Ag+  Ag39  1  0.15097604  0.80544909  -0.02412957  1
  Ag+  Ag40  1  0.29771598  0.87262689  0.13918288  1
  Ag+  Ag41  1  0.48285824  -0.01324428  0.16336462  1
  Ag+  Ag42  1  0.63989653  -0.02260934  0.68910532  1
  Sn2+  Sn43  1  0.82386919  0.33262071  0.49500020  1
  Sn2+  Sn44  1  0.16849628  0.83122424  0.67003827  1
  Sn2+  Sn45  1  -0.00531113  0.66891193  0.32704419  1
  Sn2+  Sn46  1  0.49502852  0.16246149  -0.00431681  1
  Sn2+  Sn47  1  0.17391015  0.33229280  0.83699589  1
  Sn2+  Sn48  1  0.50033965  -0.00315243  0.48795419  1
  Sn2+  Sn49  1  -0.00638095  0.00390740  0.33705192  1
  Sn2+  Sn50  1  0.16663216  0.16247533  0.65179938  1
  Sn2+  Sn51  1  0.33150289  0.16924957  0.16665566  1
  Sn2+  Sn52  1  -0.00432776  0.32557521  0.32740163  1
  Sn2+  Sn53  1  0.00723462  0.15884078  0.82525871  1
  Sn2+  Sn54  1  0.50528323  0.15955952  0.66734153  1
  Sn2+  Sn55  1  0.16260735  0.00940969  0.84096182  1
  Sn2+  Sn56  1  0.15853191  0.66819895  0.17538984  1
  Sn2+  Sn57  1  0.66554340  0.16665847  0.82118865  1
  Sn2+  Sn58  1  0.50341134  0.83258354  0.33545489  1
  Sn2+  Sn59  1  0.66425215  0.01208546  0.34323156  1
  Sn2+  Sn60  1  0.84218117  0.49011759  0.33137449  1
  Sn2+  Sn61  1  0.32883629  0.49604226  0.17068227  1
  Sn2+  Sn62  1  0.00494940  0.16578960  0.18562623  1
  Sn2+  Sn63  1  0.83561450  0.83774912  0.32964857  1
  Sn2+  Sn64  1  0.67140837  0.49328903  0.83544263  1
  Bi3+  Bi65  1  0.33559549  0.83546929  0.49518946  1
  Bi3+  Bi66  1  0.16543809  0.49417819  0.66167565  1
  Bi3+  Bi67  1  0.83296365  0.50073562  0.66484624  1
  Bi3+  Bi68  1  -0.00323591  0.83555702  0.17934351  1
  Bi3+  Bi69  1  0.83633576  0.16022347  -0.00268679  1
  Bi3+  Bi70  1  0.66877893  0.83273910  0.17458000  1
  Bi3+  Bi71  1  0.33190210  0.33468651  0.00344105  1
  Bi3+  Bi72  1  0.33248786  0.66797918  0.66222029  1
  Bi3+  Bi73  1  0.00369160  0.00271204  0.66685443  1
  Bi3+  Bi74  1  0.50393849  0.83761031  0.00685982  1
  Bi3+  Bi75  1  0.66900946  0.32930510  -0.00196986  1
  Bi3+  Bi76  1  0.83501297  0.66653820  0.49986362  1
  Bi3+  Bi77  1  0.33196605  0.49686399  0.49975868  1
  Bi3+  Bi78  1  0.49813645  0.67093080  0.49881738  1
  Bi3+  Bi79  1  0.32608594  0.66838369  0.32990275  1
  Bi3+  Bi80  1  0.00439462  0.66872193  0.66307947  1
  Bi3+  Bi81  1  0.49925090  0.16505345  0.33086897  1
  Bi3+  Bi82  1  0.16738232  0.84100839  0.33449735  1
  Bi3+  Bi83  1  0.83387979  0.16706534  0.66860617  1
  Bi3+  Bi84  1  0.33119023  0.16772268  0.83668968  1
  Bi3+  Bi85  1  0.83881886  0.00184690  0.17106469  1
  Te2-  Te86  1  0.16257651  0.16358238  0.17739547  1
  Te2-  Te87  1  0.17917299  0.17416216  0.49207862  1
  Te2-  Te88  1  0.16565788  0.17232582  0.82737022  1
  Te2-  Te89  1  0.15884071  0.50981433  0.17340320  1
  Te2-  Te90  1  0.17012737  0.47457442  0.49771922  1
  Te2-  Te91  1  0.16474971  0.49485948  0.82943601  1
  Te2-  Te92  1  0.15833759  0.83242486  0.17268476  1
  Te2-  Te93  1  0.17507084  0.85058380  0.49839038  1
  Te2-  Te94  1  0.18084861  0.83928167  0.83792636  1
  Te2-  Te95  1  0.50282780  0.17337203  0.16656950  1
  Te2-  Te96  1  0.48781557  0.15745445  0.49564837  1
  Te2-  Te97  1  0.49752329  0.17716110  0.83273053  1
  Te2-  Te98  1  0.49712523  0.49833465  0.17981979  1
  Te2-  Te99  1  0.50084003  0.50585710  0.48849412  1
  Te2-  Te100  1  0.50031906  0.48959280  0.82954421  1
  Te2-  Te101  1  0.50673718  0.83971337  0.16859356  1
  Te2-  Te102  1  0.49605377  0.83231376  0.49991271  1
  Te2-  Te103  1  0.49293350  0.83645371  0.83604854  1
  Te2-  Te104  1  0.83891991  0.16367455  0.15853020  1
  Te2-  Te105  1  0.83263560  0.16131397  0.50695509  1
  Te2-  Te106  1  0.83756260  0.16767757  0.83254339  1
  Te2-  Te107  1  0.83986996  0.49636755  0.17251798  1
  Te2-  Te108  1  0.82694894  0.50057370  0.50233777  1
  Te2-  Te109  1  0.83370533  0.51212375  0.82838156  1
  Te2-  Te110  1  0.83414988  0.84083219  0.17097634  1
  Te2-  Te111  1  0.83345888  0.83280980  0.49188137  1
  Te2-  Te112  1  0.83051938  0.82335130  0.82957923  1
  Te2-  Te113  1  0.15987240  0.01273142  0.00880452  1
  Te2-  Te114  1  0.16625666  0.00765538  0.32776047  1
  Te2-  Te115  1  0.16430657  0.00143550  0.67292944  1
  Te2-  Te116  1  0.16562491  0.32611928  0.00761187  1
  Te2-  Te117  1  0.16424202  0.32245096  0.32366182  1
  Te2-  Te118  1  0.16579054  0.33319510  0.67090601  1
  Te2-  Te119  1  0.16858984  0.66315211  0.00107060  1
  Te2-  Te120  1  0.16417361  0.67542784  0.33981843  1
  Te2-  Te121  1  0.16763128  0.65823580  0.65982307  1
  Te2-  Te122  1  0.51324948  0.00248975  0.01250681  1
  Te2-  Te123  1  0.50084086  0.00215822  0.31905378  1
  Te2-  Te124  1  0.49601646  0.00225969  0.66532586  1
  Te2-  Te125  1  0.49943738  0.33099852  0.01394925  1
  Te2-  Te126  1  0.50847953  0.33420571  0.32633310  1
  Te2-  Te127  1  0.50612621  0.33020341  0.66676126  1
  Te2-  Te128  1  0.50935988  0.67318009  0.00187051  1
  Te2-  Te129  1  0.49619565  0.66396068  0.33565855  1
  Te2-  Te130  1  0.49606878  0.66710029  0.66335579  1
  Te2-  Te131  1  0.83576719  -0.00458929  0.00048794  1
  Te2-  Te132  1  0.83241686  0.01385339  0.33829108  1
  Te2-  Te133  1  0.83994875  0.00047898  0.65690371  1
  Te2-  Te134  1  0.83366869  0.32923399  -0.00051216  1
  Te2-  Te135  1  0.82285877  0.32095502  0.33950029  1
  Te2-  Te136  1  0.82553184  0.33455888  0.66504680  1
  Te2-  Te137  1  0.82441511  0.67038972  -0.00166556  1
  Te2-  Te138  1  0.83467372  0.66278910  0.34116829  1
  Te2-  Te139  1  0.84175188  0.66532787  0.66105712  1
  Te2-  Te140  1  -0.00071309  0.16266134  -0.00523702  1
  Te2-  Te141  1  -0.00032244  0.16979914  0.34476018  1
  Te2-  Te142  1  -0.00221167  0.17158642  0.66077012  1
  Te2-  Te143  1  -0.00123674  0.50562032  0.00600385  1
  Te2-  Te144  1  0.00410161  0.49528102  0.32593668  1
  Te2-  Te145  1  -0.00079334  0.49551175  0.66570514  1
  Te2-  Te146  1  0.00991560  0.84422714  0.00676836  1
  Te2-  Te147  1  0.00482500  0.83741432  0.34500562  1
  Te2-  Te148  1  0.00231554  0.83264352  0.64971589  1
  Te2-  Te149  1  0.32724397  0.17377094  -0.00163582  1
  Te2-  Te150  1  0.33669137  0.16947137  0.33415565  1
  Te2-  Te151  1  0.33299938  0.17372101  0.67389111  1
  Te2-  Te152  1  0.34225983  0.49953067  0.00233985  1
  Te2-  Te153  1  0.31857328  0.50452554  0.33818439  1
  Te2-  Te154  1  0.33048886  0.49676151  0.66319232  1
  Te2-  Te155  1  0.34095629  0.84011134  0.00420991  1
  Te2-  Te156  1  0.33288938  0.83104158  0.33057966  1
  Te2-  Te157  1  0.32858939  0.82865720  0.65882358  1
  Te2-  Te158  1  0.67105493  0.16435294  -0.00334034  1
  Te2-  Te159  1  0.65918947  0.17276247  0.34468227  1
  Te2-  Te160  1  0.67283160  0.16925243  0.65469411  1
  Te2-  Te161  1  0.65942491  0.49411411  -0.00099628  1
  Te2-  Te162  1  0.67161317  0.48633388  0.33959574  1
  Te2-  Te163  1  0.67133552  0.49388703  0.66279737  1
  Te2-  Te164  1  0.66808435  0.84148147  0.00604308  1
  Te2-  Te165  1  0.66616442  0.83679956  0.33600488  1
  Te2-  Te166  1  0.67713333  0.83591633  0.66153950  1
  Te2-  Te167  1  -0.00032685  0.00067410  0.16836663  1
  Te2-  Te168  1  0.01057251  0.00793813  0.50499615  1
  Te2-  Te169  1  0.00163529  -0.01611371  0.82638430  1
  Te2-  Te170  1  0.01357330  0.33108596  0.15876411  1
  Te2-  Te171  1  -0.00126602  0.32926491  0.49618997  1
  Te2-  Te172  1  0.00082539  0.33395609  0.84160395  1
  Te2-  Te173  1  -0.01441714  0.67581184  0.16749207  1
  Te2-  Te174  1  0.00045559  0.66388698  0.50013266  1
  Te2-  Te175  1  0.01105952  0.68453571  0.82643398  1
  Te2-  Te176  1  0.33863406  0.01437510  0.15537399  1
  Te2-  Te177  1  0.32982027  0.00094395  0.50158950  1
  Te2-  Te178  1  0.33192148  0.00462112  0.84786183  1
  Te2-  Te179  1  0.31843317  0.33813389  0.16494119  1
  Te2-  Te180  1  0.35380157  0.33636422  0.50132082  1
  Te2-  Te181  1  0.34200861  0.33019875  0.84154751  1
  Te2-  Te182  1  0.33193964  0.66426027  0.17025337  1
  Te2-  Te183  1  0.33135843  0.66479770  0.49770211  1
  Te2-  Te184  1  0.32428046  0.67179374  0.82788875  1
  Te2-  Te185  1  0.67669542  -0.00197656  0.17329540  1
  Te2-  Te186  1  0.66622050  -0.00726689  0.50236836  1
  Te2-  Te187  1  0.66810909  0.00769665  0.82789358  1
  Te2-  Te188  1  0.66803104  0.33392179  0.16356875  1
  Te2-  Te189  1  0.65303461  0.32298631  0.50349115  1
  Te2-  Te190  1  0.65674719  0.33337591  0.83926018  1
  Te2-  Te191  1  0.68169693  0.66982724  0.16489529  1
  Te2-  Te192  1  0.66475979  0.67615837  0.50020102  1
  Te2-  Te193  1  0.66052950  0.66349982  0.83520510  1
  Pb2+  Pb194  1  0.33358206  -0.00025782  0.32681902  1
  Pb2+  Pb195  1  0.50281123  0.67136206  0.16742812  1
  Pb2+  Pb196  1  0.66966516  0.16477150  0.17332242  1
  Pb2+  Pb197  1  0.16812231  0.49383349  0.00249174  1
  Pb2+  Pb198  1  0.49512067  0.66385025  0.83327424  1
  Pb2+  Pb199  1  0.84546790  0.32962747  0.17178722  1
  Pb2+  Pb200  1  0.66344317  0.50307817  0.16728870  1
  Pb2+  Pb201  1  0.66774122  0.66603023  0.33610859  1
  Pb2+  Pb202  1  0.82937920  0.50388959  -0.00001295  1
  Pb2+  Pb203  1  -0.00665574  0.67442592  -0.00177092  1
  Pb2+  Pb204  1  0.33065553  0.49660797  0.83300956  1
  Pb2+  Pb205  1  0.67038458  0.66584122  0.66748908  1
  Pb2+  Pb206  1  0.33739226  0.67354395  0.00407904  1
  Pb2+  Pb207  1  0.00222159  0.49878054  0.49399232  1
  Pb2+  Pb208  1  0.83567517  -0.00307671  0.82902463  1
  Pb2+  Pb209  1  0.00113321  0.50860059  0.83454799  1
  Pb2+  Pb210  1  0.82958256  0.33821732  0.83279896  1
  Pb2+  Pb211  1  0.33803118  0.33636777  0.33292418  1
  Pb2+  Pb212  1  0.50133846  0.50012911  0.65560837  1
  Pb2+  Pb213  1  0.32937142  -0.00170192  0.67501900  1
  Pb2+  Pb214  1  0.50055259  0.00880045  0.84295190  1
  Pb2+  Pb215  1  0.66499715  0.83540436  0.83715973  1
