# generated using pymatgen
data_In22Ag21Sn22Bi21(Te54Pb11)2
_symmetry_space_group_name_H-M   'P 1'
_cell_length_a   19.15558587
_cell_length_b   19.13890532
_cell_length_c   19.14842168
_cell_angle_alpha   90.00834937
_cell_angle_beta   89.99124039
_cell_angle_gamma   89.99637973
_symmetry_Int_Tables_number   1
_chemical_formula_structural   In22Ag21Sn22Bi21(Te54Pb11)2
_chemical_formula_sum   'In22 Ag21 Sn22 Bi21 Te108 Pb22'
_cell_volume   7020.13567278
_cell_formula_units_Z   1
loop_
 _symmetry_equiv_pos_site_id
 _symmetry_equiv_pos_as_xyz
  1  'x, y, z'
loop_
 _atom_type_symbol
 _atom_type_oxidation_number
  In3+  3.0
  Ag+  1.0
  Sn2+  2.0
  Bi3+  3.0
  Te2-  -2.0
  Pb2+  2.0
loop_
 _atom_site_type_symbol
 _atom_site_label
 _atom_site_symmetry_multiplicity
 _atom_site_fract_x
 _atom_site_fract_y
 _atom_site_fract_z
 _atom_site_occupancy
  In3+  In0  1  0.17428908  0.33650102  0.16008576  1
  In3+  In1  1  0.69204784  0.00706097  0.66791710  1
  In3+  In2  1  0.15232934  0.33264418  0.84318778  1
  In3+  In3  1  0.33083111  0.84135083  0.49639552  1
  In3+  In4  1  0.16009334  0.84434634  0.67739050  1
  In3+  In5  1  0.64671469  0.33036845  -0.00506947  1
  In3+  In6  1  0.83421900  -0.01846683  0.16919453  1
  In3+  In7  1  0.32209582  0.00002654  0.68483172  1
  In3+  In8  1  0.00746981  0.35698045  0.02043019  1
  In3+  In9  1  -0.01523980  0.16451999  0.83586971  1
  In3+  In10  1  0.81029221  0.65815588  0.84208546  1
  In3+  In11  1  0.32748387  0.35128318  0.00943828  1
  In3+  In12  1  0.51115395  0.50693171  0.66573478  1
  In3+  In13  1  0.00895302  0.66824283  0.01489466  1
  In3+  In14  1  0.15855484  0.49919234  0.30468747  1
  In3+  In15  1  0.82333343  0.50091081  0.31296682  1
  In3+  In16  1  0.80597731  0.33533035  0.15794044  1
  In3+  In17  1  0.33723288  0.16832808  0.85125949  1
  In3+  In18  1  0.15120284  -0.00521781  0.46876512  1
  In3+  In19  1  0.50476315  0.66122654  0.49845185  1
  In3+  In20  1  0.16458932  0.34729337  0.50398469  1
  In3+  In21  1  0.65703514  0.68166055  0.00150131  1
  Ag+  Ag22  1  0.03167842  0.80644619  0.47876566  1
  Ag+  Ag23  1  0.69481879  0.52846153  0.51264093  1
  Ag+  Ag24  1  0.49444664  0.68643965  0.85212585  1
  Ag+  Ag25  1  0.03127843  0.86333742  0.14033302  1
  Ag+  Ag26  1  0.68962948  0.16002884  0.50071294  1
  Ag+  Ag27  1  0.49651391  0.35337781  0.14155712  1
  Ag+  Ag28  1  0.16591758  0.84926672  0.01937852  1
  Ag+  Ag29  1  0.51942626  0.82807320  0.02543052  1
  Ag+  Ag30  1  0.64010688  0.01917378  0.31004280  1
  Ag+  Ag31  1  0.35610401  -0.00821030  0.00821888  1
  Ag+  Ag32  1  0.13658225  -0.03089924  0.16463050  1
  Ag+  Ag33  1  0.35751172  0.52728065  0.14962676  1
  Ag+  Ag34  1  0.02511724  0.50566704  0.15497513  1
  Ag+  Ag35  1  0.68109897  0.16150157  0.86055757  1
  Ag+  Ag36  1  0.81120009  0.50349397  0.00045554  1
  Ag+  Ag37  1  0.00609243  -0.02973425  0.30540340  1
  Ag+  Ag38  1  0.17289236  0.51707080  -0.00313373  1
  Ag+  Ag39  1  0.47357422  -0.00343385  0.13272395  1
  Ag+  Ag40  1  -0.00885585  -0.02447590  0.64018780  1
  Ag+  Ag41  1  0.64710471  -0.01703884  0.03004394  1
  Ag+  Ag42  1  0.49918810  0.70039317  0.14448187  1
  Sn2+  Sn43  1  0.33129426  0.68334229  0.00339942  1
  Sn2+  Sn44  1  -0.00048215  0.66967776  0.32440868  1
  Sn2+  Sn45  1  0.00261826  0.50679546  0.84337256  1
  Sn2+  Sn46  1  0.50639707  0.16377160  0.66907954  1
  Sn2+  Sn47  1  0.33313734  0.83964826  0.15624397  1
  Sn2+  Sn48  1  0.17616335  0.66126121  0.16067843  1
  Sn2+  Sn49  1  0.50187689  0.83406975  0.32906995  1
  Sn2+  Sn50  1  0.66133665  0.16307025  0.17483525  1
  Sn2+  Sn51  1  -0.00114532  0.50524256  0.49079452  1
  Sn2+  Sn52  1  0.50185528  -0.00344686  0.83312570  1
  Sn2+  Sn53  1  0.16787662  0.66948401  0.49978659  1
  Sn2+  Sn54  1  0.83655204  -0.00340432  0.48817225  1
  Sn2+  Sn55  1  0.50318310  0.16388478  0.32763583  1
  Sn2+  Sn56  1  0.16964978  0.15385075  0.00303129  1
  Sn2+  Sn57  1  0.00045972  0.67272342  0.67525966  1
  Sn2+  Sn58  1  0.66286876  0.66399042  0.67324043  1
  Sn2+  Sn59  1  0.16730782  0.00330465  0.84843854  1
  Sn2+  Sn60  1  0.50070776  0.15421986  0.00110301  1
  Sn2+  Sn61  1  0.16619907  0.50273600  0.67400566  1
  Sn2+  Sn62  1  0.83368941  0.33863801  0.84709124  1
  Sn2+  Sn63  1  0.49498468  0.49710263  0.33390317  1
  Sn2+  Sn64  1  -0.00161195  0.83328265  0.83799894  1
  Bi3+  Bi65  1  0.33881380  0.16149270  0.16337660  1
  Bi3+  Bi66  1  0.33082345  0.83447757  0.83495716  1
  Bi3+  Bi67  1  0.49557889  0.83513187  0.66422791  1
  Bi3+  Bi68  1  0.00163075  0.34001200  0.33460146  1
  Bi3+  Bi69  1  0.00393985  0.16892154  0.50379064  1
  Bi3+  Bi70  1  0.33186422  0.49948082  0.49559138  1
  Bi3+  Bi71  1  -0.00444132  0.00072356  -0.00444007  1
  Bi3+  Bi72  1  0.66869761  0.83338740  0.17288668  1
  Bi3+  Bi73  1  0.16899490  0.16473768  0.67258206  1
  Bi3+  Bi74  1  0.49764098  0.00089350  0.50506251  1
  Bi3+  Bi75  1  0.83421484  0.82992443  0.33668190  1
  Bi3+  Bi76  1  0.33284141  0.66230921  0.32968115  1
  Bi3+  Bi77  1  0.33052004  0.16173783  0.49995841  1
  Bi3+  Bi78  1  0.49728876  0.33134761  0.49720035  1
  Bi3+  Bi79  1  0.65978911  0.49726040  0.17157480  1
  Bi3+  Bi80  1  0.00063940  0.33504305  0.66816727  1
  Bi3+  Bi81  1  0.66358547  0.84228491  0.50124630  1
  Bi3+  Bi82  1  0.49882486  0.32754818  0.83091238  1
  Bi3+  Bi83  1  0.66565029  0.32718421  0.33331009  1
  Bi3+  Bi84  1  0.83393261  -0.00190955  0.83783560  1
  Bi3+  Bi85  1  0.33453752  0.33392043  0.32867887  1
  Te2-  Te86  1  0.17333780  0.17946946  0.16684966  1
  Te2-  Te87  1  0.16792642  0.15254685  0.50695829  1
  Te2-  Te88  1  0.18044485  0.17297884  0.83355371  1
  Te2-  Te89  1  0.17379157  0.49239292  0.15378925  1
  Te2-  Te90  1  0.17031067  0.50437251  0.50447742  1
  Te2-  Te91  1  0.16862651  0.48921648  0.84446224  1
  Te2-  Te92  1  0.17032300  0.82019146  0.16484125  1
  Te2-  Te93  1  0.17044409  0.84149084  0.50627947  1
  Te2-  Te94  1  0.16824472  0.83424916  0.83064604  1
  Te2-  Te95  1  0.50132525  0.13992902  0.16785633  1
  Te2-  Te96  1  0.49141694  0.16588320  0.50032669  1
  Te2-  Te97  1  0.49289980  0.16595158  0.83006764  1
  Te2-  Te98  1  0.50024710  0.49829493  0.17038267  1
  Te2-  Te99  1  0.49496337  0.49668624  0.50403914  1
  Te2-  Te100  1  0.50119857  0.49313093  0.82469829  1
  Te2-  Te101  1  0.50616150  0.84721802  0.17083376  1
  Te2-  Te102  1  0.49640163  0.83408122  0.50128160  1
  Te2-  Te103  1  0.49471138  0.83131958  0.82554346  1
  Te2-  Te104  1  0.83430652  0.18447476  0.16466820  1
  Te2-  Te105  1  0.83920815  0.16390852  0.49761121  1
  Te2-  Te106  1  0.82765955  0.16655021  0.83311679  1
  Te2-  Te107  1  0.82418836  0.49214785  0.15629445  1
  Te2-  Te108  1  0.83707082  0.50167809  0.50300086  1
  Te2-  Te109  1  0.83222703  0.50181269  0.84661488  1
  Te2-  Te110  1  0.83482152  0.82535854  0.17109531  1
  Te2-  Te111  1  0.82910579  0.83603090  0.50056261  1
  Te2-  Te112  1  0.83018290  0.83204552  0.83633401  1
  Te2-  Te113  1  0.15473109  -0.00290537  0.01306386  1
  Te2-  Te114  1  0.15521534  -0.00250652  0.31503778  1
  Te2-  Te115  1  0.16758593  0.00034599  0.67724060  1
  Te2-  Te116  1  0.16662742  0.32674203  -0.00140807  1
  Te2-  Te117  1  0.16872447  0.34232715  0.33502571  1
  Te2-  Te118  1  0.16390688  0.33049929  0.66899380  1
  Te2-  Te119  1  0.16347534  0.66532071  0.00115142  1
  Te2-  Te120  1  0.16902259  0.65616389  0.33157919  1
  Te2-  Te121  1  0.16586342  0.66848800  0.66516596  1
  Te2-  Te122  1  0.50748693  -0.01288855  -0.01144953  1
  Te2-  Te123  1  0.50061884  -0.00384140  0.34431241  1
  Te2-  Te124  1  0.48380457  -0.00295723  0.66574336  1
  Te2-  Te125  1  0.48985429  0.32951261  -0.00490980  1
  Te2-  Te126  1  0.49893755  0.33010239  0.33499878  1
  Te2-  Te127  1  0.49863998  0.33453954  0.66466801  1
  Te2-  Te128  1  0.50160375  0.67736577  -0.00118659  1
  Te2-  Te129  1  0.49485205  0.66450332  0.34146127  1
  Te2-  Te130  1  0.50165622  0.66659751  0.66072494  1
  Te2-  Te131  1  0.83296556  0.00113223  -0.00051784  1
  Te2-  Te132  1  0.85062011  -0.00795425  0.32582667  1
  Te2-  Te133  1  0.84725790  -0.00061571  0.67079256  1
  Te2-  Te134  1  0.85292280  0.34664699  0.00392561  1
  Te2-  Te135  1  0.83257233  0.33998145  0.32589006  1
  Te2-  Te136  1  0.83479370  0.33501555  0.67119217  1
  Te2-  Te137  1  0.83390432  0.65581392  -0.00724009  1
  Te2-  Te138  1  0.83089881  0.66010980  0.33435477  1
  Te2-  Te139  1  0.82806327  0.66597651  0.68037662  1
  Te2-  Te140  1  0.00275544  0.16696363  -0.00812069  1
  Te2-  Te141  1  0.00074037  0.17818125  0.33668036  1
  Te2-  Te142  1  0.00730392  0.17195451  0.67214717  1
  Te2-  Te143  1  0.01531097  0.50625213  0.00334604  1
  Te2-  Te144  1  -0.00014666  0.50051610  0.32970459  1
  Te2-  Te145  1  0.00713767  0.49745866  0.66930413  1
  Te2-  Te146  1  0.01009003  0.82632912  0.00018975  1
  Te2-  Te147  1  -0.00360621  0.82708932  0.33779726  1
  Te2-  Te148  1  0.00728704  0.83281710  0.66798601  1
  Te2-  Te149  1  0.33715901  0.14570496  0.00281868  1
  Te2-  Te150  1  0.33255075  0.16861904  0.33387889  1
  Te2-  Te151  1  0.33173321  0.16124307  0.66232518  1
  Te2-  Te152  1  0.32886194  0.50266706  0.00693613  1
  Te2-  Te153  1  0.32609706  0.49596778  0.33172380  1
  Te2-  Te154  1  0.32687118  0.49775426  0.66153079  1
  Te2-  Te155  1  0.32050333  0.83996427  -0.00392126  1
  Te2-  Te156  1  0.33246447  0.82684589  0.33755289  1
  Te2-  Te157  1  0.33012835  0.83770130  0.66567874  1
  Te2-  Te158  1  0.66261261  0.17690824  0.00589755  1
  Te2-  Te159  1  0.66754339  0.16167217  0.34305056  1
  Te2-  Te160  1  0.66530855  0.15922482  0.65223888  1
  Te2-  Te161  1  0.66372970  0.48350560  0.00507553  1
  Te2-  Te162  1  0.66863878  0.49359754  0.33643546  1
  Te2-  Te163  1  0.66484609  0.50055067  0.65566887  1
  Te2-  Te164  1  0.66765185  0.83668714  0.00481005  1
  Te2-  Te165  1  0.67104374  0.83872484  0.33761381  1
  Te2-  Te166  1  0.66037933  0.83460154  0.66417118  1
  Te2-  Te167  1  -0.01151914  0.00656566  0.16089434  1
  Te2-  Te168  1  0.00291253  0.00804302  0.49920508  1
  Te2-  Te169  1  -0.00211160  0.00284885  0.83500382  1
  Te2-  Te170  1  0.01169108  0.34899979  0.17185068  1
  Te2-  Te171  1  0.00021956  0.33444150  0.50059258  1
  Te2-  Te172  1  -0.00066233  0.33080015  0.83084430  1
  Te2-  Te173  1  0.00109515  0.65455866  0.16589937  1
  Te2-  Te174  1  0.00395870  0.66550375  0.50243714  1
  Te2-  Te175  1  0.00200986  0.66615216  0.83213939  1
  Te2-  Te176  1  0.32757694  -0.00096969  0.15868419  1
  Te2-  Te177  1  0.33060871  -0.00230821  0.49578281  1
  Te2-  Te178  1  0.32883993  -0.00017606  0.84256931  1
  Te2-  Te179  1  0.34777409  0.32503451  0.16486501  1
  Te2-  Te180  1  0.33176269  0.33093054  0.49538770  1
  Te2-  Te181  1  0.33669204  0.32646083  0.84408197  1
  Te2-  Te182  1  0.34842293  0.67220223  0.16887918  1
  Te2-  Te183  1  0.33643770  0.66338612  0.49505752  1
  Te2-  Te184  1  0.34360323  0.66862197  0.83734599  1
  Te2-  Te185  1  0.68030260  -0.00281144  0.17108375  1
  Te2-  Te186  1  0.66514501  0.00353335  0.51100754  1
  Te2-  Te187  1  0.67327352  0.01317148  0.82306647  1
  Te2-  Te188  1  0.64839975  0.33104005  0.17166160  1
  Te2-  Te189  1  0.66059096  0.31976539  0.49444769  1
  Te2-  Te190  1  0.66473210  0.31810955  0.83865968  1
  Te2-  Te191  1  0.65271449  0.66635871  0.16002597  1
  Te2-  Te192  1  0.66140242  0.67181116  0.50086027  1
  Te2-  Te193  1  0.65588483  0.66429931  0.84239288  1
  Pb2+  Pb194  1  0.83978668  0.50094941  0.67440851  1
  Pb2+  Pb195  1  0.83260448  0.17329961  0.00028165  1
  Pb2+  Pb196  1  0.82685315  0.33625278  0.49615079  1
  Pb2+  Pb197  1  0.49805579  0.50705744  0.00080285  1
  Pb2+  Pb198  1  0.33180779  -0.00482457  0.32534617  1
  Pb2+  Pb199  1  0.33186639  0.32938030  0.67285246  1
  Pb2+  Pb200  1  0.16372288  0.82694425  0.33130693  1
  Pb2+  Pb201  1  0.83642436  0.66776955  0.50458154  1
  Pb2+  Pb202  1  0.83339010  0.16046826  0.32890567  1
  Pb2+  Pb203  1  0.00506103  0.17741172  0.16101802  1
  Pb2+  Pb204  1  0.17004940  0.66494654  0.83417043  1
  Pb2+  Pb205  1  0.66506356  0.32806428  0.66595292  1
  Pb2+  Pb206  1  0.33263950  0.66823446  0.66594118  1
  Pb2+  Pb207  1  0.66158732  0.84384987  0.83386699  1
  Pb2+  Pb208  1  0.66177781  0.66744489  0.32977371  1
  Pb2+  Pb209  1  0.82992116  0.65829187  0.16194471  1
  Pb2+  Pb210  1  0.66570855  0.49071983  0.83305809  1
  Pb2+  Pb211  1  0.84178752  0.82777884  0.00288187  1
  Pb2+  Pb212  1  0.33428655  0.49854483  0.83559160  1
  Pb2+  Pb213  1  0.83623498  0.16732968  0.66457578  1
  Pb2+  Pb214  1  0.83468281  0.83275974  0.66846097  1
  Pb2+  Pb215  1  0.16464857  0.17048088  0.33622093  1
