# generated using pymatgen
data_In22Ag21Sn22Bi21(Te54Pb11)2
_symmetry_space_group_name_H-M   'P 1'
_cell_length_a   19.16766031
_cell_length_b   19.17899795
_cell_length_c   19.15112929
_cell_angle_alpha   89.99464675
_cell_angle_beta   89.99888378
_cell_angle_gamma   89.99881751
_symmetry_Int_Tables_number   1
_chemical_formula_structural   In22Ag21Sn22Bi21(Te54Pb11)2
_chemical_formula_sum   'In22 Ag21 Sn22 Bi21 Te108 Pb22'
_cell_volume   7040.27142458
_cell_formula_units_Z   1
loop_
 _symmetry_equiv_pos_site_id
 _symmetry_equiv_pos_as_xyz
  1  'x, y, z'
loop_
 _atom_type_symbol
 _atom_type_oxidation_number
  In3+  3.0
  Ag+  1.0
  Sn2+  2.0
  Bi3+  3.0
  Te2-  -2.0
  Pb2+  2.0
loop_
 _atom_site_type_symbol
 _atom_site_label
 _atom_site_symmetry_multiplicity
 _atom_site_fract_x
 _atom_site_fract_y
 _atom_site_fract_z
 _atom_site_occupancy
  In3+  In0  1  0.67497909  0.66927266  0.36197307  1
  In3+  In1  1  0.32202685  0.33853462  0.33971770  1
  In3+  In2  1  0.48582779  0.34017179  0.51349468  1
  In3+  In3  1  0.81935964  0.16027377  0.66164767  1
  In3+  In4  1  0.00096676  0.33574533  -0.03001969  1
  In3+  In5  1  0.32949894  0.83350536  0.15213099  1
  In3+  In6  1  0.67595477  0.83466587  0.80474547  1
  In3+  In7  1  0.48648130  0.16600704  0.64900259  1
  In3+  In8  1  0.51078585  -0.00609124  0.51898601  1
  In3+  In9  1  0.83918418  0.15074434  -0.00635351  1
  In3+  In10  1  0.50536209  -0.00668111  0.17026397  1
  In3+  In11  1  0.67124106  0.68259284  -0.03185403  1
  In3+  In12  1  0.82850787  0.81937200  -0.01602644  1
  In3+  In13  1  0.00983093  0.80442836  0.83285093  1
  In3+  In14  1  -0.00084517  0.00416703  -0.01357329  1
  In3+  In15  1  0.67300313  0.16614486  0.51968486  1
  In3+  In16  1  0.50882382  0.82878244  0.66934545  1
  In3+  In17  1  0.83358740  0.49634209  -0.03080074  1
  In3+  In18  1  0.33815220  0.50186652  0.80733774  1
  In3+  In19  1  0.16358722  0.66966192  0.52633598  1
  In3+  In20  1  0.66588350  0.48179567  0.82105687  1
  In3+  In21  1  0.18558367  0.16785605  0.00182761  1
  Ag+  Ag22  1  0.30604025  -0.03335799  0.68570876  1
  Ag+  Ag23  1  0.03042285  0.50293595  0.83429087  1
  Ag+  Ag24  1  0.84677641  0.64540180  0.82658914  1
  Ag+  Ag25  1  0.03241315  0.69540656  0.29471947  1
  Ag+  Ag26  1  0.50257629  0.52340814  0.65226428  1
  Ag+  Ag27  1  0.64029322  0.63888225  0.67422929  1
  Ag+  Ag28  1  -0.03289643  0.35835033  0.66297750  1
  Ag+  Ag29  1  0.85392064  0.01394053  0.51991722  1
  Ag+  Ag30  1  0.68111628  0.35149571  0.64427413  1
  Ag+  Ag31  1  0.52485145  0.64882820  0.81719871  1
  Ag+  Ag32  1  0.18479829  0.67923872  0.83766213  1
  Ag+  Ag33  1  0.49548660  0.36074175  0.80503805  1
  Ag+  Ag34  1  0.02537156  0.36936014  0.30702344  1
  Ag+  Ag35  1  0.14326271  0.80800212  0.67037863  1
  Ag+  Ag36  1  0.34311453  0.13974564  0.50229430  1
  Ag+  Ag37  1  0.83322462  -0.01589343  0.81205059  1
  Ag+  Ag38  1  0.65099090  0.00031219  0.67063321  1
  Ag+  Ag39  1  0.84823841  0.52940871  0.66943706  1
  Ag+  Ag40  1  0.14760918  0.51153833  0.67050502  1
  Ag+  Ag41  1  0.66684451  0.81617896  0.50265870  1
  Ag+  Ag42  1  0.35154095  0.51320286  0.50008638  1
  Sn2+  Sn43  1  0.16720647  0.00023997  0.50419487  1
  Sn2+  Sn44  1  0.34015663  0.65812310  -0.00712977  1
  Sn2+  Sn45  1  0.16133653  0.82732131  -0.00837350  1
  Sn2+  Sn46  1  0.50193524  0.49914333  -0.00658268  1
  Sn2+  Sn47  1  0.49442873  0.50201363  0.33856574  1
  Sn2+  Sn48  1  0.83658230  0.33326449  0.50352839  1
  Sn2+  Sn49  1  -0.00459919  0.00590490  0.66925754  1
  Sn2+  Sn50  1  0.16854460  0.66166912  0.15319404  1
  Sn2+  Sn51  1  0.16454544  0.16327297  0.33827519  1
  Sn2+  Sn52  1  0.82842889  0.83812245  0.66321124  1
  Sn2+  Sn53  1  0.16639986  0.50428948  -0.01257101  1
  Sn2+  Sn54  1  0.82331300  0.66800345  0.16387612  1
  Sn2+  Sn55  1  0.33693802  0.83219659  0.50342631  1
  Sn2+  Sn56  1  0.66846317  0.15925535  0.16902567  1
  Sn2+  Sn57  1  0.83392384  0.82895532  0.33965732  1
  Sn2+  Sn58  1  0.33506795  0.33750468  0.66416542  1
  Sn2+  Sn59  1  -0.00404269  0.66036843  -0.00434694  1
  Sn2+  Sn60  1  0.66703232  -0.00157389  0.34928808  1
  Sn2+  Sn61  1  0.50266173  0.82653290  -0.00735655  1
  Sn2+  Sn62  1  0.32903722  0.66758239  0.33560467  1
  Sn2+  Sn63  1  0.66363125  0.16317423  0.83214251  1
  Sn2+  Sn64  1  -0.00108929  0.16909046  0.17125271  1
  Bi3+  Bi65  1  -0.00176162  0.17256806  0.83348226  1
  Bi3+  Bi66  1  0.16655785  0.33727389  0.50842758  1
  Bi3+  Bi67  1  0.66757373  0.50019402  0.16339879  1
  Bi3+  Bi68  1  -0.00488254  0.66311794  0.66934086  1
  Bi3+  Bi69  1  0.66592469  0.34059154  -0.00046835  1
  Bi3+  Bi70  1  0.83287557  0.66979855  0.50930056  1
  Bi3+  Bi71  1  0.16714521  -0.00253226  0.16483643  1
  Bi3+  Bi72  1  0.17053420  0.16998740  0.66608941  1
  Bi3+  Bi73  1  0.49852610  0.16959606  0.33609180  1
  Bi3+  Bi74  1  0.49978667  0.33432322  0.16976420  1
  Bi3+  Bi75  1  0.66640291  0.33279286  0.34092231  1
  Bi3+  Bi76  1  0.50025991  0.66752024  0.16326615  1
  Bi3+  Bi77  1  0.33147191  0.66581947  0.66638908  1
  Bi3+  Bi78  1  0.33504019  0.00020167  0.34128623  1
  Bi3+  Bi79  1  0.83334020  -0.00289563  0.17023528  1
  Bi3+  Bi80  1  0.50677848  0.00123917  0.83439451  1
  Bi3+  Bi81  1  -0.00133494  -0.00146231  0.33275928  1
  Bi3+  Bi82  1  -0.00141925  0.49783996  0.50900587  1
  Bi3+  Bi83  1  0.50895667  0.16422273  0.00307573  1
  Bi3+  Bi84  1  0.83096887  0.50084751  0.34773375  1
  Bi3+  Bi85  1  0.17548097  0.33460650  0.83043843  1
  Te2-  Te86  1  0.16660451  0.16169999  0.16335784  1
  Te2-  Te87  1  0.17348878  0.17176208  0.50193592  1
  Te2-  Te88  1  0.16482507  0.16936730  0.83765122  1
  Te2-  Te89  1  0.16324264  0.50353303  0.16546261  1
  Te2-  Te90  1  0.15938325  0.50158247  0.51843827  1
  Te2-  Te91  1  0.17829567  0.49329992  0.82630092  1
  Te2-  Te92  1  0.17209920  0.83399021  0.16316266  1
  Te2-  Te93  1  0.16518921  0.82573931  0.51940697  1
  Te2-  Te94  1  0.16272809  0.82884282  0.82354327  1
  Te2-  Te95  1  0.50094220  0.16844354  0.16875783  1
  Te2-  Te96  1  0.49013317  0.16759388  0.49741186  1
  Te2-  Te97  1  0.50123958  0.16078954  0.84227965  1
  Te2-  Te98  1  0.50299064  0.50042222  0.16755765  1
  Te2-  Te99  1  0.49909700  0.49558102  0.50200659  1
  Te2-  Te100  1  0.49238308  0.50652782  0.84096533  1
  Te2-  Te101  1  0.49541343  0.83158323  0.16327607  1
  Te2-  Te102  1  0.51105142  0.84076957  0.50628587  1
  Te2-  Te103  1  0.50848982  0.84112093  0.83270498  1
  Te2-  Te104  1  0.83207495  0.16304637  0.16121569  1
  Te2-  Te105  1  0.82920650  0.15878097  0.50348199  1
  Te2-  Te106  1  0.83540939  0.16583660  0.83857769  1
  Te2-  Te107  1  0.82921237  0.50571536  0.17728553  1
  Te2-  Te108  1  0.83372679  0.50244553  0.51659227  1
  Te2-  Te109  1  0.81769032  0.50067411  0.81562617  1
  Te2-  Te110  1  0.83495995  0.83152997  0.16857277  1
  Te2-  Te111  1  0.82191242  0.82868732  0.49836836  1
  Te2-  Te112  1  0.82715530  0.83986463  0.83548181  1
  Te2-  Te113  1  0.16087082  -0.00201568  0.00098366  1
  Te2-  Te114  1  0.16670310  -0.00005055  0.33242234  1
  Te2-  Te115  1  0.16718353  0.00618169  0.66218530  1
  Te2-  Te116  1  0.16072390  0.33506160  -0.00526117  1
  Te2-  Te117  1  0.16431425  0.33246333  0.33979029  1
  Te2-  Te118  1  0.17391682  0.33207418  0.66930115  1
  Te2-  Te119  1  0.16420823  0.66769633  -0.00925216  1
  Te2-  Te120  1  0.17191456  0.66694459  0.32514219  1
  Te2-  Te121  1  0.16667707  0.65970628  0.68089077  1
  Te2-  Te122  1  0.50248678  -0.00086293  0.00256041  1
  Te2-  Te123  1  0.49973167  0.00589128  0.33194857  1
  Te2-  Te124  1  0.50284997  0.01185142  0.67045039  1
  Te2-  Te125  1  0.50308126  0.32977747  0.00759180  1
  Te2-  Te126  1  0.50232938  0.33265177  0.33304402  1
  Te2-  Te127  1  0.49790216  0.31803094  0.66590618  1
  Te2-  Te128  1  0.50767318  0.66878666  0.00136342  1
  Te2-  Te129  1  0.49714682  0.66504189  0.33029646  1
  Te2-  Te130  1  0.49612958  0.67382385  0.67287351  1
  Te2-  Te131  1  0.83819163  -0.00099643  0.00898636  1
  Te2-  Te132  1  0.83346581  -0.00418752  0.33073261  1
  Te2-  Te133  1  0.83727888  0.00695137  0.66535867  1
  Te2-  Te134  1  0.83122207  0.34490693  -0.00239873  1
  Te2-  Te135  1  0.82853136  0.33598422  0.34103643  1
  Te2-  Te136  1  0.82412707  0.31485788  0.66258170  1
  Te2-  Te137  1  0.82743218  0.66435312  -0.01479875  1
  Te2-  Te138  1  0.82943931  0.66301415  0.34165337  1
  Te2-  Te139  1  0.83480228  0.67709287  0.67392227  1
  Te2-  Te140  1  -0.00773120  0.17607611  -0.00236636  1
  Te2-  Te141  1  0.00129658  0.16193228  0.33645099  1
  Te2-  Te142  1  0.00834476  0.16457923  0.67265845  1
  Te2-  Te143  1  -0.00646225  0.49416036  -0.01632938  1
  Te2-  Te144  1  -0.00809054  0.50571024  0.34182629  1
  Te2-  Te145  1  -0.00277803  0.50209804  0.67646551  1
  Te2-  Te146  1  -0.00592376  0.83402234  -0.01466621  1
  Te2-  Te147  1  0.00190908  0.83281839  0.33369591  1
  Te2-  Te148  1  -0.00147812  0.83387896  0.68091262  1
  Te2-  Te149  1  0.34209902  0.16682887  0.00097396  1
  Te2-  Te150  1  0.33387931  0.16396462  0.34621744  1
  Te2-  Te151  1  0.33373164  0.16652996  0.65477790  1
  Te2-  Te152  1  0.33040374  0.50358148  0.00831692  1
  Te2-  Te153  1  0.33295264  0.49791797  0.34663184  1
  Te2-  Te154  1  0.35168249  0.50525642  0.65703414  1
  Te2-  Te155  1  0.33125071  0.83116771  -0.00207167  1
  Te2-  Te156  1  0.33500013  0.83722758  0.34005168  1
  Te2-  Te157  1  0.34838191  0.82899712  0.66357557  1
  Te2-  Te158  1  0.67215025  0.17283279  0.00164358  1
  Te2-  Te159  1  0.66174753  0.16674199  0.33470726  1
  Te2-  Te160  1  0.66531855  0.16074127  0.67155020  1
  Te2-  Te161  1  0.67281073  0.50260153  0.00026820  1
  Te2-  Te162  1  0.66613645  0.49784596  0.33330579  1
  Te2-  Te163  1  0.64628393  0.48988653  0.67395800  1
  Te2-  Te164  1  0.67195405  0.83166762  0.00599324  1
  Te2-  Te165  1  0.66664688  0.83041269  0.34783698  1
  Te2-  Te166  1  0.66211449  0.84946177  0.65475870  1
  Te2-  Te167  1  0.00184294  0.00205359  0.16857471  1
  Te2-  Te168  1  -0.00155379  -0.00257541  0.49532352  1
  Te2-  Te169  1  -0.01386914  0.00811405  0.83656823  1
  Te2-  Te170  1  -0.00205812  0.33057080  0.16948147  1
  Te2-  Te171  1  0.00078434  0.33599738  0.51263952  1
  Te2-  Te172  1  0.00305263  0.34012911  0.81857538  1
  Te2-  Te173  1  -0.00423177  0.66675189  0.15656539  1
  Te2-  Te174  1  0.00130857  0.66419248  0.50623526  1
  Te2-  Te175  1  -0.00527309  0.65314149  0.83293876  1
  Te2-  Te176  1  0.32914894  -0.00650231  0.16983809  1
  Te2-  Te177  1  0.33381473  -0.00827589  0.49988511  1
  Te2-  Te178  1  0.33515573  -0.00035300  0.82671779  1
  Te2-  Te179  1  0.33456274  0.33282923  0.17600712  1
  Te2-  Te180  1  0.33249123  0.34254793  0.49605739  1
  Te2-  Te181  1  0.34310532  0.34157813  0.83401072  1
  Te2-  Te182  1  0.33688099  0.67471696  0.16553437  1
  Te2-  Te183  1  0.32601728  0.66218746  0.50254034  1
  Te2-  Te184  1  0.33095384  0.65785683  0.83288338  1
  Te2-  Te185  1  0.66855526  -0.00194878  0.16985699  1
  Te2-  Te186  1  0.66131073  0.01407052  0.50756191  1
  Te2-  Te187  1  0.67491512  -0.00622941  0.82504359  1
  Te2-  Te188  1  0.66389240  0.33467909  0.16916705  1
  Te2-  Te189  1  0.66075951  0.32176393  0.50163332  1
  Te2-  Te190  1  0.64796625  0.33369684  0.83957144  1
  Te2-  Te191  1  0.66276522  0.66198573  0.16871523  1
  Te2-  Te192  1  0.66733587  0.66630978  0.51935557  1
  Te2-  Te193  1  0.66598796  0.68202141  0.81905499  1
  Pb2+  Pb194  1  0.66850546  0.82849776  0.17704254  1
  Pb2+  Pb195  1  0.33661955  0.17096749  0.82128959  1
  Pb2+  Pb196  1  0.00488632  0.16943848  0.50559739  1
  Pb2+  Pb197  1  -0.00696759  0.83159311  0.50911422  1
  Pb2+  Pb198  1  0.33339634  0.16210974  0.17825181  1
  Pb2+  Pb199  1  0.16290976  0.33355046  0.16593668  1
  Pb2+  Pb200  1  0.67079637  0.00102854  -0.00846350  1
  Pb2+  Pb201  1  0.83310351  0.33644314  0.16797605  1
  Pb2+  Pb202  1  0.66729126  0.49500538  0.50616563  1
  Pb2+  Pb203  1  0.00221289  0.83438108  0.15663451  1
  Pb2+  Pb204  1  0.50038216  0.83610710  0.33527496  1
  Pb2+  Pb205  1  0.33786459  0.82894606  0.83076817  1
  Pb2+  Pb206  1  0.33367241  0.50579604  0.17692897  1
  Pb2+  Pb207  1  0.49763596  0.67005175  0.50053410  1
  Pb2+  Pb208  1  -0.00408833  0.50024983  0.16140565  1
  Pb2+  Pb209  1  0.33367067  -0.00068796  -0.00803524  1
  Pb2+  Pb210  1  0.82618068  0.32978101  0.82769590  1
  Pb2+  Pb211  1  0.16016478  0.50416343  0.34782209  1
  Pb2+  Pb212  1  0.16840362  0.83088879  0.34906570  1
  Pb2+  Pb213  1  0.83158996  0.16443767  0.33246811  1
  Pb2+  Pb214  1  0.15697032  -0.00210965  0.82787303  1
  Pb2+  Pb215  1  0.33436121  0.33845973  0.00133429  1
