# generated using pymatgen
data_In22Ag21Sn22Bi21(Te54Pb11)2
_symmetry_space_group_name_H-M   'P 1'
_cell_length_a   19.14910757
_cell_length_b   19.12624186
_cell_length_c   19.13757402
_cell_angle_alpha   89.98403887
_cell_angle_beta   89.99664959
_cell_angle_gamma   89.98162603
_symmetry_Int_Tables_number   1
_chemical_formula_structural   In22Ag21Sn22Bi21(Te54Pb11)2
_chemical_formula_sum   'In22 Ag21 Sn22 Bi21 Te108 Pb22'
_cell_volume   7009.14469729
_cell_formula_units_Z   1
loop_
 _symmetry_equiv_pos_site_id
 _symmetry_equiv_pos_as_xyz
  1  'x, y, z'
loop_
 _atom_type_symbol
 _atom_type_oxidation_number
  In3+  3.0
  Ag+  1.0
  Sn2+  2.0
  Bi3+  3.0
  Te2-  -2.0
  Pb2+  2.0
loop_
 _atom_site_type_symbol
 _atom_site_label
 _atom_site_symmetry_multiplicity
 _atom_site_fract_x
 _atom_site_fract_y
 _atom_site_fract_z
 _atom_site_occupancy
  In3+  In0  1  0.80142593  0.00240891  0.16033488  1
  In3+  In1  1  -0.01276759  0.84902702  0.83157156  1
  In3+  In2  1  0.16811918  0.18587182  -0.00700240  1
  In3+  In3  1  0.50365202  0.15431910  0.34573067  1
  In3+  In4  1  0.50327173  0.49086699  0.65109844  1
  In3+  In5  1  0.83243659  0.34645140  0.15215955  1
  In3+  In6  1  0.50321131  0.67771707  0.16761242  1
  In3+  In7  1  0.65623335  0.34195645  -0.00613425  1
  In3+  In8  1  0.84050072  0.49290748  -0.01015261  1
  In3+  In9  1  0.33589251  0.17847659  0.50260108  1
  In3+  In10  1  0.34163257  0.48208532  0.83663671  1
  In3+  In11  1  0.49807068  0.65167740  0.51619236  1
  In3+  In12  1  0.01231402  0.49626618  0.83928152  1
  In3+  In13  1  0.80481190  0.00191973  0.50517793  1
  In3+  In14  1  0.17444189  0.01310553  0.51021952  1
  In3+  In15  1  -0.01373028  -0.00126194  0.32947371  1
  In3+  In16  1  0.50422241  0.49087841  0.00442726  1
  In3+  In17  1  0.34086077  -0.00795419  0.34413657  1
  In3+  In18  1  0.00372441  0.00871502  0.00204950  1
  In3+  In19  1  0.49183668  0.16334139  -0.00397064  1
  In3+  In20  1  0.33102049  -0.00323891  -0.00221498  1
  In3+  In21  1  0.33589425  0.34286655  0.67564922  1
  Ag+  Ag22  1  0.80794648  -0.00270343  0.85940048  1
  Ag+  Ag23  1  0.52745298  0.35563649  0.82870688  1
  Ag+  Ag24  1  0.69544035  0.48816357  0.47662634  1
  Ag+  Ag25  1  0.02040203  0.46889154  0.18896277  1
  Ag+  Ag26  1  0.63942076  0.66369699  0.35558455  1
  Ag+  Ag27  1  -0.01928105  0.16778094  0.48134223  1
  Ag+  Ag28  1  0.80330970  0.36555048  0.48352874  1
  Ag+  Ag29  1  0.33210446  0.50535388  0.47937399  1
  Ag+  Ag30  1  0.49079502  0.81004178  0.35696355  1
  Ag+  Ag31  1  0.69262303  0.50382996  0.81048898  1
  Ag+  Ag32  1  0.14095653  0.49928616  0.64473182  1
  Ag+  Ag33  1  0.68954036  -0.03149959  0.69303410  1
  Ag+  Ag34  1  0.50294892  0.01135920  0.52069755  1
  Ag+  Ag35  1  -0.00664276  0.31694886  -0.00237408  1
  Ag+  Ag36  1  0.34932114  0.18611085  0.85621541  1
  Ag+  Ag37  1  0.48932218  -0.02338173  0.18719129  1
  Ag+  Ag38  1  0.65014750  0.80998530  0.16288870  1
  Ag+  Ag39  1  0.82825516  0.82250167  0.64137950  1
  Ag+  Ag40  1  0.13276475  0.33255764  0.14025914  1
  Ag+  Ag41  1  0.18126373  0.35197738  0.84099300  1
  Ag+  Ag42  1  0.36021084  0.64531932  -0.01576344  1
  Sn2+  Sn43  1  0.34296826  0.82755279  0.50033097  1
  Sn2+  Sn44  1  -0.01308483  0.00089552  0.65767091  1
  Sn2+  Sn45  1  0.66026630  0.83036662  0.48797676  1
  Sn2+  Sn46  1  0.66804270  0.50751115  0.16835990  1
  Sn2+  Sn47  1  0.17159537  0.66042454  0.83472548  1
  Sn2+  Sn48  1  0.49988335  0.16452618  0.67555094  1
  Sn2+  Sn49  1  0.50235072  0.83658451  0.00098734  1
  Sn2+  Sn50  1  0.17068324  0.16749053  0.32941811  1
  Sn2+  Sn51  1  0.82962113  0.49773688  0.32578041  1
  Sn2+  Sn52  1  0.16657297  0.65056174  0.16534528  1
  Sn2+  Sn53  1  0.33835034  0.00628497  0.66416647  1
  Sn2+  Sn54  1  0.66290097  0.65900308  -0.00193355  1
  Sn2+  Sn55  1  0.50566090  0.49962565  0.32702815  1
  Sn2+  Sn56  1  0.33777916  0.66641383  0.33157505  1
  Sn2+  Sn57  1  0.00619687  0.84744517  0.50519435  1
  Sn2+  Sn58  1  0.82953705  0.67110557  0.17115635  1
  Sn2+  Sn59  1  0.17027854  0.18059129  0.67220718  1
  Sn2+  Sn60  1  0.17867221  0.00803494  0.16766825  1
  Sn2+  Sn61  1  0.00477573  0.16636795  0.16759985  1
  Sn2+  Sn62  1  0.66916766  0.67046680  0.66150353  1
  Sn2+  Sn63  1  0.83745913  0.32030328  0.82357265  1
  Sn2+  Sn64  1  0.32847433  0.50543093  0.16528280  1
  Bi3+  Bi65  1  0.66117559  -0.00795678  0.33140772  1
  Bi3+  Bi66  1  0.83454332  0.16282768  0.66600380  1
  Bi3+  Bi67  1  0.33650118  0.33111267  0.33585564  1
  Bi3+  Bi68  1  0.00082646  0.16903507  0.82943438  1
  Bi3+  Bi69  1  0.66820246  0.16807202  0.16301093  1
  Bi3+  Bi70  1  0.00242995  0.66859543  0.33278550  1
  Bi3+  Bi71  1  0.49582447  -0.00076935  0.83062794  1
  Bi3+  Bi72  1  0.16761418  0.33134608  0.50609002  1
  Bi3+  Bi73  1  0.16320766  0.50408057  -0.00044677  1
  Bi3+  Bi74  1  0.00382217  0.33070346  0.66881104  1
  Bi3+  Bi75  1  0.00262837  0.83602782  0.16604388  1
  Bi3+  Bi76  1  0.50322496  0.33229343  0.16310468  1
  Bi3+  Bi77  1  0.16674121  0.83633319  0.00001532  1
  Bi3+  Bi78  1  -0.00043290  0.66774268  0.00057005  1
  Bi3+  Bi79  1  0.17189476  0.66672302  0.49978924  1
  Bi3+  Bi80  1  0.16629694  0.00046611  0.83074501  1
  Bi3+  Bi81  1  0.32969700  0.83807760  0.83126619  1
  Bi3+  Bi82  1  0.82626603  0.83408178  0.33288918  1
  Bi3+  Bi83  1  0.83310333  0.16737157  0.33339896  1
  Bi3+  Bi84  1  0.00003371  0.66730505  0.66640045  1
  Bi3+  Bi85  1  0.83434661  0.83157133  0.00469998  1
  Te2-  Te86  1  0.16211240  0.17982912  0.15852584  1
  Te2-  Te87  1  0.17756973  0.16626094  0.50177004  1
  Te2-  Te88  1  0.16331281  0.16154756  0.83667881  1
  Te2-  Te89  1  0.16311951  0.48434468  0.16196658  1
  Te2-  Te90  1  0.17926639  0.50140482  0.50164130  1
  Te2-  Te91  1  0.17052305  0.49845617  0.83722498  1
  Te2-  Te92  1  0.16617458  0.83531855  0.16459385  1
  Te2-  Te93  1  0.17224032  0.82896333  0.50051132  1
  Te2-  Te94  1  0.16310895  0.83477243  0.83572475  1
  Te2-  Te95  1  0.50501756  0.17339143  0.15083112  1
  Te2-  Te96  1  0.49527941  0.15970364  0.50319788  1
  Te2-  Te97  1  0.49343619  0.16340689  0.83835012  1
  Te2-  Te98  1  0.49907585  0.49274195  0.15807486  1
  Te2-  Te99  1  0.48425622  0.50050334  0.49927672  1
  Te2-  Te100  1  0.49319970  0.49626975  0.85305671  1
  Te2-  Te101  1  0.50430224  0.83244071  0.15869304  1
  Te2-  Te102  1  0.50127109  0.83380033  0.49916766  1
  Te2-  Te103  1  0.49788452  0.83356559  0.83534509  1
  Te2-  Te104  1  0.83341493  0.16224421  0.17170759  1
  Te2-  Te105  1  0.83580445  0.15717824  0.49871622  1
  Te2-  Te106  1  0.83593499  0.15066197  0.83013430  1
  Te2-  Te107  1  0.83404440  0.49846911  0.16827355  1
  Te2-  Te108  1  0.83858951  0.50628737  0.49992446  1
  Te2-  Te109  1  0.83630847  0.49537668  0.83844443  1
  Te2-  Te110  1  0.84051234  0.84266198  0.16927114  1
  Te2-  Te111  1  0.83546319  0.84412241  0.49479435  1
  Te2-  Te112  1  0.83360334  0.84741765  0.84165732  1
  Te2-  Te113  1  0.16831124  -0.00226251  -0.00103691  1
  Te2-  Te114  1  0.18651868  0.00720587  0.33170581  1
  Te2-  Te115  1  0.16403131  0.00317104  0.66437746  1
  Te2-  Te116  1  0.15725529  0.33846609  -0.00835425  1
  Te2-  Te117  1  0.17226234  0.32812742  0.33924552  1
  Te2-  Te118  1  0.16648686  0.34720543  0.66853359  1
  Te2-  Te119  1  0.16305530  0.67048895  0.00287638  1
  Te2-  Te120  1  0.16800533  0.66943523  0.33405828  1
  Te2-  Te121  1  0.16134325  0.65493047  0.66429890  1
  Te2-  Te122  1  0.49087093  0.00511195  -0.00634912  1
  Te2-  Te123  1  0.49569997  0.00219885  0.33253128  1
  Te2-  Te124  1  0.50315124  0.00482248  0.66813707  1
  Te2-  Te125  1  0.50029353  0.33160357  -0.00878103  1
  Te2-  Te126  1  0.49895680  0.33001432  0.32969646  1
  Te2-  Te127  1  0.49420975  0.33648042  0.68351969  1
  Te2-  Te128  1  0.50165172  0.66710390  0.01142844  1
  Te2-  Te129  1  0.49686357  0.66740548  0.32155469  1
  Te2-  Te130  1  0.49868604  0.66422498  0.66795300  1
  Te2-  Te131  1  0.83909317  -0.00310653  0.00404129  1
  Te2-  Te132  1  0.82955954  0.00081806  0.33843867  1
  Te2-  Te133  1  0.82823760  0.00019090  0.65715461  1
  Te2-  Te134  1  0.84500524  0.33827219  -0.00168892  1
  Te2-  Te135  1  0.83518287  0.32939437  0.34332907  1
  Te2-  Te136  1  0.83904836  0.32800241  0.66320922  1
  Te2-  Te137  1  0.83525321  0.66636847  0.00462897  1
  Te2-  Te138  1  0.83866361  0.67075117  0.33221436  1
  Te2-  Te139  1  0.83788835  0.67537680  0.66779689  1
  Te2-  Te140  1  0.00616710  0.16890602  -0.00472279  1
  Te2-  Te141  1  -0.00032278  0.15714105  0.33529459  1
  Te2-  Te142  1  0.00058865  0.16688427  0.66710468  1
  Te2-  Te143  1  -0.00235284  0.50649434  -0.00233064  1
  Te2-  Te144  1  -0.00121412  0.50401303  0.33107894  1
  Te2-  Te145  1  -0.00400465  0.49958561  0.67232646  1
  Te2-  Te146  1  0.00044465  0.83246947  -0.00109953  1
  Te2-  Te147  1  -0.00106699  0.83589991  0.33300839  1
  Te2-  Te148  1  -0.01086776  0.83150783  0.67104504  1
  Te2-  Te149  1  0.32428110  0.16518852  -0.00103415  1
  Te2-  Te150  1  0.34170971  0.16827092  0.34041830  1
  Te2-  Te151  1  0.33360676  0.16627229  0.65792377  1
  Te2-  Te152  1  0.32737947  0.50292392  -0.00378424  1
  Te2-  Te153  1  0.33706621  0.49626961  0.33031980  1
  Te2-  Te154  1  0.34750587  0.49650270  0.68211564  1
  Te2-  Te155  1  0.33035168  0.83791563  -0.00381287  1
  Te2-  Te156  1  0.34571549  0.83602270  0.33417621  1
  Te2-  Te157  1  0.33106261  0.83541279  0.66772046  1
  Te2-  Te158  1  0.67057330  0.17390730  -0.00037317  1
  Te2-  Te159  1  0.66696897  0.16415897  0.32930931  1
  Te2-  Te160  1  0.66897393  0.17093948  0.66566407  1
  Te2-  Te161  1  0.67056665  0.49627975  0.00287875  1
  Te2-  Te162  1  0.66412974  0.51498677  0.33562671  1
  Te2-  Te163  1  0.65542313  0.50535370  0.66833503  1
  Te2-  Te164  1  0.67230245  0.83204149  0.01123597  1
  Te2-  Te165  1  0.66654273  0.82839721  0.32255558  1
  Te2-  Te166  1  0.67660066  0.82745214  0.66183576  1
  Te2-  Te167  1  0.01098411  -0.00199075  0.17299458  1
  Te2-  Te168  1  0.01894492  0.00557173  0.49386737  1
  Te2-  Te169  1  0.00477027  0.00332118  0.83140202  1
  Te2-  Te170  1  -0.01350747  0.32979091  0.15961258  1
  Te2-  Te171  1  0.00747476  0.32045406  0.50367670  1
  Te2-  Te172  1  -0.00318195  0.33307692  0.83472174  1
  Te2-  Te173  1  0.00118330  0.67092360  0.16762865  1
  Te2-  Te174  1  0.00601017  0.67010898  0.49909873  1
  Te2-  Te175  1  0.00372916  0.65843559  0.83354177  1
  Te2-  Te176  1  0.34141201  0.00249424  0.16331749  1
  Te2-  Te177  1  0.33310782  -0.00375702  0.49762011  1
  Te2-  Te178  1  0.32962712  0.00089899  0.83238380  1
  Te2-  Te179  1  0.34011142  0.33478172  0.17057539  1
  Te2-  Te180  1  0.33073059  0.33719839  0.50369704  1
  Te2-  Te181  1  0.32587462  0.32760253  0.82808046  1
  Te2-  Te182  1  0.33420269  0.66365104  0.16634080  1
  Te2-  Te183  1  0.33691122  0.65862204  0.49923385  1
  Te2-  Te184  1  0.33135747  0.67562625  0.84203416  1
  Te2-  Te185  1  0.64417893  0.00675075  0.16924205  1
  Te2-  Te186  1  0.65065775  -0.00146445  0.49257207  1
  Te2-  Te187  1  0.66087785  -0.00141321  0.83409029  1
  Te2-  Te188  1  0.67118054  0.33307521  0.15950448  1
  Te2-  Te189  1  0.65971111  0.34511315  0.49822729  1
  Te2-  Te190  1  0.67442238  0.34637618  0.84051266  1
  Te2-  Te191  1  0.66166739  0.66394437  0.16379627  1
  Te2-  Te192  1  0.65270349  0.66258935  0.50151378  1
  Te2-  Te193  1  0.66943724  0.65543021  0.83392994  1
  Pb2+  Pb194  1  0.66058462  0.00099081  0.00179786  1
  Pb2+  Pb195  1  0.00673839  0.49148769  0.50109923  1
  Pb2+  Pb196  1  0.66863402  0.17106604  0.50023301  1
  Pb2+  Pb197  1  0.49649993  0.32834189  0.50660017  1
  Pb2+  Pb198  1  0.50611148  0.83719802  0.66414353  1
  Pb2+  Pb199  1  0.15884751  0.83315690  0.66741131  1
  Pb2+  Pb200  1  0.17190786  0.84070295  0.33406377  1
  Pb2+  Pb201  1  0.66803171  0.82497802  0.83959440  1
  Pb2+  Pb202  1  0.33443672  0.16769863  0.17037124  1
  Pb2+  Pb203  1  0.33656210  0.83312682  0.16516613  1
  Pb2+  Pb204  1  0.16962415  0.49800605  0.33361916  1
  Pb2+  Pb205  1  0.00236668  0.32871768  0.33300056  1
  Pb2+  Pb206  1  0.66847679  0.33754625  0.66780784  1
  Pb2+  Pb207  1  0.83702179  0.67120574  0.83639877  1
  Pb2+  Pb208  1  0.50162462  0.66041931  0.83802559  1
  Pb2+  Pb209  1  0.82602081  0.50147601  0.66834987  1
  Pb2+  Pb210  1  0.66215461  0.17266773  0.83142281  1
  Pb2+  Pb211  1  0.32851917  0.33594629  0.00343406  1
  Pb2+  Pb212  1  0.32943115  0.66514540  0.67248283  1
  Pb2+  Pb213  1  0.82639086  0.67290087  0.49906953  1
  Pb2+  Pb214  1  0.66828674  0.34196586  0.32860129  1
  Pb2+  Pb215  1  0.83712922  0.16832806  0.00042156  1
