# generated using pymatgen
data_In22Ag21Sn22Bi21(Te54Pb11)2
_symmetry_space_group_name_H-M   'P 1'
_cell_length_a   19.14580302
_cell_length_b   19.14847924
_cell_length_c   19.14606215
_cell_angle_alpha   89.99686592
_cell_angle_beta   89.99002026
_cell_angle_gamma   89.98438092
_symmetry_Int_Tables_number   1
_chemical_formula_structural   In22Ag21Sn22Bi21(Te54Pb11)2
_chemical_formula_sum   'In22 Ag21 Sn22 Bi21 Te108 Pb22'
_cell_volume   7019.19512783
_cell_formula_units_Z   1
loop_
 _symmetry_equiv_pos_site_id
 _symmetry_equiv_pos_as_xyz
  1  'x, y, z'
loop_
 _atom_type_symbol
 _atom_type_oxidation_number
  In3+  3.0
  Ag+  1.0
  Sn2+  2.0
  Bi3+  3.0
  Te2-  -2.0
  Pb2+  2.0
loop_
 _atom_site_type_symbol
 _atom_site_label
 _atom_site_symmetry_multiplicity
 _atom_site_fract_x
 _atom_site_fract_y
 _atom_site_fract_z
 _atom_site_occupancy
  In3+  In0  1  0.67587097  0.35055794  -0.00739292  1
  In3+  In1  1  0.66840445  0.50776830  0.82914171  1
  In3+  In2  1  0.83132802  0.33041271  0.82293482  1
  In3+  In3  1  0.65808301  0.33369789  0.64793975  1
  In3+  In4  1  0.17359071  0.01761945  0.50116932  1
  In3+  In5  1  0.33156711  0.18868482  0.16056808  1
  In3+  In6  1  0.33735408  0.48896512  0.48910064  1
  In3+  In7  1  -0.00882133  0.66398166  -0.01169714  1
  In3+  In8  1  0.02385985  0.00162756  -0.00555018  1
  In3+  In9  1  -0.01588308  0.16644778  0.49775935  1
  In3+  In10  1  0.65062088  0.67812588  0.00096108  1
  In3+  In11  1  0.18059207  0.49970790  0.64703949  1
  In3+  In12  1  0.65566456  0.49896400  0.17793870  1
  In3+  In13  1  0.66362317  0.85300213  0.17246970  1
  In3+  In14  1  0.81554661  0.15003197  -0.00052755  1
  In3+  In15  1  0.31394847  0.49681102  0.83533261  1
  In3+  In16  1  0.65953471  0.84571217  0.81780839  1
  In3+  In17  1  0.17445526  0.66538643  0.84638077  1
  In3+  In18  1  -0.01776250  0.67408542  0.32445551  1
  In3+  In19  1  0.49857171  0.16622430  0.35510118  1
  In3+  In20  1  0.35256698  0.01344248  0.66671058  1
  In3+  In21  1  -0.01286379  0.35061610  0.33723864  1
  Ag+  Ag22  1  0.49944865  0.82599853  0.64450656  1
  Ag+  Ag23  1  0.32946936  0.14620581  0.81700235  1
  Ag+  Ag24  1  0.52827220  0.86408364  0.00734338  1
  Ag+  Ag25  1  0.36432665  0.85368451  0.84567625  1
  Ag+  Ag26  1  0.80133619  0.31372531  0.48126287  1
  Ag+  Ag27  1  0.33910952  0.14138954  0.48082416  1
  Ag+  Ag28  1  0.63864764  0.50588562  0.50597454  1
  Ag+  Ag29  1  0.18983046  0.33453816  0.14452586  1
  Ag+  Ag30  1  0.64644791  -0.02190785  0.64263772  1
  Ag+  Ag31  1  0.52647503  -0.00015987  0.47806999  1
  Ag+  Ag32  1  0.52440325  0.64006969  0.50075517  1
  Ag+  Ag33  1  0.50593758  0.52689918  0.35622710  1
  Ag+  Ag34  1  0.81447962  0.83707286  0.35496609  1
  Ag+  Ag35  1  0.80695417  0.66417462  0.85717602  1
  Ag+  Ag36  1  0.31261278  0.48826055  0.19419802  1
  Ag+  Ag37  1  0.62990750  -0.02403193  0.00312939  1
  Ag+  Ag38  1  0.18285188  0.48000080  0.00192975  1
  Ag+  Ag39  1  0.64555575  -0.02529996  0.35791550  1
  Ag+  Ag40  1  0.35821965  0.31309492  0.66851794  1
  Ag+  Ag41  1  0.50524092  0.34451547  0.49700043  1
  Ag+  Ag42  1  0.32878589  0.02540883  0.02905036  1
  Sn2+  Sn43  1  0.50154681  0.15854614  0.66605997  1
  Sn2+  Sn44  1  0.17729364  0.49530974  0.31621354  1
  Sn2+  Sn45  1  0.17194846  0.00948121  0.16604335  1
  Sn2+  Sn46  1  0.66151750  0.16546344  0.16521558  1
  Sn2+  Sn47  1  -0.00649755  0.50366233  0.83962163  1
  Sn2+  Sn48  1  0.16517921  0.16745029  -0.00343777  1
  Sn2+  Sn49  1  0.83050606  0.00015420  0.49406441  1
  Sn2+  Sn50  1  0.49564114  0.49824912  -0.00115374  1
  Sn2+  Sn51  1  0.83246213  -0.00442629  0.16699521  1
  Sn2+  Sn52  1  0.17607834  0.16992421  0.66570438  1
  Sn2+  Sn53  1  0.33566802  0.82801414  0.14342320  1
  Sn2+  Sn54  1  0.00400375  0.33351780  0.00822187  1
  Sn2+  Sn55  1  0.18527351  0.82987651  0.66827524  1
  Sn2+  Sn56  1  0.66142828  0.66448765  0.33252274  1
  Sn2+  Sn57  1  0.33549332  0.33100507  0.34695862  1
  Sn2+  Sn58  1  0.33799487  0.33482175  -0.01050126  1
  Sn2+  Sn59  1  0.83252396  0.49159753  -0.00092528  1
  Sn2+  Sn60  1  -0.00525478  0.49571602  0.50493593  1
  Sn2+  Sn61  1  0.49527816  0.67533946  0.82530794  1
  Sn2+  Sn62  1  0.83246797  0.66274900  0.16386345  1
  Sn2+  Sn63  1  0.50085216  0.83463827  0.33456470  1
  Sn2+  Sn64  1  0.65282068  0.82416335  0.49329788  1
  Bi3+  Bi65  1  -0.00239276  0.33446415  0.66478820  1
  Bi3+  Bi66  1  0.00068094  0.66535638  0.66619391  1
  Bi3+  Bi67  1  0.00525003  0.16609967  0.16744262  1
  Bi3+  Bi68  1  0.83656270  0.83354731  0.00055720  1
  Bi3+  Bi69  1  0.83619392  0.50096944  0.66749111  1
  Bi3+  Bi70  1  0.49803047  0.16893441  -0.00190590  1
  Bi3+  Bi71  1  -0.00478988  0.83206738  0.83318471  1
  Bi3+  Bi72  1  0.49914395  0.33375412  0.17167179  1
  Bi3+  Bi73  1  0.50079139  0.00182813  0.83604255  1
  Bi3+  Bi74  1  0.33539172  0.66574357  0.33494735  1
  Bi3+  Bi75  1  0.83465602  0.66415455  0.50104648  1
  Bi3+  Bi76  1  0.83552966  0.16916328  0.66973798  1
  Bi3+  Bi77  1  0.33672824  0.66302609  -0.00057679  1
  Bi3+  Bi78  1  0.33561594  0.67238852  0.66631696  1
  Bi3+  Bi79  1  0.17110506  0.83377584  -0.00036303  1
  Bi3+  Bi80  1  -0.00501721  0.00103407  0.33351931  1
  Bi3+  Bi81  1  0.33582047  0.83092104  0.50209583  1
  Bi3+  Bi82  1  0.16946657  0.66832109  0.50221608  1
  Bi3+  Bi83  1  0.17365539  0.33394422  0.50124974  1
  Bi3+  Bi84  1  -0.00484363  0.00204884  0.66396244  1
  Bi3+  Bi85  1  0.66107744  0.33036216  0.32972794  1
  Te2-  Te86  1  0.17161862  0.17865227  0.16608405  1
  Te2-  Te87  1  0.18836312  0.17040201  0.50279419  1
  Te2-  Te88  1  0.17770177  0.16505663  0.83419138  1
  Te2-  Te89  1  0.17127472  0.48730067  0.15738705  1
  Te2-  Te90  1  0.16869507  0.50247157  0.49257823  1
  Te2-  Te91  1  0.16233472  0.50672210  0.85001133  1
  Te2-  Te92  1  0.16717846  0.83545457  0.16264377  1
  Te2-  Te93  1  0.17069814  0.83061714  0.50236436  1
  Te2-  Te94  1  0.16056465  0.82486293  0.83393377  1
  Te2-  Te95  1  0.49186649  0.17242548  0.16190085  1
  Te2-  Te96  1  0.48925253  0.14737833  0.50722578  1
  Te2-  Te97  1  0.48640708  0.16781600  0.83418262  1
  Te2-  Te98  1  0.50384678  0.49308838  0.16200235  1
  Te2-  Te99  1  0.49186455  0.49423555  0.50087261  1
  Te2-  Te100  1  0.51511354  0.50373793  0.83379093  1
  Te2-  Te101  1  0.50769692  0.83259311  0.15891153  1
  Te2-  Te102  1  0.49712858  0.84946231  0.49700904  1
  Te2-  Te103  1  0.50956797  0.83294221  0.85379365  1
  Te2-  Te104  1  0.83832351  0.16446997  0.15733956  1
  Te2-  Te105  1  0.82696556  0.17076890  0.50367883  1
  Te2-  Te106  1  0.83301191  0.16960525  0.83765354  1
  Te2-  Te107  1  0.83490008  0.50119531  0.16792930  1
  Te2-  Te108  1  0.83586410  0.50248403  0.50276355  1
  Te2-  Te109  1  0.82492485  0.51362499  0.83025179  1
  Te2-  Te110  1  0.82172840  0.83001885  0.16074421  1
  Te2-  Te111  1  0.82551648  0.82950839  0.50211421  1
  Te2-  Te112  1  0.82821560  0.81959904  0.83834941  1
  Te2-  Te113  1  0.18445838  -0.00182829  -0.00073956  1
  Te2-  Te114  1  0.16106317  0.00158797  0.34176948  1
  Te2-  Te115  1  0.15633796  0.00033503  0.65624547  1
  Te2-  Te116  1  0.16454444  0.33289797  -0.00050019  1
  Te2-  Te117  1  0.17255959  0.33866786  0.33965410  1
  Te2-  Te118  1  0.15947133  0.34275376  0.66514748  1
  Te2-  Te119  1  0.16952838  0.66991984  0.00078319  1
  Te2-  Te120  1  0.17186680  0.66105299  0.33704840  1
  Te2-  Te121  1  0.16490194  0.66060401  0.66615539  1
  Te2-  Te122  1  0.47960243  0.00552191  -0.00193966  1
  Te2-  Te123  1  0.50518083  0.00631246  0.33099406  1
  Te2-  Te124  1  0.50577032  -0.00369522  0.67734901  1
  Te2-  Te125  1  0.50555445  0.33040879  0.00244687  1
  Te2-  Te126  1  0.50009096  0.32310401  0.34176440  1
  Te2-  Te127  1  0.50437886  0.33061086  0.65484182  1
  Te2-  Te128  1  0.49890628  0.66081029  0.00039312  1
  Te2-  Te129  1  0.50044331  0.67356363  0.34908768  1
  Te2-  Te130  1  0.49958721  0.67433450  0.65435097  1
  Te2-  Te131  1  0.84478365  0.00070296  0.00179570  1
  Te2-  Te132  1  0.83447277  -0.01009622  0.32947465  1
  Te2-  Te133  1  0.83330212  0.00665880  0.66761575  1
  Te2-  Te134  1  0.83532884  0.33227119  -0.00544271  1
  Te2-  Te135  1  0.83227155  0.33315120  0.33925294  1
  Te2-  Te136  1  0.83604964  0.33491195  0.66513282  1
  Te2-  Te137  1  0.83880944  0.66696833  0.00185101  1
  Te2-  Te138  1  0.83081494  0.67960507  0.33660166  1
  Te2-  Te139  1  0.83768993  0.66514858  0.66528811  1
  Te2-  Te140  1  0.00585737  0.16581484  0.00414278  1
  Te2-  Te141  1  -0.00183817  0.16376896  0.33470767  1
  Te2-  Te142  1  0.00080012  0.16824117  0.66436308  1
  Te2-  Te143  1  -0.00198626  0.50336205  -0.00135094  1
  Te2-  Te144  1  0.00030612  0.50210851  0.33580567  1
  Te2-  Te145  1  0.00079782  0.50004624  0.67111127  1
  Te2-  Te146  1  0.00239849  0.83133713  -0.00409395  1
  Te2-  Te147  1  -0.00318374  0.83417395  0.33190455  1
  Te2-  Te148  1  0.00211165  0.83370873  0.66918532  1
  Te2-  Te149  1  0.33306252  0.17347932  0.00592492  1
  Te2-  Te150  1  0.34211286  0.16746293  0.33290129  1
  Te2-  Te151  1  0.33312183  0.16760968  0.67195637  1
  Te2-  Te152  1  0.32909794  0.50103806  -0.00888677  1
  Te2-  Te153  1  0.34964543  0.50308503  0.33492489  1
  Te2-  Te154  1  0.32928745  0.51005162  0.67812459  1
  Te2-  Te155  1  0.33153380  0.82327970  -0.01264353  1
  Te2-  Te156  1  0.33680532  0.82821360  0.33312933  1
  Te2-  Te157  1  0.34479695  0.83230528  0.66887949  1
  Te2-  Te158  1  0.66479482  0.16934210  0.00258652  1
  Te2-  Te159  1  0.66174423  0.16853249  0.32979943  1
  Te2-  Te160  1  0.67275461  0.17944712  0.66893269  1
  Te2-  Te161  1  0.67125152  0.50096709  -0.00346738  1
  Te2-  Te162  1  0.65428176  0.49642694  0.33218301  1
  Te2-  Te163  1  0.67201387  0.49091811  0.66485684  1
  Te2-  Te164  1  0.67423010  0.82987219  0.01049300  1
  Te2-  Te165  1  0.66987139  0.83381134  0.32624341  1
  Te2-  Te166  1  0.65494425  0.83412834  0.66626200  1
  Te2-  Te167  1  0.00605007  0.00468245  0.16938709  1
  Te2-  Te168  1  -0.00171596  0.00425101  0.50011199  1
  Te2-  Te169  1  0.00058502  -0.00178266  0.82963074  1
  Te2-  Te170  1  0.00053876  0.32677405  0.17792510  1
  Te2-  Te171  1  0.00761527  0.32859711  0.49850846  1
  Te2-  Te172  1  -0.00675442  0.33561172  0.83124808  1
  Te2-  Te173  1  0.00164868  0.66720344  0.17319229  1
  Te2-  Te174  1  0.00314339  0.66596006  0.50075396  1
  Te2-  Te175  1  0.00438225  0.67078475  0.82841453  1
  Te2-  Te176  1  0.32755545  -0.00887053  0.17255907  1
  Te2-  Te177  1  0.32834631  -0.00387148  0.51180767  1
  Te2-  Te178  1  0.33600857  -0.00425931  0.81741546  1
  Te2-  Te179  1  0.33721012  0.34178408  0.16765984  1
  Te2-  Te180  1  0.33402035  0.34052533  0.51669476  1
  Te2-  Te181  1  0.33586574  0.34563644  0.82009610  1
  Te2-  Te182  1  0.33736069  0.66011520  0.16774102  1
  Te2-  Te183  1  0.33112806  0.66743025  0.50154577  1
  Te2-  Te184  1  0.33273257  0.66234332  0.83058861  1
  Te2-  Te185  1  0.66871597  0.00464443  0.15067212  1
  Te2-  Te186  1  0.67397874  -0.00161180  0.50026633  1
  Te2-  Te187  1  0.66447526  -0.00509078  0.85439673  1
  Te2-  Te188  1  0.66380059  0.33577656  0.16418080  1
  Te2-  Te189  1  0.65882130  0.34596193  0.49446480  1
  Te2-  Te190  1  0.67490164  0.33660154  0.84034563  1
  Te2-  Te191  1  0.66827161  0.65315916  0.16214005  1
  Te2-  Te192  1  0.67080854  0.65510161  0.49842982  1
  Te2-  Te193  1  0.66124338  0.66757755  0.84343817  1
  Pb2+  Pb194  1  0.82965893  0.83709337  0.66899138  1
  Pb2+  Pb195  1  0.17107501  0.66089610  0.16733344  1
  Pb2+  Pb196  1  0.50199547  0.33708774  0.82827750  1
  Pb2+  Pb197  1  0.00616889  0.16921607  0.83529809  1
  Pb2+  Pb198  1  -0.00769122  0.83562246  0.16460959  1
  Pb2+  Pb199  1  0.82564609  0.50693522  0.33443557  1
  Pb2+  Pb200  1  0.65842348  0.16518608  0.83406786  1
  Pb2+  Pb201  1  0.66591009  0.66529883  0.67002660  1
  Pb2+  Pb202  1  0.49772401  0.00210397  0.16528563  1
  Pb2+  Pb203  1  0.16920573  0.17175881  0.33395738  1
  Pb2+  Pb204  1  0.17111166  -0.00674247  0.82675940  1
  Pb2+  Pb205  1  0.33554787  -0.00266738  0.34001280  1
  Pb2+  Pb206  1  0.50286639  0.66562332  0.17474756  1
  Pb2+  Pb207  1  0.83022181  -0.00622836  0.83642659  1
  Pb2+  Pb208  1  0.16665723  0.83035872  0.33237096  1
  Pb2+  Pb209  1  0.16850730  0.33530210  0.83267602  1
  Pb2+  Pb210  1  0.83294009  0.33340341  0.16514189  1
  Pb2+  Pb211  1  -0.00465715  0.83523982  0.49901080  1
  Pb2+  Pb212  1  0.82961335  0.15807695  0.32799295  1
  Pb2+  Pb213  1  0.65445109  0.16896959  0.49975640  1
  Pb2+  Pb214  1  0.49846409  0.50374626  0.66846953  1
  Pb2+  Pb215  1  0.00536743  0.49624661  0.16564765  1
