# generated using pymatgen
data_In22Ag21Sn22Bi21(Te54Pb11)2
_symmetry_space_group_name_H-M   'P 1'
_cell_length_a   19.17508224
_cell_length_b   19.16862933
_cell_length_c   19.15265446
_cell_angle_alpha   89.99030095
_cell_angle_beta   90.00340949
_cell_angle_gamma   89.98709153
_symmetry_Int_Tables_number   1
_chemical_formula_structural   In22Ag21Sn22Bi21(Te54Pb11)2
_chemical_formula_sum   'In22 Ag21 Sn22 Bi21 Te108 Pb22'
_cell_volume   7039.75021866
_cell_formula_units_Z   1
loop_
 _symmetry_equiv_pos_site_id
 _symmetry_equiv_pos_as_xyz
  1  'x, y, z'
loop_
 _atom_type_symbol
 _atom_type_oxidation_number
  In3+  3.0
  Ag+  1.0
  Sn2+  2.0
  Bi3+  3.0
  Te2-  -2.0
  Pb2+  2.0
loop_
 _atom_site_type_symbol
 _atom_site_label
 _atom_site_symmetry_multiplicity
 _atom_site_fract_x
 _atom_site_fract_y
 _atom_site_fract_z
 _atom_site_occupancy
  In3+  In0  1  0.16960775  -0.00595423  0.80775607  1
  In3+  In1  1  0.33467451  0.83557705  0.81390890  1
  In3+  In2  1  0.68235774  0.83676358  0.17905658  1
  In3+  In3  1  0.82912622  0.32100209  0.80433189  1
  In3+  In4  1  0.68255244  0.01149322  0.33503197  1
  In3+  In5  1  0.67987252  0.66800148  0.64388687  1
  In3+  In6  1  0.67195796  0.67809411  0.33288093  1
  In3+  In7  1  0.33620222  0.83893643  0.49102240  1
  In3+  In8  1  0.49518046  0.50033668  0.02334419  1
  In3+  In9  1  0.52059594  0.67216685  0.17039132  1
  In3+  In10  1  0.81322742  0.16674832  0.34680136  1
  In3+  In11  1  -0.00222595  0.48140223  0.48566654  1
  In3+  In12  1  0.14330916  -0.00082729  0.50050750  1
  In3+  In13  1  0.16478647  0.85428041  0.01096986  1
  In3+  In14  1  0.32892255  0.69964573  0.00081447  1
  In3+  In15  1  0.18341254  0.50106569  -0.00075175  1
  In3+  In16  1  0.52258187  0.31261181  0.50676601  1
  In3+  In17  1  -0.01179638  -0.00472693  0.33873645  1
  In3+  In18  1  0.49980878  0.67206220  0.50672106  1
  In3+  In19  1  0.68445836  0.50033820  0.16899002  1
  In3+  In20  1  0.35553540  -0.02060304  0.33076409  1
  In3+  In21  1  0.82004750  0.85023086  0.00761879  1
  Ag+  Ag22  1  0.52604472  0.13929548  0.66568137  1
  Ag+  Ag23  1  0.80847350  0.83330110  0.63552980  1
  Ag+  Ag24  1  0.67201786  0.30304094  0.63831624  1
  Ag+  Ag25  1  0.35900242  0.02696775  0.62980668  1
  Ag+  Ag26  1  0.37323765  -0.00014080  -0.02552061  1
  Ag+  Ag27  1  0.82265085  0.52562923  0.34953473  1
  Ag+  Ag28  1  0.83647837  0.66599603  0.17857891  1
  Ag+  Ag29  1  0.66582653  -0.02316168  -0.02359213  1
  Ag+  Ag30  1  -0.02979122  -0.02113804  0.63877072  1
  Ag+  Ag31  1  0.52382118  0.02471667  0.16972887  1
  Ag+  Ag32  1  -0.02059859  0.47762060  0.18812106  1
  Ag+  Ag33  1  0.68788310  0.13584460  0.16260217  1
  Ag+  Ag34  1  -0.01310495  0.83361588  0.51827257  1
  Ag+  Ag35  1  0.66964128  0.14791303  0.52138335  1
  Ag+  Ag36  1  0.83107531  0.35623828  0.49047509  1
  Ag+  Ag37  1  0.81972656  -0.00729365  0.52450807  1
  Ag+  Ag38  1  0.69681671  0.86195129  0.52475234  1
  Ag+  Ag39  1  0.16258891  0.85768063  0.35083763  1
  Ag+  Ag40  1  0.81093806  0.02435588  0.16316700  1
  Ag+  Ag41  1  0.19462804  0.36401722  0.50868176  1
  Ag+  Ag42  1  0.52131862  0.84288169  0.33918830  1
  Sn2+  Sn43  1  -0.01838899  0.16035729  0.50117479  1
  Sn2+  Sn44  1  0.16189501  0.67935584  0.49551556  1
  Sn2+  Sn45  1  0.66651685  0.83718221  0.82876929  1
  Sn2+  Sn46  1  -0.00102631  0.67397843  0.33758900  1
  Sn2+  Sn47  1  0.50604120  0.49593057  0.66339535  1
  Sn2+  Sn48  1  0.66562882  0.50233914  0.83592950  1
  Sn2+  Sn49  1  0.84209824  0.83659122  0.33214274  1
  Sn2+  Sn50  1  0.84100177  -0.00547030  0.83198019  1
  Sn2+  Sn51  1  0.33195121  0.50577494  0.50072712  1
  Sn2+  Sn52  1  0.83258050  0.50493415  0.65536127  1
  Sn2+  Sn53  1  0.16446460  0.33783401  0.18097020  1
  Sn2+  Sn54  1  -0.00535594  0.50199999  0.84322548  1
  Sn2+  Sn55  1  0.66760826  -0.00139842  0.66152069  1
  Sn2+  Sn56  1  0.00098992  0.66680131  0.00910223  1
  Sn2+  Sn57  1  0.49696838  0.32992002  0.17417271  1
  Sn2+  Sn58  1  0.66895808  0.67243619  -0.00074143  1
  Sn2+  Sn59  1  0.16872785  0.16530634  0.66229121  1
  Sn2+  Sn60  1  0.51274395  0.50763454  0.33727276  1
  Sn2+  Sn61  1  0.15145800  0.66594857  0.16973618  1
  Sn2+  Sn62  1  0.32885405  0.50760498  0.17062232  1
  Sn2+  Sn63  1  0.33814732  0.66622200  0.32642070  1
  Sn2+  Sn64  1  0.66433374  0.49518070  0.49854285  1
  Bi3+  Bi65  1  0.66754301  0.33981120  -0.00191980  1
  Bi3+  Bi66  1  0.16323267  -0.00060332  0.17588311  1
  Bi3+  Bi67  1  0.16165558  0.49663249  0.32887057  1
  Bi3+  Bi68  1  0.16763025  0.16618700  0.00226573  1
  Bi3+  Bi69  1  0.66353010  0.33483168  0.33258859  1
  Bi3+  Bi70  1  0.33244700  0.33657997  0.33674664  1
  Bi3+  Bi71  1  0.16398777  0.16752650  0.33753245  1
  Bi3+  Bi72  1  0.82865952  0.16925706  0.00333129  1
  Bi3+  Bi73  1  -0.00082122  0.33712069  -0.00052871  1
  Bi3+  Bi74  1  -0.00551613  0.33050540  0.66488828  1
  Bi3+  Bi75  1  -0.00053935  0.83066421  0.16884360  1
  Bi3+  Bi76  1  0.83220298  0.49990721  -0.00309547  1
  Bi3+  Bi77  1  0.50529775  0.33502498  0.82810391  1
  Bi3+  Bi78  1  0.33001587  0.16286383  0.16635084  1
  Bi3+  Bi79  1  0.33162470  0.83194516  0.16938555  1
  Bi3+  Bi80  1  -0.00079031  0.16511245  0.83158820  1
  Bi3+  Bi81  1  0.16574732  0.66825844  0.83823966  1
  Bi3+  Bi82  1  0.83255759  0.66763819  0.83695768  1
  Bi3+  Bi83  1  0.33164057  0.66496491  0.66295073  1
  Bi3+  Bi84  1  0.16658727  0.83296352  0.66340329  1
  Bi3+  Bi85  1  0.49772794  0.83215113  0.01162229  1
  Te2-  Te86  1  0.16596904  0.16878759  0.16809279  1
  Te2-  Te87  1  0.15808662  0.15450164  0.49855223  1
  Te2-  Te88  1  0.16362333  0.16139327  0.83765210  1
  Te2-  Te89  1  0.16459516  0.49684909  0.16364025  1
  Te2-  Te90  1  0.15282131  0.50432272  0.49501592  1
  Te2-  Te91  1  0.16529482  0.50207887  0.83870374  1
  Te2-  Te92  1  0.16617591  0.83377909  0.16686945  1
  Te2-  Te93  1  0.17636809  0.84241823  0.49835866  1
  Te2-  Te94  1  0.17263871  0.83181398  0.83539773  1
  Te2-  Te95  1  0.49082610  0.16866868  0.16829904  1
  Te2-  Te96  1  0.51363388  0.16332799  0.51207116  1
  Te2-  Te97  1  0.50078935  0.17050333  0.82291301  1
  Te2-  Te98  1  0.49443283  0.50390138  0.17323702  1
  Te2-  Te99  1  0.50155412  0.51475252  0.49831029  1
  Te2-  Te100  1  0.50281088  0.49734139  0.83015213  1
  Te2-  Te101  1  0.49119674  0.82005188  0.17245072  1
  Te2-  Te102  1  0.49208775  0.82263031  0.48409408  1
  Te2-  Te103  1  0.49520599  0.83226824  0.84395908  1
  Te2-  Te104  1  0.83168043  0.17175656  0.16547851  1
  Te2-  Te105  1  0.82264789  0.14446555  0.49568750  1
  Te2-  Te106  1  0.83520752  0.16222726  0.83760721  1
  Te2-  Te107  1  0.83769827  0.50916021  0.15991521  1
  Te2-  Te108  1  0.84128889  0.50599920  0.49487181  1
  Te2-  Te109  1  0.83045779  0.50552256  0.83219215  1
  Te2-  Te110  1  0.83361498  0.81768969  0.15809162  1
  Te2-  Te111  1  0.83707534  0.84273383  0.48890579  1
  Te2-  Te112  1  0.83144172  0.83236825  0.85277463  1
  Te2-  Te113  1  0.16142711  0.00552719  0.01016116  1
  Te2-  Te114  1  0.16040302  0.00612725  0.34017694  1
  Te2-  Te115  1  0.17431307  -0.00448362  0.65615892  1
  Te2-  Te116  1  0.16324343  0.33040961  -0.00044078  1
  Te2-  Te117  1  0.16731635  0.33244172  0.35363659  1
  Te2-  Te118  1  0.16215805  0.33229472  0.65409717  1
  Te2-  Te119  1  0.17060278  0.65491482  -0.00235146  1
  Te2-  Te120  1  0.16656747  0.65518281  0.33221357  1
  Te2-  Te121  1  0.16874292  0.66739547  0.67069591  1
  Te2-  Te122  1  0.51605199  -0.00498483  0.01559781  1
  Te2-  Te123  1  0.50399438  -0.00960896  0.32054090  1
  Te2-  Te124  1  0.49771250  -0.00425309  0.66887150  1
  Te2-  Te125  1  0.50239831  0.33964433  -0.00416685  1
  Te2-  Te126  1  0.49937877  0.33621109  0.34447066  1
  Te2-  Te127  1  0.52092783  0.33829502  0.66288532  1
  Te2-  Te128  1  0.49254453  0.66293975  0.00847269  1
  Te2-  Te129  1  0.50336845  0.66575868  0.32518754  1
  Te2-  Te130  1  0.49283691  0.66431381  0.66546179  1
  Te2-  Te131  1  0.81476245  0.00425953  0.00912117  1
  Te2-  Te132  1  0.83368203  0.00098674  0.31358687  1
  Te2-  Te133  1  0.82813774  -0.01778835  0.67415633  1
  Te2-  Te134  1  0.83354375  0.33523734  0.00089803  1
  Te2-  Te135  1  0.82824233  0.32048762  0.34371472  1
  Te2-  Te136  1  0.82433715  0.33293398  0.65418423  1
  Te2-  Te137  1  0.83489459  0.66032497  -0.00364725  1
  Te2-  Te138  1  0.82762282  0.66878532  0.32731250  1
  Te2-  Te139  1  0.83061950  0.68407602  0.67188573  1
  Te2-  Te140  1  -0.00182181  0.17154500  -0.00196182  1
  Te2-  Te141  1  0.00151280  0.15747592  0.33813318  1
  Te2-  Te142  1  0.00336685  0.16656510  0.66969431  1
  Te2-  Te143  1  -0.00241155  0.49763032  0.00116716  1
  Te2-  Te144  1  -0.00304460  0.50098125  0.33234450  1
  Te2-  Te145  1  -0.00749587  0.49440199  0.67058263  1
  Te2-  Te146  1  0.00542914  0.83006478  0.00333025  1
  Te2-  Te147  1  0.01151952  0.83883629  0.32872430  1
  Te2-  Te148  1  0.00797628  0.83907126  0.66435635  1
  Te2-  Te149  1  0.33206755  0.15020483  0.00206928  1
  Te2-  Te150  1  0.32971081  0.17274987  0.33086515  1
  Te2-  Te151  1  0.32699535  0.16545100  0.66320931  1
  Te2-  Te152  1  0.33710633  0.49379383  0.00297533  1
  Te2-  Te153  1  0.32879044  0.49803291  0.33618494  1
  Te2-  Te154  1  0.33174542  0.50165369  0.66427839  1
  Te2-  Te155  1  0.33401557  0.85462739  0.00720620  1
  Te2-  Te156  1  0.31413098  0.82924650  0.33456135  1
  Te2-  Te157  1  0.33073936  0.82933266  0.65761738  1
  Te2-  Te158  1  0.66826536  0.17759577  0.01608243  1
  Te2-  Te159  1  0.66418962  0.16804748  0.31341033  1
  Te2-  Te160  1  0.67167240  0.15851082  0.66931008  1
  Te2-  Te161  1  0.66381965  0.50229951  0.00725460  1
  Te2-  Te162  1  0.67837739  0.49534832  0.32799507  1
  Te2-  Te163  1  0.67241257  0.51480921  0.66401644  1
  Te2-  Te164  1  0.66222509  0.83204430  0.00997251  1
  Te2-  Te165  1  0.66743165  0.82715830  0.32948689  1
  Te2-  Te166  1  0.66248284  0.82402203  0.66224093  1
  Te2-  Te167  1  0.00074993  -0.00684370  0.16849869  1
  Te2-  Te168  1  -0.00884869  -0.00861486  0.49507040  1
  Te2-  Te169  1  0.00840183  0.00387816  0.83424147  1
  Te2-  Te170  1  0.00107640  0.33484575  0.16468942  1
  Te2-  Te171  1  -0.01773273  0.32927155  0.50512126  1
  Te2-  Te172  1  -0.00553413  0.33106844  0.83139373  1
  Te2-  Te173  1  -0.00708246  0.66928918  0.16963617  1
  Te2-  Te174  1  0.00189983  0.68492344  0.49699447  1
  Te2-  Te175  1  0.00121330  0.66789599  0.83485096  1
  Te2-  Te176  1  0.32477327  -0.00181181  0.17835566  1
  Te2-  Te177  1  0.34042663  -0.00432517  0.48736677  1
  Te2-  Te178  1  0.32443131  -0.01040076  0.83397809  1
  Te2-  Te179  1  0.33081274  0.33173112  0.17203731  1
  Te2-  Te180  1  0.33986955  0.33598836  0.49871372  1
  Te2-  Te181  1  0.33599716  0.33315113  0.83197582  1
  Te2-  Te182  1  0.32208101  0.66920385  0.16142122  1
  Te2-  Te183  1  0.33088185  0.66648208  0.50056696  1
  Te2-  Te184  1  0.33008149  0.67393065  0.83489505  1
  Te2-  Te185  1  0.66678512  -0.01222236  0.18296641  1
  Te2-  Te186  1  0.67284393  0.00203495  0.48813809  1
  Te2-  Te187  1  0.66799082  -0.00513646  0.83061687  1
  Te2-  Te188  1  0.65766144  0.34462166  0.16656717  1
  Te2-  Te189  1  0.67461417  0.33577765  0.49435240  1
  Te2-  Te190  1  0.66902150  0.33598541  0.83626456  1
  Te2-  Te191  1  0.67188335  0.66180903  0.16968358  1
  Te2-  Te192  1  0.66069267  0.66752355  0.49053492  1
  Te2-  Te193  1  0.66885806  0.67053143  0.83745304  1
  Pb2+  Pb194  1  0.83313927  0.67576375  0.49546214  1
  Pb2+  Pb195  1  -0.00448085  0.16110473  0.17052343  1
  Pb2+  Pb196  1  -0.00182533  0.66833513  0.66260811  1
  Pb2+  Pb197  1  0.00084349  0.83675684  0.82851768  1
  Pb2+  Pb198  1  0.50298992  0.16311900  -0.00001166  1
  Pb2+  Pb199  1  0.33021306  0.16512961  0.49808901  1
  Pb2+  Pb200  1  0.33322756  0.32347776  0.00304496  1
  Pb2+  Pb201  1  -0.00246887  0.32721165  0.33657751  1
  Pb2+  Pb202  1  0.33252295  0.16007958  0.82949862  1
  Pb2+  Pb203  1  0.49756772  -0.00057652  0.84029986  1
  Pb2+  Pb204  1  0.49947307  0.16122029  0.33926602  1
  Pb2+  Pb205  1  0.49760535  0.83180220  0.66178432  1
  Pb2+  Pb206  1  0.66531760  0.16641002  0.84306710  1
  Pb2+  Pb207  1  0.83775666  0.15803564  0.66223589  1
  Pb2+  Pb208  1  0.82777690  0.33990305  0.17446794  1
  Pb2+  Pb209  1  0.15943738  0.49678495  0.66453194  1
  Pb2+  Pb210  1  0.50218117  0.66561420  0.83735233  1
  Pb2+  Pb211  1  -0.01207459  -0.00237422  0.00125397  1
  Pb2+  Pb212  1  0.50798873  -0.00839700  0.49598245  1
  Pb2+  Pb213  1  0.34692638  0.33201599  0.66373454  1
  Pb2+  Pb214  1  0.16313353  0.32913873  0.82526062  1
  Pb2+  Pb215  1  0.33514900  0.50482984  0.83501737  1
