# generated using pymatgen
data_In22Ag21Sn22Bi21(Te54Pb11)2
_symmetry_space_group_name_H-M   'P 1'
_cell_length_a   19.16423085
_cell_length_b   19.18801863
_cell_length_c   19.15481092
_cell_angle_alpha   89.99859678
_cell_angle_beta   90.01406863
_cell_angle_gamma   89.99154575
_symmetry_Int_Tables_number   1
_chemical_formula_structural   In22Ag21Sn22Bi21(Te54Pb11)2
_chemical_formula_sum   'In22 Ag21 Sn22 Bi21 Te108 Pb22'
_cell_volume   7043.67609335
_cell_formula_units_Z   1
loop_
 _symmetry_equiv_pos_site_id
 _symmetry_equiv_pos_as_xyz
  1  'x, y, z'
loop_
 _atom_type_symbol
 _atom_type_oxidation_number
  In3+  3.0
  Ag+  1.0
  Sn2+  2.0
  Bi3+  3.0
  Te2-  -2.0
  Pb2+  2.0
loop_
 _atom_site_type_symbol
 _atom_site_label
 _atom_site_symmetry_multiplicity
 _atom_site_fract_x
 _atom_site_fract_y
 _atom_site_fract_z
 _atom_site_occupancy
  In3+  In0  1  0.66952775  0.68099859  -0.00085195  1
  In3+  In1  1  0.14113634  0.33762685  0.15819369  1
  In3+  In2  1  0.14533095  0.33789346  0.48399818  1
  In3+  In3  1  0.17603716  0.83549093  0.35702892  1
  In3+  In4  1  0.68472938  0.49354830  0.16862546  1
  In3+  In5  1  0.33007290  -0.00781070  0.66534215  1
  In3+  In6  1  0.51149325  0.00345849  0.49859578  1
  In3+  In7  1  0.51903050  0.68368825  0.49922515  1
  In3+  In8  1  -0.00951166  0.15126537  0.17509621  1
  In3+  In9  1  -0.00883187  0.50156757  0.84608947  1
  In3+  In10  1  -0.01921693  0.83475067  0.50956085  1
  In3+  In11  1  0.82662857  0.31852394  0.82584196  1
  In3+  In12  1  0.15281089  0.16104166  0.00563666  1
  In3+  In13  1  0.49380551  0.50334510  0.32884714  1
  In3+  In14  1  0.50182641  0.83094485  0.31445158  1
  In3+  In15  1  0.31928568  0.31739308  0.66743727  1
  In3+  In16  1  0.50063783  0.14717435  0.33476905  1
  In3+  In17  1  0.67882543  0.33176586  0.00764282  1
  In3+  In18  1  0.15574899  0.49606657  0.66660964  1
  In3+  In19  1  0.17022025  0.67984166  0.81755402  1
  In3+  In20  1  0.47651356  0.84787997  0.00763502  1
  In3+  In21  1  0.17250009  -0.02174685  0.15442804  1
  Ag+  Ag22  1  0.86111632  0.63876737  0.53163150  1
  Ag+  Ag23  1  0.33220590  0.00285535  0.02422763  1
  Ag+  Ag24  1  0.82830291  0.31022268  0.18082536  1
  Ag+  Ag25  1  0.63484067  0.80271713  0.49852830  1
  Ag+  Ag26  1  0.52147955  0.02203798  0.16672006  1
  Ag+  Ag27  1  0.19260221  0.83160496  0.67381948  1
  Ag+  Ag28  1  0.86290473  0.64851687  0.18727671  1
  Ag+  Ag29  1  0.85177403  0.30341746  0.46712501  1
  Ag+  Ag30  1  0.85395502  0.19799895  0.00725623  1
  Ag+  Ag31  1  0.30840726  0.84128745  0.19281401  1
  Ag+  Ag32  1  0.47497386  -0.00179432  0.86698686  1
  Ag+  Ag33  1  0.84146250  0.47876105  0.66000930  1
  Ag+  Ag34  1  0.36085271  0.14121238  0.85510417  1
  Ag+  Ag35  1  0.68776541  0.17086156  0.47138539  1
  Ag+  Ag36  1  0.83296769  0.18981345  0.63930138  1
  Ag+  Ag37  1  -0.02059057  0.48170158  0.14353542  1
  Ag+  Ag38  1  -0.02299688  -0.00001867  0.00276802  1
  Ag+  Ag39  1  0.36194506  0.85468716  0.83292237  1
  Ag+  Ag40  1  0.87454338  0.02212348  0.13901974  1
  Ag+  Ag41  1  0.86379724  0.20365160  0.35261443  1
  Ag+  Ag42  1  0.35261441  0.67620334  0.34776512  1
  Sn2+  Sn43  1  0.16729351  0.50987199  0.33403887  1
  Sn2+  Sn44  1  0.17127358  0.83607398  -0.00972431  1
  Sn2+  Sn45  1  0.49654815  0.33090785  0.16659245  1
  Sn2+  Sn46  1  -0.00302687  0.33612158  0.67164009  1
  Sn2+  Sn47  1  -0.00220666  0.67909702  0.00458930  1
  Sn2+  Sn48  1  -0.00017304  0.32894662  0.00073815  1
  Sn2+  Sn49  1  0.49842101  0.83600560  0.67258430  1
  Sn2+  Sn50  1  0.15920202  0.15855635  0.67289859  1
  Sn2+  Sn51  1  -0.01575503  0.50556192  0.49775594  1
  Sn2+  Sn52  1  0.33080651  0.66448492  0.65686254  1
  Sn2+  Sn53  1  0.83133776  0.83380285  0.32845654  1
  Sn2+  Sn54  1  0.66269693  0.83623707  0.82015979  1
  Sn2+  Sn55  1  0.33512387  0.32466126  0.00321285  1
  Sn2+  Sn56  1  0.33017341  0.50927222  0.16455940  1
  Sn2+  Sn57  1  0.82872266  0.50017179  0.00005429  1
  Sn2+  Sn58  1  0.33621898  0.34215478  0.33282382  1
  Sn2+  Sn59  1  0.83179988  0.00420102  0.84247469  1
  Sn2+  Sn60  1  -0.00825301  0.83003368  0.17085652  1
  Sn2+  Sn61  1  0.83332812  0.50887615  0.34021770  1
  Sn2+  Sn62  1  0.16810205  0.66502273  0.49637925  1
  Sn2+  Sn63  1  0.33513707  0.83226368  0.50853355  1
  Sn2+  Sn64  1  0.49789258  0.50563309  0.00171559  1
  Bi3+  Bi65  1  0.00044965  0.66981032  0.33284633  1
  Bi3+  Bi66  1  0.49853317  0.16836013  0.00293716  1
  Bi3+  Bi67  1  0.33047634  0.49661573  0.83013667  1
  Bi3+  Bi68  1  0.82986702  -0.00611247  0.49759409  1
  Bi3+  Bi69  1  0.66946255  0.00320694  0.66389331  1
  Bi3+  Bi70  1  0.66756851  0.16297718  0.83314541  1
  Bi3+  Bi71  1  0.66698358  0.49033730  0.50005896  1
  Bi3+  Bi72  1  0.66822965  0.33220066  0.66723300  1
  Bi3+  Bi73  1  0.17049602  0.00167462  0.50166581  1
  Bi3+  Bi74  1  0.49655862  0.66309048  0.16629367  1
  Bi3+  Bi75  1  0.17007771  0.66308986  0.16538145  1
  Bi3+  Bi76  1  0.16335227  0.33335495  0.83262374  1
  Bi3+  Bi77  1  0.66778857  0.82869411  0.16863696  1
  Bi3+  Bi78  1  0.83521817  0.83092203  0.00429084  1
  Bi3+  Bi79  1  -0.00247887  0.83441447  0.83700959  1
  Bi3+  Bi80  1  0.50031245  0.33549428  0.49898046  1
  Bi3+  Bi81  1  -0.00164735  0.16624961  0.83527681  1
  Bi3+  Bi82  1  0.82633321  0.83822713  0.66511718  1
  Bi3+  Bi83  1  0.33292096  0.16919396  0.49961860  1
  Bi3+  Bi84  1  0.66731336  -0.00483481  0.33352079  1
  Bi3+  Bi85  1  0.32983230  0.49899436  0.49955571  1
  Te2-  Te86  1  0.16105871  0.18433742  0.16088945  1
  Te2-  Te87  1  0.16927636  0.16975581  0.50223309  1
  Te2-  Te88  1  0.16247596  0.17080112  0.83291196  1
  Te2-  Te89  1  0.16767217  0.49550730  0.16730941  1
  Te2-  Te90  1  0.16583213  0.49364785  0.50693344  1
  Te2-  Te91  1  0.16099917  0.49567133  0.82178747  1
  Te2-  Te92  1  0.16539662  0.82826741  0.15741808  1
  Te2-  Te93  1  0.17126184  0.83805759  0.50844201  1
  Te2-  Te94  1  0.15868291  0.83249083  0.82226463  1
  Te2-  Te95  1  0.49917817  0.16851183  0.16840504  1
  Te2-  Te96  1  0.49488262  0.16968109  0.49259772  1
  Te2-  Te97  1  0.50433081  0.15707307  0.83569274  1
  Te2-  Te98  1  0.49498670  0.50237169  0.17073525  1
  Te2-  Te99  1  0.49859297  0.49956532  0.49298056  1
  Te2-  Te100  1  0.49622187  0.50083798  0.83010844  1
  Te2-  Te101  1  0.50212923  0.82568313  0.16005332  1
  Te2-  Te102  1  0.49201320  0.83648876  0.49807898  1
  Te2-  Te103  1  0.50849229  0.84390074  0.84059626  1
  Te2-  Te104  1  0.84300547  0.16561786  0.15383457  1
  Te2-  Te105  1  0.83277464  0.15830755  0.49329310  1
  Te2-  Te106  1  0.83355888  0.16704359  0.85346004  1
  Te2-  Te107  1  0.83598774  0.50741855  0.16818349  1
  Te2-  Te108  1  0.82726040  0.49916368  0.50882827  1
  Te2-  Te109  1  0.84238411  0.50024634  0.82498415  1
  Te2-  Te110  1  0.82800032  0.82715771  0.16640227  1
  Te2-  Te111  1  0.83048836  0.83403414  0.49810167  1
  Te2-  Te112  1  0.83225752  0.83529060  0.83602220  1
  Te2-  Te113  1  0.18265521  0.00937039  0.00314551  1
  Te2-  Te114  1  0.16522290  -0.00342181  0.33931157  1
  Te2-  Te115  1  0.17116194  -0.00758258  0.66334588  1
  Te2-  Te116  1  0.16708852  0.32859478  -0.00070070  1
  Te2-  Te117  1  0.16818309  0.33712265  0.33435253  1
  Te2-  Te118  1  0.16371815  0.32887712  0.66753686  1
  Te2-  Te119  1  0.16381784  0.66833127  0.00362984  1
  Te2-  Te120  1  0.16303532  0.67464344  0.32994327  1
  Te2-  Te121  1  0.17005680  0.68120170  0.66421090  1
  Te2-  Te122  1  0.48697067  0.00122370  0.01610339  1
  Te2-  Te123  1  0.50055143  -0.00747470  0.31979059  1
  Te2-  Te124  1  0.50702904  -0.00023111  0.65391495  1
  Te2-  Te125  1  0.49920877  0.33288963  0.00337953  1
  Te2-  Te126  1  0.49732933  0.34482091  0.33496006  1
  Te2-  Te127  1  0.50271763  0.33170505  0.66470208  1
  Te2-  Te128  1  0.50205822  0.66571252  0.00017190  1
  Te2-  Te129  1  0.49847997  0.66813485  0.33450138  1
  Te2-  Te130  1  0.49885584  0.66771475  0.65844598  1
  Te2-  Te131  1  0.82807952  -0.00795081  0.00321394  1
  Te2-  Te132  1  0.82901138  -0.00434942  0.33566296  1
  Te2-  Te133  1  0.83089315  -0.00050221  0.66657422  1
  Te2-  Te134  1  0.83243508  0.34212136  -0.01123382  1
  Te2-  Te135  1  0.83203480  0.34477573  0.32547858  1
  Te2-  Te136  1  0.83080161  0.33249256  0.67338910  1
  Te2-  Te137  1  0.82881763  0.66820287  0.00470946  1
  Te2-  Te138  1  0.83685302  0.66950819  0.33132822  1
  Te2-  Te139  1  0.83201803  0.67686493  0.66992219  1
  Te2-  Te140  1  -0.00027708  0.15748930  -0.00246993  1
  Te2-  Te141  1  0.00272151  0.16711086  0.32663081  1
  Te2-  Te142  1  -0.01433442  0.16741042  0.67357445  1
  Te2-  Te143  1  -0.00012983  0.50551668  -0.00070690  1
  Te2-  Te144  1  0.00361024  0.50749861  0.33875700  1
  Te2-  Te145  1  -0.00500784  0.49739378  0.65990415  1
  Te2-  Te146  1  -0.00001130  0.84493881  -0.00136961  1
  Te2-  Te147  1  0.00556293  0.83168800  0.33241150  1
  Te2-  Te148  1  -0.00854167  0.83366359  0.67076485  1
  Te2-  Te149  1  0.33737872  0.16420473  -0.00237474  1
  Te2-  Te150  1  0.34103742  0.16888821  0.33393703  1
  Te2-  Te151  1  0.33069101  0.16594358  0.66166076  1
  Te2-  Te152  1  0.33479888  0.49695520  -0.00563868  1
  Te2-  Te153  1  0.33154537  0.50847460  0.33737692  1
  Te2-  Te154  1  0.32612507  0.50050708  0.66431027  1
  Te2-  Te155  1  0.32959197  0.83960427  -0.02038057  1
  Te2-  Te156  1  0.33149079  0.82317318  0.33721719  1
  Te2-  Te157  1  0.34042372  0.83476890  0.67926597  1
  Te2-  Te158  1  0.66062484  0.17346914  -0.00171195  1
  Te2-  Te159  1  0.65565348  0.16109543  0.32853271  1
  Te2-  Te160  1  0.68161787  0.16794747  0.67280657  1
  Te2-  Te161  1  0.66279662  0.48760548  0.00664955  1
  Te2-  Te162  1  0.66397513  0.49943371  0.33009223  1
  Te2-  Te163  1  0.67433954  0.49691032  0.66488031  1
  Te2-  Te164  1  0.66803966  0.83290496  -0.00084718  1
  Te2-  Te165  1  0.65695535  0.83346135  0.34384202  1
  Te2-  Te166  1  0.66300801  0.83846470  0.64849987  1
  Te2-  Te167  1  0.01837619  0.00073709  0.15673863  1
  Te2-  Te168  1  0.00363232  -0.00546852  0.50238031  1
  Te2-  Te169  1  0.00177670  0.00097769  0.84663120  1
  Te2-  Te170  1  -0.01155581  0.33703911  0.15930670  1
  Te2-  Te171  1  -0.00750124  0.33331371  0.50142724  1
  Te2-  Te172  1  0.00009373  0.33311540  0.83720696  1
  Te2-  Te173  1  0.00711314  0.66779969  0.16690935  1
  Te2-  Te174  1  0.00032502  0.67617240  0.49786912  1
  Te2-  Te175  1  0.01055944  0.66674636  0.83666867  1
  Te2-  Te176  1  0.32187492  -0.01179769  0.17074260  1
  Te2-  Te177  1  0.33458179  0.00458832  0.50627074  1
  Te2-  Te178  1  0.33847271  0.00245780  0.81689788  1
  Te2-  Te179  1  0.33686477  0.33775983  0.16735976  1
  Te2-  Te180  1  0.33581113  0.33545012  0.50425431  1
  Te2-  Te181  1  0.32651986  0.33443049  0.82829572  1
  Te2-  Te182  1  0.33286284  0.67458145  0.16957974  1
  Te2-  Te183  1  0.32783635  0.66029042  0.49414074  1
  Te2-  Te184  1  0.32311449  0.65766128  0.83020054  1
  Te2-  Te185  1  0.66690026  -0.01019680  0.17001746  1
  Te2-  Te186  1  0.66492427  0.01663265  0.49745195  1
  Te2-  Te187  1  0.66648646  -0.00071172  0.82821151  1
  Te2-  Te188  1  0.68019274  0.33745222  0.16243882  1
  Te2-  Te189  1  0.66399502  0.32521613  0.50375332  1
  Te2-  Te190  1  0.66711741  0.33025397  0.83481684  1
  Te2-  Te191  1  0.65954942  0.66394758  0.15582736  1
  Te2-  Te192  1  0.66748509  0.65685400  0.49571186  1
  Te2-  Te193  1  0.66267713  0.66656285  0.84079615  1
  Pb2+  Pb194  1  -0.00177266  0.34091336  0.32805357  1
  Pb2+  Pb195  1  0.66901575  0.66563893  0.32460909  1
  Pb2+  Pb196  1  0.33155361  0.67234902  0.00340835  1
  Pb2+  Pb197  1  0.83712136  0.66651989  0.83839846  1
  Pb2+  Pb198  1  0.67665349  0.16119707  0.16465732  1
  Pb2+  Pb199  1  0.66050753  0.00041228  -0.00049692  1
  Pb2+  Pb200  1  0.32850818  0.16258829  0.16287524  1
  Pb2+  Pb201  1  0.49511034  0.32857067  0.83739815  1
  Pb2+  Pb202  1  0.66495827  0.32991204  0.33564628  1
  Pb2+  Pb203  1  0.50093549  0.49904226  0.66078307  1
  Pb2+  Pb204  1  -0.00127670  -0.00059489  0.67682999  1
  Pb2+  Pb205  1  -0.00606491  -0.00409615  0.33060679  1
  Pb2+  Pb206  1  0.49158896  0.67386124  0.83070546  1
  Pb2+  Pb207  1  0.17466378  0.00045989  0.83569955  1
  Pb2+  Pb208  1  0.66774540  0.66853854  0.66662316  1
  Pb2+  Pb209  1  0.00074589  0.16306186  0.50488813  1
  Pb2+  Pb210  1  -0.00021934  0.66436142  0.66751003  1
  Pb2+  Pb211  1  0.17295629  0.16804919  0.33051491  1
  Pb2+  Pb212  1  0.16677889  0.49940291  -0.00442935  1
  Pb2+  Pb213  1  0.67274064  0.49850803  0.83756589  1
  Pb2+  Pb214  1  0.33290207  -0.00663374  0.33732633  1
  Pb2+  Pb215  1  0.50695376  0.16456794  0.66433842  1
