# generated using pymatgen
data_In22Ag21Sn22Bi21(Te54Pb11)2
_symmetry_space_group_name_H-M   'P 1'
_cell_length_a   19.21081199
_cell_length_b   19.20452291
_cell_length_c   19.20160456
_cell_angle_alpha   90.00672049
_cell_angle_beta   90.01282378
_cell_angle_gamma   89.99187900
_symmetry_Int_Tables_number   1
_chemical_formula_structural   In22Ag21Sn22Bi21(Te54Pb11)2
_chemical_formula_sum   'In22 Ag21 Sn22 Bi21 Te108 Pb22'
_cell_volume   7084.13367863
_cell_formula_units_Z   1
loop_
 _symmetry_equiv_pos_site_id
 _symmetry_equiv_pos_as_xyz
  1  'x, y, z'
loop_
 _atom_type_symbol
 _atom_type_oxidation_number
  In3+  3.0
  Ag+  1.0
  Sn2+  2.0
  Bi3+  3.0
  Te2-  -2.0
  Pb2+  2.0
loop_
 _atom_site_type_symbol
 _atom_site_label
 _atom_site_symmetry_multiplicity
 _atom_site_fract_x
 _atom_site_fract_y
 _atom_site_fract_z
 _atom_site_occupancy
  In3+  In0  1  0.66522225  0.83791748  0.48922103  1
  In3+  In1  1  0.51311303  0.81774231  -0.00008397  1
  In3+  In2  1  -0.01595743  0.47538182  0.50510472  1
  In3+  In3  1  0.66652780  0.16685581  0.49558172  1
  In3+  In4  1  0.66470368  0.18778529  0.83586652  1
  In3+  In5  1  0.49819557  -0.00333173  0.82435565  1
  In3+  In6  1  0.50754171  0.16923000  0.01400566  1
  In3+  In7  1  0.50564634  0.64164730  0.16664930  1
  In3+  In8  1  0.17280286  0.53012977  0.66396819  1
  In3+  In9  1  0.66331045  -0.00121304  0.66191486  1
  In3+  In10  1  0.35977062  0.16810736  0.83994931  1
  In3+  In11  1  0.67011627  0.35000387  0.66349742  1
  In3+  In12  1  -0.02888942  0.50983585  0.14884628  1
  In3+  In13  1  0.82714457  0.81285877  0.00682898  1
  In3+  In14  1  0.34933547  0.33438743  0.32672003  1
  In3+  In15  1  0.80812911  0.17252567  0.65518093  1
  In3+  In16  1  -0.02811425  0.00571588  0.67124208  1
  In3+  In17  1  0.36739296  0.83264135  0.14802382  1
  In3+  In18  1  0.66696154  0.00334531  0.32830679  1
  In3+  In19  1  0.16458635  0.17670582  0.32497405  1
  In3+  In20  1  0.83443046  0.81682645  0.65924495  1
  In3+  In21  1  0.33434052  0.00043578  0.63906968  1
  Ag+  Ag22  1  0.81107163  0.69087859  0.81332262  1
  Ag+  Ag23  1  0.02855710  0.85592030  0.13788166  1
  Ag+  Ag24  1  0.47755080  0.32789293  0.52299827  1
  Ag+  Ag25  1  0.52341053  0.34311784  0.15394026  1
  Ag+  Ag26  1  0.64970121  0.34797306  0.02856688  1
  Ag+  Ag27  1  0.30295008  -0.02998996  0.32331609  1
  Ag+  Ag28  1  0.13717313  0.84131850  0.69671795  1
  Ag+  Ag29  1  0.50194923  0.46604575  -0.03486389  1
  Ag+  Ag30  1  0.35920676  0.33689253  0.03042146  1
  Ag+  Ag31  1  0.84716812  0.00014696  0.49415566  1
  Ag+  Ag32  1  0.51377077  0.18866027  0.68467312  1
  Ag+  Ag33  1  0.52226714  0.67003078  0.80681949  1
  Ag+  Ag34  1  0.66735692  0.81210766  0.18949034  1
  Ag+  Ag35  1  -0.00721848  0.35797920  0.30813007  1
  Ag+  Ag36  1  -0.02638193  0.52113455  0.86114859  1
  Ag+  Ag37  1  -0.00117346  0.20497189  0.20253624  1
  Ag+  Ag38  1  0.68976325  0.52444323  0.86215972  1
  Ag+  Ag39  1  0.81100048  0.36597397  0.46970130  1
  Ag+  Ag40  1  0.32646484  0.69917082  0.69786453  1
  Ag+  Ag41  1  0.79528845  0.52260802  -0.02783372  1
  Ag+  Ag42  1  0.67717913  0.46436743  0.14550513  1
  Sn2+  Sn43  1  0.00102623  0.65471985  0.32908120  1
  Sn2+  Sn44  1  0.01093179  0.66465629  0.66854538  1
  Sn2+  Sn45  1  0.17686880  0.00141162  0.82808349  1
  Sn2+  Sn46  1  0.16238981  0.49417500  0.33085999  1
  Sn2+  Sn47  1  -0.00105583  0.66288847  -0.00367595  1
  Sn2+  Sn48  1  0.83975664  0.82949213  0.32755345  1
  Sn2+  Sn49  1  0.66487809  0.00477608  0.00024191  1
  Sn2+  Sn50  1  0.83694884  0.67910173  0.50173430  1
  Sn2+  Sn51  1  0.33493810  0.01294765  0.01233479  1
  Sn2+  Sn52  1  0.16171509  0.83229102  0.00876176  1
  Sn2+  Sn53  1  0.50390543  0.35160939  0.83779695  1
  Sn2+  Sn54  1  -0.00184458  0.16201541  0.49977126  1
  Sn2+  Sn55  1  0.16116914  0.83705034  0.33450316  1
  Sn2+  Sn56  1  0.82610905  0.67107948  0.16802571  1
  Sn2+  Sn57  1  0.16645358  -0.00058898  0.50243709  1
  Sn2+  Sn58  1  -0.00427934  -0.00666233  0.33308208  1
  Sn2+  Sn59  1  0.33451281  0.66179584  0.33465568  1
  Sn2+  Sn60  1  0.84307176  0.49177591  0.67387486  1
  Sn2+  Sn61  1  0.83196592  0.49450927  0.32794722  1
  Sn2+  Sn62  1  0.67776515  0.16279620  0.15990581  1
  Sn2+  Sn63  1  0.16844792  0.66725168  0.16994291  1
  Sn2+  Sn64  1  0.34317865  0.50063926  0.15801714  1
  Bi3+  Bi65  1  -0.00333658  0.83672971  0.49864709  1
  Bi3+  Bi66  1  0.00222420  0.32789746  0.66541759  1
  Bi3+  Bi67  1  0.16665560  0.16473615  0.00225089  1
  Bi3+  Bi68  1  0.49949397  0.49947443  0.33632504  1
  Bi3+  Bi69  1  -0.00378542  0.16409296  0.83235542  1
  Bi3+  Bi70  1  0.33444035  0.49696813  0.83275921  1
  Bi3+  Bi71  1  0.33420978  0.83143112  0.49587519  1
  Bi3+  Bi72  1  0.50315043  0.83248681  0.66973741  1
  Bi3+  Bi73  1  0.83431139  0.32825255  0.83037462  1
  Bi3+  Bi74  1  0.83359539  0.16922995  -0.00147226  1
  Bi3+  Bi75  1  0.33480712  0.49924270  0.49829090  1
  Bi3+  Bi76  1  0.16388519  0.33744199  0.16830028  1
  Bi3+  Bi77  1  -0.00342971  0.33104014  -0.00695439  1
  Bi3+  Bi78  1  0.33430397  0.32642700  0.66478335  1
  Bi3+  Bi79  1  0.49574520  0.49907463  0.66510666  1
  Bi3+  Bi80  1  0.50200074  0.00696431  0.50014657  1
  Bi3+  Bi81  1  0.83339163  -0.00144122  0.17285577  1
  Bi3+  Bi82  1  0.33861471  0.16447090  0.50140961  1
  Bi3+  Bi83  1  0.50092818  0.01006130  0.16577471  1
  Bi3+  Bi84  1  0.16725344  0.66623492  0.83465123  1
  Bi3+  Bi85  1  0.66389739  0.83265469  0.83498822  1
  Te2-  Te86  1  0.15067291  0.16922697  0.16729976  1
  Te2-  Te87  1  0.17511489  0.15939055  0.49895697  1
  Te2-  Te88  1  0.16065086  0.16141975  0.83923466  1
  Te2-  Te89  1  0.17731529  0.49983111  0.16825779  1
  Te2-  Te90  1  0.17458467  0.50162687  0.50354450  1
  Te2-  Te91  1  0.17334754  0.50179055  0.82537373  1
  Te2-  Te92  1  0.16783937  0.82753341  0.16565404  1
  Te2-  Te93  1  0.16993665  0.83739573  0.49543088  1
  Te2-  Te94  1  0.16717581  0.83256438  0.84044183  1
  Te2-  Te95  1  0.49920526  0.17150149  0.16608020  1
  Te2-  Te96  1  0.50535633  0.17231297  0.50186696  1
  Te2-  Te97  1  0.50914452  0.16534674  0.83004741  1
  Te2-  Te98  1  0.49783022  0.48878994  0.17477891  1
  Te2-  Te99  1  0.49817240  0.48286711  0.50089166  1
  Te2-  Te100  1  0.49480539  0.51555246  0.82485997  1
  Te2-  Te101  1  0.51783898  0.84709556  0.15835288  1
  Te2-  Te102  1  0.50208826  0.83673416  0.50316281  1
  Te2-  Te103  1  0.50035946  0.81913176  0.83568063  1
  Te2-  Te104  1  0.84897585  0.16179399  0.16592015  1
  Te2-  Te105  1  0.82479352  0.14969807  0.50693751  1
  Te2-  Te106  1  0.83035605  0.16365293  0.82918783  1
  Te2-  Te107  1  0.81928488  0.50238772  0.17280177  1
  Te2-  Te108  1  0.83528497  0.50613217  0.50412724  1
  Te2-  Te109  1  0.83469621  0.49108037  0.83017873  1
  Te2-  Te110  1  0.81750468  0.83595351  0.16095073  1
  Te2-  Te111  1  0.83024410  0.84625958  0.50507047  1
  Te2-  Te112  1  0.82896643  0.83308970  0.83699751  1
  Te2-  Te113  1  0.16910453  0.00071174  0.00062319  1
  Te2-  Te114  1  0.16044811  -0.00103187  0.33476869  1
  Te2-  Te115  1  0.18085986  -0.01579645  0.67080926  1
  Te2-  Te116  1  0.16129204  0.32922928  0.00291046  1
  Te2-  Te117  1  0.14288787  0.32971945  0.33099645  1
  Te2-  Te118  1  0.16869136  0.32280075  0.66527694  1
  Te2-  Te119  1  0.16397631  0.66736810  0.00111139  1
  Te2-  Te120  1  0.16775330  0.66257020  0.32894799  1
  Te2-  Te121  1  0.17712671  0.68609649  0.67056214  1
  Te2-  Te122  1  0.49792917  0.01602691  0.00402686  1
  Te2-  Te123  1  0.50948175  0.00145791  0.33307644  1
  Te2-  Te124  1  0.49754725  -0.00562617  0.66543765  1
  Te2-  Te125  1  0.50285542  0.32177618  0.00219916  1
  Te2-  Te126  1  0.50094130  0.33608111  0.32223361  1
  Te2-  Te127  1  0.50032834  0.33482763  0.66828421  1
  Te2-  Te128  1  0.49747338  0.66993173  0.01484762  1
  Te2-  Te129  1  0.50210326  0.66485258  0.33136995  1
  Te2-  Te130  1  0.48936897  0.66735946  0.66371006  1
  Te2-  Te131  1  0.82987087  0.00745860  0.00462201  1
  Te2-  Te132  1  0.82561946  -0.00362404  0.33887048  1
  Te2-  Te133  1  0.82110604  0.00481075  0.66382930  1
  Te2-  Te134  1  0.83455140  0.33091917  -0.00709501  1
  Te2-  Te135  1  0.84522202  0.33441000  0.33258719  1
  Te2-  Te136  1  0.83662365  0.32464676  0.66626254  1
  Te2-  Te137  1  0.83949030  0.65876054  0.00380113  1
  Te2-  Te138  1  0.83758061  0.66623755  0.33340467  1
  Te2-  Te139  1  0.83907537  0.66584739  0.67144743  1
  Te2-  Te140  1  -0.00155662  0.16641509  -0.00452941  1
  Te2-  Te141  1  0.00883503  0.15616725  0.34005718  1
  Te2-  Te142  1  0.00435148  0.15895246  0.66977183  1
  Te2-  Te143  1  0.00489944  0.49386515  -0.00036171  1
  Te2-  Te144  1  0.00114235  0.49863608  0.35159029  1
  Te2-  Te145  1  0.01008948  0.49288372  0.65617126  1
  Te2-  Te146  1  -0.00865268  0.82939917  0.00049509  1
  Te2-  Te147  1  -0.00118422  0.82801516  0.33847746  1
  Te2-  Te148  1  -0.00653243  0.83831236  0.66244195  1
  Te2-  Te149  1  0.32762288  0.17923725  -0.00476690  1
  Te2-  Te150  1  0.32351999  0.17852401  0.33688056  1
  Te2-  Te151  1  0.34413249  0.16084079  0.66428560  1
  Te2-  Te152  1  0.34805849  0.48421849  -0.00354147  1
  Te2-  Te153  1  0.33340736  0.49434818  0.33599881  1
  Te2-  Te154  1  0.33210170  0.49188802  0.66236232  1
  Te2-  Te155  1  0.33701412  0.84053643  0.00226599  1
  Te2-  Te156  1  0.33234365  0.82774936  0.33737763  1
  Te2-  Te157  1  0.34109358  0.84135627  0.66029147  1
  Te2-  Te158  1  0.67078555  0.17180680  -0.00766639  1
  Te2-  Te159  1  0.67114480  0.16246410  0.33661045  1
  Te2-  Te160  1  0.65613583  0.15622617  0.67155688  1
  Te2-  Te161  1  0.65277667  0.49213739  0.00243208  1
  Te2-  Te162  1  0.66368708  0.49842058  0.33568359  1
  Te2-  Te163  1  0.66383098  0.50133855  0.66567281  1
  Te2-  Te164  1  0.66765895  0.83661861  -0.00443035  1
  Te2-  Te165  1  0.66983082  0.83927858  0.33490015  1
  Te2-  Te166  1  0.66869191  0.83720404  0.67109442  1
  Te2-  Te167  1  -0.00762702  -0.00758218  0.17117808  1
  Te2-  Te168  1  -0.00422667  -0.00285742  0.50856495  1
  Te2-  Te169  1  -0.00027016  -0.00007753  0.82542628  1
  Te2-  Te170  1  0.00128554  0.34805143  0.16016047  1
  Te2-  Te171  1  -0.00735316  0.32300527  0.50598501  1
  Te2-  Te172  1  0.00015830  0.32897479  0.82738673  1
  Te2-  Te173  1  -0.00367604  0.65594667  0.16894280  1
  Te2-  Te174  1  -0.00360286  0.67568176  0.50551514  1
  Te2-  Te175  1  0.00626669  0.65874741  0.82768319  1
  Te2-  Te176  1  0.33837240  -0.00365383  0.17959560  1
  Te2-  Te177  1  0.34013200  0.00025844  0.47958448  1
  Te2-  Te178  1  0.34523593  0.00822680  0.84203746  1
  Te2-  Te179  1  0.32391659  0.33243526  0.17300023  1
  Te2-  Te180  1  0.33235572  0.32969562  0.49865196  1
  Te2-  Te181  1  0.33982299  0.32711208  0.82547263  1
  Te2-  Te182  1  0.34492265  0.67663054  0.16979351  1
  Te2-  Te183  1  0.33320174  0.66555002  0.49779471  1
  Te2-  Te184  1  0.32836752  0.66234376  0.83878186  1
  Te2-  Te185  1  0.66723275  0.00625246  0.16831673  1
  Te2-  Te186  1  0.65957516  -0.00208632  0.50359263  1
  Te2-  Te187  1  0.65238907  -0.00527309  0.83335349  1
  Te2-  Te188  1  0.66741352  0.32011482  0.17200868  1
  Te2-  Te189  1  0.67819220  0.32189363  0.51220914  1
  Te2-  Te190  1  0.66924432  0.33714019  0.81896049  1
  Te2-  Te191  1  0.65842662  0.66760218  0.16661401  1
  Te2-  Te192  1  0.67015807  0.67768663  0.50128310  1
  Te2-  Te193  1  0.66853789  0.66622853  0.83553541  1
  Pb2+  Pb194  1  0.33367226  0.66119019  0.00391940  1
  Pb2+  Pb195  1  0.84080675  0.16514140  0.33845395  1
  Pb2+  Pb196  1  0.49800636  0.16874044  0.33729302  1
  Pb2+  Pb197  1  0.66790958  0.33312059  0.34270105  1
  Pb2+  Pb198  1  0.82248855  -0.00213446  0.83302021  1
  Pb2+  Pb199  1  -0.00267343  0.82432589  0.83309506  1
  Pb2+  Pb200  1  0.16435636  -0.00320115  0.16929365  1
  Pb2+  Pb201  1  0.17429665  0.15290487  0.66829828  1
  Pb2+  Pb202  1  -0.00115048  -0.00182714  -0.00137927  1
  Pb2+  Pb203  1  0.17149359  0.33270818  0.83329037  1
  Pb2+  Pb204  1  0.66294525  0.66801841  0.66829757  1
  Pb2+  Pb205  1  0.83349810  0.33166748  0.16021569  1
  Pb2+  Pb206  1  0.66681366  0.65533314  0.00220628  1
  Pb2+  Pb207  1  0.33374375  0.83625711  0.83051751  1
  Pb2+  Pb208  1  0.16139712  0.33195078  0.49863258  1
  Pb2+  Pb209  1  0.17554112  0.49770458  -0.00011903  1
  Pb2+  Pb210  1  0.66827542  0.50037668  0.49994727  1
  Pb2+  Pb211  1  0.67256879  0.66555555  0.33127774  1
  Pb2+  Pb212  1  0.49854990  0.83473563  0.32960912  1
  Pb2+  Pb213  1  0.16248331  0.66963672  0.49652760  1
  Pb2+  Pb214  1  0.32691769  0.16525018  0.16515985  1
  Pb2+  Pb215  1  0.49894888  0.65929482  0.49995932  1
