# generated using pymatgen
data_In22Ag21Sn22Bi21(Te54Pb11)2
_symmetry_space_group_name_H-M   'P 1'
_cell_length_a   19.11673301
_cell_length_b   19.13104692
_cell_length_c   19.12084943
_cell_angle_alpha   90.01513794
_cell_angle_beta   89.99075317
_cell_angle_gamma   89.99534625
_symmetry_Int_Tables_number   1
_chemical_formula_structural   In22Ag21Sn22Bi21(Te54Pb11)2
_chemical_formula_sum   'In22 Ag21 Sn22 Bi21 Te108 Pb22'
_cell_volume   6992.93627900
_cell_formula_units_Z   1
loop_
 _symmetry_equiv_pos_site_id
 _symmetry_equiv_pos_as_xyz
  1  'x, y, z'
loop_
 _atom_type_symbol
 _atom_type_oxidation_number
  In3+  3.0
  Ag+  1.0
  Sn2+  2.0
  Bi3+  3.0
  Te2-  -2.0
  Pb2+  2.0
loop_
 _atom_site_type_symbol
 _atom_site_label
 _atom_site_symmetry_multiplicity
 _atom_site_fract_x
 _atom_site_fract_y
 _atom_site_fract_z
 _atom_site_occupancy
  In3+  In0  1  -0.00045427  0.66550680  0.66318056  1
  In3+  In1  1  0.82767854  0.82957873  0.65569326  1
  In3+  In2  1  0.83138976  0.15115851  0.32770226  1
  In3+  In3  1  0.17642931  0.01285080  0.83519127  1
  In3+  In4  1  0.34091701  0.65964748  0.66321178  1
  In3+  In5  1  0.82475821  0.32088311  0.83235106  1
  In3+  In6  1  0.66241186  0.02151609  -0.00722697  1
  In3+  In7  1  0.50389649  0.82797579  0.01049168  1
  In3+  In8  1  0.34559596  0.66784638  0.01807705  1
  In3+  In9  1  0.16841415  0.66906900  0.84837307  1
  In3+  In10  1  0.81867578  0.66476030  0.15884386  1
  In3+  In11  1  0.32802321  0.00984370  0.01291946  1
  In3+  In12  1  -0.00499060  0.83744970  0.84899668  1
  In3+  In13  1  0.66246779  0.65582537  0.32133081  1
  In3+  In14  1  0.84350065  0.01629371  0.83988183  1
  In3+  In15  1  -0.01105624  0.83828061  0.16222830  1
  In3+  In16  1  0.64132999  0.50106986  0.14421866  1
  In3+  In17  1  0.65928545  0.17889984  0.82752170  1
  In3+  In18  1  0.50784372  0.65645682  0.47577849  1
  In3+  In19  1  0.19050579  0.66638564  0.49804429  1
  In3+  In20  1  0.50046662  0.32356243  0.48728580  1
  In3+  In21  1  0.66692016  0.33915501  -0.01705991  1
  Ag+  Ag22  1  0.32408297  0.14663503  0.85879392  1
  Ag+  Ag23  1  -0.02717647  0.30776524  0.33324789  1
  Ag+  Ag24  1  0.36200314  0.03421182  0.30712616  1
  Ag+  Ag25  1  0.35589281  0.66720940  0.31685009  1
  Ag+  Ag26  1  0.16315571  0.52721344  0.68594036  1
  Ag+  Ag27  1  0.49843678  0.51436317  0.30900581  1
  Ag+  Ag28  1  0.19308758  0.83589821  -0.02390514  1
  Ag+  Ag29  1  0.81090934  0.80420563  0.33173561  1
  Ag+  Ag30  1  0.47154158  0.15106334  0.32837431  1
  Ag+  Ag31  1  0.69697639  0.02138813  0.69714179  1
  Ag+  Ag32  1  0.81085374  0.18983176  0.66520851  1
  Ag+  Ag33  1  0.64604919  0.68098767  -0.01497649  1
  Ag+  Ag34  1  0.48634926  0.47737121  0.01106239  1
  Ag+  Ag35  1  0.64595266  0.49967530  0.83740600  1
  Ag+  Ag36  1  0.50180188  0.02785870  0.14015948  1
  Ag+  Ag37  1  0.33787185  0.49028467  0.19155496  1
  Ag+  Ag38  1  0.82989415  0.15116384  0.02116761  1
  Ag+  Ag39  1  0.34286247  0.15118701  0.48501382  1
  Ag+  Ag40  1  0.02874708  0.01975780  -0.00018785  1
  Ag+  Ag41  1  0.65643435  0.35391494  0.65350449  1
  Ag+  Ag42  1  0.49322093  0.66960712  0.16404886  1
  Sn2+  Sn43  1  -0.00321349  0.66947479  0.33381085  1
  Sn2+  Sn44  1  0.16424431  0.33735060  0.82711928  1
  Sn2+  Sn45  1  0.50120739  0.34021849  0.17379274  1
  Sn2+  Sn46  1  0.33964393  0.34445132  0.33344831  1
  Sn2+  Sn47  1  0.83673255  0.49525518  0.67465063  1
  Sn2+  Sn48  1  0.16876782  -0.00120604  0.50354343  1
  Sn2+  Sn49  1  -0.00641666  -0.00556596  0.67023795  1
  Sn2+  Sn50  1  0.16352538  0.33550820  0.16926357  1
  Sn2+  Sn51  1  0.83139424  0.32513708  0.50150208  1
  Sn2+  Sn52  1  0.00928025  -0.00280007  0.32246425  1
  Sn2+  Sn53  1  0.00982377  0.50196934  0.16900652  1
  Sn2+  Sn54  1  0.66223132  0.83826691  0.16464974  1
  Sn2+  Sn55  1  0.66288683  0.16429253  0.50789770  1
  Sn2+  Sn56  1  0.33550116  0.32631703  0.66855731  1
  Sn2+  Sn57  1  0.82749559  0.49443348  0.00302899  1
  Sn2+  Sn58  1  0.66535211  0.33570402  0.33695888  1
  Sn2+  Sn59  1  0.16521269  0.16697029  0.33932345  1
  Sn2+  Sn60  1  0.18013891  0.50546326  0.00065445  1
  Sn2+  Sn61  1  0.33558552  0.84363438  0.49300818  1
  Sn2+  Sn62  1  0.15857679  0.82673433  0.67203150  1
  Sn2+  Sn63  1  0.83164136  0.34145514  0.16427852  1
  Sn2+  Sn64  1  0.82497683  0.49613713  0.32948995  1
  Bi3+  Bi65  1  0.83618021  0.66198884  0.83827039  1
  Bi3+  Bi66  1  0.16977715  0.16508170  0.66612141  1
  Bi3+  Bi67  1  0.00065755  0.50052751  0.83475470  1
  Bi3+  Bi68  1  0.17352878  0.49987599  0.33245952  1
  Bi3+  Bi69  1  0.00188693  0.66624377  0.00076078  1
  Bi3+  Bi70  1  0.66658260  0.00040032  0.33157847  1
  Bi3+  Bi71  1  0.17190232  0.33445224  0.49637192  1
  Bi3+  Bi72  1  0.83248164  0.66331188  0.49884803  1
  Bi3+  Bi73  1  0.33768819  0.49845945  0.50008490  1
  Bi3+  Bi74  1  0.33356029  -0.00030056  0.66480138  1
  Bi3+  Bi75  1  0.66567501  0.83256822  0.49845699  1
  Bi3+  Bi76  1  0.50162708  0.00099026  0.83311462  1
  Bi3+  Bi77  1  0.16710071  0.66663211  0.17041999  1
  Bi3+  Bi78  1  0.50099478  -0.00001583  0.50059742  1
  Bi3+  Bi79  1  0.16934129  0.83241933  0.33356834  1
  Bi3+  Bi80  1  0.66791153  0.49719505  0.50004778  1
  Bi3+  Bi81  1  0.49859565  0.33278709  0.83194917  1
  Bi3+  Bi82  1  0.49867223  0.83159673  0.66845844  1
  Bi3+  Bi83  1  0.33312549  0.49909273  0.82934128  1
  Bi3+  Bi84  1  0.33242419  0.82757752  0.16734766  1
  Bi3+  Bi85  1  -0.00308097  0.16337565  0.16530303  1
  Te2-  Te86  1  0.16215742  0.16450118  0.16970875  1
  Te2-  Te87  1  0.17627415  0.16987353  0.50082548  1
  Te2-  Te88  1  0.17703024  0.16749763  0.83468613  1
  Te2-  Te89  1  0.18150804  0.50340146  0.16731875  1
  Te2-  Te90  1  0.17255692  0.50076218  0.49512708  1
  Te2-  Te91  1  0.16682809  0.50233352  0.83335505  1
  Te2-  Te92  1  0.16907838  0.82957728  0.16933013  1
  Te2-  Te93  1  0.16925609  0.82825580  0.49761301  1
  Te2-  Te94  1  0.15651345  0.82722476  0.83338619  1
  Te2-  Te95  1  0.50032801  0.17081993  0.17631309  1
  Te2-  Te96  1  0.49427069  0.16743204  0.48817200  1
  Te2-  Te97  1  0.50243254  0.16666342  0.83608065  1
  Te2-  Te98  1  0.49198225  0.49994843  0.16027788  1
  Te2-  Te99  1  0.50283705  0.49808612  0.50001096  1
  Te2-  Te100  1  0.49708023  0.49723732  0.83452289  1
  Te2-  Te101  1  0.49698402  0.82036314  0.16404916  1
  Te2-  Te102  1  0.50256508  0.82889311  0.50376963  1
  Te2-  Te103  1  0.50052240  0.83479912  0.83367054  1
  Te2-  Te104  1  0.83393159  0.17081071  0.16921671  1
  Te2-  Te105  1  0.83175550  0.17019156  0.51554887  1
  Te2-  Te106  1  0.82714704  0.16703838  0.81806834  1
  Te2-  Te107  1  0.84064850  0.50591137  0.16491477  1
  Te2-  Te108  1  0.83089354  0.49848600  0.50334850  1
  Te2-  Te109  1  0.83984501  0.50142273  0.83607654  1
  Te2-  Te110  1  0.83174921  0.82238332  0.17916213  1
  Te2-  Te111  1  0.82975660  0.82739016  0.48711845  1
  Te2-  Te112  1  0.83880018  0.82309329  0.83330384  1
  Te2-  Te113  1  0.17378595  -0.01199937  -0.00723814  1
  Te2-  Te114  1  0.17019036  -0.00307007  0.33903201  1
  Te2-  Te115  1  0.16710957  -0.00171418  0.67363532  1
  Te2-  Te116  1  0.16524262  0.33508439  0.00154114  1
  Te2-  Te117  1  0.17149693  0.33766907  0.33411084  1
  Te2-  Te118  1  0.16568366  0.32787370  0.66121214  1
  Te2-  Te119  1  0.16731623  0.67691417  0.00212112  1
  Te2-  Te120  1  0.16379027  0.66511068  0.33675472  1
  Te2-  Te121  1  0.16329002  0.66971967  0.65137825  1
  Te2-  Te122  1  0.50069423  -0.00536871  -0.00466601  1
  Te2-  Te123  1  0.50260750  0.00492202  0.33927371  1
  Te2-  Te124  1  0.49868676  -0.00486947  0.66636964  1
  Te2-  Te125  1  0.50870129  0.33275649  -0.00208283  1
  Te2-  Te126  1  0.50127377  0.32925379  0.33442131  1
  Te2-  Te127  1  0.50820313  0.33041577  0.67080915  1
  Te2-  Te128  1  0.50105087  0.67113578  0.01037653  1
  Te2-  Te129  1  0.50580497  0.66284572  0.31950436  1
  Te2-  Te130  1  0.49702963  0.66844526  0.67328347  1
  Te2-  Te131  1  0.81803417  0.00599737  -0.00646805  1
  Te2-  Te132  1  0.83300532  -0.00056813  0.33193323  1
  Te2-  Te133  1  0.83724605  -0.01310817  0.67734017  1
  Te2-  Te134  1  0.82553488  0.33238754  -0.00800934  1
  Te2-  Te135  1  0.82903451  0.33907410  0.33658363  1
  Te2-  Te136  1  0.82779129  0.33680243  0.67484170  1
  Te2-  Te137  1  0.83808681  0.66475411  0.00465341  1
  Te2-  Te138  1  0.83425417  0.65941969  0.33419231  1
  Te2-  Te139  1  0.83930681  0.66643581  0.66743943  1
  Te2-  Te140  1  -0.01335964  0.16298939  0.00158210  1
  Te2-  Te141  1  -0.00714574  0.16105416  0.32858910  1
  Te2-  Te142  1  0.00732739  0.16248397  0.66962770  1
  Te2-  Te143  1  0.00750086  0.50231289  -0.00013970  1
  Te2-  Te144  1  0.00746623  0.50530205  0.32715770  1
  Te2-  Te145  1  0.01079786  0.50461408  0.67079053  1
  Te2-  Te146  1  -0.00317898  0.82880664  0.00429762  1
  Te2-  Te147  1  0.00591123  0.83834794  0.32396754  1
  Te2-  Te148  1  -0.00423176  0.83229229  0.66883673  1
  Te2-  Te149  1  0.33216479  0.16404262  0.00363576  1
  Te2-  Te150  1  0.32514651  0.17360566  0.33911531  1
  Te2-  Te151  1  0.33142139  0.16319452  0.66567630  1
  Te2-  Te152  1  0.34263235  0.51265790  -0.00839494  1
  Te2-  Te153  1  0.34346854  0.51124152  0.33913620  1
  Te2-  Te154  1  0.31722584  0.50171567  0.66566610  1
  Te2-  Te155  1  0.33734133  0.82357933  0.00149700  1
  Te2-  Te156  1  0.33186038  0.81824471  0.33260456  1
  Te2-  Te157  1  0.33269092  0.83501568  0.66135381  1
  Te2-  Te158  1  0.67879386  0.17456267  -0.00469775  1
  Te2-  Te159  1  0.67799083  0.16345537  0.34012798  1
  Te2-  Te160  1  0.66628085  0.16224576  0.67393342  1
  Te2-  Te161  1  0.66300890  0.49360135  -0.00399233  1
  Te2-  Te162  1  0.65222976  0.50374232  0.33870415  1
  Te2-  Te163  1  0.66839338  0.50030570  0.66487661  1
  Te2-  Te164  1  0.66208173  0.82616448  0.00568723  1
  Te2-  Te165  1  0.66563060  0.83378601  0.33298298  1
  Te2-  Te166  1  0.66529591  0.83397872  0.66286854  1
  Te2-  Te167  1  -0.00156467  -0.00277301  0.15041720  1
  Te2-  Te168  1  0.00169277  -0.00000617  0.50005865  1
  Te2-  Te169  1  -0.00516902  -0.00614528  0.85026331  1
  Te2-  Te170  1  -0.00159094  0.32899259  0.17959960  1
  Te2-  Te171  1  0.00394533  0.33285317  0.48578970  1
  Te2-  Te172  1  -0.00268879  0.33647690  0.83394361  1
  Te2-  Te173  1  0.00565951  0.67183948  0.16413156  1
  Te2-  Te174  1  -0.00611055  0.66657894  0.50496895  1
  Te2-  Te175  1  0.00401547  0.66619019  0.83312874  1
  Te2-  Te176  1  0.34731332  -0.00714207  0.16602340  1
  Te2-  Te177  1  0.33648247  0.00413925  0.50212280  1
  Te2-  Te178  1  0.33543048  0.00209132  0.83223095  1
  Te2-  Te179  1  0.33338549  0.34365202  0.16686052  1
  Te2-  Te180  1  0.33958247  0.33711328  0.50334230  1
  Te2-  Te181  1  0.33332321  0.33604423  0.83181212  1
  Te2-  Te182  1  0.33269445  0.66119950  0.17086249  1
  Te2-  Te183  1  0.34395205  0.66518775  0.50650094  1
  Te2-  Te184  1  0.32290507  0.66547489  0.82174854  1
  Te2-  Te185  1  0.65349848  0.00173875  0.16565998  1
  Te2-  Te186  1  0.66371286  -0.00363688  0.49845893  1
  Te2-  Te187  1  0.66326492  -0.00175544  0.83904570  1
  Te2-  Te188  1  0.66963768  0.34869685  0.17026775  1
  Te2-  Te189  1  0.66137502  0.33311248  0.50616335  1
  Te2-  Te190  1  0.66652252  0.34554491  0.82924420  1
  Te2-  Te191  1  0.66705226  0.65553468  0.16678212  1
  Te2-  Te192  1  0.66999485  0.66624319  0.49630700  1
  Te2-  Te193  1  0.67204646  0.65247072  0.84217200  1
  Pb2+  Pb194  1  0.50543257  0.16609539  0.00506462  1
  Pb2+  Pb195  1  0.49829013  0.66489721  0.84261241  1
  Pb2+  Pb196  1  0.00138603  0.49881367  0.49521915  1
  Pb2+  Pb197  1  0.49886172  0.16504185  0.66067868  1
  Pb2+  Pb198  1  0.33441408  0.34144395  0.00103063  1
  Pb2+  Pb199  1  0.00449846  0.16776095  0.50073748  1
  Pb2+  Pb200  1  0.83248961  0.00203369  0.50452660  1
  Pb2+  Pb201  1  0.49872231  0.83819009  0.33188181  1
  Pb2+  Pb202  1  0.00130973  0.16614194  0.83410433  1
  Pb2+  Pb203  1  -0.00580631  0.33294421  0.00931212  1
  Pb2+  Pb204  1  -0.00412566  0.33364681  0.66123949  1
  Pb2+  Pb205  1  0.66844184  0.66558010  0.67141637  1
  Pb2+  Pb206  1  0.15838691  0.16542073  0.00280036  1
  Pb2+  Pb207  1  -0.00004163  0.83375094  0.49822092  1
  Pb2+  Pb208  1  0.82533584  -0.00299724  0.16497391  1
  Pb2+  Pb209  1  0.67107421  0.82673367  0.83423184  1
  Pb2+  Pb210  1  0.49389966  0.49554959  0.66588804  1
  Pb2+  Pb211  1  0.82963411  0.83589962  0.00323223  1
  Pb2+  Pb212  1  0.17136965  -0.00385683  0.17098708  1
  Pb2+  Pb213  1  0.66507619  0.17638951  0.17183591  1
  Pb2+  Pb214  1  0.33395240  0.17341310  0.17332696  1
  Pb2+  Pb215  1  0.32912773  0.83425990  0.82928163  1
