# generated using pymatgen
data_In22Ag21Sn22Bi21(Te54Pb11)2
_symmetry_space_group_name_H-M   'P 1'
_cell_length_a   19.14641112
_cell_length_b   19.12438273
_cell_length_c   19.15233718
_cell_angle_alpha   89.99297340
_cell_angle_beta   89.99046302
_cell_angle_gamma   90.02002186
_symmetry_Int_Tables_number   1
_chemical_formula_structural   In22Ag21Sn22Bi21(Te54Pb11)2
_chemical_formula_sum   'In22 Ag21 Sn22 Bi21 Te108 Pb22'
_cell_volume   7012.88229314
_cell_formula_units_Z   1
loop_
 _symmetry_equiv_pos_site_id
 _symmetry_equiv_pos_as_xyz
  1  'x, y, z'
loop_
 _atom_type_symbol
 _atom_type_oxidation_number
  In3+  3.0
  Ag+  1.0
  Sn2+  2.0
  Bi3+  3.0
  Te2-  -2.0
  Pb2+  2.0
loop_
 _atom_site_type_symbol
 _atom_site_label
 _atom_site_symmetry_multiplicity
 _atom_site_fract_x
 _atom_site_fract_y
 _atom_site_fract_z
 _atom_site_occupancy
  In3+  In0  1  0.00205040  0.85278149  0.82336479  1
  In3+  In1  1  0.17195482  0.50229777  0.01892562  1
  In3+  In2  1  0.17259356  0.16742572  0.65229069  1
  In3+  In3  1  0.35702213  -0.01428302  0.66648967  1
  In3+  In4  1  0.82406962  0.15321387  0.66912072  1
  In3+  In5  1  0.49127275  0.33513967  0.50258338  1
  In3+  In6  1  0.17152036  0.64578307  0.49913280  1
  In3+  In7  1  0.00071509  0.49481173  0.84874593  1
  In3+  In8  1  0.66859687  0.14549744  0.17337184  1
  In3+  In9  1  -0.01275013  0.33533447  0.66414472  1
  In3+  In10  1  0.33665550  0.49968004  0.49910579  1
  In3+  In11  1  0.16463541  0.85155776  0.00503903  1
  In3+  In12  1  0.81670377  0.50182447  0.00265744  1
  In3+  In13  1  0.33115876  0.31994804  0.01424706  1
  In3+  In14  1  0.33914412  0.17086244  0.48301299  1
  In3+  In15  1  0.34485528  0.50385619  0.18843197  1
  In3+  In16  1  0.68892204  0.32761898  -0.00209097  1
  In3+  In17  1  0.82758954  0.00895872  0.48911768  1
  In3+  In18  1  -0.00199821  0.15659651  0.50067335  1
  In3+  In19  1  0.33800557  0.50562631  0.84369630  1
  In3+  In20  1  0.15343179  0.50141681  0.33304698  1
  In3+  In21  1  -0.00117206  -0.00309936  0.01124763  1
  Ag+  Ag22  1  0.14334060  0.33224743  0.50475918  1
  Ag+  Ag23  1  0.83502211  0.00213607  0.13772639  1
  Ag+  Ag24  1  0.84380373  0.31294927  0.85685889  1
  Ag+  Ag25  1  0.83445716  0.13755270  0.02438169  1
  Ag+  Ag26  1  0.33144172  0.65020912  0.02204888  1
  Ag+  Ag27  1  0.69361779  0.69072804  0.01143081  1
  Ag+  Ag28  1  0.51601083  0.52747593  0.32634557  1
  Ag+  Ag29  1  0.47664706  0.85819596  0.66141208  1
  Ag+  Ag30  1  0.33443143  0.64711959  0.32206165  1
  Ag+  Ag31  1  0.81166018  0.16181825  0.31687998  1
  Ag+  Ag32  1  0.02655495  0.47985060  0.49932948  1
  Ag+  Ag33  1  0.00434748  0.03510352  0.64025484  1
  Ag+  Ag34  1  0.64043218  -0.00459781  0.36484505  1
  Ag+  Ag35  1  0.02469072  0.50464716  0.14957174  1
  Ag+  Ag36  1  0.69496027  0.30478985  0.63220980  1
  Ag+  Ag37  1  0.31305450  0.67994247  0.66274187  1
  Ag+  Ag38  1  0.53612357  0.00337309  0.13592682  1
  Ag+  Ag39  1  0.48046627  0.00421813  0.47861688  1
  Ag+  Ag40  1  0.30449368  0.13106207  0.14643339  1
  Ag+  Ag41  1  0.19162773  0.00407577  0.18679789  1
  Ag+  Ag42  1  0.63980466  0.02902624  0.00203896  1
  Sn2+  Sn43  1  0.82969775  0.83527465  0.00487372  1
  Sn2+  Sn44  1  0.16504714  0.49297788  0.66574130  1
  Sn2+  Sn45  1  0.33696424  0.83354275  0.16510548  1
  Sn2+  Sn46  1  0.83084015  0.49073466  0.32974945  1
  Sn2+  Sn47  1  0.00174569  0.66091760  0.33246356  1
  Sn2+  Sn48  1  0.67003747  0.16746478  0.84083652  1
  Sn2+  Sn49  1  0.00063526  0.83252638  0.50062129  1
  Sn2+  Sn50  1  0.00689450  0.32490069  0.00215922  1
  Sn2+  Sn51  1  0.49420434  0.50863606  0.00788169  1
  Sn2+  Sn52  1  0.83269378  0.85355272  0.33345072  1
  Sn2+  Sn53  1  -0.00450562  -0.00029991  0.32625549  1
  Sn2+  Sn54  1  0.49710345  0.82766956  -0.00667550  1
  Sn2+  Sn55  1  0.67732770  -0.00479079  0.67887516  1
  Sn2+  Sn56  1  0.15635165  0.17645719  0.00517001  1
  Sn2+  Sn57  1  0.83003090  0.00230238  0.83108730  1
  Sn2+  Sn58  1  0.49809820  0.67519141  0.16715732  1
  Sn2+  Sn59  1  0.48957696  0.67363841  0.50435522  1
  Sn2+  Sn60  1  0.16220327  0.33294990  0.82294633  1
  Sn2+  Sn61  1  0.50085776  -0.00265586  0.83604634  1
  Sn2+  Sn62  1  0.49838994  0.31928605  0.17109897  1
  Sn2+  Sn63  1  0.33411991  0.17597921  0.83341780  1
  Sn2+  Sn64  1  0.83549369  0.33652648  0.50099849  1
  Bi3+  Bi65  1  0.33443852  0.83318671  0.49931354  1
  Bi3+  Bi66  1  -0.00324748  0.33567793  0.33442741  1
  Bi3+  Bi67  1  0.83154813  0.49902594  0.66367969  1
  Bi3+  Bi68  1  0.66480748  0.83663278  0.16408321  1
  Bi3+  Bi69  1  0.33275499  0.83159327  0.83525991  1
  Bi3+  Bi70  1  0.49720821  0.50007169  0.66037946  1
  Bi3+  Bi71  1  0.49815303  0.16478870  0.33344511  1
  Bi3+  Bi72  1  0.83373566  0.33341664  0.16747028  1
  Bi3+  Bi73  1  0.83757015  0.83676081  0.66988826  1
  Bi3+  Bi74  1  0.66966699  0.49724752  0.83440257  1
  Bi3+  Bi75  1  -0.00134380  0.83141165  0.16729818  1
  Bi3+  Bi76  1  0.83272406  0.66027428  0.83368483  1
  Bi3+  Bi77  1  0.66229624  0.49956556  0.16587950  1
  Bi3+  Bi78  1  0.66104456  0.50038386  0.50244456  1
  Bi3+  Bi79  1  0.33326496  0.00016430  0.33593442  1
  Bi3+  Bi80  1  0.66694565  0.66010190  0.67196456  1
  Bi3+  Bi81  1  0.16744902  0.17091055  0.33281316  1
  Bi3+  Bi82  1  0.16679031  0.00395153  0.83188903  1
  Bi3+  Bi83  1  0.33175793  0.33319580  0.66826731  1
  Bi3+  Bi84  1  0.49863255  0.66622068  0.83356703  1
  Bi3+  Bi85  1  0.33252099  0.33520988  0.33456164  1
  Te2-  Te86  1  0.16229344  0.15750475  0.16810570  1
  Te2-  Te87  1  0.16415916  0.17905487  0.49706444  1
  Te2-  Te88  1  0.16757887  0.16912333  0.84430615  1
  Te2-  Te89  1  0.17045155  0.50212910  0.17643217  1
  Te2-  Te90  1  0.17446800  0.49153407  0.49593667  1
  Te2-  Te91  1  0.15941469  0.49457843  0.82193071  1
  Te2-  Te92  1  0.16134680  0.84796868  0.16222579  1
  Te2-  Te93  1  0.16780829  0.83890715  0.50196462  1
  Te2-  Te94  1  0.16484889  0.83453436  0.83967965  1
  Te2-  Te95  1  0.51553527  0.15377133  0.16856835  1
  Te2-  Te96  1  0.49757598  0.15270372  0.49835979  1
  Te2-  Te97  1  0.49506971  0.16723980  0.83700858  1
  Te2-  Te98  1  0.49928543  0.49903746  0.17732874  1
  Te2-  Te99  1  0.49807693  0.50153373  0.49490925  1
  Te2-  Te100  1  0.50000754  0.50200266  0.83133965  1
  Te2-  Te101  1  0.50421494  0.84262859  0.15978582  1
  Te2-  Te102  1  0.49581844  0.84263230  0.51074109  1
  Te2-  Te103  1  0.49488193  0.82927863  0.82488928  1
  Te2-  Te104  1  0.82564616  0.17075520  0.16757859  1
  Te2-  Te105  1  0.84045738  0.16554100  0.51409627  1
  Te2-  Te106  1  0.83249441  0.17202493  0.82063188  1
  Te2-  Te107  1  0.82578652  0.49698816  0.16813618  1
  Te2-  Te108  1  0.82310906  0.50034194  0.49793534  1
  Te2-  Te109  1  0.83482583  0.49875033  0.83114463  1
  Te2-  Te110  1  0.83578788  0.84009899  0.16654205  1
  Te2-  Te111  1  0.83864003  0.83648037  0.50404961  1
  Te2-  Te112  1  0.84243391  0.82532870  0.83517815  1
  Te2-  Te113  1  0.15667029  0.00719620  -0.00350538  1
  Te2-  Te114  1  0.16713499  0.00673397  0.33272111  1
  Te2-  Te115  1  0.15082524  0.01316664  0.67152862  1
  Te2-  Te116  1  0.17377278  0.34015482  -0.00073057  1
  Te2-  Te117  1  0.16855635  0.33703555  0.34103224  1
  Te2-  Te118  1  0.16916742  0.32519762  0.65595507  1
  Te2-  Te119  1  0.17937617  0.65456497  -0.00008761  1
  Te2-  Te120  1  0.17993328  0.65676911  0.34115816  1
  Te2-  Te121  1  0.16637597  0.66232025  0.65574805  1
  Te2-  Te122  1  0.49546378  -0.00153722  -0.00545492  1
  Te2-  Te123  1  0.49499446  0.00220993  0.33338107  1
  Te2-  Te124  1  0.51248530  -0.00068364  0.67675900  1
  Te2-  Te125  1  0.48231518  0.33891094  0.00593320  1
  Te2-  Te126  1  0.49380760  0.32630624  0.33724095  1
  Te2-  Te127  1  0.49709323  0.33576114  0.66427431  1
  Te2-  Te128  1  0.48205138  0.66792209  -0.00406125  1
  Te2-  Te129  1  0.48895536  0.67053652  0.33459568  1
  Te2-  Te130  1  0.50780532  0.66123372  0.66793977  1
  Te2-  Te131  1  0.84470939  -0.00513051  -0.01093199  1
  Te2-  Te132  1  0.83837675  0.01517366  0.33961934  1
  Te2-  Te133  1  0.84878236  -0.00131950  0.67143587  1
  Te2-  Te134  1  0.84354228  0.34158158  0.00205743  1
  Te2-  Te135  1  0.83311731  0.31791242  0.33087341  1
  Te2-  Te136  1  0.83223035  0.33900253  0.66406047  1
  Te2-  Te137  1  0.83704495  0.66214822  -0.00333949  1
  Te2-  Te138  1  0.83018849  0.66475720  0.33159722  1
  Te2-  Te139  1  0.83019486  0.66523417  0.66820339  1
  Te2-  Te140  1  -0.01374383  0.16878480  0.00310553  1
  Te2-  Te141  1  0.00554201  0.17194226  0.34185085  1
  Te2-  Te142  1  0.00301137  0.18055987  0.66094242  1
  Te2-  Te143  1  0.01752388  0.49507213  0.00237726  1
  Te2-  Te144  1  -0.00141487  0.49764193  0.34812481  1
  Te2-  Te145  1  -0.00507353  0.48934728  0.64772143  1
  Te2-  Te146  1  0.00467618  0.83451123  0.00471819  1
  Te2-  Te147  1  -0.00306107  0.83001833  0.32953714  1
  Te2-  Te148  1  -0.00092729  0.82950986  0.66971037  1
  Te2-  Te149  1  0.33213970  0.16883264  0.00604051  1
  Te2-  Te150  1  0.33180274  0.16911055  0.32356544  1
  Te2-  Te151  1  0.32631698  0.17047813  0.67075655  1
  Te2-  Te152  1  0.32567413  0.50419654  -0.00558110  1
  Te2-  Te153  1  0.33751361  0.50119988  0.34149313  1
  Te2-  Te154  1  0.33602837  0.49444701  0.65491873  1
  Te2-  Te155  1  0.32363258  0.82996214  -0.00393964  1
  Te2-  Te156  1  0.32920673  0.83785281  0.33505832  1
  Te2-  Te157  1  0.33276417  0.82885585  0.66918584  1
  Te2-  Te158  1  0.68367587  0.17132326  -0.00045513  1
  Te2-  Te159  1  0.66313019  0.15016334  0.32905323  1
  Te2-  Te160  1  0.67016575  0.16567561  0.67027777  1
  Te2-  Te161  1  0.65897549  0.49249488  -0.00019817  1
  Te2-  Te162  1  0.66150233  0.50076638  0.33200619  1
  Te2-  Te163  1  0.66356753  0.49519396  0.66846543  1
  Te2-  Te164  1  0.66570172  0.83320106  0.00228782  1
  Te2-  Te165  1  0.67055297  0.84780329  0.32878291  1
  Te2-  Te166  1  0.67578153  0.82586226  0.66969360  1
  Te2-  Te167  1  -0.01471660  -0.00274358  0.16537606  1
  Te2-  Te168  1  -0.00334224  0.00175425  0.49727246  1
  Te2-  Te169  1  0.00395755  0.00227981  0.83956187  1
  Te2-  Te170  1  -0.00210787  0.34955254  0.17220902  1
  Te2-  Te171  1  -0.00453164  0.33439195  0.49707279  1
  Te2-  Te172  1  -0.00800036  0.34077188  0.83000926  1
  Te2-  Te173  1  0.00375132  0.65809473  0.17036140  1
  Te2-  Te174  1  0.01347900  0.67084943  0.49166691  1
  Te2-  Te175  1  -0.00168037  0.65051345  0.83255003  1
  Te2-  Te176  1  0.33668108  -0.00914820  0.17194765  1
  Te2-  Te177  1  0.33389303  0.00020327  0.50653434  1
  Te2-  Te178  1  0.32838433  -0.00243953  0.82753321  1
  Te2-  Te179  1  0.33296384  0.34426738  0.16990554  1
  Te2-  Te180  1  0.33482078  0.33180491  0.49868799  1
  Te2-  Te181  1  0.32949942  0.34277425  0.82973735  1
  Te2-  Te182  1  0.33799012  0.66274263  0.17155033  1
  Te2-  Te183  1  0.32849115  0.67102618  0.51010706  1
  Te2-  Te184  1  0.33555666  0.66361486  0.81338409  1
  Te2-  Te185  1  0.68300843  -0.00289082  0.14700121  1
  Te2-  Te186  1  0.67797865  0.00073518  0.50759376  1
  Te2-  Te187  1  0.66837150  0.00391190  0.84555077  1
  Te2-  Te188  1  0.66602083  0.33779670  0.15753772  1
  Te2-  Te189  1  0.66305412  0.33610603  0.49327364  1
  Te2-  Te190  1  0.67396386  0.33632156  0.84414926  1
  Te2-  Te191  1  0.66090384  0.66548246  0.15589485  1
  Te2-  Te192  1  0.66350351  0.66447788  0.50191472  1
  Te2-  Te193  1  0.66662038  0.66075857  0.84229884  1
  Pb2+  Pb194  1  0.16633828  0.84074836  0.66785678  1
  Pb2+  Pb195  1  0.00136121  0.65592696  0.66290547  1
  Pb2+  Pb196  1  0.16448847  0.32935664  0.17082139  1
  Pb2+  Pb197  1  0.66464827  0.83489527  0.50084958  1
  Pb2+  Pb198  1  0.66482045  0.32662204  0.32460527  1
  Pb2+  Pb199  1  0.00869448  0.66538272  0.00040830  1
  Pb2+  Pb200  1  0.83237549  0.67004925  0.16640899  1
  Pb2+  Pb201  1  0.32801029  -0.00260370  0.00081256  1
  Pb2+  Pb202  1  0.16288073  0.82995002  0.33590653  1
  Pb2+  Pb203  1  0.49761670  0.83490098  0.33499581  1
  Pb2+  Pb204  1  0.66822180  0.16776366  0.49722951  1
  Pb2+  Pb205  1  0.17020416  0.67651758  0.16753735  1
  Pb2+  Pb206  1  0.16988940  0.66221837  0.83262798  1
  Pb2+  Pb207  1  0.66055026  0.67191762  0.32722571  1
  Pb2+  Pb208  1  0.16843832  0.00797875  0.50093602  1
  Pb2+  Pb209  1  0.84165575  0.66759695  0.49418483  1
  Pb2+  Pb210  1  0.49563069  0.16750971  0.66663026  1
  Pb2+  Pb211  1  0.50514941  0.33393250  0.83737425  1
  Pb2+  Pb212  1  -0.00046704  0.17034645  0.83245997  1
  Pb2+  Pb213  1  0.51127986  0.17276112  0.00363117  1
  Pb2+  Pb214  1  -0.00528041  0.16952280  0.17126442  1
  Pb2+  Pb215  1  0.66883415  0.83591109  0.83597727  1
