# generated using pymatgen
data_In22Ag21Sn22Bi21(Te54Pb11)2
_symmetry_space_group_name_H-M   'P 1'
_cell_length_a   19.16994161
_cell_length_b   19.17598425
_cell_length_c   19.13856260
_cell_angle_alpha   89.99722148
_cell_angle_beta   90.00610147
_cell_angle_gamma   89.99861721
_symmetry_Int_Tables_number   1
_chemical_formula_structural   In22Ag21Sn22Bi21(Te54Pb11)2
_chemical_formula_sum   'In22 Ag21 Sn22 Bi21 Te108 Pb22'
_cell_volume   7035.38337645
_cell_formula_units_Z   1
loop_
 _symmetry_equiv_pos_site_id
 _symmetry_equiv_pos_as_xyz
  1  'x, y, z'
loop_
 _atom_type_symbol
 _atom_type_oxidation_number
  In3+  3.0
  Ag+  1.0
  Sn2+  2.0
  Bi3+  3.0
  Te2-  -2.0
  Pb2+  2.0
loop_
 _atom_site_type_symbol
 _atom_site_label
 _atom_site_symmetry_multiplicity
 _atom_site_fract_x
 _atom_site_fract_y
 _atom_site_fract_z
 _atom_site_occupancy
  In3+  In0  1  0.31589619  0.83636092  0.53032583  1
  In3+  In1  1  0.67694787  0.16749603  0.83832311  1
  In3+  In2  1  0.66742591  0.00690650  0.66743786  1
  In3+  In3  1  0.66243047  0.00373895  -0.01563713  1
  In3+  In4  1  0.16738303  0.66663179  0.14533445  1
  In3+  In5  1  0.17148710  0.50644872  -0.01409963  1
  In3+  In6  1  0.67139846  0.51027264  0.83692440  1
  In3+  In7  1  0.49847040  -0.00586677  0.49278198  1
  In3+  In8  1  0.67009352  0.16465556  0.48994553  1
  In3+  In9  1  0.01262503  0.16520244  0.84875410  1
  In3+  In10  1  0.49794441  0.81526359  -0.00077683  1
  In3+  In11  1  0.66285908  0.34672713  0.33362142  1
  In3+  In12  1  0.00215696  0.51215427  0.16542989  1
  In3+  In13  1  0.33150306  -0.00587907  0.32492703  1
  In3+  In14  1  0.16446953  0.34406932  0.16299242  1
  In3+  In15  1  0.15843276  0.15825517  0.33417862  1
  In3+  In16  1  0.66699533  0.00246279  0.33191729  1
  In3+  In17  1  0.15596506  0.84921838  -0.00954612  1
  In3+  In18  1  0.49719541  0.82549038  0.32548790  1
  In3+  In19  1  0.83646395  0.33393334  0.15207506  1
  In3+  In20  1  0.50133656  0.33507247  0.16829287  1
  In3+  In21  1  0.32656074  0.17392263  0.17488150  1
  Ag+  Ag22  1  0.85818996  0.70466625  0.85168156  1
  Ag+  Ag23  1  0.47883452  0.16969353  -0.01979885  1
  Ag+  Ag24  1  0.49655475  0.47759285  0.69479563  1
  Ag+  Ag25  1  0.35051448  0.52081889  0.16501374  1
  Ag+  Ag26  1  0.31783250  0.80161159  0.84823981  1
  Ag+  Ag27  1  0.14769932  0.33489121  0.85819549  1
  Ag+  Ag28  1  0.52322630  0.52479119  0.33082664  1
  Ag+  Ag29  1  0.64372979  0.47652661  0.16605158  1
  Ag+  Ag30  1  0.13467544  0.69450522  0.84431481  1
  Ag+  Ag31  1  0.79984871  0.35026325  0.83342729  1
  Ag+  Ag32  1  0.14184075  0.87177730  0.69921518  1
  Ag+  Ag33  1  0.52245423  0.63501159  0.16672060  1
  Ag+  Ag34  1  0.03030496  -0.02290001  0.32846913  1
  Ag+  Ag35  1  -0.02254536  0.85951910  0.47409228  1
  Ag+  Ag36  1  0.14911583  -0.01579400  0.85736366  1
  Ag+  Ag37  1  0.02670854  0.80075951  0.83391496  1
  Ag+  Ag38  1  0.85966226  0.80127718  0.00760019  1
  Ag+  Ag39  1  0.83690328  0.30860441  0.47036231  1
  Ag+  Ag40  1  0.02890874  0.15025470  0.50048081  1
  Ag+  Ag41  1  0.13908027  -0.02876985  0.50101333  1
  Ag+  Ag42  1  0.02303858  0.67126508  -0.02464578  1
  Sn2+  Sn43  1  0.84535260  0.82806013  0.67930360  1
  Sn2+  Sn44  1  0.50250616  0.67214383  0.83266340  1
  Sn2+  Sn45  1  0.33374139  0.15953513  0.49681515  1
  Sn2+  Sn46  1  0.17131092  0.17102362  -0.00415939  1
  Sn2+  Sn47  1  0.00004109  0.67540473  0.33691105  1
  Sn2+  Sn48  1  0.49867150  0.33800115  0.83610494  1
  Sn2+  Sn49  1  0.32942791  0.66449415  0.66840594  1
  Sn2+  Sn50  1  0.33405720  0.50026618  0.83693861  1
  Sn2+  Sn51  1  0.65551250  0.16867282  0.16663277  1
  Sn2+  Sn52  1  0.50390180  0.00465822  0.15970946  1
  Sn2+  Sn53  1  0.47978218  0.00366689  0.83368598  1
  Sn2+  Sn54  1  0.83653063  0.00346321  0.16620240  1
  Sn2+  Sn55  1  0.17189354  0.82899022  0.33861075  1
  Sn2+  Sn56  1  0.84172604  0.16945883  0.33572198  1
  Sn2+  Sn57  1  0.50621323  0.33555422  0.49668329  1
  Sn2+  Sn58  1  0.84134730  0.00381474  0.49562842  1
  Sn2+  Sn59  1  0.15860630  0.16034976  0.66632373  1
  Sn2+  Sn60  1  0.33829258  0.33840233  0.33540263  1
  Sn2+  Sn61  1  0.33196178  0.66517534  -0.00230781  1
  Sn2+  Sn62  1  0.67438284  0.33390038  0.65970636  1
  Sn2+  Sn63  1  0.34183872  0.50191024  0.48485362  1
  Sn2+  Sn64  1  -0.00146908  0.34211450  -0.00270834  1
  Bi3+  Bi65  1  0.00156729  0.66396062  0.66852386  1
  Bi3+  Bi66  1  0.50251093  0.83462163  0.66709858  1
  Bi3+  Bi67  1  0.66287479  0.66550218  0.66796456  1
  Bi3+  Bi68  1  0.32840360  0.66801527  0.33118695  1
  Bi3+  Bi69  1  0.66459904  0.83301226  0.83473048  1
  Bi3+  Bi70  1  0.83355171  0.49798427  0.00067810  1
  Bi3+  Bi71  1  0.66376447  0.66759060  -0.00002394  1
  Bi3+  Bi72  1  0.16831426  0.49846432  0.33013902  1
  Bi3+  Bi73  1  0.83742155  0.00365565  0.83162923  1
  Bi3+  Bi74  1  0.83360432  0.16573655  0.66771380  1
  Bi3+  Bi75  1  0.33281689  0.00155523  0.66448211  1
  Bi3+  Bi76  1  0.83500264  0.67122476  0.50742288  1
  Bi3+  Bi77  1  0.33186388  0.33296936  0.00225880  1
  Bi3+  Bi78  1  0.49797848  0.16380642  0.33626756  1
  Bi3+  Bi79  1  0.17673880  0.50003625  0.66950851  1
  Bi3+  Bi80  1  -0.00046632  0.33425601  0.33193400  1
  Bi3+  Bi81  1  0.16593349  0.66624554  0.51140219  1
  Bi3+  Bi82  1  0.66740090  0.83873392  0.16363514  1
  Bi3+  Bi83  1  0.33275698  0.16947392  0.83286011  1
  Bi3+  Bi84  1  0.83591599  0.16474088  0.00073638  1
  Bi3+  Bi85  1  0.16061338  0.33664286  0.49351419  1
  Te2-  Te86  1  0.17145300  0.16606249  0.17222741  1
  Te2-  Te87  1  0.17372240  0.17635711  0.49210859  1
  Te2-  Te88  1  0.16792866  0.18203388  0.83231732  1
  Te2-  Te89  1  0.15971236  0.50365646  0.16831404  1
  Te2-  Te90  1  0.17276410  0.50156695  0.50125337  1
  Te2-  Te91  1  0.17328236  0.48585369  0.83175735  1
  Te2-  Te92  1  0.16806437  0.82289083  0.16470846  1
  Te2-  Te93  1  0.16755463  0.82656793  0.50084753  1
  Te2-  Te94  1  0.17618265  0.83826009  0.83822368  1
  Te2-  Te95  1  0.49484065  0.17150872  0.17481221  1
  Te2-  Te96  1  0.50297545  0.16623067  0.49795398  1
  Te2-  Te97  1  0.49861892  0.16550483  0.83386474  1
  Te2-  Te98  1  0.49632883  0.48875464  0.17871630  1
  Te2-  Te99  1  0.49856795  0.49860168  0.47861862  1
  Te2-  Te100  1  0.50063812  0.49861366  0.84012468  1
  Te2-  Te101  1  0.50457767  0.84282014  0.16412263  1
  Te2-  Te102  1  0.50254789  0.83931215  0.49943561  1
  Te2-  Te103  1  0.50319623  0.84033776  0.83727369  1
  Te2-  Te104  1  0.82909243  0.17087153  0.16279581  1
  Te2-  Te105  1  0.82473613  0.16682340  0.50549732  1
  Te2-  Te106  1  0.83435321  0.16359511  0.83435830  1
  Te2-  Te107  1  0.84394154  0.49514548  0.16123737  1
  Te2-  Te108  1  0.82949795  0.50885123  0.50255242  1
  Te2-  Te109  1  0.82427153  0.49473301  0.83863407  1
  Te2-  Te110  1  0.83072380  0.83397957  0.15199720  1
  Te2-  Te111  1  0.83643378  0.83274671  0.50419661  1
  Te2-  Te112  1  0.82536671  0.84566006  0.84106558  1
  Te2-  Te113  1  0.16508374  -0.00015606  0.00337605  1
  Te2-  Te114  1  0.17559296  0.00133298  0.34727916  1
  Te2-  Te115  1  0.17206216  0.00415198  0.64561359  1
  Te2-  Te116  1  0.16716076  0.33737083  0.00436910  1
  Te2-  Te117  1  0.16599147  0.33474433  0.32837390  1
  Te2-  Te118  1  0.16763694  0.33580773  0.65430484  1
  Te2-  Te119  1  0.16901385  0.66106060  -0.01162094  1
  Te2-  Te120  1  0.16634819  0.66301439  0.34381897  1
  Te2-  Te121  1  0.16857637  0.66110602  0.67445901  1
  Te2-  Te122  1  0.50879753  0.02072199  0.00034083  1
  Te2-  Te123  1  0.49927391  0.00037559  0.33437642  1
  Te2-  Te124  1  0.50194464  -0.00255906  0.66372912  1
  Te2-  Te125  1  0.49679757  0.31974879  0.01072015  1
  Te2-  Te126  1  0.50564523  0.32544019  0.32996821  1
  Te2-  Te127  1  0.50466446  0.33650240  0.65645497  1
  Te2-  Te128  1  0.50066143  0.66168955  0.01346428  1
  Te2-  Te129  1  0.49210537  0.67020612  0.31863136  1
  Te2-  Te130  1  0.50052503  0.67323192  0.66442841  1
  Te2-  Te131  1  0.82613083  0.00403133  -0.00235609  1
  Te2-  Te132  1  0.82359619  0.00502940  0.33306946  1
  Te2-  Te133  1  0.82903805  -0.00026955  0.66740985  1
  Te2-  Te134  1  0.83420957  0.33091604  -0.01015149  1
  Te2-  Te135  1  0.83486848  0.32959629  0.32471956  1
  Te2-  Te136  1  0.82911919  0.32965462  0.68338408  1
  Te2-  Te137  1  0.82551094  0.66048027  -0.00965582  1
  Te2-  Te138  1  0.83433466  0.67035195  0.33533130  1
  Te2-  Te139  1  0.82809392  0.66564914  0.67104019  1
  Te2-  Te140  1  0.00141172  0.16663765  0.00520946  1
  Te2-  Te141  1  0.00460030  0.17228063  0.34698359  1
  Te2-  Te142  1  -0.00318433  0.16104794  0.64845048  1
  Te2-  Te143  1  0.00435233  0.50669690  0.00681240  1
  Te2-  Te144  1  0.00432975  0.50096982  0.32751081  1
  Te2-  Te145  1  0.00538259  0.49821945  0.66949958  1
  Te2-  Te146  1  0.00440822  0.82204110  -0.01427867  1
  Te2-  Te147  1  0.00244420  0.83256582  0.33080207  1
  Te2-  Te148  1  0.00257371  0.82653300  0.68412124  1
  Te2-  Te149  1  0.33100256  0.16767277  0.00177848  1
  Te2-  Te150  1  0.33396599  0.16362396  0.33074878  1
  Te2-  Te151  1  0.33126793  0.16617572  0.66661408  1
  Te2-  Te152  1  0.32498755  0.49464979  0.01399273  1
  Te2-  Te153  1  0.32764875  0.50332607  0.31857153  1
  Te2-  Te154  1  0.34346428  0.50363450  0.66227065  1
  Te2-  Te155  1  0.34479364  0.83293599  -0.00881464  1
  Te2-  Te156  1  0.33884723  0.83471811  0.33289044  1
  Te2-  Te157  1  0.34153056  0.83640995  0.67902693  1
  Te2-  Te158  1  0.67342434  0.16389508  -0.00084486  1
  Te2-  Te159  1  0.66472717  0.16005993  0.33621002  1
  Te2-  Te160  1  0.67044251  0.16523519  0.67104754  1
  Te2-  Te161  1  0.66753079  0.50127388  0.01487877  1
  Te2-  Te162  1  0.66833482  0.49812957  0.32003136  1
  Te2-  Te163  1  0.65021802  0.50289825  0.67527769  1
  Te2-  Te164  1  0.65581173  0.83749487  -0.00127895  1
  Te2-  Te165  1  0.65993351  0.83986342  0.33039245  1
  Te2-  Te166  1  0.66781761  0.83143121  0.67163771  1
  Te2-  Te167  1  -0.00183128  0.00077526  0.18003384  1
  Te2-  Te168  1  -0.00355783  0.00345441  0.48515546  1
  Te2-  Te169  1  0.00586052  0.01130951  0.83219068  1
  Te2-  Te170  1  0.00456609  0.33525046  0.16668598  1
  Te2-  Te171  1  -0.01010635  0.33787719  0.49294260  1
  Te2-  Te172  1  0.00261256  0.31876269  0.83577557  1
  Te2-  Te173  1  0.00476827  0.66549655  0.16978723  1
  Te2-  Te174  1  0.00004928  0.67260617  0.50610020  1
  Te2-  Te175  1  -0.00623326  0.65390362  0.83069698  1
  Te2-  Te176  1  0.33427140  0.00161285  0.17062001  1
  Te2-  Te177  1  0.34363478  -0.00631325  0.50000048  1
  Te2-  Te178  1  0.32112325  0.00966439  0.82752686  1
  Te2-  Te179  1  0.32523124  0.32702804  0.16511115  1
  Te2-  Te180  1  0.33104710  0.33412903  0.49385648  1
  Te2-  Te181  1  0.33953630  0.33140126  0.83877297  1
  Te2-  Te182  1  0.31909644  0.66427773  0.16708723  1
  Te2-  Te183  1  0.33078005  0.67554131  0.49640692  1
  Te2-  Te184  1  0.34309084  0.65858392  0.83783815  1
  Te2-  Te185  1  0.67043969  0.00044925  0.17465475  1
  Te2-  Te186  1  0.66377160  0.00932942  0.50389188  1
  Te2-  Te187  1  0.66498370  0.00189017  0.82909198  1
  Te2-  Te188  1  0.67129713  0.33143907  0.17535905  1
  Te2-  Te189  1  0.68153745  0.32857806  0.48939707  1
  Te2-  Te190  1  0.65486887  0.32484352  0.83211271  1
  Te2-  Te191  1  0.66288367  0.67501842  0.16296708  1
  Te2-  Te192  1  0.66845426  0.66759741  0.50210460  1
  Te2-  Te193  1  0.66565612  0.66751857  0.83437869  1
  Pb2+  Pb194  1  0.33669065  0.83015127  0.16134417  1
  Pb2+  Pb195  1  -0.00122906  0.32529876  0.66306675  1
  Pb2+  Pb196  1  0.66573056  0.33403360  0.00174308  1
  Pb2+  Pb197  1  0.00157899  -0.00606658  0.66059442  1
  Pb2+  Pb198  1  0.83190685  0.66471536  0.15836581  1
  Pb2+  Pb199  1  0.82539283  0.49819210  0.66949397  1
  Pb2+  Pb200  1  0.49754208  0.66836714  0.49498042  1
  Pb2+  Pb201  1  -0.00029600  0.50453895  0.50034929  1
  Pb2+  Pb202  1  0.00029023  0.48670037  0.83782180  1
  Pb2+  Pb203  1  0.50140852  0.16843751  0.66742874  1
  Pb2+  Pb204  1  -0.00167328  0.16798898  0.17683205  1
  Pb2+  Pb205  1  0.66235949  0.49535678  0.50334960  1
  Pb2+  Pb206  1  -0.00711493  -0.00538649  -0.00122864  1
  Pb2+  Pb207  1  0.00066951  0.83252282  0.15782251  1
  Pb2+  Pb208  1  0.83228997  0.83912629  0.32806472  1
  Pb2+  Pb209  1  0.33442315  0.33697661  0.66688961  1
  Pb2+  Pb210  1  0.66580555  0.66886715  0.32984654  1
  Pb2+  Pb211  1  0.34062817  -0.00193831  -0.00382389  1
  Pb2+  Pb212  1  0.16660259  -0.00481134  0.17633496  1
  Pb2+  Pb213  1  0.49677212  0.49170102  0.00745403  1
  Pb2+  Pb214  1  0.66999015  0.84202660  0.50302213  1
  Pb2+  Pb215  1  0.83476089  0.49799429  0.33456923  1
