# generated using pymatgen
data_In22Ag21Sn22Bi21(Te54Pb11)2
_symmetry_space_group_name_H-M   'P 1'
_cell_length_a   19.13577027
_cell_length_b   19.14534918
_cell_length_c   19.12818156
_cell_angle_alpha   89.98996025
_cell_angle_beta   90.01490680
_cell_angle_gamma   89.98746469
_symmetry_Int_Tables_number   1
_chemical_formula_structural   In22Ag21Sn22Bi21(Te54Pb11)2
_chemical_formula_sum   'In22 Ag21 Sn22 Bi21 Te108 Pb22'
_cell_volume   7007.81928205
_cell_formula_units_Z   1
loop_
 _symmetry_equiv_pos_site_id
 _symmetry_equiv_pos_as_xyz
  1  'x, y, z'
loop_
 _atom_type_symbol
 _atom_type_oxidation_number
  In3+  3.0
  Ag+  1.0
  Sn2+  2.0
  Bi3+  3.0
  Te2-  -2.0
  Pb2+  2.0
loop_
 _atom_site_type_symbol
 _atom_site_label
 _atom_site_symmetry_multiplicity
 _atom_site_fract_x
 _atom_site_fract_y
 _atom_site_fract_z
 _atom_site_occupancy
  In3+  In0  1  0.67012569  0.63749856  -0.00307156  1
  In3+  In1  1  0.50581801  0.49803533  0.64482868  1
  In3+  In2  1  0.66511828  0.18986347  0.50360998  1
  In3+  In3  1  0.16322861  0.84250033  0.33481037  1
  In3+  In4  1  0.82244310  0.33171045  0.84272535  1
  In3+  In5  1  0.16565944  0.16593085  0.68895038  1
  In3+  In6  1  -0.00284570  0.17496005  0.15690212  1
  In3+  In7  1  0.15298084  0.33530782  0.49889181  1
  In3+  In8  1  0.49642769  0.64799847  0.16685556  1
  In3+  In9  1  0.50288566  0.01828642  0.50171393  1
  In3+  In10  1  0.83087814  0.65576358  0.83323486  1
  In3+  In11  1  0.15822106  0.49247606  0.01118559  1
  In3+  In12  1  0.48881242  0.49092816  0.32943773  1
  In3+  In13  1  0.50412219  0.80668833  0.66439229  1
  In3+  In14  1  0.85361462  0.34517203  0.14668717  1
  In3+  In15  1  0.16688503  0.82313765  -0.01331639  1
  In3+  In16  1  0.65751913  0.81797128  0.15892503  1
  In3+  In17  1  0.33350276  0.01209798  0.02330183  1
  In3+  In18  1  0.16823563  0.19257099  0.33196315  1
  In3+  In19  1  0.67257253  0.48893957  0.16337930  1
  In3+  In20  1  -0.00040421  0.33114804  0.32385359  1
  In3+  In21  1  0.67158813  0.50905166  0.51439148  1
  Ag+  Ag22  1  0.85656143  0.65848056  0.53059042  1
  Ag+  Ag23  1  0.01721702  0.48269307  0.16662047  1
  Ag+  Ag24  1  0.16549715  0.19024604  -0.01482577  1
  Ag+  Ag25  1  0.17059862  0.00278641  0.86529505  1
  Ag+  Ag26  1  0.46967990  0.48520432  -0.01401676  1
  Ag+  Ag27  1  0.31508885  0.49243843  0.16105101  1
  Ag+  Ag28  1  0.66756670  0.68723837  0.65056845  1
  Ag+  Ag29  1  0.50030630  0.67844730  0.47270903  1
  Ag+  Ag30  1  0.31365828  -0.01177094  0.33584291  1
  Ag+  Ag31  1  0.52765796  0.19423956  -0.00932891  1
  Ag+  Ag32  1  0.00775742  0.32404813  -0.02642421  1
  Ag+  Ag33  1  0.02244520  0.02885149  0.31048386  1
  Ag+  Ag34  1  0.81694544  0.18996331  -0.02587495  1
  Ag+  Ag35  1  0.13482082  0.64278913  0.80253045  1
  Ag+  Ag36  1  0.64382601  0.32859024  0.00880920  1
  Ag+  Ag37  1  0.15553558  0.32424022  0.15220282  1
  Ag+  Ag38  1  0.64892288  0.32853452  0.69812750  1
  Ag+  Ag39  1  0.17257290  0.35285050  0.85486816  1
  Ag+  Ag40  1  0.13998634  0.49357208  0.31017778  1
  Ag+  Ag41  1  0.50882056  0.35562033  0.52156283  1
  Ag+  Ag42  1  0.81893699  0.47612525  -0.00602387  1
  Sn2+  Sn43  1  0.00741081  0.00840258  0.00142230  1
  Sn2+  Sn44  1  0.00519009  0.66434583  0.33057328  1
  Sn2+  Sn45  1  0.67090723  0.33583889  0.32706123  1
  Sn2+  Sn46  1  -0.00320390  0.83434549  0.16633578  1
  Sn2+  Sn47  1  0.16799566  0.00997574  0.16686127  1
  Sn2+  Sn48  1  0.32915411  0.16687142  0.83950922  1
  Sn2+  Sn49  1  0.16781228  0.00582860  0.49222858  1
  Sn2+  Sn50  1  0.66379752  0.81951552  0.49477471  1
  Sn2+  Sn51  1  0.50189683  0.83752159  0.34262026  1
  Sn2+  Sn52  1  0.82269281  0.82950164  0.66158166  1
  Sn2+  Sn53  1  0.00183031  0.65261903  0.00375907  1
  Sn2+  Sn54  1  0.82639030  -0.01819192  0.49733775  1
  Sn2+  Sn55  1  0.00506592  0.17015142  0.84423173  1
  Sn2+  Sn56  1  0.33927718  0.66518046  0.67346108  1
  Sn2+  Sn57  1  0.66918108  0.17214647  0.16575548  1
  Sn2+  Sn58  1  -0.00114441  0.16045186  0.49922672  1
  Sn2+  Sn59  1  0.48401381  0.00356737  0.83405419  1
  Sn2+  Sn60  1  0.33350670  0.33351797  0.33468148  1
  Sn2+  Sn61  1  0.49622776  0.16884265  0.67229285  1
  Sn2+  Sn62  1  0.49891845  0.16771429  0.32332029  1
  Sn2+  Sn63  1  0.83876072  0.83268040  0.33436720  1
  Sn2+  Sn64  1  0.84009139  0.83559316  0.00080315  1
  Bi3+  Bi65  1  0.50183281  0.00345830  0.16846541  1
  Bi3+  Bi66  1  0.83701889  0.00339547  0.16575343  1
  Bi3+  Bi67  1  0.49863207  0.33074303  0.16735210  1
  Bi3+  Bi68  1  0.33521498  0.66699311  0.33548933  1
  Bi3+  Bi69  1  0.00166236  0.00089790  0.66209565  1
  Bi3+  Bi70  1  0.83281371  0.16655241  0.33301572  1
  Bi3+  Bi71  1  0.66676502  -0.00125342  0.33463472  1
  Bi3+  Bi72  1  0.83104378  0.49961153  0.32502664  1
  Bi3+  Bi73  1  0.83395429  0.66790834  0.15994785  1
  Bi3+  Bi74  1  0.16418494  0.66241869  0.16744956  1
  Bi3+  Bi75  1  0.49967443  0.66535693  0.84202677  1
  Bi3+  Bi76  1  0.83590485  0.16900401  0.66381979  1
  Bi3+  Bi77  1  0.33662498  0.49589254  0.49522728  1
  Bi3+  Bi78  1  0.32955489  0.17506113  0.17088347  1
  Bi3+  Bi79  1  0.33834408  0.66643127  0.00392129  1
  Bi3+  Bi80  1  0.33573616  0.16900086  0.49551577  1
  Bi3+  Bi81  1  0.00228821  0.83806703  0.83737436  1
  Bi3+  Bi82  1  0.33692792  0.33326791  0.66261340  1
  Bi3+  Bi83  1  -0.00349173  0.83234603  0.49888730  1
  Bi3+  Bi84  1  0.00210520  0.33216991  0.66768288  1
  Bi3+  Bi85  1  0.33458533  0.83745966  0.83324486  1
  Te2-  Te86  1  0.16601735  0.17764360  0.17988136  1
  Te2-  Te87  1  0.17071018  0.17362754  0.48670560  1
  Te2-  Te88  1  0.17106321  0.15087459  0.84093430  1
  Te2-  Te89  1  0.16752773  0.49811250  0.16518181  1
  Te2-  Te90  1  0.17308964  0.49176642  0.50114270  1
  Te2-  Te91  1  0.16740013  0.50437390  0.83820154  1
  Te2-  Te92  1  0.16342416  0.82600084  0.17958363  1
  Te2-  Te93  1  0.16330461  0.83438838  0.49497606  1
  Te2-  Te94  1  0.16839200  0.83814940  0.83349156  1
  Te2-  Te95  1  0.49482313  0.16566547  0.15466067  1
  Te2-  Te96  1  0.50242317  0.16859514  0.49626250  1
  Te2-  Te97  1  0.49259793  0.16361055  0.84674860  1
  Te2-  Te98  1  0.51194993  0.49593859  0.17054339  1
  Te2-  Te99  1  0.50294133  0.50033286  0.49149119  1
  Te2-  Te100  1  0.49838757  0.50319985  0.84295034  1
  Te2-  Te101  1  0.50272180  0.84122289  0.17058376  1
  Te2-  Te102  1  0.50221861  0.82354363  0.50711295  1
  Te2-  Te103  1  0.49836514  0.83320694  0.82632235  1
  Te2-  Te104  1  0.84274705  0.16907573  0.17175056  1
  Te2-  Te105  1  0.82708583  0.16573692  0.49864410  1
  Te2-  Te106  1  0.83845498  0.17203366  0.82907861  1
  Te2-  Te107  1  0.83084420  0.49945427  0.15697957  1
  Te2-  Te108  1  0.82518944  0.51199190  0.49465256  1
  Te2-  Te109  1  0.83510719  0.50062529  0.84618131  1
  Te2-  Te110  1  0.82990923  0.83500193  0.16723327  1
  Te2-  Te111  1  0.83317483  0.81217478  0.50151449  1
  Te2-  Te112  1  0.83963952  0.83575263  0.83163912  1
  Te2-  Te113  1  0.17492197  -0.01347568  0.01207758  1
  Te2-  Te114  1  0.16300748  -0.00361881  0.33400688  1
  Te2-  Te115  1  0.16401253  0.00837425  0.65555531  1
  Te2-  Te116  1  0.15546741  0.33857263  0.00419615  1
  Te2-  Te117  1  0.16047517  0.34501270  0.33863255  1
  Te2-  Te118  1  0.17016895  0.32321148  0.65610956  1
  Te2-  Te119  1  0.17235200  0.66804328  0.00646999  1
  Te2-  Te120  1  0.17129888  0.64775306  0.32909663  1
  Te2-  Te121  1  0.17236432  0.66745729  0.66399160  1
  Te2-  Te122  1  0.48828172  0.00059633  0.00427430  1
  Te2-  Te123  1  0.50479494  0.00114696  0.33476074  1
  Te2-  Te124  1  0.50003980  0.01163182  0.66305994  1
  Te2-  Te125  1  0.49459640  0.33853628  0.00394904  1
  Te2-  Te126  1  0.50304076  0.33278794  0.32597518  1
  Te2-  Te127  1  0.50253702  0.32884692  0.66871242  1
  Te2-  Te128  1  0.50554484  0.66382158  0.00833312  1
  Te2-  Te129  1  0.50022702  0.66887005  0.32269884  1
  Te2-  Te130  1  0.51196522  0.65344627  0.67941964  1
  Te2-  Te131  1  0.83935833  0.00579491  0.00545440  1
  Te2-  Te132  1  0.83297858  0.00156700  0.33217196  1
  Te2-  Te133  1  0.83621529  0.00352772  0.66520295  1
  Te2-  Te134  1  0.85814073  0.32977281  -0.00451035  1
  Te2-  Te135  1  0.83876128  0.33253033  0.32915357  1
  Te2-  Te136  1  0.83978160  0.33014767  0.67156437  1
  Te2-  Te137  1  0.82687308  0.67271343  -0.00092274  1
  Te2-  Te138  1  0.83710234  0.66373542  0.32246254  1
  Te2-  Te139  1  0.81682748  0.66314518  0.67511182  1
  Te2-  Te140  1  0.01784779  0.16841178  0.00716441  1
  Te2-  Te141  1  -0.00174833  0.17240994  0.33469676  1
  Te2-  Te142  1  0.00278645  0.16516500  0.66493025  1
  Te2-  Te143  1  0.00530815  0.49901211  0.01297492  1
  Te2-  Te144  1  -0.00752785  0.49370627  0.32265679  1
  Te2-  Te145  1  -0.00105194  0.49817064  0.66522514  1
  Te2-  Te146  1  0.00598685  0.83521924  -0.00131124  1
  Te2-  Te147  1  0.00356863  0.82829613  0.33785148  1
  Te2-  Te148  1  -0.00385259  0.83539303  0.66657725  1
  Te2-  Te149  1  0.31444076  0.16357523  0.00930169  1
  Te2-  Te150  1  0.33124147  0.16536829  0.33338232  1
  Te2-  Te151  1  0.32972328  0.17078258  0.66097560  1
  Te2-  Te152  1  0.32730023  0.50504182  0.01212201  1
  Te2-  Te153  1  0.33776825  0.50344021  0.33339754  1
  Te2-  Te154  1  0.34201005  0.49675129  0.66335804  1
  Te2-  Te155  1  0.32902803  0.83073250  -0.00122959  1
  Te2-  Te156  1  0.33112754  0.83340775  0.33397473  1
  Te2-  Te157  1  0.34099377  0.83204015  0.66855052  1
  Te2-  Te158  1  0.67380198  0.17911105  0.00464081  1
  Te2-  Te159  1  0.66918919  0.16465308  0.33831968  1
  Te2-  Te160  1  0.67042101  0.18108512  0.65953236  1
  Te2-  Te161  1  0.67269075  0.48641506  0.00766937  1
  Te2-  Te162  1  0.67093480  0.49936968  0.32191550  1
  Te2-  Te163  1  0.66064226  0.47713160  0.66407023  1
  Te2-  Te164  1  0.66863735  0.84171415  0.00767395  1
  Te2-  Te165  1  0.66800162  0.83460931  0.32698765  1
  Te2-  Te166  1  0.66156716  0.83416385  0.66659212  1
  Te2-  Te167  1  -0.00168794  -0.00129192  0.16979981  1
  Te2-  Te168  1  -0.00649773  -0.00548160  0.49949995  1
  Te2-  Te169  1  0.01443734  -0.00046456  0.82926505  1
  Te2-  Te170  1  0.00701029  0.33371745  0.16951214  1
  Te2-  Te171  1  -0.00384384  0.33192600  0.50313188  1
  Te2-  Te172  1  0.02461412  0.32744938  0.82563389  1
  Te2-  Te173  1  -0.00188252  0.66766820  0.16486673  1
  Te2-  Te174  1  0.00151308  0.66668780  0.50051988  1
  Te2-  Te175  1  -0.00438952  0.67269349  0.83797739  1
  Te2-  Te176  1  0.33579436  0.00480365  0.18284414  1
  Te2-  Te177  1  0.33997829  0.00615628  0.48662114  1
  Te2-  Te178  1  0.32429939  -0.00114899  0.83351420  1
  Te2-  Te179  1  0.33336793  0.34044635  0.17351258  1
  Te2-  Te180  1  0.35402805  0.33292654  0.49991128  1
  Te2-  Te181  1  0.31914482  0.33071772  0.82689163  1
  Te2-  Te182  1  0.33669573  0.65738054  0.16923779  1
  Te2-  Te183  1  0.34882245  0.66080685  0.50045076  1
  Te2-  Te184  1  0.33582677  0.67416276  0.83910445  1
  Te2-  Te185  1  0.66872757  0.00652369  0.17127707  1
  Te2-  Te186  1  0.66216369  -0.00908984  0.49607461  1
  Te2-  Te187  1  0.66511677  0.00210274  0.83420644  1
  Te2-  Te188  1  0.66684027  0.33106750  0.16078030  1
  Te2-  Te189  1  0.65723406  0.34088509  0.48912883  1
  Te2-  Te190  1  0.66937461  0.33242973  0.84529366  1
  Te2-  Te191  1  0.66802738  0.66591274  0.16188107  1
  Te2-  Te192  1  0.64831291  0.65980617  0.50618965  1
  Te2-  Te193  1  0.66702699  0.66738534  0.84425160  1
  Pb2+  Pb194  1  0.33267275  0.00261361  0.66379230  1
  Pb2+  Pb195  1  0.32435732  0.33259859  0.00255957  1
  Pb2+  Pb196  1  0.16960023  0.49322624  0.67010332  1
  Pb2+  Pb197  1  0.67119879  0.83453488  0.83855904  1
  Pb2+  Pb198  1  0.33006001  0.83074648  0.16696094  1
  Pb2+  Pb199  1  0.66411496  0.49890294  0.83349713  1
  Pb2+  Pb200  1  0.33516511  0.83486990  0.49916375  1
  Pb2+  Pb201  1  -0.00083768  0.49934562  0.49083429  1
  Pb2+  Pb202  1  0.49076777  0.33373775  0.83539049  1
  Pb2+  Pb203  1  0.66483323  0.01096860  0.00302091  1
  Pb2+  Pb204  1  -0.00683719  0.66780167  0.67080864  1
  Pb2+  Pb205  1  0.33241435  0.50378629  0.83900483  1
  Pb2+  Pb206  1  0.17596763  0.66268696  0.49441745  1
  Pb2+  Pb207  1  0.67043474  0.66563081  0.33894733  1
  Pb2+  Pb208  1  0.82440035  0.33900666  0.49805435  1
  Pb2+  Pb209  1  0.84285517  0.00229555  0.83819142  1
  Pb2+  Pb210  1  0.66691814  0.00744135  0.66385827  1
  Pb2+  Pb211  1  0.66282675  0.16709732  0.83168356  1
  Pb2+  Pb212  1  0.83006211  0.49592057  0.67131362  1
  Pb2+  Pb213  1  0.16686608  0.83814856  0.66826632  1
  Pb2+  Pb214  1  0.50009945  0.83289226  -0.00124884  1
  Pb2+  Pb215  1  0.00158178  0.49391379  0.84270265  1
