# generated using pymatgen
data_In22Ag21Sn22Bi21(Te54Pb11)2
_symmetry_space_group_name_H-M   'P 1'
_cell_length_a   19.22411766
_cell_length_b   19.23513153
_cell_length_c   19.21700373
_cell_angle_alpha   90.00322882
_cell_angle_beta   90.01158694
_cell_angle_gamma   89.99198300
_symmetry_Int_Tables_number   1
_chemical_formula_structural   In22Ag21Sn22Bi21(Te54Pb11)2
_chemical_formula_sum   'In22 Ag21 Sn22 Bi21 Te108 Pb22'
_cell_volume   7106.03327442
_cell_formula_units_Z   1
loop_
 _symmetry_equiv_pos_site_id
 _symmetry_equiv_pos_as_xyz
  1  'x, y, z'
loop_
 _atom_type_symbol
 _atom_type_oxidation_number
  In3+  3.0
  Ag+  1.0
  Sn2+  2.0
  Bi3+  3.0
  Te2-  -2.0
  Pb2+  2.0
loop_
 _atom_site_type_symbol
 _atom_site_label
 _atom_site_symmetry_multiplicity
 _atom_site_fract_x
 _atom_site_fract_y
 _atom_site_fract_z
 _atom_site_occupancy
  In3+  In0  1  0.01990668  0.52350562  0.16459664  1
  In3+  In1  1  0.85072411  0.16156415  0.34420613  1
  In3+  In2  1  0.00310420  0.34376049  0.33450103  1
  In3+  In3  1  0.01191524  0.82126032  0.15956112  1
  In3+  In4  1  0.49167570  -0.02926745  0.83362062  1
  In3+  In5  1  0.69370493  0.65916945  0.32971487  1
  In3+  In6  1  0.67552233  0.17498000  0.15955241  1
  In3+  In7  1  0.31426235  0.50121411  0.49126373  1
  In3+  In8  1  0.01528566  -0.00646389  0.69689181  1
  In3+  In9  1  0.50073565  -0.01358444  0.51282905  1
  In3+  In10  1  0.16153458  0.51139231  0.32952357  1
  In3+  In11  1  -0.00102217  0.36326953  0.00531548  1
  In3+  In12  1  0.66472449  0.51530560  0.52124031  1
  In3+  In13  1  0.16923043  0.33885520  0.84936269  1
  In3+  In14  1  0.32843638  0.65475813  -0.02635601  1
  In3+  In15  1  0.85206513  0.15687575  0.00579492  1
  In3+  In16  1  0.32690336  0.80532905  0.51683751  1
  In3+  In17  1  0.84975600  0.67747675  0.50453413  1
  In3+  In18  1  0.70177657  0.33134461  0.66610693  1
  In3+  In19  1  0.33223747  0.15193694  0.51650520  1
  In3+  In20  1  0.30643250  0.67576102  0.32740702  1
  In3+  In21  1  0.02699532  0.85257410  0.49962369  1
  Ag+  Ag22  1  0.18441522  0.67181237  0.14447647  1
  Ag+  Ag23  1  0.29530752  0.12793399  0.80178741  1
  Ag+  Ag24  1  0.02791384  -0.03369474  0.00257987  1
  Ag+  Ag25  1  -0.00707745  0.80188427  0.86093790  1
  Ag+  Ag26  1  -0.02439106  0.51683300  0.80410503  1
  Ag+  Ag27  1  0.62764726  0.64608342  -0.02809195  1
  Ag+  Ag28  1  0.52366530  0.66141810  0.86052797  1
  Ag+  Ag29  1  0.47448066  0.81924745  -0.00427011  1
  Ag+  Ag30  1  0.00863010  0.36501110  0.70773203  1
  Ag+  Ag31  1  0.85855877  -0.02756782  0.49728138  1
  Ag+  Ag32  1  0.52643337  0.53510522  -0.01696807  1
  Ag+  Ag33  1  0.01660883  0.51712519  0.51561192  1
  Ag+  Ag34  1  0.15233970  0.84452611  0.33013537  1
  Ag+  Ag35  1  0.87026398  0.66022895  0.86353197  1
  Ag+  Ag36  1  0.14610355  0.19259689  0.33826259  1
  Ag+  Ag37  1  0.30250720  -0.02690679  0.64233386  1
  Ag+  Ag38  1  0.00633867  0.68836712  0.33688173  1
  Ag+  Ag39  1  0.16284149  0.52587727  -0.02334998  1
  Ag+  Ag40  1  -0.02101644  0.66853413  -0.02998186  1
  Ag+  Ag41  1  0.16235224  0.81229416  0.68585667  1
  Ag+  Ag42  1  0.30614132  0.64490325  0.66590126  1
  Sn2+  Sn43  1  0.83654824  0.49473471  0.33520383  1
  Sn2+  Sn44  1  0.66584820  0.51207658  0.83998250  1
  Sn2+  Sn45  1  0.32032426  0.33651942  0.66891794  1
  Sn2+  Sn46  1  0.16943782  -0.00255321  0.83632868  1
  Sn2+  Sn47  1  0.00674265  0.16770467  0.83597120  1
  Sn2+  Sn48  1  0.50034400  0.33959413  0.50721618  1
  Sn2+  Sn49  1  0.49378631  0.82760184  0.32169854  1
  Sn2+  Sn50  1  0.83897171  0.66496244  0.16517344  1
  Sn2+  Sn51  1  -0.00006048  -0.00906262  0.31628069  1
  Sn2+  Sn52  1  0.49721114  0.50800994  0.67805421  1
  Sn2+  Sn53  1  0.16531451  0.17172160  0.66405858  1
  Sn2+  Sn54  1  0.83676798  -0.00895943  0.82276508  1
  Sn2+  Sn55  1  0.16324892  -0.00616221  0.17111198  1
  Sn2+  Sn56  1  0.16572307  0.16577631  0.00995956  1
  Sn2+  Sn57  1  0.49993550  0.66624845  0.17245191  1
  Sn2+  Sn58  1  0.16981310  0.66758738  0.83819346  1
  Sn2+  Sn59  1  0.32999413  -0.00029908  0.33522745  1
  Sn2+  Sn60  1  0.33781774  0.00601155  -0.00383512  1
  Sn2+  Sn61  1  0.49941976  0.50711471  0.32449594  1
  Sn2+  Sn62  1  0.15565428  0.66857501  0.50532781  1
  Sn2+  Sn63  1  -0.00220315  0.67307342  0.65912290  1
  Sn2+  Sn64  1  0.66075780  0.66812914  0.66598566  1
  Bi3+  Bi65  1  0.00535030  0.15944037  0.16483022  1
  Bi3+  Bi66  1  0.49874185  0.16543686  0.33496844  1
  Bi3+  Bi67  1  0.33524990  0.50274556  0.16932169  1
  Bi3+  Bi68  1  0.66350422  0.00138993  0.33531115  1
  Bi3+  Bi69  1  0.83701648  0.16140169  0.66934551  1
  Bi3+  Bi70  1  0.66458513  0.50739972  0.16411471  1
  Bi3+  Bi71  1  0.50059239  0.66375013  0.49875613  1
  Bi3+  Bi72  1  0.66747985  -0.00437970  0.00023094  1
  Bi3+  Bi73  1  0.66660553  0.83269441  0.16585020  1
  Bi3+  Bi74  1  0.65890687  0.16849601  0.49818639  1
  Bi3+  Bi75  1  0.33061803  0.50097511  0.83321087  1
  Bi3+  Bi76  1  0.84029889  0.33675037  0.83548876  1
  Bi3+  Bi77  1  0.83029386  0.83519897  -0.00210582  1
  Bi3+  Bi78  1  0.83641905  0.33103936  0.49951480  1
  Bi3+  Bi79  1  0.16463158  0.33074051  0.50077641  1
  Bi3+  Bi80  1  0.32231834  0.83125857  0.83154809  1
  Bi3+  Bi81  1  0.49880756  0.16680525  -0.00490572  1
  Bi3+  Bi82  1  0.50069029  0.17240102  0.66980301  1
  Bi3+  Bi83  1  0.66630422  0.17027154  0.83367685  1
  Bi3+  Bi84  1  0.66755616  0.00096899  0.66976653  1
  Bi3+  Bi85  1  0.33113632  0.16188267  0.16353127  1
  Te2-  Te86  1  0.16963144  0.16424118  0.17843878  1
  Te2-  Te87  1  0.17698019  0.16999313  0.48519964  1
  Te2-  Te88  1  0.16262943  0.17333743  0.83485318  1
  Te2-  Te89  1  0.17184979  0.51574043  0.17439635  1
  Te2-  Te90  1  0.16032942  0.49430884  0.49314453  1
  Te2-  Te91  1  0.17029986  0.49218950  0.83390899  1
  Te2-  Te92  1  0.16188901  0.82117973  0.17864846  1
  Te2-  Te93  1  0.17896418  0.83379802  0.48453320  1
  Te2-  Te94  1  0.15921088  0.83891070  0.83066861  1
  Te2-  Te95  1  0.49476778  0.16595906  0.16487450  1
  Te2-  Te96  1  0.49508121  0.17197856  0.50097082  1
  Te2-  Te97  1  0.50472278  0.17422661  0.83137431  1
  Te2-  Te98  1  0.49668656  0.50167151  0.16038241  1
  Te2-  Te99  1  0.51242401  0.50166919  0.49707948  1
  Te2-  Te100  1  0.49400977  0.51179945  0.84044919  1
  Te2-  Te101  1  0.50155589  0.83196175  0.15209675  1
  Te2-  Te102  1  0.48862727  0.83119727  0.50106112  1
  Te2-  Te103  1  0.49426424  0.81965715  0.84258477  1
  Te2-  Te104  1  0.83689776  0.16508505  0.16349382  1
  Te2-  Te105  1  0.82434141  0.17038845  0.50406071  1
  Te2-  Te106  1  0.83045950  0.16837127  0.83004235  1
  Te2-  Te107  1  0.82853666  0.50256628  0.16973791  1
  Te2-  Te108  1  0.81559514  0.49022773  0.49548505  1
  Te2-  Te109  1  0.83540801  0.50162234  0.83478109  1
  Te2-  Te110  1  0.83400734  0.83397661  0.16732404  1
  Te2-  Te111  1  0.82969957  0.82928647  0.50126823  1
  Te2-  Te112  1  0.84759571  0.82595364  0.83490512  1
  Te2-  Te113  1  0.16946853  0.00579281  -0.00371854  1
  Te2-  Te114  1  0.17222295  -0.00914866  0.32801641  1
  Te2-  Te115  1  0.16532868  0.01429987  0.66642258  1
  Te2-  Te116  1  0.15692045  0.33176147  0.00093503  1
  Te2-  Te117  1  0.16141656  0.33857217  0.33586595  1
  Te2-  Te118  1  0.14893026  0.32919972  0.66034042  1
  Te2-  Te119  1  0.17534082  0.67092853  -0.00134380  1
  Te2-  Te120  1  0.15810384  0.66201485  0.34463920  1
  Te2-  Te121  1  0.16119017  0.66747061  0.66176811  1
  Te2-  Te122  1  0.50573795  0.00368494  -0.00910794  1
  Te2-  Te123  1  0.50006616  0.00028260  0.33659364  1
  Te2-  Te124  1  0.50312572  0.00603196  0.67282085  1
  Te2-  Te125  1  0.50050093  0.33050773  -0.00352521  1
  Te2-  Te126  1  0.50089320  0.33208049  0.33639434  1
  Te2-  Te127  1  0.49348638  0.33419282  0.66544602  1
  Te2-  Te128  1  0.48031219  0.67111235  0.00393135  1
  Te2-  Te129  1  0.49398809  0.66736289  0.33780934  1
  Te2-  Te130  1  0.50610385  0.66916577  0.65966664  1
  Te2-  Te131  1  0.82829349  0.00196019  -0.00417712  1
  Te2-  Te132  1  0.82628193  0.00351543  0.34629110  1
  Te2-  Te133  1  0.82847294  0.00012541  0.65255866  1
  Te2-  Te134  1  0.83820976  0.33025929  -0.00362342  1
  Te2-  Te135  1  0.83703659  0.32390307  0.33569473  1
  Te2-  Te136  1  0.86188546  0.32573404  0.66919009  1
  Te2-  Te137  1  0.83355673  0.67398173  0.00535028  1
  Te2-  Te138  1  0.84293154  0.66342088  0.34091274  1
  Te2-  Te139  1  0.82932241  0.66562148  0.65451393  1
  Te2-  Te140  1  0.00122437  0.16150071  0.00367918  1
  Te2-  Te141  1  0.00484938  0.15477842  0.32698364  1
  Te2-  Te142  1  -0.00324648  0.14773301  0.66667796  1
  Te2-  Te143  1  0.01434787  0.51732504  0.01192607  1
  Te2-  Te144  1  0.00016725  0.49377387  0.31677599  1
  Te2-  Te145  1  -0.00133108  0.50448179  0.65964248  1
  Te2-  Te146  1  -0.00473158  0.82218616  0.00658829  1
  Te2-  Te147  1  0.00478773  0.83697092  0.34708363  1
  Te2-  Te148  1  0.01656462  0.84366727  0.65117348  1
  Te2-  Te149  1  0.33539457  0.16732499  0.00142622  1
  Te2-  Te150  1  0.34022141  0.16185358  0.32626657  1
  Te2-  Te151  1  0.33758774  0.17244494  0.66941764  1
  Te2-  Te152  1  0.31708738  0.50474095  0.00144494  1
  Te2-  Te153  1  0.33231135  0.50519406  0.33493493  1
  Te2-  Te154  1  0.33720717  0.49929090  0.66929069  1
  Te2-  Te155  1  0.33041333  0.83975926  -0.00705172  1
  Te2-  Te156  1  0.33832585  0.82456431  0.33609785  1
  Te2-  Te157  1  0.31736604  0.83114207  0.66660644  1
  Te2-  Te158  1  0.66369301  0.16396306  -0.00199900  1
  Te2-  Te159  1  0.65991509  0.16488413  0.33373422  1
  Te2-  Te160  1  0.66603205  0.16709493  0.66615888  1
  Te2-  Te161  1  0.67259757  0.50845216  0.00305800  1
  Te2-  Te162  1  0.66504971  0.50562357  0.32378627  1
  Te2-  Te163  1  0.66241110  0.49599300  0.67256573  1
  Te2-  Te164  1  0.66989426  0.83501810  0.00293096  1
  Te2-  Te165  1  0.66122203  0.83877647  0.32944839  1
  Te2-  Te166  1  0.66491299  0.83878665  0.66893370  1
  Te2-  Te167  1  0.00391067  -0.00336427  0.15051848  1
  Te2-  Te168  1  0.00065383  0.00074381  0.48584427  1
  Te2-  Te169  1  -0.00540323  -0.00131622  0.84499881  1
  Te2-  Te170  1  0.00014356  0.32208634  0.16524772  1
  Te2-  Te171  1  -0.00121095  0.33086105  0.48773288  1
  Te2-  Te172  1  0.00048314  0.33568164  0.85174394  1
  Te2-  Te173  1  -0.00237088  0.67164072  0.18583876  1
  Te2-  Te174  1  -0.00363856  0.65868419  0.48924190  1
  Te2-  Te175  1  0.01131147  0.66199654  0.82090120  1
  Te2-  Te176  1  0.33092654  -0.00149659  0.16371821  1
  Te2-  Te177  1  0.34196555  0.00118603  0.50478122  1
  Te2-  Te178  1  0.33813811  -0.00710479  0.82983319  1
  Te2-  Te179  1  0.32945161  0.33586071  0.16915507  1
  Te2-  Te180  1  0.32867410  0.34741961  0.50323007  1
  Te2-  Te181  1  0.32345659  0.33811044  0.83156973  1
  Te2-  Te182  1  0.32904775  0.66309554  0.17822280  1
  Te2-  Te183  1  0.33626194  0.65235503  0.51545245  1
  Te2-  Te184  1  0.32755421  0.66655154  0.81756505  1
  Te2-  Te185  1  0.66742861  -0.00269814  0.16772690  1
  Te2-  Te186  1  0.65671460  0.00548384  0.50112416  1
  Te2-  Te187  1  0.66984389  0.00365958  0.83348360  1
  Te2-  Te188  1  0.66769504  0.33798966  0.16501039  1
  Te2-  Te189  1  0.67072799  0.32861285  0.50583960  1
  Te2-  Te190  1  0.67551971  0.33432588  0.82784281  1
  Te2-  Te191  1  0.66626185  0.67068622  0.17513027  1
  Te2-  Te192  1  0.66385429  0.66596360  0.48983001  1
  Te2-  Te193  1  0.66709801  0.66546075  0.82917516  1
  Pb2+  Pb194  1  0.49930230  0.33335215  0.16500038  1
  Pb2+  Pb195  1  0.66219680  0.83395320  0.50114442  1
  Pb2+  Pb196  1  0.00096889  0.16659949  0.50095228  1
  Pb2+  Pb197  1  0.83713584  0.33673143  0.16628306  1
  Pb2+  Pb198  1  0.49878632  -0.00161754  0.16472463  1
  Pb2+  Pb199  1  0.67257131  0.83042377  0.83632374  1
  Pb2+  Pb200  1  0.33256653  0.33057496  0.33867495  1
  Pb2+  Pb201  1  0.16259306  0.34051589  0.16720056  1
  Pb2+  Pb202  1  0.48935592  0.83339264  0.67268738  1
  Pb2+  Pb203  1  0.16693626  0.49802662  0.66704175  1
  Pb2+  Pb204  1  0.16953152  0.00232590  0.49651773  1
  Pb2+  Pb205  1  0.83641702  -0.00039983  0.17169995  1
  Pb2+  Pb206  1  0.66645104  0.33447193  -0.00488556  1
  Pb2+  Pb207  1  0.49923202  0.34400281  0.83036629  1
  Pb2+  Pb208  1  0.66766951  0.33716973  0.33731308  1
  Pb2+  Pb209  1  0.33143533  0.83017176  0.16579457  1
  Pb2+  Pb210  1  0.84595644  0.83335438  0.66972025  1
  Pb2+  Pb211  1  0.33085748  0.33852697  -0.00094052  1
  Pb2+  Pb212  1  0.83559074  0.83325473  0.33374939  1
  Pb2+  Pb213  1  0.83287134  0.49894739  0.66550129  1
  Pb2+  Pb214  1  0.84664646  0.50726164  0.00123394  1
  Pb2+  Pb215  1  0.16608598  0.83632631  0.00130044  1
