# generated using pymatgen
data_In22Ag21Sn22Bi21(Te54Pb11)2
_symmetry_space_group_name_H-M   'P 1'
_cell_length_a   19.17510342
_cell_length_b   19.14568879
_cell_length_c   19.14882262
_cell_angle_alpha   89.98722174
_cell_angle_beta   90.00391530
_cell_angle_gamma   90.01241368
_symmetry_Int_Tables_number   1
_chemical_formula_structural   In22Ag21Sn22Bi21(Te54Pb11)2
_chemical_formula_sum   'In22 Ag21 Sn22 Bi21 Te108 Pb22'
_cell_volume   7029.92617555
_cell_formula_units_Z   1
loop_
 _symmetry_equiv_pos_site_id
 _symmetry_equiv_pos_as_xyz
  1  'x, y, z'
loop_
 _atom_type_symbol
 _atom_type_oxidation_number
  In3+  3.0
  Ag+  1.0
  Sn2+  2.0
  Bi3+  3.0
  Te2-  -2.0
  Pb2+  2.0
loop_
 _atom_site_type_symbol
 _atom_site_label
 _atom_site_symmetry_multiplicity
 _atom_site_fract_x
 _atom_site_fract_y
 _atom_site_fract_z
 _atom_site_occupancy
  In3+  In0  1  0.16389434  0.50227254  0.64360179  1
  In3+  In1  1  0.47862222  0.50004453  0.66131547  1
  In3+  In2  1  0.83764687  0.00301939  0.83540998  1
  In3+  In3  1  0.33447228  0.82961286  0.48886145  1
  In3+  In4  1  0.16377666  0.19112719  0.33412885  1
  In3+  In5  1  0.83610331  0.64031758  0.47784170  1
  In3+  In6  1  0.83246155  0.47832390  0.66817914  1
  In3+  In7  1  -0.01075303  0.49147044  0.16522718  1
  In3+  In8  1  0.68300418  0.16081546  0.50456863  1
  In3+  In9  1  0.83756451  0.65174640  0.15197014  1
  In3+  In10  1  -0.00730873  0.33730156  0.33355423  1
  In3+  In11  1  0.34437569  0.65423798  0.66300894  1
  In3+  In12  1  0.82871448  0.32238716  0.83258828  1
  In3+  In13  1  0.16912139  0.00384043  0.20025624  1
  In3+  In14  1  0.48405540  0.65959642  0.83525649  1
  In3+  In15  1  0.33370613  0.18473723  0.49853349  1
  In3+  In16  1  0.18468529  0.66707398  0.17792643  1
  In3+  In17  1  0.81419706  0.02101102  0.16775376  1
  In3+  In18  1  0.49345534  0.15693813  -0.01568781  1
  In3+  In19  1  0.48640961  0.84790523  0.66075350  1
  In3+  In20  1  0.48229182  0.49925013  0.33230174  1
  In3+  In21  1  0.65917501  0.83783216  0.82052124  1
  Ag+  Ag22  1  0.02946722  0.66237627  0.03245687  1
  Ag+  Ag23  1  0.80637902  0.33366906  0.48407175  1
  Ag+  Ag24  1  0.64399842  0.35664433  0.68298520  1
  Ag+  Ag25  1  0.84331997  0.34078930  0.18954324  1
  Ag+  Ag26  1  0.63724240  0.02761285  0.30810770  1
  Ag+  Ag27  1  0.33451628  0.68681524  0.32308362  1
  Ag+  Ag28  1  0.64301815  0.02378305  0.67334698  1
  Ag+  Ag29  1  0.18326417  0.50007580  0.32339803  1
  Ag+  Ag30  1  0.51275077  0.02316729  0.50151887  1
  Ag+  Ag31  1  0.35367048  0.30403012  0.70113006  1
  Ag+  Ag32  1  0.34507498  0.85361066  0.13671372  1
  Ag+  Ag33  1  0.86265181  0.49612539  -0.03277328  1
  Ag+  Ag34  1  0.03848881  0.20040942  0.85214451  1
  Ag+  Ag35  1  0.30802866  0.33345237  0.35451579  1
  Ag+  Ag36  1  0.31234236  0.48584428  0.49287708  1
  Ag+  Ag37  1  0.19922623  0.02238773  0.49962815  1
  Ag+  Ag38  1  0.18537075  0.30848125  0.80657405  1
  Ag+  Ag39  1  0.46766137  0.30711669  0.80059009  1
  Ag+  Ag40  1  0.32099880  0.66417900  0.02596492  1
  Ag+  Ag41  1  0.83299516  0.47435650  0.31172027  1
  Ag+  Ag42  1  0.33574378  0.15324298  0.85704427  1
  Sn2+  Sn43  1  0.00397509  0.16695292  0.51213234  1
  Sn2+  Sn44  1  0.49465558  0.67395704  0.16334451  1
  Sn2+  Sn45  1  0.00416447  0.00177141  0.33820536  1
  Sn2+  Sn46  1  0.67228637  0.66430859  0.66846058  1
  Sn2+  Sn47  1  0.49827213  0.82594409  0.33762902  1
  Sn2+  Sn48  1  0.17275078  0.66562688  0.49509096  1
  Sn2+  Sn49  1  0.16316378  0.66402961  0.83762449  1
  Sn2+  Sn50  1  0.16710785  0.00569514  0.81883244  1
  Sn2+  Sn51  1  0.33050810  0.84166379  0.83646479  1
  Sn2+  Sn52  1  0.82151158  0.00245743  0.49918071  1
  Sn2+  Sn53  1  0.50839979  0.33544251  0.15578716  1
  Sn2+  Sn54  1  0.66788668  0.33557315  0.33833556  1
  Sn2+  Sn55  1  0.17143910  0.33406791  0.50319979  1
  Sn2+  Sn56  1  0.17561727  0.83040172  0.66448754  1
  Sn2+  Sn57  1  0.32733911  0.00597173  0.65547287  1
  Sn2+  Sn58  1  0.49665659  0.16959049  0.33135807  1
  Sn2+  Sn59  1  0.66791842  0.84652061  0.50096807  1
  Sn2+  Sn60  1  0.49255082  -0.00254648  0.19198442  1
  Sn2+  Sn61  1  0.00762690  0.65660566  0.33155126  1
  Sn2+  Sn62  1  0.33553361  0.00501584  0.34236765  1
  Sn2+  Sn63  1  0.32654079  0.49412058  0.17921856  1
  Sn2+  Sn64  1  0.66052275  0.66353017  0.33724323  1
  Bi3+  Bi65  1  0.67005641  0.49679485  0.49758085  1
  Bi3+  Bi66  1  0.82913803  0.67033178  0.83121704  1
  Bi3+  Bi67  1  0.00274371  0.66753211  0.66493752  1
  Bi3+  Bi68  1  0.83031689  0.83472771  0.33452567  1
  Bi3+  Bi69  1  -0.00008051  0.49626689  0.49441301  1
  Bi3+  Bi70  1  0.17045229  0.50150413  0.00933890  1
  Bi3+  Bi71  1  0.66637643  0.33500811  -0.00621131  1
  Bi3+  Bi72  1  0.16649825  0.83260562  -0.00253770  1
  Bi3+  Bi73  1  0.50331854  0.66440931  0.49949368  1
  Bi3+  Bi74  1  0.00392688  0.33280160  0.66569082  1
  Bi3+  Bi75  1  0.83238982  0.83187818  0.66567414  1
  Bi3+  Bi76  1  0.00212838  0.83011193  0.16995262  1
  Bi3+  Bi77  1  0.83263156  0.17102128  -0.00156089  1
  Bi3+  Bi78  1  0.33445426  0.34445533  0.00651403  1
  Bi3+  Bi79  1  0.50010406  0.49766454  0.00080668  1
  Bi3+  Bi80  1  0.83609351  0.15979417  0.66828996  1
  Bi3+  Bi81  1  0.66499374  0.50097447  0.17230350  1
  Bi3+  Bi82  1  0.66544017  0.66590116  0.00391901  1
  Bi3+  Bi83  1  -0.00003002  0.00203989  0.66451006  1
  Bi3+  Bi84  1  0.50074808  0.33539965  0.48982431  1
  Bi3+  Bi85  1  -0.00089351  0.83239262  0.83576449  1
  Te2-  Te86  1  0.16537541  0.16196023  0.17300797  1
  Te2-  Te87  1  0.16990867  0.16724273  0.49058791  1
  Te2-  Te88  1  0.17928484  0.16448161  0.83175747  1
  Te2-  Te89  1  0.15934909  0.51004800  0.17423604  1
  Te2-  Te90  1  0.16335871  0.50245671  0.48704475  1
  Te2-  Te91  1  0.16647485  0.50561857  0.84819579  1
  Te2-  Te92  1  0.16743702  0.82244737  0.16130500  1
  Te2-  Te93  1  0.17536701  0.82462503  0.50209252  1
  Te2-  Te94  1  0.16363788  0.83270549  0.83351426  1
  Te2-  Te95  1  0.50130129  0.16412645  0.17412499  1
  Te2-  Te96  1  0.48941028  0.17011862  0.49229528  1
  Te2-  Te97  1  0.49016002  0.16662633  0.83157701  1
  Te2-  Te98  1  0.50243765  0.50233364  0.16933506  1
  Te2-  Te99  1  0.50719621  0.50082188  0.49726730  1
  Te2-  Te100  1  0.49827510  0.50463629  0.83091875  1
  Te2-  Te101  1  0.48911006  0.83376210  0.16790319  1
  Te2-  Te102  1  0.49914050  0.82309672  0.50831384  1
  Te2-  Te103  1  0.50077242  0.82514430  0.82229614  1
  Te2-  Te104  1  0.83441481  0.18203411  0.16068312  1
  Te2-  Te105  1  0.83633576  0.17822377  0.50598745  1
  Te2-  Te106  1  0.83206994  0.16292938  0.83572258  1
  Te2-  Te107  1  0.83379763  0.49489410  0.16569368  1
  Te2-  Te108  1  0.83556292  0.48408604  0.50859658  1
  Te2-  Te109  1  0.83289533  0.50753436  0.82317052  1
  Te2-  Te110  1  0.83904174  0.82517546  0.17014000  1
  Te2-  Te111  1  0.83399081  0.83665130  0.50116814  1
  Te2-  Te112  1  0.83349999  0.83521553  0.83319018  1
  Te2-  Te113  1  0.16676840  -0.00424361  -0.00824856  1
  Te2-  Te114  1  0.16768384  -0.00527181  0.35093686  1
  Te2-  Te115  1  0.16144115  0.00024273  0.64926652  1
  Te2-  Te116  1  0.16726062  0.33748039  0.00439713  1
  Te2-  Te117  1  0.16003663  0.34476739  0.33436227  1
  Te2-  Te118  1  0.16557727  0.34706705  0.66755237  1
  Te2-  Te119  1  0.17441175  0.66683216  0.00275290  1
  Te2-  Te120  1  0.18066374  0.65513222  0.33279718  1
  Te2-  Te121  1  0.16327151  0.66103950  0.66686639  1
  Te2-  Te122  1  0.49746218  0.00227656  -0.00007553  1
  Te2-  Te123  1  0.50049604  -0.00286386  0.34721709  1
  Te2-  Te124  1  0.49884723  -0.00127417  0.65436414  1
  Te2-  Te125  1  0.50149521  0.33542062  -0.00460111  1
  Te2-  Te126  1  0.50846729  0.33849001  0.32837660  1
  Te2-  Te127  1  0.49777846  0.34545859  0.66082186  1
  Te2-  Te128  1  0.50311116  0.66105590  -0.00575577  1
  Te2-  Te129  1  0.48812324  0.65968260  0.33653767  1
  Te2-  Te130  1  0.50231605  0.65609167  0.66630788  1
  Te2-  Te131  1  0.83344588  0.00408112  0.00727037  1
  Te2-  Te132  1  0.83692163  -0.00435101  0.32713979  1
  Te2-  Te133  1  0.83675117  -0.00413950  0.66579877  1
  Te2-  Te134  1  0.82882158  0.34276219  -0.01244850  1
  Te2-  Te135  1  0.83795593  0.32807327  0.33938089  1
  Te2-  Te136  1  0.84075601  0.32372619  0.67274468  1
  Te2-  Te137  1  0.82788726  0.65013557  -0.00301618  1
  Te2-  Te138  1  0.83246986  0.67354348  0.33249823  1
  Te2-  Te139  1  0.84047567  0.67106241  0.66664931  1
  Te2-  Te140  1  -0.00456879  0.16681679  -0.00867670  1
  Te2-  Te141  1  0.00886500  0.16980121  0.33611966  1
  Te2-  Te142  1  -0.00089058  0.16620072  0.67952514  1
  Te2-  Te143  1  0.00290047  0.51200132  0.01187767  1
  Te2-  Te144  1  -0.01736603  0.49644704  0.33344021  1
  Te2-  Te145  1  0.00375042  0.50203013  0.66071965  1
  Te2-  Te146  1  0.00208114  0.81624692  0.00107608  1
  Te2-  Te147  1  -0.00025439  0.82979240  0.33273750  1
  Te2-  Te148  1  0.00132308  0.83353344  0.66957755  1
  Te2-  Te149  1  0.34017680  0.17193366  0.00360567  1
  Te2-  Te150  1  0.32287187  0.17837049  0.34174105  1
  Te2-  Te151  1  0.33311248  0.16927296  0.65135799  1
  Te2-  Te152  1  0.33650035  0.50973172  0.00482389  1
  Te2-  Te153  1  0.33271039  0.48372061  0.34032407  1
  Te2-  Te154  1  0.32509229  0.50184317  0.64999724  1
  Te2-  Te155  1  0.33085833  0.81730823  -0.00460413  1
  Te2-  Te156  1  0.33713181  0.83309489  0.33707556  1
  Te2-  Te157  1  0.33495302  0.83683551  0.67553606  1
  Te2-  Te158  1  0.66713997  0.17183849  -0.00035225  1
  Te2-  Te159  1  0.66783043  0.16401406  0.34765677  1
  Te2-  Te160  1  0.67163691  0.16840467  0.66038180  1
  Te2-  Te161  1  0.66296710  0.50004479  0.00637520  1
  Te2-  Te162  1  0.68364953  0.49955650  0.33524528  1
  Te2-  Te163  1  0.67861200  0.49794696  0.66155934  1
  Te2-  Te164  1  0.66644982  0.83147844  0.00324447  1
  Te2-  Te165  1  0.66756725  0.83139811  0.33965871  1
  Te2-  Te166  1  0.67108467  0.82835594  0.66706548  1
  Te2-  Te167  1  0.01562256  -0.00778979  0.16975050  1
  Te2-  Te168  1  -0.00698681  0.00563238  0.50156598  1
  Te2-  Te169  1  -0.00011680  -0.00560587  0.82913519  1
  Te2-  Te170  1  -0.00719344  0.33627625  0.17380172  1
  Te2-  Te171  1  0.00717925  0.33328252  0.50285320  1
  Te2-  Te172  1  -0.00716026  0.33689208  0.82895623  1
  Te2-  Te173  1  -0.00787035  0.66722866  0.17309380  1
  Te2-  Te174  1  -0.00211171  0.66258550  0.50044658  1
  Te2-  Te175  1  -0.00530726  0.67026679  0.83031557  1
  Te2-  Te176  1  0.32385688  -0.00581375  0.17123964  1
  Te2-  Te177  1  0.34053852  -0.01588373  0.49944020  1
  Te2-  Te178  1  0.32866376  0.00747132  0.82791132  1
  Te2-  Te179  1  0.33806869  0.33451895  0.16695146  1
  Te2-  Te180  1  0.33691370  0.33952122  0.50077024  1
  Te2-  Te181  1  0.32707995  0.33372794  0.84379161  1
  Te2-  Te182  1  0.33684284  0.65922772  0.17588054  1
  Te2-  Te183  1  0.34046172  0.67420924  0.51086349  1
  Te2-  Te184  1  0.33367245  0.66694254  0.81725861  1
  Te2-  Te185  1  0.66089163  -0.00024308  0.16702244  1
  Te2-  Te186  1  0.66261829  0.00716547  0.51447840  1
  Te2-  Te187  1  0.66333970  -0.00603635  0.82185096  1
  Te2-  Te188  1  0.67320558  0.34005581  0.16416687  1
  Te2-  Te189  1  0.66109914  0.33205726  0.50519024  1
  Te2-  Te190  1  0.67048239  0.33697245  0.82775313  1
  Te2-  Te191  1  0.66550822  0.66388551  0.16914044  1
  Te2-  Te192  1  0.67085715  0.66203836  0.50032954  1
  Te2-  Te193  1  0.66753028  0.67545716  0.83828720  1
  Pb2+  Pb194  1  0.16749180  0.16559445  -0.00043999  1
  Pb2+  Pb195  1  0.00294845  0.50127315  0.83460673  1
  Pb2+  Pb196  1  0.66431445  0.50430544  0.83520487  1
  Pb2+  Pb197  1  0.16675141  0.17226579  0.66174354  1
  Pb2+  Pb198  1  0.33042435  0.49572922  0.82797071  1
  Pb2+  Pb199  1  0.49916283  0.82993677  -0.00416527  1
  Pb2+  Pb200  1  0.49502094  -0.00448275  0.82635667  1
  Pb2+  Pb201  1  -0.00362877  0.33814893  -0.00153537  1
  Pb2+  Pb202  1  0.00327040  0.83601532  0.50011801  1
  Pb2+  Pb203  1  0.83734960  0.16079582  0.33662179  1
  Pb2+  Pb204  1  0.66670127  0.00158527  -0.00926438  1
  Pb2+  Pb205  1  0.00023014  -0.00835490  -0.00071734  1
  Pb2+  Pb206  1  -0.00137743  0.16103389  0.16531185  1
  Pb2+  Pb207  1  0.66269867  0.17072103  0.82901482  1
  Pb2+  Pb208  1  0.16966738  0.82513809  0.33089247  1
  Pb2+  Pb209  1  0.33131855  -0.00536571  -0.00201692  1
  Pb2+  Pb210  1  0.16840035  0.33853805  0.16872292  1
  Pb2+  Pb211  1  0.83366777  0.82218208  0.00391181  1
  Pb2+  Pb212  1  0.50247601  0.17241941  0.65905055  1
  Pb2+  Pb213  1  0.66603044  0.17413559  0.17474788  1
  Pb2+  Pb214  1  0.33543062  0.16401821  0.17477269  1
  Pb2+  Pb215  1  0.66436115  0.83168388  0.17384065  1
