# generated using pymatgen
data_In22Ag21Sn22Bi21(Te54Pb11)2
_symmetry_space_group_name_H-M   'P 1'
_cell_length_a   19.15808331
_cell_length_b   19.16820588
_cell_length_c   19.13837698
_cell_angle_alpha   90.01008004
_cell_angle_beta   90.00647173
_cell_angle_gamma   89.99504144
_symmetry_Int_Tables_number   1
_chemical_formula_structural   In22Ag21Sn22Bi21(Te54Pb11)2
_chemical_formula_sum   'In22 Ag21 Sn22 Bi21 Te108 Pb22'
_cell_volume   7028.11107395
_cell_formula_units_Z   1
loop_
 _symmetry_equiv_pos_site_id
 _symmetry_equiv_pos_as_xyz
  1  'x, y, z'
loop_
 _atom_type_symbol
 _atom_type_oxidation_number
  In3+  3.0
  Ag+  1.0
  Sn2+  2.0
  Bi3+  3.0
  Te2-  -2.0
  Pb2+  2.0
loop_
 _atom_site_type_symbol
 _atom_site_label
 _atom_site_symmetry_multiplicity
 _atom_site_fract_x
 _atom_site_fract_y
 _atom_site_fract_z
 _atom_site_occupancy
  In3+  In0  1  0.31302905  0.33268264  0.33619025  1
  In3+  In1  1  0.16214664  0.14900989  0.32966259  1
  In3+  In2  1  0.83911452  0.83416088  0.34389514  1
  In3+  In3  1  0.84284579  0.50578486  0.67419213  1
  In3+  In4  1  0.00382201  0.33015683  -0.00518463  1
  In3+  In5  1  0.31498870  0.15428478  0.50589215  1
  In3+  In6  1  0.68130125  0.66401894  0.33706034  1
  In3+  In7  1  -0.00261035  0.16133826  0.81325886  1
  In3+  In8  1  0.84235238  -0.00886722  0.17784115  1
  In3+  In9  1  0.47858563  0.32381511  0.16958229  1
  In3+  In10  1  0.31724153  0.83716420  0.50128898  1
  In3+  In11  1  0.52720023  0.83111299  0.33372723  1
  In3+  In12  1  0.50076424  0.35069171  0.49131460  1
  In3+  In13  1  0.68528841  0.19688303  0.83296908  1
  In3+  In14  1  0.14860602  -0.01659510  0.49925193  1
  In3+  In15  1  0.83647874  0.16305490  0.34138779  1
  In3+  In16  1  0.31853902  0.83569758  0.18855186  1
  In3+  In17  1  -0.01645757  0.16924864  0.49691137  1
  In3+  In18  1  0.31712530  0.33508843  -0.00435724  1
  In3+  In19  1  0.50272205  0.49158216  0.66207591  1
  In3+  In20  1  0.84394722  -0.02264597  0.50103203  1
  In3+  In21  1  0.82904044  0.66421417  0.50799444  1
  Ag+  Ag22  1  0.83397679  0.14716965  0.65150599  1
  Ag+  Ag23  1  0.85386257  0.50173018  0.35841821  1
  Ag+  Ag24  1  0.16497385  0.80713776  0.02198490  1
  Ag+  Ag25  1  0.31831036  -0.02481347  0.66088733  1
  Ag+  Ag26  1  0.14585268  0.52076587  0.01394138  1
  Ag+  Ag27  1  0.14499960  0.86139724  0.66510525  1
  Ag+  Ag28  1  0.85256996  0.31608855  0.80520542  1
  Ag+  Ag29  1  0.14267738  0.68016744  0.19107605  1
  Ag+  Ag30  1  0.68910820  0.49904261  0.80292742  1
  Ag+  Ag31  1  0.01675308  0.80520271  0.49961563  1
  Ag+  Ag32  1  0.68948057  0.84032488  0.14117618  1
  Ag+  Ag33  1  0.19514709  -0.02843728  0.13419180  1
  Ag+  Ag34  1  0.18052416  0.36637281  0.17327112  1
  Ag+  Ag35  1  0.69003317  0.84707813  0.50384194  1
  Ag+  Ag36  1  0.85823675  0.85639516  0.69231310  1
  Ag+  Ag37  1  0.69358223  0.46984062  0.51553286  1
  Ag+  Ag38  1  0.01005632  -0.02493717  0.33739287  1
  Ag+  Ag39  1  0.14390732  0.47609698  0.66680380  1
  Ag+  Ag40  1  0.17719275  0.85168941  0.31746518  1
  Ag+  Ag41  1  0.01792495  0.69995593  -0.00517831  1
  Ag+  Ag42  1  0.15148194  0.50329331  0.30698134  1
  Sn2+  Sn43  1  0.50618518  0.16632920  0.66402228  1
  Sn2+  Sn44  1  0.00104984  0.50062814  0.16233975  1
  Sn2+  Sn45  1  0.50815874  -0.01118443  0.16709937  1
  Sn2+  Sn46  1  0.50127983  0.83343448  0.65692771  1
  Sn2+  Sn47  1  0.67750415  0.66308862  0.00318051  1
  Sn2+  Sn48  1  0.16379017  0.16577965  0.66571103  1
  Sn2+  Sn49  1  0.16544303  0.66081924  0.49660923  1
  Sn2+  Sn50  1  -0.00184060  0.83170355  0.17617332  1
  Sn2+  Sn51  1  0.66801190  0.16141427  0.50735987  1
  Sn2+  Sn52  1  0.67157759  0.34305593  0.33381673  1
  Sn2+  Sn53  1  0.51067560  0.66065132  0.83432993  1
  Sn2+  Sn54  1  0.00391902  0.50075811  0.49331623  1
  Sn2+  Sn55  1  0.66792969  0.33090419  0.66654826  1
  Sn2+  Sn56  1  0.16384235  0.33671599  0.84136993  1
  Sn2+  Sn57  1  0.00633939  0.67386655  0.67258709  1
  Sn2+  Sn58  1  0.16742231  -0.00381797  0.82868431  1
  Sn2+  Sn59  1  0.00197080  0.00057321  0.02146125  1
  Sn2+  Sn60  1  0.82882660  0.34112080  0.50206074  1
  Sn2+  Sn61  1  0.32932125  0.50181691  0.83390063  1
  Sn2+  Sn62  1  0.32629639  0.33706831  0.66579300  1
  Sn2+  Sn63  1  0.50974965  0.67591470  0.50178735  1
  Sn2+  Sn64  1  0.32437650  0.50921324  0.16815241  1
  Bi3+  Bi65  1  0.49991504  0.50440778  0.33216795  1
  Bi3+  Bi66  1  0.32941393  0.83362031  0.82740240  1
  Bi3+  Bi67  1  0.66494950  0.50856729  0.17101514  1
  Bi3+  Bi68  1  -0.00122636  0.33531582  0.33023166  1
  Bi3+  Bi69  1  0.16368207  0.16815332  0.00513511  1
  Bi3+  Bi70  1  0.16815087  0.66243380  0.82453618  1
  Bi3+  Bi71  1  0.83603679  0.66564865  0.83195578  1
  Bi3+  Bi72  1  0.66851438  0.33475661  0.00368647  1
  Bi3+  Bi73  1  0.33092161  0.50137277  0.50129016  1
  Bi3+  Bi74  1  -0.00074458  0.66664851  0.33115342  1
  Bi3+  Bi75  1  0.83630381  0.66467986  0.16712435  1
  Bi3+  Bi76  1  -0.00166367  0.16600309  0.17335366  1
  Bi3+  Bi77  1  0.83380956  0.33433178  0.17068368  1
  Bi3+  Bi78  1  0.50241976  -0.00003897  0.49862480  1
  Bi3+  Bi79  1  0.32629803  0.16906031  0.82672759  1
  Bi3+  Bi80  1  0.66656858  -0.00554523  0.00130089  1
  Bi3+  Bi81  1  0.33022169  0.66503323  0.66492560  1
  Bi3+  Bi82  1  0.66999512  0.00189489  0.33402188  1
  Bi3+  Bi83  1  0.66499551  0.66735341  0.66174562  1
  Bi3+  Bi84  1  0.50039154  0.66637710  0.17099468  1
  Bi3+  Bi85  1  0.49777028  0.50170233  0.00006455  1
  Te2-  Te86  1  0.16006933  0.15872512  0.17406406  1
  Te2-  Te87  1  0.16698144  0.16929654  0.49344494  1
  Te2-  Te88  1  0.16352882  0.16880634  0.83633857  1
  Te2-  Te89  1  0.17060338  0.51193638  0.15840739  1
  Te2-  Te90  1  0.17057618  0.49925916  0.51620329  1
  Te2-  Te91  1  0.17072712  0.49590563  0.81536834  1
  Te2-  Te92  1  0.16438987  0.83187487  0.17148576  1
  Te2-  Te93  1  0.16277323  0.83398476  0.51402565  1
  Te2-  Te94  1  0.16884426  0.83497548  0.81321057  1
  Te2-  Te95  1  0.49736781  0.16541341  0.17019760  1
  Te2-  Te96  1  0.50466327  0.16302040  0.50448468  1
  Te2-  Te97  1  0.49139733  0.16815134  0.82820472  1
  Te2-  Te98  1  0.49937277  0.50213225  0.16878092  1
  Te2-  Te99  1  0.49765557  0.50450876  0.49540613  1
  Te2-  Te100  1  0.49476231  0.50156913  0.83718758  1
  Te2-  Te101  1  0.49954502  0.82908186  0.17850850  1
  Te2-  Te102  1  0.48946230  0.83715431  0.48809485  1
  Te2-  Te103  1  0.49350661  0.82939304  0.83283691  1
  Te2-  Te104  1  0.83489900  0.16772632  0.17593873  1
  Te2-  Te105  1  0.83202542  0.17692294  0.50593223  1
  Te2-  Te106  1  0.83777702  0.17159199  0.82856111  1
  Te2-  Te107  1  0.82756079  0.50218189  0.16975049  1
  Te2-  Te108  1  0.83239780  0.51004411  0.50387407  1
  Te2-  Te109  1  0.83267708  0.50374102  0.82925651  1
  Te2-  Te110  1  0.83263781  0.83040021  0.17367683  1
  Te2-  Te111  1  0.83559880  0.82446530  0.49692898  1
  Te2-  Te112  1  0.83479646  0.82978115  0.83403539  1
  Te2-  Te113  1  0.16158423  0.00762861  -0.00352181  1
  Te2-  Te114  1  0.15886697  -0.00547123  0.34638145  1
  Te2-  Te115  1  0.17276204  0.00789500  0.65422404  1
  Te2-  Te116  1  0.16388129  0.33022988  0.00906416  1
  Te2-  Te117  1  0.16246851  0.35125309  0.32262659  1
  Te2-  Te118  1  0.16516304  0.32781654  0.66813922  1
  Te2-  Te119  1  0.15955533  0.66315945  -0.01587929  1
  Te2-  Te120  1  0.15911181  0.65268830  0.33391478  1
  Te2-  Te121  1  0.16809147  0.66617759  0.66437382  1
  Te2-  Te122  1  0.50101163  -0.00152349  0.00211192  1
  Te2-  Te123  1  0.50333493  -0.00346248  0.33345324  1
  Te2-  Te124  1  0.49701564  0.00003448  0.65983206  1
  Te2-  Te125  1  0.50571742  0.33792323  0.00809681  1
  Te2-  Te126  1  0.50403718  0.33791001  0.33050445  1
  Te2-  Te127  1  0.50148371  0.33634835  0.66029493  1
  Te2-  Te128  1  0.50086842  0.66444163  0.00476386  1
  Te2-  Te129  1  0.49694340  0.67077429  0.33353973  1
  Te2-  Te130  1  0.50086456  0.66383987  0.66732221  1
  Te2-  Te131  1  0.82963354  0.00026887  0.00529149  1
  Te2-  Te132  1  0.83132259  0.00243455  0.33961359  1
  Te2-  Te133  1  0.83246624  -0.00376239  0.65445615  1
  Te2-  Te134  1  0.83082213  0.33341058  0.00556944  1
  Te2-  Te135  1  0.83546507  0.35039202  0.33424583  1
  Te2-  Te136  1  0.82737445  0.35025537  0.66521168  1
  Te2-  Te137  1  0.84091220  0.66767162  0.00130825  1
  Te2-  Te138  1  0.83642048  0.65298997  0.32984921  1
  Te2-  Te139  1  0.83027904  0.66348353  0.66710129  1
  Te2-  Te140  1  0.00233523  0.16925637  0.00771351  1
  Te2-  Te141  1  0.00091323  0.17300125  0.33795953  1
  Te2-  Te142  1  -0.01263576  0.16603718  0.66053838  1
  Te2-  Te143  1  0.00484368  0.48493250  0.00150007  1
  Te2-  Te144  1  0.00130119  0.50083833  0.33034101  1
  Te2-  Te145  1  -0.00254774  0.50310916  0.66458463  1
  Te2-  Te146  1  0.01501282  0.84553989  0.00418637  1
  Te2-  Te147  1  -0.00773683  0.82695736  0.34733582  1
  Te2-  Te148  1  -0.00315299  0.82887553  0.65207916  1
  Te2-  Te149  1  0.32941607  0.17034932  -0.00317201  1
  Te2-  Te150  1  0.32752224  0.17380154  0.34107480  1
  Te2-  Te151  1  0.33404746  0.17719592  0.66370983  1
  Te2-  Te152  1  0.33597816  0.49018495  0.00108210  1
  Te2-  Te153  1  0.33747220  0.49098262  0.33647395  1
  Te2-  Te154  1  0.34385424  0.50141151  0.66412607  1
  Te2-  Te155  1  0.31548601  0.83330520  -0.01117666  1
  Te2-  Te156  1  0.32017163  0.83274664  0.34357110  1
  Te2-  Te157  1  0.33916141  0.82791717  0.66088096  1
  Te2-  Te158  1  0.66587603  0.16574279  -0.00589125  1
  Te2-  Te159  1  0.67321303  0.16538802  0.33563415  1
  Te2-  Te160  1  0.67947281  0.17031727  0.67781804  1
  Te2-  Te161  1  0.66222241  0.50134800  0.00715372  1
  Te2-  Te162  1  0.66118836  0.50957798  0.33348954  1
  Te2-  Te163  1  0.65389469  0.50433078  0.65617889  1
  Te2-  Te164  1  0.66293701  0.83249238  -0.00219261  1
  Te2-  Te165  1  0.67952212  0.83674226  0.34717037  1
  Te2-  Te166  1  0.66144349  0.82742465  0.65428659  1
  Te2-  Te167  1  -0.00617769  0.00131858  0.18707005  1
  Te2-  Te168  1  -0.00477052  0.01057816  0.48701887  1
  Te2-  Te169  1  -0.00036367  0.00802153  0.83030386  1
  Te2-  Te170  1  -0.00465011  0.33142832  0.16817217  1
  Te2-  Te171  1  -0.00119576  0.33061767  0.49497126  1
  Te2-  Te172  1  -0.00392627  0.32535033  0.83663101  1
  Te2-  Te173  1  -0.00168926  0.66863653  0.15988934  1
  Te2-  Te174  1  -0.00545925  0.65971048  0.49774456  1
  Te2-  Te175  1  0.00062705  0.66839710  0.84228001  1
  Te2-  Te176  1  0.33544686  -0.00932640  0.16880395  1
  Te2-  Te177  1  0.33674399  0.00259851  0.51008401  1
  Te2-  Te178  1  0.32789295  0.00375508  0.81659132  1
  Te2-  Te179  1  0.32505100  0.33449887  0.16993090  1
  Te2-  Te180  1  0.34208519  0.33748603  0.49525246  1
  Te2-  Te181  1  0.33226458  0.33091497  0.83803642  1
  Te2-  Te182  1  0.33639834  0.67887268  0.16645165  1
  Te2-  Te183  1  0.33440342  0.66702503  0.50337199  1
  Te2-  Te184  1  0.33517622  0.66711971  0.82901767  1
  Te2-  Te185  1  0.67076173  -0.01054474  0.16735449  1
  Te2-  Te186  1  0.66826073  -0.00326167  0.49562891  1
  Te2-  Te187  1  0.66562053  -0.00480404  0.83690654  1
  Te2-  Te188  1  0.67152801  0.33606949  0.16721272  1
  Te2-  Te189  1  0.65802901  0.33067184  0.49641261  1
  Te2-  Te190  1  0.67191127  0.34905928  0.83846644  1
  Te2-  Te191  1  0.66817000  0.67497074  0.17195187  1
  Te2-  Te192  1  0.67152654  0.67197396  0.49501063  1
  Te2-  Te193  1  0.67154223  0.65321640  0.83126143  1
  Pb2+  Pb194  1  0.50611538  0.33503211  0.83128055  1
  Pb2+  Pb195  1  0.32567905  0.66061866  0.33324831  1
  Pb2+  Pb196  1  0.66320464  -0.00127415  0.66611927  1
  Pb2+  Pb197  1  0.32264196  0.66326717  0.00045532  1
  Pb2+  Pb198  1  0.00347717  0.49937202  0.83460700  1
  Pb2+  Pb199  1  0.50121658  0.16991320  0.33944008  1
  Pb2+  Pb200  1  0.66705383  0.16233877  0.16716925  1
  Pb2+  Pb201  1  0.83069559  0.00392413  0.83069893  1
  Pb2+  Pb202  1  0.00342310  -0.00560227  0.66104687  1
  Pb2+  Pb203  1  -0.00395809  0.33438650  0.66390949  1
  Pb2+  Pb204  1  0.49854739  0.17073637  -0.00162992  1
  Pb2+  Pb205  1  0.16962070  0.33534565  0.49289463  1
  Pb2+  Pb206  1  0.32855174  0.00194590  0.34050807  1
  Pb2+  Pb207  1  0.32690280  -0.00305565  -0.00879759  1
  Pb2+  Pb208  1  0.32455918  0.16378135  0.16897142  1
  Pb2+  Pb209  1  0.83563760  0.50015943  0.00117968  1
  Pb2+  Pb210  1  0.48691747  0.83099681  0.00648570  1
  Pb2+  Pb211  1  0.00512299  0.83558778  0.83092888  1
  Pb2+  Pb212  1  0.84268167  0.83415629  0.00265049  1
  Pb2+  Pb213  1  0.83572523  0.16830744  0.00202965  1
  Pb2+  Pb214  1  0.66258024  0.82481300  0.82478275  1
  Pb2+  Pb215  1  0.49785449  -0.00083622  0.82727390  1
