# generated using pymatgen
data_In22Ag21Sn22Bi21(Te54Pb11)2
_symmetry_space_group_name_H-M   'P 1'
_cell_length_a   19.13387929
_cell_length_b   19.14184105
_cell_length_c   19.13712451
_cell_angle_alpha   90.00160776
_cell_angle_beta   90.00229364
_cell_angle_gamma   90.00173492
_symmetry_Int_Tables_number   1
_chemical_formula_structural   In22Ag21Sn22Bi21(Te54Pb11)2
_chemical_formula_sum   'In22 Ag21 Sn22 Bi21 Te108 Pb22'
_cell_volume   7009.11873651
_cell_formula_units_Z   1
loop_
 _symmetry_equiv_pos_site_id
 _symmetry_equiv_pos_as_xyz
  1  'x, y, z'
loop_
 _atom_type_symbol
 _atom_type_oxidation_number
  In3+  3.0
  Ag+  1.0
  Sn2+  2.0
  Bi3+  3.0
  Te2-  -2.0
  Pb2+  2.0
loop_
 _atom_site_type_symbol
 _atom_site_label
 _atom_site_symmetry_multiplicity
 _atom_site_fract_x
 _atom_site_fract_y
 _atom_site_fract_z
 _atom_site_occupancy
  In3+  In0  1  0.33368697  0.16412191  0.84628134  1
  In3+  In1  1  0.01923170  0.34811758  0.33709305  1
  In3+  In2  1  0.49387051  0.15465253  0.33251732  1
  In3+  In3  1  0.65656658  -0.00449154  -0.01065730  1
  In3+  In4  1  0.84349435  0.67258137  0.85856550  1
  In3+  In5  1  0.49843285  0.65090052  0.15814064  1
  In3+  In6  1  0.84686787  0.49723938  0.00359541  1
  In3+  In7  1  0.19469367  0.47893217  0.33165965  1
  In3+  In8  1  0.65254137  -0.00239834  0.67882091  1
  In3+  In9  1  0.18338193  0.33828833  0.15147039  1
  In3+  In10  1  0.16717384  0.15438582  0.01681645  1
  In3+  In11  1  0.66400914  0.52612311  0.83612026  1
  In3+  In12  1  0.65131671  0.16753394  0.83202512  1
  In3+  In13  1  0.49754299  0.49243116  -0.00012964  1
  In3+  In14  1  0.66138420  0.50030366  0.48460533  1
  In3+  In15  1  0.48838387  0.16612280  0.68352014  1
  In3+  In16  1  0.32674187  0.15317483  0.49824933  1
  In3+  In17  1  0.34550949  0.82340367  0.84888197  1
  In3+  In18  1  0.84135263  0.83070193  0.32621131  1
  In3+  In19  1  0.33091531  0.66455441  0.00528216  1
  In3+  In20  1  0.33122638  -0.00672524  0.67479658  1
  In3+  In21  1  0.33240059  0.49705695  0.48827554  1
  Ag+  Ag22  1  0.64140798  0.01998000  0.32628759  1
  Ag+  Ag23  1  0.49481052  0.00173280  0.84816162  1
  Ag+  Ag24  1  0.49846112  0.47620238  0.35369986  1
  Ag+  Ag25  1  0.03963287  0.80460230  0.86051524  1
  Ag+  Ag26  1  0.31701850  0.16694667  0.14953776  1
  Ag+  Ag27  1  0.14564529  0.16894854  0.31269710  1
  Ag+  Ag28  1  0.30235580  0.03177417  0.30456153  1
  Ag+  Ag29  1  0.32979184  0.52095824  0.14920098  1
  Ag+  Ag30  1  0.65968244  0.84731606  0.84984674  1
  Ag+  Ag31  1  0.19595649  -0.02446480  0.14242534  1
  Ag+  Ag32  1  0.15634298  0.79867840  -0.00582399  1
  Ag+  Ag33  1  0.31174974  0.63735203  0.69591687  1
  Ag+  Ag34  1  0.02253106  0.83154668  0.47913583  1
  Ag+  Ag35  1  0.02812851  0.64325986  0.32856955  1
  Ag+  Ag36  1  0.14712527  0.49973818  -0.02466533  1
  Ag+  Ag37  1  0.18127028  0.35554395  0.50303568  1
  Ag+  Ag38  1  0.86063248  0.69118129  0.17014503  1
  Ag+  Ag39  1  0.32779626  0.01971327  0.01436666  1
  Ag+  Ag40  1  0.49936274  0.34785471  0.83538550  1
  Ag+  Ag41  1  0.80544921  0.16079646  0.01655216  1
  Ag+  Ag42  1  0.49677355  0.64897022  0.83505595  1
  Sn2+  Sn43  1  -0.00152798  0.67525956  0.65236245  1
  Sn2+  Sn44  1  -0.00163500  -0.00800194  0.66904009  1
  Sn2+  Sn45  1  0.83500280  -0.00559119  0.83078926  1
  Sn2+  Sn46  1  0.49472121  0.33619435  0.16218313  1
  Sn2+  Sn47  1  0.00840952  0.50279216  0.17257368  1
  Sn2+  Sn48  1  0.16634921  0.66149584  0.16535296  1
  Sn2+  Sn49  1  0.16797978  0.17150771  0.65942254  1
  Sn2+  Sn50  1  0.66547361  0.16322132  0.16590929  1
  Sn2+  Sn51  1  0.50002454  0.16779118  0.00721239  1
  Sn2+  Sn52  1  0.00500575  0.33222317  0.66377838  1
  Sn2+  Sn53  1  0.49545797  0.83202787  -0.00264117  1
  Sn2+  Sn54  1  -0.00113544  0.33174827  0.00994688  1
  Sn2+  Sn55  1  0.66207147  0.32731675  0.33674420  1
  Sn2+  Sn56  1  0.33218217  0.33562634  0.67099127  1
  Sn2+  Sn57  1  0.00286185  0.17158727  0.16360272  1
  Sn2+  Sn58  1  0.84291460  0.67118765  0.49075293  1
  Sn2+  Sn59  1  0.33289121  0.67164216  0.33574843  1
  Sn2+  Sn60  1  0.83319379  -0.00244912  0.49644008  1
  Sn2+  Sn61  1  0.17028681  0.50488787  0.66298367  1
  Sn2+  Sn62  1  0.50022862  0.66795848  0.50193654  1
  Sn2+  Sn63  1  0.00774852  0.15862632  0.49368898  1
  Sn2+  Sn64  1  0.49580966  0.82952044  0.67932392  1
  Bi3+  Bi65  1  0.17161858  0.00254542  0.83462057  1
  Bi3+  Bi66  1  0.49921033  0.83140495  0.33422905  1
  Bi3+  Bi67  1  0.33579402  0.83076242  0.49865436  1
  Bi3+  Bi68  1  0.50292620  0.00329354  0.16209275  1
  Bi3+  Bi69  1  0.65958863  0.67166924  -0.00323036  1
  Bi3+  Bi70  1  0.83298362  0.33151416  0.16559764  1
  Bi3+  Bi71  1  0.83437256  0.00074842  0.16426338  1
  Bi3+  Bi72  1  -0.00069792  0.00201572  0.33465929  1
  Bi3+  Bi73  1  0.66823501  0.83345650  0.49937395  1
  Bi3+  Bi74  1  0.33831008  0.32805209  0.33715288  1
  Bi3+  Bi75  1  0.66575108  0.32863808  0.66924129  1
  Bi3+  Bi76  1  0.66915250  0.16426851  0.50164128  1
  Bi3+  Bi77  1  0.83237368  0.33529507  0.49680102  1
  Bi3+  Bi78  1  0.16551114  0.00048224  0.49613582  1
  Bi3+  Bi79  1  0.66111319  0.66777940  0.33412380  1
  Bi3+  Bi80  1  0.17065230  0.66809530  0.49750723  1
  Bi3+  Bi81  1  0.83105669  0.83185977  0.66631930  1
  Bi3+  Bi82  1  0.33465352  0.83819348  0.16522125  1
  Bi3+  Bi83  1  0.83376296  0.16313953  0.67008080  1
  Bi3+  Bi84  1  0.00526190  0.16563538  0.82685865  1
  Bi3+  Bi85  1  0.66254788  0.67013950  0.66822152  1
  Te2-  Te86  1  0.17153457  0.18276969  0.16902328  1
  Te2-  Te87  1  0.16985503  0.16178958  0.50007088  1
  Te2-  Te88  1  0.17265055  0.16517342  0.82700339  1
  Te2-  Te89  1  0.18136930  0.49192342  0.18052220  1
  Te2-  Te90  1  0.17131525  0.50468384  0.49161739  1
  Te2-  Te91  1  0.16930633  0.49923042  0.82849488  1
  Te2-  Te92  1  0.17327778  0.83101850  0.15638517  1
  Te2-  Te93  1  0.17024061  0.83359080  0.50013618  1
  Te2-  Te94  1  0.18144303  0.83872083  0.84611415  1
  Te2-  Te95  1  0.50386276  0.16568723  0.17222380  1
  Te2-  Te96  1  0.50745940  0.16632825  0.49527042  1
  Te2-  Te97  1  0.49449915  0.15123250  0.83536522  1
  Te2-  Te98  1  0.48410620  0.49767608  0.15805715  1
  Te2-  Te99  1  0.49890806  0.50209674  0.50044923  1
  Te2-  Te100  1  0.50518448  0.49776681  0.83968711  1
  Te2-  Te101  1  0.49565488  0.83827929  0.16778480  1
  Te2-  Te102  1  0.50117372  0.83281602  0.50058962  1
  Te2-  Te103  1  0.49657753  0.85282193  0.83600198  1
  Te2-  Te104  1  0.83446054  0.16714405  0.16124533  1
  Te2-  Te105  1  0.83333047  0.16838052  0.50428912  1
  Te2-  Te106  1  0.84258387  0.16107704  0.82982424  1
  Te2-  Te107  1  0.83163024  0.49217447  0.15720180  1
  Te2-  Te108  1  0.82619558  0.49955044  0.49836998  1
  Te2-  Te109  1  0.82482081  0.50446996  0.84647611  1
  Te2-  Te110  1  0.83239207  0.83726265  0.16273136  1
  Te2-  Te111  1  0.82986244  0.83142163  0.50107491  1
  Te2-  Te112  1  0.82093168  0.83017300  0.82859592  1
  Te2-  Te113  1  0.17893039  0.00611800  -0.00085538  1
  Te2-  Te114  1  0.16123626  0.01302414  0.33516134  1
  Te2-  Te115  1  0.16940872  0.00290395  0.66568774  1
  Te2-  Te116  1  0.16517194  0.35066424  0.00106894  1
  Te2-  Te117  1  0.17025071  0.32755762  0.35150225  1
  Te2-  Te118  1  0.16221710  0.33765030  0.65399515  1
  Te2-  Te119  1  0.17090024  0.65071084  0.00321594  1
  Te2-  Te120  1  0.17275989  0.66831475  0.33491052  1
  Te2-  Te121  1  0.16959511  0.66736481  0.66349468  1
  Te2-  Te122  1  0.49856747  0.00098515  0.00020753  1
  Te2-  Te123  1  0.49635115  -0.00220033  0.32860058  1
  Te2-  Te124  1  0.50038075  0.00872177  0.67013754  1
  Te2-  Te125  1  0.49909614  0.33393158  -0.00874600  1
  Te2-  Te126  1  0.50116546  0.32964164  0.33173741  1
  Te2-  Te127  1  0.50401549  0.32349440  0.67860901  1
  Te2-  Te128  1  0.49785910  0.67068850  -0.00464756  1
  Te2-  Te129  1  0.49946241  0.67014425  0.32879603  1
  Te2-  Te130  1  0.50379810  0.66856216  0.67552496  1
  Te2-  Te131  1  0.82659216  0.00964547  0.00070586  1
  Te2-  Te132  1  0.83669423  -0.00758144  0.32865343  1
  Te2-  Te133  1  0.82951883  -0.00099434  0.66659044  1
  Te2-  Te134  1  0.83423201  0.32360570  0.00270136  1
  Te2-  Te135  1  0.82548463  0.33584012  0.33292553  1
  Te2-  Te136  1  0.83192654  0.33107923  0.66496498  1
  Te2-  Te137  1  0.82488025  0.66380343  0.01290181  1
  Te2-  Te138  1  0.82334743  0.67350547  0.32072207  1
  Te2-  Te139  1  0.82703293  0.66875676  0.66188435  1
  Te2-  Te140  1  0.01393928  0.17103770  -0.00678326  1
  Te2-  Te141  1  0.00054576  0.16754212  0.33409289  1
  Te2-  Te142  1  -0.00165348  0.16467573  0.66343779  1
  Te2-  Te143  1  0.00094148  0.50018406  0.00364151  1
  Te2-  Te144  1  -0.00439914  0.50095910  0.33178038  1
  Te2-  Te145  1  0.00102472  0.50588175  0.66520531  1
  Te2-  Te146  1  0.01006956  0.83395346  0.00013069  1
  Te2-  Te147  1  -0.00397718  0.83631912  0.33440181  1
  Te2-  Te148  1  -0.00671115  0.83129859  0.67216487  1
  Te2-  Te149  1  0.32893492  0.16689096  0.00138757  1
  Te2-  Te150  1  0.34039589  0.16721754  0.34595440  1
  Te2-  Te151  1  0.33817239  0.16860204  0.65299937  1
  Te2-  Te152  1  0.34097577  0.50754901  0.00272746  1
  Te2-  Te153  1  0.34725973  0.49670158  0.33410488  1
  Te2-  Te154  1  0.33293087  0.49632472  0.66515952  1
  Te2-  Te155  1  0.32774991  0.82260057  0.00258362  1
  Te2-  Te156  1  0.33646737  0.83962143  0.33286451  1
  Te2-  Te157  1  0.33482635  0.83966480  0.66070387  1
  Te2-  Te158  1  0.66142951  0.15974651  -0.00841726  1
  Te2-  Te159  1  0.66607936  0.16591144  0.33879620  1
  Te2-  Te160  1  0.66979524  0.16198825  0.66738457  1
  Te2-  Te161  1  0.65463958  0.50622241  -0.00579248  1
  Te2-  Te162  1  0.64810423  0.50164699  0.33037943  1
  Te2-  Te163  1  0.66734982  0.49691942  0.68162841  1
  Te2-  Te164  1  0.66513701  0.83689793  -0.00336957  1
  Te2-  Te165  1  0.66470683  0.82935890  0.33817921  1
  Te2-  Te166  1  0.66468262  0.83680884  0.66092336  1
  Te2-  Te167  1  -0.00099315  0.00872369  0.16834213  1
  Te2-  Te168  1  0.00226521  -0.01273748  0.50024007  1
  Te2-  Te169  1  0.00614135  0.00240843  0.83172595  1
  Te2-  Te170  1  -0.00316463  0.33481080  0.17721794  1
  Te2-  Te171  1  -0.00693929  0.33175969  0.49238895  1
  Te2-  Te172  1  -0.00029717  0.33138637  0.83188983  1
  Te2-  Te173  1  0.00351447  0.66307199  0.17954140  1
  Te2-  Te174  1  0.00458491  0.67719976  0.48780002  1
  Te2-  Te175  1  -0.00549640  0.66893395  0.83170367  1
  Te2-  Te176  1  0.33762653  0.00727627  0.16423628  1
  Te2-  Te177  1  0.33149632  -0.00250083  0.50538535  1
  Te2-  Te178  1  0.33469007  0.00974317  0.82743777  1
  Te2-  Te179  1  0.33432909  0.31828130  0.17420667  1
  Te2-  Te180  1  0.32946976  0.34095284  0.50067940  1
  Te2-  Te181  1  0.34470893  0.32151454  0.82970199  1
  Te2-  Te182  1  0.33759038  0.67007322  0.16409526  1
  Te2-  Te183  1  0.33476869  0.66727517  0.50233357  1
  Te2-  Te184  1  0.34657147  0.67194119  0.83331075  1
  Te2-  Te185  1  0.66819770  0.00380491  0.17682863  1
  Te2-  Te186  1  0.67127561  -0.00021158  0.49009139  1
  Te2-  Te187  1  0.66313125  -0.00327885  0.83460930  1
  Te2-  Te188  1  0.66583060  0.32833853  0.16661727  1
  Te2-  Te189  1  0.66724370  0.33440691  0.50568400  1
  Te2-  Te190  1  0.65611860  0.32094178  0.83046570  1
  Te2-  Te191  1  0.65460132  0.66487211  0.16246521  1
  Te2-  Te192  1  0.66727703  0.66413713  0.50212492  1
  Te2-  Te193  1  0.64940174  0.67852061  0.83152735  1
  Pb2+  Pb194  1  0.17008005  0.33108682  0.82875379  1
  Pb2+  Pb195  1  0.16353389  0.83621797  0.67384250  1
  Pb2+  Pb196  1  0.00003233  0.50493750  0.49895510  1
  Pb2+  Pb197  1  0.50106611  0.50076961  0.66881926  1
  Pb2+  Pb198  1  0.00291227  0.00306811  -0.00007809  1
  Pb2+  Pb199  1  0.33687976  0.49788427  0.83560576  1
  Pb2+  Pb200  1  0.82403413  0.50536258  0.32725840  1
  Pb2+  Pb201  1  0.82799578  0.32903770  0.83477043  1
  Pb2+  Pb202  1  0.83394820  0.16474232  0.33089828  1
  Pb2+  Pb203  1  0.83337969  0.50340000  0.67037145  1
  Pb2+  Pb204  1  -0.00266050  0.50046067  0.83278731  1
  Pb2+  Pb205  1  0.49484617  0.33131869  0.50569434  1
  Pb2+  Pb206  1  0.66341522  0.83456316  0.16764434  1
  Pb2+  Pb207  1  -0.00176200  0.66875656  0.00889414  1
  Pb2+  Pb208  1  0.50235564  0.00103059  0.50139929  1
  Pb2+  Pb209  1  0.33210022  0.33722350  0.00189157  1
  Pb2+  Pb210  1  0.66665927  0.33416154  -0.00138024  1
  Pb2+  Pb211  1  0.17180540  0.66920430  0.83596344  1
  Pb2+  Pb212  1  0.83670150  0.84170697  -0.00814029  1
  Pb2+  Pb213  1  0.00486590  0.83935833  0.16824835  1
  Pb2+  Pb214  1  0.65878780  0.49733306  0.16289389  1
  Pb2+  Pb215  1  0.16901769  0.84180429  0.32647383  1
