# generated using pymatgen
data_In22Ag21Sn22Bi21(Te54Pb11)2
_symmetry_space_group_name_H-M   'P 1'
_cell_length_a   19.13364331
_cell_length_b   19.11842130
_cell_length_c   19.13064400
_cell_angle_alpha   90.00832239
_cell_angle_beta   89.98028228
_cell_angle_gamma   89.99750286
_symmetry_Int_Tables_number   1
_chemical_formula_structural   In22Ag21Sn22Bi21(Te54Pb11)2
_chemical_formula_sum   'In22 Ag21 Sn22 Bi21 Te108 Pb22'
_cell_volume   6998.08576221
_cell_formula_units_Z   1
loop_
 _symmetry_equiv_pos_site_id
 _symmetry_equiv_pos_as_xyz
  1  'x, y, z'
loop_
 _atom_type_symbol
 _atom_type_oxidation_number
  In3+  3.0
  Ag+  1.0
  Sn2+  2.0
  Bi3+  3.0
  Te2-  -2.0
  Pb2+  2.0
loop_
 _atom_site_type_symbol
 _atom_site_label
 _atom_site_symmetry_multiplicity
 _atom_site_fract_x
 _atom_site_fract_y
 _atom_site_fract_z
 _atom_site_occupancy
  In3+  In0  1  0.00514189  0.16723122  0.17151720  1
  In3+  In1  1  0.16827037  0.86627987  -0.01024274  1
  In3+  In2  1  0.00112926  0.32789792  0.31760295  1
  In3+  In3  1  0.83124298  0.65284013  0.17234756  1
  In3+  In4  1  -0.00161601  0.31541120  0.66417286  1
  In3+  In5  1  0.81305159  0.33386361  0.48648036  1
  In3+  In6  1  0.82240187  0.00700247  0.83523702  1
  In3+  In7  1  -0.00289822  0.63920177  -0.00531051  1
  In3+  In8  1  0.00620433  -0.01287644  0.35583510  1
  In3+  In9  1  0.16466217  0.69476611  0.49963618  1
  In3+  In10  1  0.47420575  0.00462098  0.48889181  1
  In3+  In11  1  0.15506252  0.32026193  0.49761956  1
  In3+  In12  1  0.83341295  0.00863813  0.17334569  1
  In3+  In13  1  0.01743560  0.16670529  0.83992115  1
  In3+  In14  1  0.50196513  0.84227077  0.65734372  1
  In3+  In15  1  0.34501424  0.31945195  0.32936551  1
  In3+  In16  1  0.16312654  0.66409752  0.15156191  1
  In3+  In17  1  0.82220430  0.82922528  0.33143911  1
  In3+  In18  1  0.16354684  0.32360947  0.84438241  1
  In3+  In19  1  0.66419943  0.17896497  0.83711342  1
  In3+  In20  1  0.33092928  0.68661283  0.67549944  1
  In3+  In21  1  0.32746389  0.84932409  0.84501055  1
  Ag+  Ag22  1  -0.00542206  0.32765241  0.01388643  1
  Ag+  Ag23  1  0.52897292  0.15958567  0.31602979  1
  Ag+  Ag24  1  0.15102390  0.17368429  -0.01122070  1
  Ag+  Ag25  1  0.70062970  0.35881093  0.69491854  1
  Ag+  Ag26  1  0.02130676  0.01516278  0.68748580  1
  Ag+  Ag27  1  0.52786813  0.45910651  0.31330153  1
  Ag+  Ag28  1  0.52783442  0.80524252  0.36426191  1
  Ag+  Ag29  1  0.67160278  0.49123637  0.15580306  1
  Ag+  Ag30  1  0.18439313  0.66750667  0.85419702  1
  Ag+  Ag31  1  0.31304920  -0.01434381  0.67681217  1
  Ag+  Ag32  1  0.51643150  0.47215362  0.02447630  1
  Ag+  Ag33  1  0.68803503  0.83276339  0.83326766  1
  Ag+  Ag34  1  0.17782318  0.16724626  0.34172784  1
  Ag+  Ag35  1  0.16789243  0.01870382  0.81335858  1
  Ag+  Ag36  1  -0.00060878  0.83847802  0.51808756  1
  Ag+  Ag37  1  0.32019944  0.18953701  0.83640516  1
  Ag+  Ag38  1  0.16882182  -0.00036484  0.51797879  1
  Ag+  Ag39  1  0.64774867  0.34019047  0.32601834  1
  Ag+  Ag40  1  0.83020243  0.30789553  0.14113784  1
  Ag+  Ag41  1  0.35282947  0.32816300  0.02931924  1
  Ag+  Ag42  1  0.85156570  0.16796584  -0.01531586  1
  Sn2+  Sn43  1  0.84357159  0.66525950  0.49951983  1
  Sn2+  Sn44  1  0.49414472  -0.00181738  0.82572906  1
  Sn2+  Sn45  1  0.83191719  0.83624454  0.66163043  1
  Sn2+  Sn46  1  0.82548050  0.49857962  0.33166034  1
  Sn2+  Sn47  1  0.32810589  0.16447521  0.50785452  1
  Sn2+  Sn48  1  0.33011034  0.01943582  -0.01529582  1
  Sn2+  Sn49  1  0.66902111  0.66338455  -0.00323109  1
  Sn2+  Sn50  1  0.32550137  0.01078976  0.33226548  1
  Sn2+  Sn51  1  0.83852254  0.32993567  0.83945089  1
  Sn2+  Sn52  1  0.16385851  0.83691763  0.66960629  1
  Sn2+  Sn53  1  0.17010936  0.83945209  0.32937967  1
  Sn2+  Sn54  1  0.82938887  0.16547920  0.67337870  1
  Sn2+  Sn55  1  0.67774844  0.83330187  0.50791252  1
  Sn2+  Sn56  1  0.33016284  0.65344311  -0.00423173  1
  Sn2+  Sn57  1  0.32705662  0.16332097  0.15864589  1
  Sn2+  Sn58  1  0.65990155  0.65592109  0.32889799  1
  Sn2+  Sn59  1  0.00589744  0.49645798  0.83282760  1
  Sn2+  Sn60  1  0.00212750  0.66733254  0.32911914  1
  Sn2+  Sn61  1  0.83638704  0.84217334  0.00205726  1
  Sn2+  Sn62  1  0.52171744  0.33882381  0.16479528  1
  Sn2+  Sn63  1  0.49899803  0.67004115  0.83767761  1
  Sn2+  Sn64  1  0.66651176  -0.00744231  -0.00635080  1
  Bi3+  Bi65  1  0.33127610  0.83400021  0.16727256  1
  Bi3+  Bi66  1  0.00115907  0.67290480  0.66712573  1
  Bi3+  Bi67  1  0.83494051  0.67057571  0.83736910  1
  Bi3+  Bi68  1  0.49780215  0.16480864  0.66651157  1
  Bi3+  Bi69  1  0.33216073  0.49873742  0.49692075  1
  Bi3+  Bi70  1  0.00025842  0.83723257  0.16330440  1
  Bi3+  Bi71  1  0.83711451  -0.00021141  0.50338189  1
  Bi3+  Bi72  1  0.49815867  0.00403028  0.16962356  1
  Bi3+  Bi73  1  0.49621323  0.16326783  0.00362084  1
  Bi3+  Bi74  1  0.49651579  0.83273576  -0.00105587  1
  Bi3+  Bi75  1  -0.00235904  0.00714773  -0.00374760  1
  Bi3+  Bi76  1  0.33238244  0.49885928  0.83409158  1
  Bi3+  Bi77  1  0.17112568  0.49044917  -0.00218872  1
  Bi3+  Bi78  1  0.33334378  0.32928508  0.65902685  1
  Bi3+  Bi79  1  0.49624746  0.33169495  0.49988472  1
  Bi3+  Bi80  1  0.32844427  0.66865420  0.33524615  1
  Bi3+  Bi81  1  0.66657456  0.00023392  0.66941113  1
  Bi3+  Bi82  1  0.83569455  0.16658438  0.33250798  1
  Bi3+  Bi83  1  0.16404651  0.00011957  0.16909994  1
  Bi3+  Bi84  1  0.49922425  0.50191335  0.66379870  1
  Bi3+  Bi85  1  0.16457447  0.49617567  0.33358146  1
  Te2-  Te86  1  0.16096473  0.16285589  0.17404019  1
  Te2-  Te87  1  0.16591578  0.16252636  0.49235101  1
  Te2-  Te88  1  0.17246109  0.16701521  0.83906465  1
  Te2-  Te89  1  0.16496948  0.50054795  0.16717185  1
  Te2-  Te90  1  0.17027638  0.48864315  0.49517597  1
  Te2-  Te91  1  0.16744367  0.51347268  0.83606261  1
  Te2-  Te92  1  0.16588994  0.83352777  0.15887727  1
  Te2-  Te93  1  0.15605188  0.84867912  0.49730708  1
  Te2-  Te94  1  0.17624728  0.81881940  0.83973536  1
  Te2-  Te95  1  0.49517623  0.16570602  0.17053555  1
  Te2-  Te96  1  0.49541077  0.16421469  0.50332207  1
  Te2-  Te97  1  0.50634618  0.15953030  0.83432356  1
  Te2-  Te98  1  0.50748708  0.49619139  0.16942911  1
  Te2-  Te99  1  0.49526859  0.49770420  0.49824212  1
  Te2-  Te100  1  0.49576757  0.50173550  0.82717537  1
  Te2-  Te101  1  0.49625581  0.84105139  0.16431596  1
  Te2-  Te102  1  0.50181051  0.84405410  0.50199386  1
  Te2-  Te103  1  0.48260972  0.83450472  0.83645510  1
  Te2-  Te104  1  0.83617778  0.16266770  0.16573724  1
  Te2-  Te105  1  0.83270912  0.16785197  0.50172296  1
  Te2-  Te106  1  0.82570315  0.16166938  0.83860702  1
  Te2-  Te107  1  0.82562715  0.50182193  0.16843641  1
  Te2-  Te108  1  0.83416581  0.49483170  0.49943627  1
  Te2-  Te109  1  0.83401703  0.50415035  0.83585290  1
  Te2-  Te110  1  0.83619947  0.84783760  0.16973842  1
  Te2-  Te111  1  0.84366973  0.83611692  0.49040760  1
  Te2-  Te112  1  0.83725209  0.83598194  0.83646380  1
  Te2-  Te113  1  0.16501927  0.01908473  0.00622696  1
  Te2-  Te114  1  0.15789679  0.01039928  0.32889711  1
  Te2-  Te115  1  0.16549420  -0.00550341  0.66618531  1
  Te2-  Te116  1  0.15535165  0.32834214  -0.00340892  1
  Te2-  Te117  1  0.15515689  0.32918666  0.33671578  1
  Te2-  Te118  1  0.16650520  0.33106101  0.66092196  1
  Te2-  Te119  1  0.15903744  0.65594785  -0.00183886  1
  Te2-  Te120  1  0.16619933  0.66430971  0.34320798  1
  Te2-  Te121  1  0.16711794  0.67172897  0.65369759  1
  Te2-  Te122  1  0.49476268  -0.00246311  0.00098688  1
  Te2-  Te123  1  0.49662479  0.01069129  0.33556129  1
  Te2-  Te124  1  0.50181612  0.00062188  0.65890943  1
  Te2-  Te125  1  0.49755603  0.32800520  0.00067971  1
  Te2-  Te126  1  0.49977038  0.31715430  0.33519631  1
  Te2-  Te127  1  0.49969077  0.33156290  0.66269367  1
  Te2-  Te128  1  0.49520300  0.67144102  -0.00129096  1
  Te2-  Te129  1  0.49330379  0.66670949  0.33290469  1
  Te2-  Te130  1  0.49248706  0.66837528  0.66675668  1
  Te2-  Te131  1  0.83537927  0.01052848  -0.00635556  1
  Te2-  Te132  1  0.84122340  0.00030443  0.33590524  1
  Te2-  Te133  1  0.83054244  -0.00288243  0.66998969  1
  Te2-  Te134  1  0.84073647  0.32274084  -0.00498139  1
  Te2-  Te135  1  0.84685395  0.33250626  0.33913628  1
  Te2-  Te136  1  0.83944969  0.32716690  0.66886996  1
  Te2-  Te137  1  0.83765346  0.67189664  0.00178375  1
  Te2-  Te138  1  0.83546511  0.67243522  0.33062489  1
  Te2-  Te139  1  0.83450992  0.67015732  0.66752067  1
  Te2-  Te140  1  0.00091200  0.17295146  -0.00672693  1
  Te2-  Te141  1  -0.00295157  0.16927087  0.32874590  1
  Te2-  Te142  1  -0.00167282  0.16075654  0.67270649  1
  Te2-  Te143  1  0.00271128  0.48303663  -0.00167575  1
  Te2-  Te144  1  0.00093333  0.50266729  0.33240866  1
  Te2-  Te145  1  0.00270812  0.50924311  0.66673437  1
  Te2-  Te146  1  0.00644949  0.84087661  0.00197093  1
  Te2-  Te147  1  0.00654143  0.83501804  0.32336445  1
  Te2-  Te148  1  -0.00308772  0.83240489  0.66751027  1
  Te2-  Te149  1  0.33775001  0.17919684  -0.00956238  1
  Te2-  Te150  1  0.32459127  0.16856253  0.33326075  1
  Te2-  Te151  1  0.33688785  0.16931698  0.67995199  1
  Te2-  Te152  1  0.33235950  0.48590461  -0.00276491  1
  Te2-  Te153  1  0.32647135  0.50323300  0.33476061  1
  Te2-  Te154  1  0.33671560  0.49441085  0.66281179  1
  Te2-  Te155  1  0.32804618  0.82765626  0.00174082  1
  Te2-  Te156  1  0.33102980  0.83446591  0.33008511  1
  Te2-  Te157  1  0.33789724  0.83980736  0.66690138  1
  Te2-  Te158  1  0.65886415  0.16055216  -0.00685190  1
  Te2-  Te159  1  0.67490425  0.17456571  0.33172269  1
  Te2-  Te160  1  0.66196617  0.16371538  0.67688440  1
  Te2-  Te161  1  0.65883361  0.50473991  0.00546129  1
  Te2-  Te162  1  0.66785125  0.49702502  0.32713433  1
  Te2-  Te163  1  0.66221548  0.49744320  0.66558502  1
  Te2-  Te164  1  0.66272939  0.83224120  -0.01066381  1
  Te2-  Te165  1  0.66786033  0.83146267  0.33370432  1
  Te2-  Te166  1  0.65852795  0.83670991  0.67784768  1
  Te2-  Te167  1  -0.00278687  0.00421857  0.16021109  1
  Te2-  Te168  1  -0.00127094  -0.00751272  0.50546470  1
  Te2-  Te169  1  0.01560261  0.01002282  0.83535222  1
  Te2-  Te170  1  -0.01454058  0.32539829  0.16350086  1
  Te2-  Te171  1  0.00190925  0.33315762  0.51207913  1
  Te2-  Te172  1  0.00495798  0.32918059  0.82182524  1
  Te2-  Te173  1  -0.00607219  0.67221429  0.15919193  1
  Te2-  Te174  1  0.00147499  0.68014246  0.50130193  1
  Te2-  Te175  1  -0.00476902  0.66551044  0.83440157  1
  Te2-  Te176  1  0.33124507  -0.00238578  0.16277274  1
  Te2-  Te177  1  0.32148344  0.00407898  0.50377185  1
  Te2-  Te178  1  0.32135447  -0.00212954  0.82646404  1
  Te2-  Te179  1  0.33362866  0.32955812  0.17485878  1
  Te2-  Te180  1  0.33187357  0.33206533  0.49331436  1
  Te2-  Te181  1  0.32057033  0.33700331  0.82405898  1
  Te2-  Te182  1  0.32708083  0.67033671  0.16722121  1
  Te2-  Te183  1  0.32625705  0.66524666  0.50104940  1
  Te2-  Te184  1  0.33050885  0.66083368  0.82923697  1
  Te2-  Te185  1  0.66446947  -0.00039611  0.16520916  1
  Te2-  Te186  1  0.67475781  -0.00464769  0.50380841  1
  Te2-  Te187  1  0.66871652  -0.01399667  0.83138411  1
  Te2-  Te188  1  0.67749920  0.34061050  0.17362100  1
  Te2-  Te189  1  0.66127714  0.33302034  0.48743561  1
  Te2-  Te190  1  0.66673974  0.33314431  0.83452162  1
  Te2-  Te191  1  0.67569082  0.66442926  0.16769242  1
  Te2-  Te192  1  0.67250026  0.67386548  0.49680532  1
  Te2-  Te193  1  0.67058101  0.67771839  0.83534172  1
  Pb2+  Pb194  1  0.16387465  0.32854178  0.16508962  1
  Pb2+  Pb195  1  0.16856673  0.50034349  0.66723912  1
  Pb2+  Pb196  1  0.16897748  0.16392781  0.66443523  1
  Pb2+  Pb197  1  -0.00033181  0.16259535  0.49774408  1
  Pb2+  Pb198  1  0.32666517  0.83614438  0.49828307  1
  Pb2+  Pb199  1  0.66263208  0.66877103  0.66636354  1
  Pb2+  Pb200  1  0.50197748  0.66637591  0.16668488  1
  Pb2+  Pb201  1  0.82933633  0.49670082  0.00236553  1
  Pb2+  Pb202  1  0.66686127  0.83056619  0.15852969  1
  Pb2+  Pb203  1  0.83624969  0.49664951  0.66840824  1
  Pb2+  Pb204  1  0.66399686  0.50722952  0.83732292  1
  Pb2+  Pb205  1  0.66760261  0.00119934  0.33374851  1
  Pb2+  Pb206  1  0.49822174  0.66951274  0.49774447  1
  Pb2+  Pb207  1  0.66653961  0.17075531  0.16358366  1
  Pb2+  Pb208  1  0.00346486  0.50434996  0.49871821  1
  Pb2+  Pb209  1  -0.00409126  0.49829315  0.16636828  1
  Pb2+  Pb210  1  0.00681435  0.83886835  0.83334669  1
  Pb2+  Pb211  1  0.67168953  0.33007930  0.00508101  1
  Pb2+  Pb212  1  0.33948625  0.49826460  0.16648519  1
  Pb2+  Pb213  1  0.49165885  0.32888418  0.83202339  1
  Pb2+  Pb214  1  0.66486609  0.50111648  0.49422892  1
  Pb2+  Pb215  1  0.66398074  0.16520369  0.50499127  1
