# generated using pymatgen
data_In22Ag21Sn22Bi21(Te54Pb11)2
_symmetry_space_group_name_H-M   'P 1'
_cell_length_a   19.11404754
_cell_length_b   19.09822488
_cell_length_c   19.11602057
_cell_angle_alpha   90.01419100
_cell_angle_beta   90.00868857
_cell_angle_gamma   90.00873867
_symmetry_Int_Tables_number   1
_chemical_formula_structural   In22Ag21Sn22Bi21(Te54Pb11)2
_chemical_formula_sum   'In22 Ag21 Sn22 Bi21 Te108 Pb22'
_cell_volume   6978.19546681
_cell_formula_units_Z   1
loop_
 _symmetry_equiv_pos_site_id
 _symmetry_equiv_pos_as_xyz
  1  'x, y, z'
loop_
 _atom_type_symbol
 _atom_type_oxidation_number
  In3+  3.0
  Ag+  1.0
  Sn2+  2.0
  Bi3+  3.0
  Te2-  -2.0
  Pb2+  2.0
loop_
 _atom_site_type_symbol
 _atom_site_label
 _atom_site_symmetry_multiplicity
 _atom_site_fract_x
 _atom_site_fract_y
 _atom_site_fract_z
 _atom_site_occupancy
  In3+  In0  1  0.33203216  0.49862925  0.48696608  1
  In3+  In1  1  0.49702588  0.32048686  0.16580724  1
  In3+  In2  1  0.33379384  0.32631671  0.01349506  1
  In3+  In3  1  0.66525179  0.64959796  0.33636975  1
  In3+  In4  1  0.00826330  0.67096229  0.69390941  1
  In3+  In5  1  0.15639205  0.00568666  0.18279993  1
  In3+  In6  1  0.49864137  0.49839469  0.65340033  1
  In3+  In7  1  0.84037786  0.00399198  0.83081493  1
  In3+  In8  1  0.33555961  0.67977474  -0.00765629  1
  In3+  In9  1  0.15812223  0.00202953  0.49422089  1
  In3+  In10  1  0.66277132  0.16464530  0.47317797  1
  In3+  In11  1  -0.01008707  0.16899214  0.48297678  1
  In3+  In12  1  0.19098392  0.00092394  0.84092661  1
  In3+  In13  1  0.50031971  0.00742068  0.16281128  1
  In3+  In14  1  0.16771183  0.49743468  0.00931383  1
  In3+  In15  1  -0.02001248  0.00590108  0.33356273  1
  In3+  In16  1  0.68080495  0.32825153  0.00596477  1
  In3+  In17  1  0.50305801  0.16790819  0.32864664  1
  In3+  In18  1  0.49175498  0.84158692  0.33094606  1
  In3+  In19  1  0.33457467  0.66782035  0.68449837  1
  In3+  In20  1  -0.01910425  0.49299012  0.49734964  1
  In3+  In21  1  0.50247436  0.84591269  0.68498332  1
  Ag+  Ag22  1  -0.02654442  0.68560422  0.00210874  1
  Ag+  Ag23  1  0.81158555  0.16739135  0.32172509  1
  Ag+  Ag24  1  0.33205503  0.86045568  0.83082683  1
  Ag+  Ag25  1  0.31814362  0.52093382  0.14355083  1
  Ag+  Ag26  1  0.49412747  -0.02321325  0.85818822  1
  Ag+  Ag27  1  0.18760823  0.85579679  0.33139820  1
  Ag+  Ag28  1  0.50443115  0.83368003  -0.01400483  1
  Ag+  Ag29  1  -0.02583442  0.16696912  0.14660689  1
  Ag+  Ag30  1  0.49723446  0.47956801  0.30963516  1
  Ag+  Ag31  1  0.15012767  0.15249032  0.32963691  1
  Ag+  Ag32  1  0.66469201  0.01967701  0.69232695  1
  Ag+  Ag33  1  0.65607125  -0.01175672  0.33710980  1
  Ag+  Ag34  1  -0.02688065  0.85312142  0.86301420  1
  Ag+  Ag35  1  0.50614675  0.35686587  0.47601832  1
  Ag+  Ag36  1  0.86674886  0.15922230  0.02841503  1
  Ag+  Ag37  1  0.86050496  0.31106355  0.16644026  1
  Ag+  Ag38  1  0.63920385  0.46557037  0.49347450  1
  Ag+  Ag39  1  0.67863934  0.16959406  0.16239452  1
  Ag+  Ag40  1  0.31212516  0.16733115  0.85915072  1
  Ag+  Ag41  1  -0.01945261  0.31384236  -0.00040252  1
  Ag+  Ag42  1  0.33212057  0.17278489  0.16135395  1
  Sn2+  Sn43  1  0.50346224  0.66541443  0.49690518  1
  Sn2+  Sn44  1  0.33526724  0.34046174  0.66945792  1
  Sn2+  Sn45  1  0.16551761  0.67015048  0.49770076  1
  Sn2+  Sn46  1  0.17378802  0.83054428  0.00293541  1
  Sn2+  Sn47  1  0.50021851  0.66323389  0.17129823  1
  Sn2+  Sn48  1  0.84813017  0.49112772  0.00005578  1
  Sn2+  Sn49  1  0.16648469  0.32319491  0.17059334  1
  Sn2+  Sn50  1  0.83741170  0.32385891  0.84744198  1
  Sn2+  Sn51  1  0.33839862  0.00454027  0.33137770  1
  Sn2+  Sn52  1  0.33131934  0.48143286  0.84086670  1
  Sn2+  Sn53  1  0.16842239  0.68424948  0.83594068  1
  Sn2+  Sn54  1  0.65916714  0.84194598  0.83576446  1
  Sn2+  Sn55  1  0.66201460  0.84308336  0.49498157  1
  Sn2+  Sn56  1  0.16971027  0.83794605  0.66366843  1
  Sn2+  Sn57  1  0.82849063  0.00518003  0.50226750  1
  Sn2+  Sn58  1  0.16594946  0.67238398  0.16378418  1
  Sn2+  Sn59  1  0.16869381  0.16787853  0.01739372  1
  Sn2+  Sn60  1  0.66243908  0.85027972  0.17153129  1
  Sn2+  Sn61  1  0.66309571  0.32621557  0.66971562  1
  Sn2+  Sn62  1  0.17073795  0.50432342  0.66764432  1
  Sn2+  Sn63  1  0.49849633  0.50527474  0.00554002  1
  Sn2+  Sn64  1  -0.00691991  -0.00199595  0.66748914  1
  Bi3+  Bi65  1  0.50014078  0.16642260  0.66382228  1
  Bi3+  Bi66  1  0.33324901  -0.00200318  0.00463866  1
  Bi3+  Bi67  1  0.00370134  0.50206707  0.83409832  1
  Bi3+  Bi68  1  0.00071075  0.32927568  0.32759677  1
  Bi3+  Bi69  1  0.66144294  0.66396606  0.66097433  1
  Bi3+  Bi70  1  0.66424135  0.16659262  0.83935929  1
  Bi3+  Bi71  1  0.50218438  0.66360781  0.83381024  1
  Bi3+  Bi72  1  0.66815438  0.33124037  0.32584184  1
  Bi3+  Bi73  1  0.17478804  0.49911042  0.33196014  1
  Bi3+  Bi74  1  0.49965458  0.33338949  0.83567135  1
  Bi3+  Bi75  1  0.00339272  0.83297017  0.49968378  1
  Bi3+  Bi76  1  0.83653571  0.66917290  0.49774842  1
  Bi3+  Bi77  1  0.33349242  0.33267413  0.33337735  1
  Bi3+  Bi78  1  0.83392518  0.66333712  0.16549513  1
  Bi3+  Bi79  1  0.66468613  0.00309939  0.00132855  1
  Bi3+  Bi80  1  0.66339212  0.49621321  0.16660585  1
  Bi3+  Bi81  1  0.33933406  0.66476940  0.33229046  1
  Bi3+  Bi82  1  0.33688575  0.16723080  0.49745292  1
  Bi3+  Bi83  1  0.00331650  0.83498663  0.16815262  1
  Bi3+  Bi84  1  0.49971447  0.00251049  0.49521996  1
  Bi3+  Bi85  1  0.83244954  0.50043822  0.66571700  1
  Te2-  Te86  1  0.18047880  0.15780005  0.17822417  1
  Te2-  Te87  1  0.17167210  0.15885353  0.48720175  1
  Te2-  Te88  1  0.16806766  0.15532065  0.83290980  1
  Te2-  Te89  1  0.17377541  0.49901787  0.16756928  1
  Te2-  Te90  1  0.17615486  0.50046670  0.49717228  1
  Te2-  Te91  1  0.16620152  0.50665873  0.82625708  1
  Te2-  Te92  1  0.16380851  0.84084713  0.17708237  1
  Te2-  Te93  1  0.16476716  0.84083373  0.48725762  1
  Te2-  Te94  1  0.18059224  0.84228336  0.83185401  1
  Te2-  Te95  1  0.48542085  0.16539927  0.17031502  1
  Te2-  Te96  1  0.50371866  0.16484145  0.49970580  1
  Te2-  Te97  1  0.50337334  0.17188445  0.82602877  1
  Te2-  Te98  1  0.50281750  0.50192583  0.16399502  1
  Te2-  Te99  1  0.49757607  0.50249029  0.50173043  1
  Te2-  Te100  1  0.49857504  0.49882314  0.83889746  1
  Te2-  Te101  1  0.50333715  0.83320802  0.17697248  1
  Te2-  Te102  1  0.50073473  0.83836694  0.48920670  1
  Te2-  Te103  1  0.48927703  0.82806238  0.83719604  1
  Te2-  Te104  1  0.82773170  0.16765595  0.17038661  1
  Te2-  Te105  1  0.83465096  0.16420628  0.49416845  1
  Te2-  Te106  1  0.82710105  0.16338087  0.83549489  1
  Te2-  Te107  1  0.82891247  0.50043618  0.16262565  1
  Te2-  Te108  1  0.82527631  0.50354782  0.49958980  1
  Te2-  Te109  1  0.83677364  0.49586743  0.83221928  1
  Te2-  Te110  1  0.83785587  0.83033859  0.16559317  1
  Te2-  Te111  1  0.83693436  0.83584585  0.49951422  1
  Te2-  Te112  1  0.83003126  0.83795977  0.83338109  1
  Te2-  Te113  1  0.17172324  -0.00243937  -0.00438669  1
  Te2-  Te114  1  0.17595810  0.00312755  0.33514207  1
  Te2-  Te115  1  0.16689848  -0.00565740  0.66035742  1
  Te2-  Te116  1  0.17972313  0.33874355  0.00393827  1
  Te2-  Te117  1  0.16767371  0.33700235  0.33478408  1
  Te2-  Te118  1  0.16719481  0.33486459  0.66826523  1
  Te2-  Te119  1  0.18035175  0.66451695  0.00305003  1
  Te2-  Te120  1  0.17288003  0.66025658  0.33035962  1
  Te2-  Te121  1  0.17540143  0.66953069  0.66320100  1
  Te2-  Te122  1  0.49870031  -0.00999100  0.00681109  1
  Te2-  Te123  1  0.50836444  0.00403313  0.33045192  1
  Te2-  Te124  1  0.51425026  -0.00206843  0.65935486  1
  Te2-  Te125  1  0.48922098  0.33500227  0.00124059  1
  Te2-  Te126  1  0.50030312  0.33136707  0.32913683  1
  Te2-  Te127  1  0.50247899  0.33728029  0.67182038  1
  Te2-  Te128  1  0.49249487  0.67629512  -0.00062234  1
  Te2-  Te129  1  0.50426807  0.67381520  0.33532984  1
  Te2-  Te130  1  0.49743586  0.66147536  0.66865942  1
  Te2-  Te131  1  0.83039503  0.01229529  -0.00820688  1
  Te2-  Te132  1  0.82958080  0.01346354  0.33353523  1
  Te2-  Te133  1  0.81665855  -0.00095823  0.67315943  1
  Te2-  Te134  1  0.83586077  0.32670131  0.01175996  1
  Te2-  Te135  1  0.83567037  0.32498365  0.32263143  1
  Te2-  Te136  1  0.83126103  0.33846227  0.66555330  1
  Te2-  Te137  1  0.82705732  0.66497585  0.00163858  1
  Te2-  Te138  1  0.83071825  0.66315451  0.33227404  1
  Te2-  Te139  1  0.83001745  0.66286981  0.66275168  1
  Te2-  Te140  1  0.01142711  0.16891041  0.00348978  1
  Te2-  Te141  1  0.00290183  0.16364431  0.33325076  1
  Te2-  Te142  1  -0.00021364  0.16619328  0.66341722  1
  Te2-  Te143  1  0.01255999  0.49855619  -0.00360809  1
  Te2-  Te144  1  0.00555439  0.49476612  0.33384663  1
  Te2-  Te145  1  -0.00174413  0.50727350  0.66681458  1
  Te2-  Te146  1  0.00520182  0.83079753  0.00442233  1
  Te2-  Te147  1  0.00092341  0.84424260  0.33279447  1
  Te2-  Te148  1  0.00453315  0.82729120  0.66154912  1
  Te2-  Te149  1  0.33120253  0.16424009  0.00677195  1
  Te2-  Te150  1  0.34524916  0.17102835  0.33702146  1
  Te2-  Te151  1  0.33740727  0.16936593  0.65969653  1
  Te2-  Te152  1  0.32932539  0.49670382  -0.00062038  1
  Te2-  Te153  1  0.34516218  0.49851066  0.33109451  1
  Te2-  Te154  1  0.33904107  0.50275512  0.66922725  1
  Te2-  Te155  1  0.33864430  0.83472797  -0.00872941  1
  Te2-  Te156  1  0.33422427  0.82978306  0.33463320  1
  Te2-  Te157  1  0.34335084  0.82697904  0.67736662  1
  Te2-  Te158  1  0.66428541  0.17158657  0.00667148  1
  Te2-  Te159  1  0.66413201  0.16995507  0.31873354  1
  Te2-  Te160  1  0.66342121  0.16663551  0.67055662  1
  Te2-  Te161  1  0.66985574  0.48913292  0.00288870  1
  Te2-  Te162  1  0.65257733  0.49464140  0.33790425  1
  Te2-  Te163  1  0.66583032  0.49943495  0.65362984  1
  Te2-  Te164  1  0.65737575  0.83708059  0.00397651  1
  Te2-  Te165  1  0.66508734  0.84140906  0.32875119  1
  Te2-  Te166  1  0.65652494  0.82537245  0.66613824  1
  Te2-  Te167  1  0.00334029  0.00648176  0.17152132  1
  Te2-  Te168  1  0.00128522  0.00075986  0.50011224  1
  Te2-  Te169  1  -0.00713687  -0.00690888  0.82575302  1
  Te2-  Te170  1  0.00777031  0.32097503  0.16309558  1
  Te2-  Te171  1  0.00098608  0.32836552  0.49557634  1
  Te2-  Te172  1  -0.00141873  0.33550822  0.84617368  1
  Te2-  Te173  1  -0.00186891  0.66684946  0.15631331  1
  Te2-  Te174  1  -0.00117908  0.66870473  0.49422198  1
  Te2-  Te175  1  0.00483891  0.66674803  0.84960797  1
  Te2-  Te176  1  0.34165120  0.00049710  0.16734291  1
  Te2-  Te177  1  0.33599445  0.00021730  0.49962007  1
  Te2-  Te178  1  0.34490721  0.01063228  0.83742834  1
  Te2-  Te179  1  0.33874698  0.32636383  0.17026904  1
  Te2-  Te180  1  0.35028461  0.33550744  0.49827759  1
  Te2-  Te181  1  0.33673861  0.31687839  0.83394396  1
  Te2-  Te182  1  0.33568780  0.66448098  0.16792745  1
  Te2-  Te183  1  0.33529488  0.65941428  0.49462322  1
  Te2-  Te184  1  0.33784005  0.65807808  0.83706992  1
  Te2-  Te185  1  0.65738323  0.01374094  0.16333565  1
  Te2-  Te186  1  0.66583457  0.00938112  0.48654376  1
  Te2-  Te187  1  0.64605666  0.00018148  0.83963609  1
  Te2-  Te188  1  0.65587056  0.32992352  0.16396007  1
  Te2-  Te189  1  0.65700844  0.32077696  0.49382266  1
  Te2-  Te190  1  0.66682513  0.33165307  0.83998017  1
  Te2-  Te191  1  0.66956065  0.66219943  0.17529832  1
  Te2-  Te192  1  0.67230986  0.67340444  0.49673556  1
  Te2-  Te193  1  0.66447188  0.66805330  0.83002161  1
  Pb2+  Pb194  1  0.83089174  0.83991600  0.33351837  1
  Pb2+  Pb195  1  0.83266274  0.16640980  0.66475110  1
  Pb2+  Pb196  1  0.83211994  0.83368914  0.66646957  1
  Pb2+  Pb197  1  0.17761408  0.32947586  0.50149480  1
  Pb2+  Pb198  1  0.49928560  0.16418260  -0.00307311  1
  Pb2+  Pb199  1  0.82770710  0.33230049  0.49329186  1
  Pb2+  Pb200  1  0.66527572  0.49877453  0.82438394  1
  Pb2+  Pb201  1  0.83776732  0.66548209  0.83306405  1
  Pb2+  Pb202  1  0.34049672  -0.00051351  0.66852011  1
  Pb2+  Pb203  1  0.82631551  0.84076811  -0.00052703  1
  Pb2+  Pb204  1  0.00054716  0.16268291  0.83335304  1
  Pb2+  Pb205  1  0.65906132  0.66115870  0.00609996  1
  Pb2+  Pb206  1  0.33320670  0.82748372  0.50684390  1
  Pb2+  Pb207  1  0.33512454  0.83304398  0.16297177  1
  Pb2+  Pb208  1  0.00424475  0.67111679  0.32643564  1
  Pb2+  Pb209  1  0.00228831  -0.00103715  0.00048855  1
  Pb2+  Pb210  1  0.16837328  0.33398534  0.83896347  1
  Pb2+  Pb211  1  0.16782007  0.16167099  0.66042640  1
  Pb2+  Pb212  1  0.00342384  0.48972849  0.16320315  1
  Pb2+  Pb213  1  -0.00144310  0.33778392  0.67191719  1
  Pb2+  Pb214  1  0.82951780  0.49262708  0.32876490  1
  Pb2+  Pb215  1  0.82736485  0.00551352  0.16474571  1
