# generated using pymatgen
data_In22Ag21Sn22Bi21(Te54Pb11)2
_symmetry_space_group_name_H-M   'P 1'
_cell_length_a   19.12654881
_cell_length_b   19.17074225
_cell_length_c   19.15446384
_cell_angle_alpha   90.01404245
_cell_angle_beta   89.98554910
_cell_angle_gamma   90.00942188
_symmetry_Int_Tables_number   1
_chemical_formula_structural   In22Ag21Sn22Bi21(Te54Pb11)2
_chemical_formula_sum   'In22 Ag21 Sn22 Bi21 Te108 Pb22'
_cell_volume   7023.36935579
_cell_formula_units_Z   1
loop_
 _symmetry_equiv_pos_site_id
 _symmetry_equiv_pos_as_xyz
  1  'x, y, z'
loop_
 _atom_type_symbol
 _atom_type_oxidation_number
  In3+  3.0
  Ag+  1.0
  Sn2+  2.0
  Bi3+  3.0
  Te2-  -2.0
  Pb2+  2.0
loop_
 _atom_site_type_symbol
 _atom_site_label
 _atom_site_symmetry_multiplicity
 _atom_site_fract_x
 _atom_site_fract_y
 _atom_site_fract_z
 _atom_site_occupancy
  In3+  In0  1  0.33513672  0.00051216  0.67092725  1
  In3+  In1  1  0.16613020  0.31170018  0.50331905  1
  In3+  In2  1  -0.01087665  -0.01421214  0.00448748  1
  In3+  In3  1  0.83827849  0.13864671  0.00957532  1
  In3+  In4  1  0.66938441  0.52167473  0.15985392  1
  In3+  In5  1  0.48253334  -0.00315438  0.50845779  1
  In3+  In6  1  0.83642758  -0.00161137  0.48256694  1
  In3+  In7  1  0.66270047  0.00446175  0.66600091  1
  In3+  In8  1  -0.00121052  0.31066138  0.32439896  1
  In3+  In9  1  0.16943947  0.65910696  0.50662402  1
  In3+  In10  1  0.01243609  -0.00713752  0.30832365  1
  In3+  In11  1  0.33489784  0.52075858  0.50240440  1
  In3+  In12  1  0.49357986  0.48882928  -0.01025596  1
  In3+  In13  1  0.33180540  0.51661542  0.83225281  1
  In3+  In14  1  0.17809769  0.83308962  0.65989899  1
  In3+  In15  1  0.33504372  0.68675497  0.01817803  1
  In3+  In16  1  0.16383236  0.67601377  0.17148016  1
  In3+  In17  1  0.64830836  0.32515296  0.32517994  1
  In3+  In18  1  0.49453315  0.50781158  0.32497941  1
  In3+  In19  1  -0.00018713  0.66254080  0.68194074  1
  In3+  In20  1  0.86182894  0.16900181  0.32615976  1
  In3+  In21  1  0.16158366  0.00009453  0.50231343  1
  Ag+  Ag22  1  -0.00068910  0.19252350  0.14063922  1
  Ag+  Ag23  1  0.33155362  0.81762260  0.84817006  1
  Ag+  Ag24  1  -0.03377740  0.64367105  -0.02017942  1
  Ag+  Ag25  1  0.49326049  0.35916842  0.80670220  1
  Ag+  Ag26  1  0.30990451  0.82364716  0.50109254  1
  Ag+  Ag27  1  0.80887127  0.47234770  0.66769102  1
  Ag+  Ag28  1  0.30938315  0.70236090  0.30667538  1
  Ag+  Ag29  1  0.51803335  0.35762362  0.15842551  1
  Ag+  Ag30  1  0.33395102  0.85961934  0.14481132  1
  Ag+  Ag31  1  0.01414568  0.36321190  0.68511257  1
  Ag+  Ag32  1  0.48025036  -0.02527032  0.85910101  1
  Ag+  Ag33  1  0.69359596  0.84821656  0.13798463  1
  Ag+  Ag34  1  0.16497388  0.16614616  0.31179446  1
  Ag+  Ag35  1  0.80466998  0.82136771  0.01145805  1
  Ag+  Ag36  1  0.84143593  -0.02773227  0.18595362  1
  Ag+  Ag37  1  0.32099266  0.00290709  0.03080205  1
  Ag+  Ag38  1  0.36487515  0.19076941  0.14615468  1
  Ag+  Ag39  1  -0.01309243  0.82983936  0.14045691  1
  Ag+  Ag40  1  0.17104221  0.18219426  0.67206973  1
  Ag+  Ag41  1  0.82401163  0.64037149  0.81003527  1
  Ag+  Ag42  1  0.17226205  0.48121228  0.64916975  1
  Sn2+  Sn43  1  0.83368424  0.83430244  0.68637904  1
  Sn2+  Sn44  1  0.50877569  0.67557502  0.83398662  1
  Sn2+  Sn45  1  0.67274063  0.66933003  0.67178827  1
  Sn2+  Sn46  1  0.16818740  0.00553316  0.16420544  1
  Sn2+  Sn47  1  0.49475870  0.83192997  0.33066642  1
  Sn2+  Sn48  1  0.48985237  0.16565389  0.67606998  1
  Sn2+  Sn49  1  0.66153657  0.33170130  0.00197005  1
  Sn2+  Sn50  1  0.82451178  0.33582222  0.83350218  1
  Sn2+  Sn51  1  0.33807538  0.16134731  0.83882636  1
  Sn2+  Sn52  1  0.17473650  0.83589215  0.32411071  1
  Sn2+  Sn53  1  0.68250124  0.33479292  0.66721126  1
  Sn2+  Sn54  1  0.00248086  0.49586484  0.50340283  1
  Sn2+  Sn55  1  0.33490091  0.67136355  0.67036903  1
  Sn2+  Sn56  1  0.50268357  -0.00046708  0.16827624  1
  Sn2+  Sn57  1  0.00319088  0.17003110  0.51110341  1
  Sn2+  Sn58  1  0.66722755  0.49546083  0.83238730  1
  Sn2+  Sn59  1  0.82520213  0.32648735  0.15928799  1
  Sn2+  Sn60  1  0.49150495  0.49456272  0.66659968  1
  Sn2+  Sn61  1  0.49612294  0.83672290  0.00936960  1
  Sn2+  Sn62  1  0.49165393  0.83104788  0.67092838  1
  Sn2+  Sn63  1  0.50244989  0.16702067  -0.00524780  1
  Sn2+  Sn64  1  0.82980690  0.49632490  0.34433418  1
  Bi3+  Bi65  1  0.66351157  0.49877365  0.50221458  1
  Bi3+  Bi66  1  0.66304024  0.66229474  0.33833885  1
  Bi3+  Bi67  1  0.82929370  0.00041475  0.83303712  1
  Bi3+  Bi68  1  0.32893527  0.00003782  0.33478981  1
  Bi3+  Bi69  1  0.66598543  0.17179783  0.83312213  1
  Bi3+  Bi70  1  0.32820108  0.32818727  0.33461614  1
  Bi3+  Bi71  1  0.17113238  0.50066111  0.00078135  1
  Bi3+  Bi72  1  -0.00001635  0.83608982  0.50249031  1
  Bi3+  Bi73  1  0.48936044  0.16261242  0.33144151  1
  Bi3+  Bi74  1  0.17170837  0.83303310  0.00165105  1
  Bi3+  Bi75  1  0.00063415  0.16701658  0.83156035  1
  Bi3+  Bi76  1  0.00528450  0.83500664  0.83309050  1
  Bi3+  Bi77  1  0.83875905  0.66661940  0.17024114  1
  Bi3+  Bi78  1  0.00287021  0.49965237  0.83103468  1
  Bi3+  Bi79  1  0.66921303  0.83445931  0.49957074  1
  Bi3+  Bi80  1  0.66142999  0.00177588  -0.00121664  1
  Bi3+  Bi81  1  -0.00278477  -0.00324889  0.67068211  1
  Bi3+  Bi82  1  0.33425364  0.16183536  0.49988611  1
  Bi3+  Bi83  1  0.84116189  0.33290743  0.49673265  1
  Bi3+  Bi84  1  0.00566802  0.67331537  0.33404961  1
  Bi3+  Bi85  1  0.33556840  0.32273672  -0.00214249  1
  Te2-  Te86  1  0.14410109  0.15967904  0.16499076  1
  Te2-  Te87  1  0.17091719  0.15791133  0.51743758  1
  Te2-  Te88  1  0.16558372  0.16724983  0.82537335  1
  Te2-  Te89  1  0.16531182  0.49962472  0.16589512  1
  Te2-  Te90  1  0.17575337  0.50717244  0.50466077  1
  Te2-  Te91  1  0.17099763  0.50084369  0.83692476  1
  Te2-  Te92  1  0.18479452  0.83182931  0.16434851  1
  Te2-  Te93  1  0.16097265  0.84125279  0.49804479  1
  Te2-  Te94  1  0.17692456  0.83282848  0.83237478  1
  Te2-  Te95  1  0.50470874  0.15805435  0.17087258  1
  Te2-  Te96  1  0.49844267  0.15979840  0.49986438  1
  Te2-  Te97  1  0.50584549  0.16422034  0.83394964  1
  Te2-  Te98  1  0.50794664  0.50253281  0.17048222  1
  Te2-  Te99  1  0.49679782  0.50031693  0.50177446  1
  Te2-  Te100  1  0.49647790  0.50236467  0.83616933  1
  Te2-  Te101  1  0.48377224  0.83806214  0.17046802  1
  Te2-  Te102  1  0.50953209  0.84407167  0.50133980  1
  Te2-  Te103  1  0.48836318  0.83197183  0.83051933  1
  Te2-  Te104  1  0.85013967  0.16902097  0.16873118  1
  Te2-  Te105  1  0.83754607  0.16825114  0.48956164  1
  Te2-  Te106  1  0.83247184  0.16819135  0.83708131  1
  Te2-  Te107  1  0.82496323  0.50167852  0.17072806  1
  Te2-  Te108  1  0.83102259  0.49573535  0.51378452  1
  Te2-  Te109  1  0.83808068  0.49450590  0.82000960  1
  Te2-  Te110  1  0.83772312  0.82748149  0.15986899  1
  Te2-  Te111  1  0.83457155  0.83888895  0.50413609  1
  Te2-  Te112  1  0.83993286  0.83866318  0.84466315  1
  Te2-  Te113  1  0.17694515  -0.00502504  -0.00087238  1
  Te2-  Te114  1  0.16275144  0.00747661  0.33835459  1
  Te2-  Te115  1  0.16159965  -0.01095176  0.66057308  1
  Te2-  Te116  1  0.17041765  0.33485325  -0.00121644  1
  Te2-  Te117  1  0.16285892  0.32290968  0.34244561  1
  Te2-  Te118  1  0.15929639  0.33396581  0.65741526  1
  Te2-  Te119  1  0.18026125  0.66435098  0.00536909  1
  Te2-  Te120  1  0.16896751  0.66682486  0.33367182  1
  Te2-  Te121  1  0.16636441  0.67829457  0.66306732  1
  Te2-  Te122  1  0.50199986  0.00162333  0.00130845  1
  Te2-  Te123  1  0.49600441  0.00097517  0.33962971  1
  Te2-  Te124  1  0.50598282  0.00163724  0.66236616  1
  Te2-  Te125  1  0.49702006  0.33412748  0.01280618  1
  Te2-  Te126  1  0.49370260  0.32713420  0.32532560  1
  Te2-  Te127  1  0.50397716  0.33307360  0.66262926  1
  Te2-  Te128  1  0.48775768  0.66078550  -0.00144942  1
  Te2-  Te129  1  0.49878007  0.66210045  0.33890071  1
  Te2-  Te130  1  0.50118680  0.66493611  0.67097459  1
  Te2-  Te131  1  0.82781977  -0.01233653  -0.00313813  1
  Te2-  Te132  1  0.83711566  0.00944004  0.32785954  1
  Te2-  Te133  1  0.83221305  0.00020739  0.67144357  1
  Te2-  Te134  1  0.82787281  0.34177821  -0.00068083  1
  Te2-  Te135  1  0.84351596  0.33077320  0.33414555  1
  Te2-  Te136  1  0.84503123  0.33078797  0.66127754  1
  Te2-  Te137  1  0.82723187  0.67328886  0.01009676  1
  Te2-  Te138  1  0.83296097  0.66447175  0.33527920  1
  Te2-  Te139  1  0.84286474  0.67337065  0.66909814  1
  Te2-  Te140  1  -0.00665445  0.16286998  -0.00648526  1
  Te2-  Te141  1  0.01339769  0.15780751  0.34313243  1
  Te2-  Te142  1  0.01139343  0.15871708  0.67120985  1
  Te2-  Te143  1  0.00504776  0.50342699  -0.00298455  1
  Te2-  Te144  1  -0.00231301  0.51147349  0.33982820  1
  Te2-  Te145  1  0.01738980  0.50907493  0.67022039  1
  Te2-  Te146  1  0.01159556  0.83356557  -0.00564583  1
  Te2-  Te147  1  0.00223919  0.83951116  0.33932369  1
  Te2-  Te148  1  0.00258580  0.83271173  0.66837552  1
  Te2-  Te149  1  0.33624077  0.15716184  0.00599444  1
  Te2-  Te150  1  0.32276218  0.16489739  0.33631811  1
  Te2-  Te151  1  0.32469389  0.15852059  0.66306666  1
  Te2-  Te152  1  0.33572949  0.48886453  -0.00687632  1
  Te2-  Te153  1  0.33785535  0.49318758  0.34337167  1
  Te2-  Te154  1  0.32523892  0.50151388  0.66947429  1
  Te2-  Te155  1  0.33623239  0.84170764  -0.00475609  1
  Te2-  Te156  1  0.33448046  0.83770045  0.35175299  1
  Te2-  Te157  1  0.33267778  0.84349508  0.65133431  1
  Te2-  Te158  1  0.67618925  0.16644706  -0.00145402  1
  Te2-  Te159  1  0.65871400  0.16961012  0.33385901  1
  Te2-  Te160  1  0.66666150  0.16666616  0.67000532  1
  Te2-  Te161  1  0.65871721  0.49897982  0.00203990  1
  Te2-  Te162  1  0.66235830  0.49787967  0.33922963  1
  Te2-  Te163  1  0.66420645  0.50107796  0.66579099  1
  Te2-  Te164  1  0.65562571  0.83559742  -0.00300702  1
  Te2-  Te165  1  0.66554317  0.82777893  0.33749611  1
  Te2-  Te166  1  0.66652268  0.83562650  0.66327301  1
  Te2-  Te167  1  -0.00843808  -0.01652141  0.15985659  1
  Te2-  Te168  1  -0.00703840  -0.00151237  0.50634128  1
  Te2-  Te169  1  -0.00282945  0.00017851  0.83653724  1
  Te2-  Te170  1  -0.00381315  0.33813355  0.17278774  1
  Te2-  Te171  1  0.00410553  0.33694438  0.49107397  1
  Te2-  Te172  1  -0.00035856  0.33345693  0.82899851  1
  Te2-  Te173  1  0.00693453  0.68119112  0.17227712  1
  Te2-  Te174  1  0.01055782  0.67115586  0.49798023  1
  Te2-  Te175  1  -0.00864101  0.66925139  0.83727599  1
  Te2-  Te176  1  0.32984228  0.00369196  0.17689457  1
  Te2-  Te177  1  0.32842723  -0.00235614  0.50168997  1
  Te2-  Te178  1  0.34203955  0.00508804  0.82156459  1
  Te2-  Te179  1  0.33257222  0.33057574  0.16925464  1
  Te2-  Te180  1  0.32619371  0.32609789  0.49979794  1
  Te2-  Te181  1  0.34865876  0.32329239  0.83670581  1
  Te2-  Te182  1  0.32825698  0.66242138  0.17061175  1
  Te2-  Te183  1  0.32644378  0.67385863  0.50255403  1
  Te2-  Te184  1  0.33560875  0.67047086  0.82870632  1
  Te2-  Te185  1  0.67523414  -0.00788945  0.16250093  1
  Te2-  Te186  1  0.68157740  -0.00126270  0.50269842  1
  Te2-  Te187  1  0.66490215  0.00558357  0.83118279  1
  Te2-  Te188  1  0.66319838  0.33185645  0.17259372  1
  Te2-  Te189  1  0.67192058  0.33778214  0.49664698  1
  Te2-  Te190  1  0.65464007  0.33564247  0.83220193  1
  Te2-  Te191  1  0.66829619  0.67324058  0.17539861  1
  Te2-  Te192  1  0.66864705  0.66479305  0.50146958  1
  Te2-  Te193  1  0.67880798  0.66453087  0.83021749  1
  Pb2+  Pb194  1  0.65924666  0.66702096  -0.00175764  1
  Pb2+  Pb195  1  0.84170297  0.66437283  0.50400663  1
  Pb2+  Pb196  1  0.49713809  0.67544239  0.50552583  1
  Pb2+  Pb197  1  0.66383435  -0.00337603  0.32966200  1
  Pb2+  Pb198  1  0.66824955  0.16788709  0.50066599  1
  Pb2+  Pb199  1  0.16652199  0.49423396  0.33822795  1
  Pb2+  Pb200  1  0.49727194  0.33242816  0.49383536  1
  Pb2+  Pb201  1  0.33335012  0.49578930  0.16672990  1
  Pb2+  Pb202  1  0.17533948  -0.00032739  0.83103149  1
  Pb2+  Pb203  1  0.16298277  0.66786530  0.83499216  1
  Pb2+  Pb204  1  0.16897395  0.16215941  -0.00110114  1
  Pb2+  Pb205  1  0.49875170  0.67288618  0.16862208  1
  Pb2+  Pb206  1  0.84161340  0.16608361  0.66514457  1
  Pb2+  Pb207  1  -0.00463324  0.33419240  -0.00331736  1
  Pb2+  Pb208  1  0.16784874  0.32406027  0.17004102  1
  Pb2+  Pb209  1  0.67607081  0.16102096  0.16756063  1
  Pb2+  Pb210  1  0.33279918  0.33223887  0.66908602  1
  Pb2+  Pb211  1  0.83003344  0.50873088  -0.00565649  1
  Pb2+  Pb212  1  0.66389292  0.83660139  0.82907235  1
  Pb2+  Pb213  1  0.83363329  0.83481814  0.33007064  1
  Pb2+  Pb214  1  0.17687476  0.33383533  0.82703767  1
  Pb2+  Pb215  1  -0.00172199  0.51198554  0.17139252  1
