# generated using pymatgen
data_In22Ag21Sn22Bi21(Te54Pb11)2
_symmetry_space_group_name_H-M   'P 1'
_cell_length_a   19.13673740
_cell_length_b   19.14150053
_cell_length_c   19.13479827
_cell_angle_alpha   89.99146567
_cell_angle_beta   90.00287561
_cell_angle_gamma   90.00899105
_symmetry_Int_Tables_number   1
_chemical_formula_structural   In22Ag21Sn22Bi21(Te54Pb11)2
_chemical_formula_sum   'In22 Ag21 Sn22 Bi21 Te108 Pb22'
_cell_volume   7009.18873939
_cell_formula_units_Z   1
loop_
 _symmetry_equiv_pos_site_id
 _symmetry_equiv_pos_as_xyz
  1  'x, y, z'
loop_
 _atom_type_symbol
 _atom_type_oxidation_number
  In3+  3.0
  Ag+  1.0
  Sn2+  2.0
  Bi3+  3.0
  Te2-  -2.0
  Pb2+  2.0
loop_
 _atom_site_type_symbol
 _atom_site_label
 _atom_site_symmetry_multiplicity
 _atom_site_fract_x
 _atom_site_fract_y
 _atom_site_fract_z
 _atom_site_occupancy
  In3+  In0  1  0.48996291  0.66866063  0.17452048  1
  In3+  In1  1  0.83431144  0.83081625  0.31490983  1
  In3+  In2  1  0.30042238  0.66751179  0.33907872  1
  In3+  In3  1  0.84260811  0.00097201  0.49649048  1
  In3+  In4  1  0.66967884  0.15456795  0.49793119  1
  In3+  In5  1  0.84203379  0.30797312  0.49854363  1
  In3+  In6  1  0.49863868  0.49321951  0.65454155  1
  In3+  In7  1  0.33950281  0.85224034  0.49060499  1
  In3+  In8  1  0.31598972  0.83183583  0.16596183  1
  In3+  In9  1  0.68193054  0.83598263  0.83359463  1
  In3+  In10  1  0.49928575  0.16890306  0.01707973  1
  In3+  In11  1  0.66589920  0.15774561  0.83887757  1
  In3+  In12  1  -0.00456447  0.83224640  0.50932415  1
  In3+  In13  1  0.51475084  0.16004985  0.33689635  1
  In3+  In14  1  0.82938237  0.64782284  0.16827360  1
  In3+  In15  1  0.48494747  0.49135497  -0.00733427  1
  In3+  In16  1  0.16216741  0.32451342  0.50319401  1
  In3+  In17  1  0.66618827  0.01812770  0.66266886  1
  In3+  In18  1  0.67120949  0.50011861  0.85054246  1
  In3+  In19  1  0.01616185  0.00622829  0.67102665  1
  In3+  In20  1  0.32550559  0.15760416  0.49616050  1
  In3+  In21  1  0.31322613  0.32696285  0.00311550  1
  Ag+  Ag22  1  0.83645785  0.64070231  0.86280199  1
  Ag+  Ag23  1  -0.00298746  0.69590335  0.30757996  1
  Ag+  Ag24  1  0.14424568  0.01835578  0.49718041  1
  Ag+  Ag25  1  0.50501581  0.01982069  0.50686754  1
  Ag+  Ag26  1  0.02487456  0.85607976  0.83857333  1
  Ag+  Ag27  1  0.47665943  0.68031906  0.47105186  1
  Ag+  Ag28  1  0.85607082  0.00929919  0.19539603  1
  Ag+  Ag29  1  0.84068688  0.17088718  0.65859095  1
  Ag+  Ag30  1  0.66732998  0.16258263  0.14468010  1
  Ag+  Ag31  1  0.14799454  0.03022380  0.13919179  1
  Ag+  Ag32  1  0.84701900  0.16133117  0.30978698  1
  Ag+  Ag33  1  0.85894941  0.53062655  0.33812259  1
  Ag+  Ag34  1  0.17125986  0.00809012  0.84628922  1
  Ag+  Ag35  1  0.19196645  0.66493667  0.14149192  1
  Ag+  Ag36  1  0.18868214  0.52483229  0.02576304  1
  Ag+  Ag37  1  0.66824066  0.31428148  -0.02204607  1
  Ag+  Ag38  1  0.14236452  0.16415892  0.02883878  1
  Ag+  Ag39  1  0.01902069  0.17390576  0.50111460  1
  Ag+  Ag40  1  0.00219293  0.30247447  0.68131173  1
  Ag+  Ag41  1  0.18971551  0.31364965  0.13310941  1
  Ag+  Ag42  1  0.29933665  0.47294421  0.15220409  1
  Sn2+  Sn43  1  0.67183281  0.84153015  0.16779433  1
  Sn2+  Sn44  1  0.16802918  0.32492199  0.83300789  1
  Sn2+  Sn45  1  0.51000958  0.67078987  0.83542035  1
  Sn2+  Sn46  1  0.66369672  0.49010234  0.16759559  1
  Sn2+  Sn47  1  0.83190341  0.67146902  0.50488627  1
  Sn2+  Sn48  1  0.50225654  0.16385589  0.66016612  1
  Sn2+  Sn49  1  0.32556031  -0.00025098  0.33458755  1
  Sn2+  Sn50  1  0.15585768  0.16671493  0.67268399  1
  Sn2+  Sn51  1  0.33252794  0.00179348  0.66596130  1
  Sn2+  Sn52  1  0.32644792  0.50578629  0.83710770  1
  Sn2+  Sn53  1  0.32633268  0.82630388  0.83216821  1
  Sn2+  Sn54  1  0.67425641  0.66189911  0.33335471  1
  Sn2+  Sn55  1  0.14970483  0.66794237  0.83620867  1
  Sn2+  Sn56  1  0.66680102  -0.00046842  0.32742338  1
  Sn2+  Sn57  1  -0.00775045  0.33154355  -0.00377362  1
  Sn2+  Sn58  1  0.66306601  0.83800891  0.50435395  1
  Sn2+  Sn59  1  0.67037053  0.00083989  0.00511679  1
  Sn2+  Sn60  1  0.83991156  0.83984504  -0.00329437  1
  Sn2+  Sn61  1  0.83373031  0.16973266  0.00229169  1
  Sn2+  Sn62  1  0.33638721  0.66877643  0.66057540  1
  Sn2+  Sn63  1  0.33170549  0.16241799  0.83010924  1
  Sn2+  Sn64  1  0.68157215  0.33103877  0.66803142  1
  Bi3+  Bi65  1  0.00171889  0.50050238  0.83494023  1
  Bi3+  Bi66  1  0.83078948  0.32261819  0.17261213  1
  Bi3+  Bi67  1  -0.00341377  0.32742430  0.33480535  1
  Bi3+  Bi68  1  0.33387288  0.49860080  0.49609949  1
  Bi3+  Bi69  1  0.00041179  0.49642286  0.16750279  1
  Bi3+  Bi70  1  0.00017409  0.00148466  0.33843219  1
  Bi3+  Bi71  1  0.49922184  0.33347722  0.83560415  1
  Bi3+  Bi72  1  0.33476468  0.00412755  -0.00103476  1
  Bi3+  Bi73  1  0.50076220  -0.00322962  0.16896771  1
  Bi3+  Bi74  1  -0.00218565  0.66318832  -0.00100594  1
  Bi3+  Bi75  1  0.50160108  0.49903702  0.33085803  1
  Bi3+  Bi76  1  0.66917322  0.50247023  0.49728741  1
  Bi3+  Bi77  1  0.66612362  0.66750128  0.00065092  1
  Bi3+  Bi78  1  0.83015589  0.83782967  0.66407251  1
  Bi3+  Bi79  1  0.16639392  0.50175782  0.33055297  1
  Bi3+  Bi80  1  0.83286154  0.00107834  0.82660406  1
  Bi3+  Bi81  1  -0.00236029  0.67210755  0.66863806  1
  Bi3+  Bi82  1  0.16705335  0.66815927  0.50468237  1
  Bi3+  Bi83  1  0.66703463  0.33248535  0.33786298  1
  Bi3+  Bi84  1  0.66661632  0.66303381  0.66737142  1
  Bi3+  Bi85  1  0.49923483  0.82906694  0.66824747  1
  Te2-  Te86  1  0.16910737  0.17110474  0.17358715  1
  Te2-  Te87  1  0.16959766  0.16601489  0.50675266  1
  Te2-  Te88  1  0.17200941  0.15746357  0.82519882  1
  Te2-  Te89  1  0.16117534  0.51378955  0.16915327  1
  Te2-  Te90  1  0.17108948  0.50373960  0.50026714  1
  Te2-  Te91  1  0.16543116  0.49489654  0.83927349  1
  Te2-  Te92  1  0.16437277  0.81565958  0.16812497  1
  Te2-  Te93  1  0.18798603  0.82811667  0.49974462  1
  Te2-  Te94  1  0.16996438  0.83883673  0.83216806  1
  Te2-  Te95  1  0.50973747  0.16336178  0.17126568  1
  Te2-  Te96  1  0.51041342  0.16856386  0.49785927  1
  Te2-  Te97  1  0.50665365  0.17084384  0.82411532  1
  Te2-  Te98  1  0.50331063  0.51171932  0.16905391  1
  Te2-  Te99  1  0.50008795  0.50672204  0.49612613  1
  Te2-  Te100  1  0.49947324  0.49940508  0.84178590  1
  Te2-  Te101  1  0.51058484  0.83077070  0.16848818  1
  Te2-  Te102  1  0.49333612  0.82176179  0.50522087  1
  Te2-  Te103  1  0.49356404  0.83364024  0.83131146  1
  Te2-  Te104  1  0.82366852  0.15699486  0.16251313  1
  Te2-  Te105  1  0.82155536  0.15497543  0.51108092  1
  Te2-  Te106  1  0.82258986  0.16297381  0.82766176  1
  Te2-  Te107  1  0.83417002  0.49185470  0.18536129  1
  Te2-  Te108  1  0.83160803  0.50901460  0.48738898  1
  Te2-  Te109  1  0.83111267  0.49660982  0.83249189  1
  Te2-  Te110  1  0.83127712  0.86091998  0.16585262  1
  Te2-  Te111  1  0.83064396  0.84169875  0.50314823  1
  Te2-  Te112  1  0.83269774  0.83914034  0.82819563  1
  Te2-  Te113  1  0.17201018  0.01393201  -0.00306460  1
  Te2-  Te114  1  0.16709302  -0.00116468  0.34775928  1
  Te2-  Te115  1  0.16737092  0.00197325  0.64709867  1
  Te2-  Te116  1  0.16203194  0.31605260  -0.00924176  1
  Te2-  Te117  1  0.16182482  0.33863130  0.34252819  1
  Te2-  Te118  1  0.15314919  0.33011205  0.66172727  1
  Te2-  Te119  1  0.16244365  0.66778824  -0.00500381  1
  Te2-  Te120  1  0.14330496  0.66403856  0.34104397  1
  Te2-  Te121  1  0.16441928  0.66739183  0.67083209  1
  Te2-  Te122  1  0.49859966  0.00665413  0.00083141  1
  Te2-  Te123  1  0.49737899  0.00482378  0.33237066  1
  Te2-  Te124  1  0.50740301  -0.00454058  0.65728176  1
  Te2-  Te125  1  0.51731523  0.33623006  -0.00307708  1
  Te2-  Te126  1  0.50038737  0.33298461  0.33178571  1
  Te2-  Te127  1  0.50181616  0.33719232  0.67133337  1
  Te2-  Te128  1  0.50458174  0.65918256  0.00125873  1
  Te2-  Te129  1  0.50972966  0.66374603  0.32862757  1
  Te2-  Te130  1  0.50315805  0.66303914  0.67433988  1
  Te2-  Te131  1  0.83050193  0.00329814  -0.01133970  1
  Te2-  Te132  1  0.83238658  0.01133966  0.34213257  1
  Te2-  Te133  1  0.82079325  0.00150802  0.66347100  1
  Te2-  Te134  1  0.82082417  0.32982255  0.00669612  1
  Te2-  Te135  1  0.83244229  0.31606083  0.33939148  1
  Te2-  Te136  1  0.84429219  0.32417271  0.65516196  1
  Te2-  Te137  1  0.83218882  0.67047233  0.00728584  1
  Te2-  Te138  1  0.84393416  0.67739458  0.33141104  1
  Te2-  Te139  1  0.83157744  0.67243734  0.66702654  1
  Te2-  Te140  1  -0.00284648  0.17069963  -0.00300371  1
  Te2-  Te141  1  -0.00883551  0.16283686  0.34891254  1
  Te2-  Te142  1  -0.00832042  0.15825999  0.65187592  1
  Te2-  Te143  1  0.00214511  0.49780782  0.00049458  1
  Te2-  Te144  1  0.00168536  0.49166636  0.33258100  1
  Te2-  Te145  1  -0.00353422  0.50696490  0.66935291  1
  Te2-  Te146  1  -0.00052745  0.82924256  -0.01444236  1
  Te2-  Te147  1  -0.01133106  0.84004144  0.33936149  1
  Te2-  Te148  1  -0.00638941  0.83702739  0.67311462  1
  Te2-  Te149  1  0.34464015  0.16780598  -0.00239837  1
  Te2-  Te150  1  0.33645331  0.16905781  0.34227778  1
  Te2-  Te151  1  0.33809333  0.16208219  0.65685900  1
  Te2-  Te152  1  0.33170154  0.49339222  0.00802646  1
  Te2-  Te153  1  0.33570266  0.50758016  0.33059305  1
  Te2-  Te154  1  0.34016874  0.49890967  0.66398215  1
  Te2-  Te155  1  0.33587026  0.83737459  0.00507141  1
  Te2-  Te156  1  0.33766072  0.82751162  0.33212782  1
  Te2-  Te157  1  0.33808251  0.83440513  0.66590070  1
  Te2-  Te158  1  0.66059896  0.16603060  -0.00527631  1
  Te2-  Te159  1  0.66653960  0.16887082  0.34451696  1
  Te2-  Te160  1  0.66908014  0.17102501  0.66517528  1
  Te2-  Te161  1  0.66981633  0.50576381  0.00548892  1
  Te2-  Te162  1  0.66477708  0.49631068  0.33402837  1
  Te2-  Te163  1  0.66098283  0.50045416  0.66269573  1
  Te2-  Te164  1  0.67026146  0.83117469  -0.00773486  1
  Te2-  Te165  1  0.67763566  0.83310534  0.33611085  1
  Te2-  Te166  1  0.66376729  0.82654225  0.67253668  1
  Te2-  Te167  1  0.00697459  0.00040719  0.17163518  1
  Te2-  Te168  1  -0.00283510  -0.00618800  0.50351983  1
  Te2-  Te169  1  0.00430615  0.00144988  0.82570127  1
  Te2-  Te170  1  -0.00594490  0.33276990  0.16744092  1
  Te2-  Te171  1  -0.00029402  0.32326241  0.49824395  1
  Te2-  Te172  1  -0.00012346  0.33540042  0.82752029  1
  Te2-  Te173  1  -0.01394643  0.66324306  0.16230534  1
  Te2-  Te174  1  0.00227365  0.67119994  0.50840628  1
  Te2-  Te175  1  -0.01324955  0.66173800  0.83481193  1
  Te2-  Te176  1  0.33718521  -0.01016691  0.16641347  1
  Te2-  Te177  1  0.35240225  0.00496894  0.49707512  1
  Te2-  Te178  1  0.32356015  0.00015530  0.83466338  1
  Te2-  Te179  1  0.33407862  0.33096133  0.15800067  1
  Te2-  Te180  1  0.32933069  0.33551031  0.50501887  1
  Te2-  Te181  1  0.33612182  0.33313817  0.84265054  1
  Te2-  Te182  1  0.33635425  0.67593001  0.17068046  1
  Te2-  Te183  1  0.33217439  0.66015151  0.49778786  1
  Te2-  Te184  1  0.33062478  0.66370840  0.83220845  1
  Te2-  Te185  1  0.65987773  0.00986575  0.16614213  1
  Te2-  Te186  1  0.65519973  -0.00140842  0.50139212  1
  Te2-  Te187  1  0.66397485  -0.00110205  0.82894477  1
  Te2-  Te188  1  0.67000667  0.32008065  0.17559567  1
  Te2-  Te189  1  0.67392152  0.33926062  0.50183074  1
  Te2-  Te190  1  0.66307376  0.34146256  0.83229440  1
  Te2-  Te191  1  0.67804354  0.66965136  0.16500301  1
  Te2-  Te192  1  0.66770982  0.66550673  0.50381218  1
  Te2-  Te193  1  0.67889034  0.66053550  0.83450742  1
  Pb2+  Pb194  1  0.32583541  0.32814452  0.67296832  1
  Pb2+  Pb195  1  0.33583364  0.15842658  0.16999658  1
  Pb2+  Pb196  1  0.16207685  0.16622848  0.33885916  1
  Pb2+  Pb197  1  0.33443098  0.66497530  0.00085327  1
  Pb2+  Pb198  1  0.50388840  0.34077102  0.16232752  1
  Pb2+  Pb199  1  0.16392834  0.83711220  0.66510463  1
  Pb2+  Pb200  1  0.50336529  0.83340593  0.00148752  1
  Pb2+  Pb201  1  0.16452045  0.83443074  0.33393580  1
  Pb2+  Pb202  1  0.16655518  0.49853918  0.67452529  1
  Pb2+  Pb203  1  0.16812848  0.84538650  0.00226402  1
  Pb2+  Pb204  1  0.83615802  0.49665121  0.00895421  1
  Pb2+  Pb205  1  -0.00129417  0.00144582  -0.00065115  1
  Pb2+  Pb206  1  0.32992951  0.33887671  0.33483835  1
  Pb2+  Pb207  1  0.49170905  0.00344231  0.82499661  1
  Pb2+  Pb208  1  0.50654525  0.83539586  0.33735582  1
  Pb2+  Pb209  1  -0.00086689  0.49505883  0.50050018  1
  Pb2+  Pb210  1  0.50341036  0.33623199  0.50117245  1
  Pb2+  Pb211  1  -0.00262413  0.83167930  0.16131792  1
  Pb2+  Pb212  1  -0.00070412  0.16748753  0.82472643  1
  Pb2+  Pb213  1  0.83204478  0.32947803  0.83040776  1
  Pb2+  Pb214  1  -0.00559209  0.16608859  0.17302307  1
  Pb2+  Pb215  1  0.83042561  0.49754096  0.65691107  1
