# generated using pymatgen
data_In22Ag21Sn22Bi21(Te54Pb11)2
_symmetry_space_group_name_H-M   'P 1'
_cell_length_a   19.15784759
_cell_length_b   19.16106687
_cell_length_c   19.16181122
_cell_angle_alpha   90.00094390
_cell_angle_beta   89.98473119
_cell_angle_gamma   89.99217744
_symmetry_Int_Tables_number   1
_chemical_formula_structural   In22Ag21Sn22Bi21(Te54Pb11)2
_chemical_formula_sum   'In22 Ag21 Sn22 Bi21 Te108 Pb22'
_cell_volume   7034.00929724
_cell_formula_units_Z   1
loop_
 _symmetry_equiv_pos_site_id
 _symmetry_equiv_pos_as_xyz
  1  'x, y, z'
loop_
 _atom_type_symbol
 _atom_type_oxidation_number
  In3+  3.0
  Ag+  1.0
  Sn2+  2.0
  Bi3+  3.0
  Te2-  -2.0
  Pb2+  2.0
loop_
 _atom_site_type_symbol
 _atom_site_label
 _atom_site_symmetry_multiplicity
 _atom_site_fract_x
 _atom_site_fract_y
 _atom_site_fract_z
 _atom_site_occupancy
  In3+  In0  1  -0.00379277  0.15377741  0.17070988  1
  In3+  In1  1  -0.00765336  -0.00458061  0.65128005  1
  In3+  In2  1  0.00463044  0.49709356  0.17428759  1
  In3+  In3  1  0.01336516  0.35574077  0.66377970  1
  In3+  In4  1  -0.01135150  -0.00930519  0.00005368  1
  In3+  In5  1  0.32839790  0.50849651  0.82085087  1
  In3+  In6  1  0.83744666  0.66959396  0.52966504  1
  In3+  In7  1  0.13980349  0.15376893  0.00441133  1
  In3+  In8  1  0.32949569  0.51306197  0.17349354  1
  In3+  In9  1  0.52071318  0.49584564  0.33904681  1
  In3+  In10  1  0.33458923  0.16784605  0.15991773  1
  In3+  In11  1  0.32270604  0.17088032  0.51334874  1
  In3+  In12  1  0.32792961  0.36037028  0.66462850  1
  In3+  In13  1  0.85419820  0.33265341  0.84951955  1
  In3+  In14  1  0.50094766  0.35905547  0.16908954  1
  In3+  In15  1  0.48539101  0.14900969  0.33230135  1
  In3+  In16  1  0.16026631  0.33516738  0.16624326  1
  In3+  In17  1  0.49617961  0.66555386  0.84206065  1
  In3+  In18  1  0.68802543  0.34100195  0.66814166  1
  In3+  In19  1  0.68093677  0.65698837  0.00516459  1
  In3+  In20  1  0.30634436  0.82129983  0.50440587  1
  In3+  In21  1  0.32871264  0.66968803  0.32168249  1
  Ag+  Ag22  1  0.50619528  0.65819680  0.19268685  1
  Ag+  Ag23  1  0.84049285  0.19067819  0.00393240  1
  Ag+  Ag24  1  -0.00503441  0.84696757  0.80893319  1
  Ag+  Ag25  1  0.35523997  0.52597051  0.47006778  1
  Ag+  Ag26  1  0.14515054  0.79823642  -0.01077140  1
  Ag+  Ag27  1  0.85949276  0.68705128  0.83217232  1
  Ag+  Ag28  1  0.30684313  0.66037024  0.64264926  1
  Ag+  Ag29  1  0.84114413  0.18734277  0.64266917  1
  Ag+  Ag30  1  0.00265034  0.81858173  0.51584506  1
  Ag+  Ag31  1  0.69391544  0.47638887  0.16240114  1
  Ag+  Ag32  1  0.69248575  0.50059288  0.52760958  1
  Ag+  Ag33  1  0.15389359  0.68025795  0.80496596  1
  Ag+  Ag34  1  0.16561690  -0.01537905  0.16232627  1
  Ag+  Ag35  1  0.14389710  0.68772531  0.17286289  1
  Ag+  Ag36  1  -0.00015046  0.31437130  0.30970570  1
  Ag+  Ag37  1  0.85517126  0.82738214  0.69756483  1
  Ag+  Ag38  1  0.00216432  -0.02270066  0.35165225  1
  Ag+  Ag39  1  0.86030540  0.48815755  -0.00316669  1
  Ag+  Ag40  1  -0.01475727  0.33289619  0.01532541  1
  Ag+  Ag41  1  0.16822998  0.54098866  0.69043385  1
  Ag+  Ag42  1  0.14461082  0.83412227  0.69709355  1
  Sn2+  Sn43  1  0.00482851  0.66332383  -0.00495130  1
  Sn2+  Sn44  1  0.49785220  -0.00502229  0.83290598  1
  Sn2+  Sn45  1  0.49434107  -0.00348318  0.50033671  1
  Sn2+  Sn46  1  0.16505132  -0.00880727  0.49943385  1
  Sn2+  Sn47  1  0.32585740  0.83310098  0.16847450  1
  Sn2+  Sn48  1  0.00451383  0.67697104  0.67444305  1
  Sn2+  Sn49  1  0.50065276  0.33597001  0.49839879  1
  Sn2+  Sn50  1  0.49427864  0.82879602  0.00080891  1
  Sn2+  Sn51  1  0.83359315  0.33960221  0.16961053  1
  Sn2+  Sn52  1  0.16551351  0.16104015  0.32386195  1
  Sn2+  Sn53  1  0.16434726  0.83716607  0.32661936  1
  Sn2+  Sn54  1  0.83256729  0.50376274  0.32699457  1
  Sn2+  Sn55  1  0.66131104  0.66717915  0.66891622  1
  Sn2+  Sn56  1  -0.00074622  0.50575703  0.84136653  1
  Sn2+  Sn57  1  0.68841611  0.00443239  0.33535824  1
  Sn2+  Sn58  1  0.49981776  0.33488166  0.83344085  1
  Sn2+  Sn59  1  0.50152419  0.82813824  0.33171561  1
  Sn2+  Sn60  1  0.67763857  0.81876855  0.49950820  1
  Sn2+  Sn61  1  0.83697157  0.82803942  0.33547820  1
  Sn2+  Sn62  1  0.67426585  0.33759562  0.33643812  1
  Sn2+  Sn63  1  0.49060951  -0.00624922  0.16936852  1
  Sn2+  Sn64  1  0.49225185  0.50467589  0.65997622  1
  Bi3+  Bi65  1  0.66480295  -0.00229617  0.00188122  1
  Bi3+  Bi66  1  0.00233357  0.50291316  0.49985780  1
  Bi3+  Bi67  1  0.49508726  0.50116022  -0.00171785  1
  Bi3+  Bi68  1  0.33027871  0.66912424  0.00254561  1
  Bi3+  Bi69  1  0.66681418  0.17720463  0.49945138  1
  Bi3+  Bi70  1  0.83595094  0.82768813  0.00245506  1
  Bi3+  Bi71  1  0.32962597  0.33273367  0.00300976  1
  Bi3+  Bi72  1  0.16469628  0.33257126  0.49968108  1
  Bi3+  Bi73  1  0.50868492  0.66643033  0.50148212  1
  Bi3+  Bi74  1  0.32974144  -0.01063075  0.66267649  1
  Bi3+  Bi75  1  0.67008544  0.00071799  0.66184278  1
  Bi3+  Bi76  1  0.49832906  0.83323066  0.66151057  1
  Bi3+  Bi77  1  0.66012289  0.83595339  0.16529673  1
  Bi3+  Bi78  1  0.33128161  0.82726763  0.83305204  1
  Bi3+  Bi79  1  0.00044301  0.83137373  0.16138784  1
  Bi3+  Bi80  1  0.16697594  0.49942560  -0.00081117  1
  Bi3+  Bi81  1  0.33406900  -0.00063369  0.00381954  1
  Bi3+  Bi82  1  0.83521730  0.33789652  0.49705645  1
  Bi3+  Bi83  1  0.16411580  0.49688708  0.33490476  1
  Bi3+  Bi84  1  -0.00076965  0.16268061  0.83487474  1
  Bi3+  Bi85  1  0.16736186  0.33652182  0.83338494  1
  Te2-  Te86  1  0.16384978  0.18046286  0.16015980  1
  Te2-  Te87  1  0.16787030  0.16676100  0.49938715  1
  Te2-  Te88  1  0.16164056  0.16788638  0.83651876  1
  Te2-  Te89  1  0.16753627  0.49195150  0.16901766  1
  Te2-  Te90  1  0.16375263  0.49348127  0.49858513  1
  Te2-  Te91  1  0.17013509  0.50041621  0.83357615  1
  Te2-  Te92  1  0.16591825  0.83376709  0.16797741  1
  Te2-  Te93  1  0.15411515  0.83124480  0.48966466  1
  Te2-  Te94  1  0.17153816  0.82175899  0.84314214  1
  Te2-  Te95  1  0.49327551  0.16078079  0.17787415  1
  Te2-  Te96  1  0.50424115  0.17106486  0.49051407  1
  Te2-  Te97  1  0.50033072  0.16966386  0.82930225  1
  Te2-  Te98  1  0.48870570  0.51120782  0.16662259  1
  Te2-  Te99  1  0.49704539  0.50002604  0.49347299  1
  Te2-  Te100  1  0.49037630  0.50061218  0.83287295  1
  Te2-  Te101  1  0.49738171  0.83320257  0.16950376  1
  Te2-  Te102  1  0.50932760  0.82947608  0.49909827  1
  Te2-  Te103  1  0.49819656  0.82799202  0.82836320  1
  Te2-  Te104  1  0.84276162  0.17061859  0.15543353  1
  Te2-  Te105  1  0.83154153  0.17082502  0.49638030  1
  Te2-  Te106  1  0.83929773  0.17834205  0.84976493  1
  Te2-  Te107  1  0.84031749  0.49577180  0.15233736  1
  Te2-  Te108  1  0.83899023  0.50276564  0.50274786  1
  Te2-  Te109  1  0.83730402  0.48584743  0.84384009  1
  Te2-  Te110  1  0.82977750  0.83113015  0.16461456  1
  Te2-  Te111  1  0.83991230  0.82020375  0.49319294  1
  Te2-  Te112  1  0.84875359  0.83399071  0.84381376  1
  Te2-  Te113  1  0.17342386  0.00700706  0.01078952  1
  Te2-  Te114  1  0.15474104  0.00246401  0.32811380  1
  Te2-  Te115  1  0.16835492  -0.01521845  0.66600623  1
  Te2-  Te116  1  0.17002897  0.33483313  -0.00276874  1
  Te2-  Te117  1  0.15503718  0.33207992  0.33433370  1
  Te2-  Te118  1  0.17488494  0.32677688  0.66716385  1
  Te2-  Te119  1  0.17178607  0.65832144  0.02255959  1
  Te2-  Te120  1  0.17456271  0.66207790  0.32025896  1
  Te2-  Te121  1  0.16265408  0.68494534  0.65915240  1
  Te2-  Te122  1  0.50029750  -0.00215679  0.00100214  1
  Te2-  Te123  1  0.49873315  -0.00263962  0.33384070  1
  Te2-  Te124  1  0.50289070  0.00086145  0.66630355  1
  Te2-  Te125  1  0.49571092  0.33686608  0.00532872  1
  Te2-  Te126  1  0.50006195  0.34520518  0.32792498  1
  Te2-  Te127  1  0.48253390  0.33969132  0.66508524  1
  Te2-  Te128  1  0.49156366  0.66472353  -0.00244248  1
  Te2-  Te129  1  0.49470407  0.66025455  0.33994931  1
  Te2-  Te130  1  0.50097433  0.66735786  0.66232605  1
  Te2-  Te131  1  0.82935980  -0.00517726  -0.00162593  1
  Te2-  Te132  1  0.84738320  0.00025613  0.33191721  1
  Te2-  Te133  1  0.82982519  -0.02225844  0.66460864  1
  Te2-  Te134  1  0.83586743  0.34013536  0.00159560  1
  Te2-  Te135  1  0.84457762  0.33957986  0.33452788  1
  Te2-  Te136  1  0.83975802  0.33439036  0.66232129  1
  Te2-  Te137  1  0.83212848  0.66616484  -0.01753886  1
  Te2-  Te138  1  0.83074813  0.66205995  0.32451394  1
  Te2-  Te139  1  0.82949578  0.67531384  0.68240231  1
  Te2-  Te140  1  -0.00605338  0.18335667  -0.00133535  1
  Te2-  Te141  1  0.00227623  0.16877112  0.32329819  1
  Te2-  Te142  1  -0.01389769  0.14878770  0.67098813  1
  Te2-  Te143  1  0.00711714  0.49237563  0.00161099  1
  Te2-  Te144  1  0.00127594  0.50045651  0.33416048  1
  Te2-  Te145  1  0.01182302  0.50974509  0.66515669  1
  Te2-  Te146  1  0.00411656  0.83409264  0.00294242  1
  Te2-  Te147  1  -0.00180752  0.83379991  0.31981693  1
  Te2-  Te148  1  -0.00026710  0.84179238  0.66223148  1
  Te2-  Te149  1  0.33473378  0.16637550  0.00259732  1
  Te2-  Te150  1  0.33381266  0.16580268  0.33337922  1
  Te2-  Te151  1  0.33374243  0.15295812  0.66454980  1
  Te2-  Te152  1  0.33201206  0.49710146  0.01131972  1
  Te2-  Te153  1  0.32635028  0.50026237  0.33006544  1
  Te2-  Te154  1  0.31987823  0.51439307  0.66786904  1
  Te2-  Te155  1  0.33228206  0.83697982  -0.00083893  1
  Te2-  Te156  1  0.33322489  0.82758095  0.34055093  1
  Te2-  Te157  1  0.33667459  0.82850482  0.66332428  1
  Te2-  Te158  1  0.66853693  0.16224631  0.00110790  1
  Te2-  Te159  1  0.66359773  0.17128887  0.33788933  1
  Te2-  Te160  1  0.68159974  0.16437424  0.66073328  1
  Te2-  Te161  1  0.65619453  0.50406776  0.01380204  1
  Te2-  Te162  1  0.66893316  0.49838612  0.31295474  1
  Te2-  Te163  1  0.66542356  0.49459151  0.67111885  1
  Te2-  Te164  1  0.66459991  0.83551482  -0.00053861  1
  Te2-  Te165  1  0.66885771  0.83970308  0.33116054  1
  Te2-  Te166  1  0.66024693  0.83550594  0.66193576  1
  Te2-  Te167  1  0.01233434  0.00304012  0.15385528  1
  Te2-  Te168  1  0.00285958  -0.00580938  0.49756872  1
  Te2-  Te169  1  0.00333229  -0.00635880  0.84543901  1
  Te2-  Te170  1  0.00337551  0.34394211  0.16470927  1
  Te2-  Te171  1  -0.00042991  0.33478219  0.50643657  1
  Te2-  Te172  1  0.00617993  0.33040822  0.82453165  1
  Te2-  Te173  1  -0.00259099  0.66478899  0.16100049  1
  Te2-  Te174  1  -0.00866944  0.66923912  0.50163089  1
  Te2-  Te175  1  0.00780520  0.66338331  0.83613398  1
  Te2-  Te176  1  0.32178799  0.00588957  0.16512812  1
  Te2-  Te177  1  0.33274825  0.00391924  0.50099575  1
  Te2-  Te178  1  0.33467216  -0.00349754  0.83424344  1
  Te2-  Te179  1  0.33958293  0.32429630  0.16526808  1
  Te2-  Te180  1  0.32906217  0.32658417  0.50409742  1
  Te2-  Te181  1  0.33058801  0.33967494  0.83644093  1
  Te2-  Te182  1  0.34713177  0.67032655  0.16721538  1
  Te2-  Te183  1  0.33864179  0.66914402  0.49833343  1
  Te2-  Te184  1  0.33543322  0.66501169  0.84033853  1
  Te2-  Te185  1  0.66440836  -0.00071029  0.16703690  1
  Te2-  Te186  1  0.66377902  0.00645291  0.49854534  1
  Te2-  Te187  1  0.66541699  -0.00216132  0.83289630  1
  Te2-  Te188  1  0.65878457  0.33287399  0.16783568  1
  Te2-  Te189  1  0.67030255  0.34494995  0.50317628  1
  Te2-  Te190  1  0.65902156  0.33459527  0.82638135  1
  Te2-  Te191  1  0.65320648  0.67642560  0.15899366  1
  Te2-  Te192  1  0.67373263  0.65131054  0.50150539  1
  Te2-  Te193  1  0.65296239  0.66529804  0.83804174  1
  Pb2+  Pb194  1  0.32623355  0.33281747  0.33407419  1
  Pb2+  Pb195  1  0.83096247  -0.00847086  0.49949226  1
  Pb2+  Pb196  1  0.16493931  0.66020840  0.49259501  1
  Pb2+  Pb197  1  0.82718333  0.66015817  0.15578538  1
  Pb2+  Pb198  1  0.33191178  0.17224086  0.83263076  1
  Pb2+  Pb199  1  0.00036634  0.16233574  0.49689329  1
  Pb2+  Pb200  1  0.16732744  -0.01234806  0.84083776  1
  Pb2+  Pb201  1  0.00019502  0.66749886  0.33150900  1
  Pb2+  Pb202  1  0.84006801  0.50549482  0.67706672  1
  Pb2+  Pb203  1  0.66642644  0.50121306  0.84294993  1
  Pb2+  Pb204  1  0.66565441  0.16840779  0.16951379  1
  Pb2+  Pb205  1  0.83299513  0.17230577  0.32590162  1
  Pb2+  Pb206  1  0.50282777  0.16794269  0.00485766  1
  Pb2+  Pb207  1  0.66544398  0.66956490  0.33151807  1
  Pb2+  Pb208  1  0.66971884  0.33492809  -0.00170183  1
  Pb2+  Pb209  1  0.50543659  0.17485608  0.66020412  1
  Pb2+  Pb210  1  0.83857332  0.00022803  0.16494915  1
  Pb2+  Pb211  1  0.83720144  0.00666485  0.82724207  1
  Pb2+  Pb212  1  0.15630279  0.15507831  0.66736539  1
  Pb2+  Pb213  1  0.67526348  0.82846608  0.83054857  1
  Pb2+  Pb214  1  0.32094579  -0.00432068  0.33267343  1
  Pb2+  Pb215  1  0.67175377  0.16788258  0.83084818  1
