# generated using pymatgen
data_In22Ag21Sn22Bi21(Te54Pb11)2
_symmetry_space_group_name_H-M   'P 1'
_cell_length_a   19.14272587
_cell_length_b   19.14575453
_cell_length_c   19.13452333
_cell_angle_alpha   90.00454439
_cell_angle_beta   90.00767814
_cell_angle_gamma   90.00042822
_symmetry_Int_Tables_number   1
_chemical_formula_structural   In22Ag21Sn22Bi21(Te54Pb11)2
_chemical_formula_sum   'In22 Ag21 Sn22 Bi21 Te108 Pb22'
_cell_volume   7012.83965190
_cell_formula_units_Z   1
loop_
 _symmetry_equiv_pos_site_id
 _symmetry_equiv_pos_as_xyz
  1  'x, y, z'
loop_
 _atom_type_symbol
 _atom_type_oxidation_number
  In3+  3.0
  Ag+  1.0
  Sn2+  2.0
  Bi3+  3.0
  Te2-  -2.0
  Pb2+  2.0
loop_
 _atom_site_type_symbol
 _atom_site_label
 _atom_site_symmetry_multiplicity
 _atom_site_fract_x
 _atom_site_fract_y
 _atom_site_fract_z
 _atom_site_occupancy
  In3+  In0  1  0.82692259  0.17360202  0.01177377  1
  In3+  In1  1  -0.00779987  0.49904931  0.82644499  1
  In3+  In2  1  0.48228776  0.32263258  0.16159642  1
  In3+  In3  1  0.00199550  0.16959162  0.15890209  1
  In3+  In4  1  0.67713569  0.17636204  0.83307228  1
  In3+  In5  1  0.50629150  0.82989898  -0.01342998  1
  In3+  In6  1  0.35320605  0.67105051  0.66842836  1
  In3+  In7  1  0.81431591  0.50915138  0.67044046  1
  In3+  In8  1  0.50659057  0.48735368  0.65813906  1
  In3+  In9  1  0.66348272  0.49687672  0.14371584  1
  In3+  In10  1  0.83564443  0.33782482  0.15076951  1
  In3+  In11  1  0.35535031  0.49821340  0.83481216  1
  In3+  In12  1  0.51670465  0.66567247  0.16769462  1
  In3+  In13  1  -0.00231754  0.66211759  0.68997037  1
  In3+  In14  1  -0.00124000  0.82437680  0.51503844  1
  In3+  In15  1  0.83185888  0.49931929  0.31447453  1
  In3+  In16  1  0.14699439  0.66667123  0.84337002  1
  In3+  In17  1  0.17723483  -0.01688551  0.83124136  1
  In3+  In18  1  -0.00024568  0.51233178  0.16493238  1
  In3+  In19  1  0.66105321  0.33665163  0.33145305  1
  In3+  In20  1  -0.00292991  0.15919682  0.83676234  1
  In3+  In21  1  0.18383922  0.16578057  0.00258298  1
  Ag+  Ag22  1  0.47324506  0.83896238  0.65667023  1
  Ag+  Ag23  1  -0.02941021  0.64857932  -0.00445467  1
  Ag+  Ag24  1  0.35590973  0.19664669  0.16578537  1
  Ag+  Ag25  1  0.18265320  0.34834066  0.15235395  1
  Ag+  Ag26  1  0.33465493  0.14406442  0.53137944  1
  Ag+  Ag27  1  0.81069642  0.66248171  0.84665830  1
  Ag+  Ag28  1  0.66290413  0.85243964  0.80548792  1
  Ag+  Ag29  1  0.64981583  0.34036381  0.68917266  1
  Ag+  Ag30  1  0.47826879  0.85717190  0.30119603  1
  Ag+  Ag31  1  0.30420868  0.35552084  -0.01631103  1
  Ag+  Ag32  1  0.65592506  0.52071992  0.84797442  1
  Ag+  Ag33  1  0.33660956  0.03238187  0.64215534  1
  Ag+  Ag34  1  0.01235860  0.80653170  0.18927863  1
  Ag+  Ag35  1  0.81727079  0.66215243  0.14477895  1
  Ag+  Ag36  1  0.64625962  0.32912809  -0.01531830  1
  Ag+  Ag37  1  0.36263262  0.80631680  0.18033456  1
  Ag+  Ag38  1  0.53119375  0.29865585  0.52618439  1
  Ag+  Ag39  1  0.66718428  0.68251467  -0.00717796  1
  Ag+  Ag40  1  0.83720193  0.80815042  0.69404014  1
  Ag+  Ag41  1  0.48857446  0.19636133  0.35499349  1
  Ag+  Ag42  1  0.67914986  -0.02089209  -0.01067137  1
  Sn2+  Sn43  1  0.66906819  0.67437912  0.68328525  1
  Sn2+  Sn44  1  0.83034988  0.83329035  0.33064604  1
  Sn2+  Sn45  1  0.83842986  0.00119457  0.50937608  1
  Sn2+  Sn46  1  0.82024620  0.17648251  0.33111277  1
  Sn2+  Sn47  1  0.17053157  -0.00012472  0.50526322  1
  Sn2+  Sn48  1  0.16327252  0.83335452  0.66376335  1
  Sn2+  Sn49  1  0.00583739  0.33614449  0.00030836  1
  Sn2+  Sn50  1  0.82811445  -0.01222247  0.83511194  1
  Sn2+  Sn51  1  0.33119285  0.33559399  0.66164700  1
  Sn2+  Sn52  1  -0.00019096  0.32889226  0.32914357  1
  Sn2+  Sn53  1  0.16416791  0.33890341  0.83227231  1
  Sn2+  Sn54  1  0.50232720  0.67389350  0.49771163  1
  Sn2+  Sn55  1  0.33422513  0.49980671  0.16691436  1
  Sn2+  Sn56  1  0.33298452  0.32387487  0.33636808  1
  Sn2+  Sn57  1  0.01506026  0.16328683  0.49688768  1
  Sn2+  Sn58  1  -0.00902993  0.33472862  0.66797739  1
  Sn2+  Sn59  1  0.16949733  0.83917310  0.00315506  1
  Sn2+  Sn60  1  0.66398289  0.49587064  0.50288357  1
  Sn2+  Sn61  1  0.83178120  0.33613928  0.82986750  1
  Sn2+  Sn62  1  -0.01496781  0.83586138  0.83849473  1
  Sn2+  Sn63  1  0.17266090  0.83513146  0.32268141  1
  Sn2+  Sn64  1  0.83228589  -0.01820515  0.16776607  1
  Bi3+  Bi65  1  0.67406658  0.83001244  0.17035821  1
  Bi3+  Bi66  1  0.33357693  0.49688418  0.50241316  1
  Bi3+  Bi67  1  0.50342152  0.66868661  0.83401797  1
  Bi3+  Bi68  1  0.50461249  0.49999200  0.33631900  1
  Bi3+  Bi69  1  -0.01038989  0.00199551  -0.00019838  1
  Bi3+  Bi70  1  0.83440183  0.33333310  0.50088121  1
  Bi3+  Bi71  1  0.33488953  -0.00268606  0.00333374  1
  Bi3+  Bi72  1  0.16546641  0.66632727  0.16222401  1
  Bi3+  Bi73  1  0.67175129  0.83030261  0.50126849  1
  Bi3+  Bi74  1  0.83401170  0.17004133  0.66756556  1
  Bi3+  Bi75  1  0.16456954  0.00211278  0.16210361  1
  Bi3+  Bi76  1  0.50469967  0.16410179  -0.00098618  1
  Bi3+  Bi77  1  0.50143221  -0.00247442  0.83504017  1
  Bi3+  Bi78  1  -0.00472317  0.00078530  0.33168166  1
  Bi3+  Bi79  1  0.16378215  0.66970563  0.50267126  1
  Bi3+  Bi80  1  0.66730197  0.00003060  0.32794417  1
  Bi3+  Bi81  1  0.50168216  -0.00200513  0.50275303  1
  Bi3+  Bi82  1  0.83222943  0.66771029  0.50041501  1
  Bi3+  Bi83  1  0.17078715  0.32958087  0.49721100  1
  Bi3+  Bi84  1  0.83334890  0.49980969  -0.00688814  1
  Bi3+  Bi85  1  0.83199262  0.83090999  0.00193898  1
  Te2-  Te86  1  0.15626802  0.16539258  0.15839777  1
  Te2-  Te87  1  0.18239859  0.16718319  0.49880051  1
  Te2-  Te88  1  0.15776821  0.17535664  0.84435214  1
  Te2-  Te89  1  0.15874647  0.49548795  0.16438167  1
  Te2-  Te90  1  0.16688984  0.50116449  0.49979335  1
  Te2-  Te91  1  0.15516036  0.50997781  0.83378770  1
  Te2-  Te92  1  0.15712006  0.83272802  0.16311816  1
  Te2-  Te93  1  0.16259015  0.83162528  0.49790585  1
  Te2-  Te94  1  0.16277307  0.82899639  0.83363382  1
  Te2-  Te95  1  0.50322652  0.17049467  0.16120347  1
  Te2-  Te96  1  0.48756028  0.16136808  0.49814251  1
  Te2-  Te97  1  0.50382871  0.16243827  0.83558409  1
  Te2-  Te98  1  0.50513770  0.50498096  0.17140703  1
  Te2-  Te99  1  0.49589404  0.50461485  0.50177489  1
  Te2-  Te100  1  0.50985485  0.50275817  0.82766042  1
  Te2-  Te101  1  0.50812834  0.82225559  0.16175466  1
  Te2-  Te102  1  0.50585217  0.83384807  0.51008102  1
  Te2-  Te103  1  0.51280543  0.83301408  0.83160860  1
  Te2-  Te104  1  0.83608348  0.16821760  0.16604685  1
  Te2-  Te105  1  0.83719473  0.16995386  0.50073318  1
  Te2-  Te106  1  0.83667768  0.16470421  0.83033172  1
  Te2-  Te107  1  0.83548046  0.51012817  0.16163532  1
  Te2-  Te108  1  0.83079847  0.49972906  0.51238409  1
  Te2-  Te109  1  0.83660345  0.51030734  0.82673480  1
  Te2-  Te110  1  0.83617088  0.81587830  0.16500086  1
  Te2-  Te111  1  0.83771486  0.83169402  0.49455786  1
  Te2-  Te112  1  0.82125085  0.82577856  0.84048831  1
  Te2-  Te113  1  0.16237825  0.00601505  -0.00381311  1
  Te2-  Te114  1  0.16118055  -0.00029648  0.33024569  1
  Te2-  Te115  1  0.18163591  -0.00036996  0.67243159  1
  Te2-  Te116  1  0.16371007  0.32415613  0.00755288  1
  Te2-  Te117  1  0.16299866  0.33147946  0.33348051  1
  Te2-  Te118  1  0.16319974  0.33469272  0.66277274  1
  Te2-  Te119  1  0.17023389  0.67139351  -0.00398657  1
  Te2-  Te120  1  0.16469693  0.66800644  0.33486414  1
  Te2-  Te121  1  0.15071675  0.66960412  0.66452205  1
  Te2-  Te122  1  0.50258583  -0.00028466  -0.00120479  1
  Te2-  Te123  1  0.50524412  -0.00317419  0.33753219  1
  Te2-  Te124  1  0.48980875  -0.00960051  0.66938688  1
  Te2-  Te125  1  0.49931221  0.32942107  0.00827121  1
  Te2-  Te126  1  0.50531177  0.33847840  0.32018866  1
  Te2-  Te127  1  0.50359002  0.33479972  0.66624078  1
  Te2-  Te128  1  0.51350971  0.66884361  0.00031452  1
  Te2-  Te129  1  0.50193959  0.66223488  0.32908935  1
  Te2-  Te130  1  0.50480548  0.68285545  0.66924512  1
  Te2-  Te131  1  0.82699034  0.00147251  0.00218488  1
  Te2-  Te132  1  0.83062853  0.00430011  0.33418030  1
  Te2-  Te133  1  0.83520241  0.00725530  0.66801782  1
  Te2-  Te134  1  0.83786106  0.33301729  -0.00152478  1
  Te2-  Te135  1  0.83248833  0.33977711  0.34040698  1
  Te2-  Te136  1  0.83151135  0.33641530  0.66205951  1
  Te2-  Te137  1  0.82364756  0.66504043  -0.00454366  1
  Te2-  Te138  1  0.83437974  0.65784406  0.33879484  1
  Te2-  Te139  1  0.84285360  0.66273673  0.66196302  1
  Te2-  Te140  1  -0.01436206  0.16510514  -0.00305237  1
  Te2-  Te141  1  -0.00441743  0.16230997  0.33641073  1
  Te2-  Te142  1  -0.00217166  0.16646674  0.66688821  1
  Te2-  Te143  1  -0.00530971  0.50063698  0.00263795  1
  Te2-  Te144  1  -0.00751761  0.49881683  0.32576377  1
  Te2-  Te145  1  0.00027500  0.50465386  0.67162180  1
  Te2-  Te146  1  -0.00327176  0.84341684  -0.00438870  1
  Te2-  Te147  1  -0.00106994  0.84103263  0.33121621  1
  Te2-  Te148  1  -0.01119687  0.82947140  0.66909059  1
  Te2-  Te149  1  0.33841239  0.16283004  0.01423790  1
  Te2-  Te150  1  0.34553267  0.17320976  0.31576717  1
  Te2-  Te151  1  0.33354996  0.17533842  0.67800865  1
  Te2-  Te152  1  0.33528879  0.49829904  -0.00724483  1
  Te2-  Te153  1  0.33889022  0.49481831  0.33553617  1
  Te2-  Te154  1  0.34394984  0.50320808  0.66910005  1
  Te2-  Te155  1  0.34121856  0.83527402  0.00795712  1
  Te2-  Te156  1  0.33644487  0.83068730  0.32610527  1
  Te2-  Te157  1  0.32573338  0.82315674  0.66919447  1
  Te2-  Te158  1  0.67259775  0.18034018  -0.00657296  1
  Te2-  Te159  1  0.65672578  0.16573860  0.33184094  1
  Te2-  Te160  1  0.67134600  0.17322030  0.67251463  1
  Te2-  Te161  1  0.67320323  0.48076012  -0.00894739  1
  Te2-  Te162  1  0.66969318  0.49588089  0.33518618  1
  Te2-  Te163  1  0.66270639  0.49059630  0.67021792  1
  Te2-  Te164  1  0.66577652  0.83350866  0.00968666  1
  Te2-  Te165  1  0.66574489  0.83415734  0.33573424  1
  Te2-  Te166  1  0.68875279  0.83344551  0.66306068  1
  Te2-  Te167  1  -0.00157036  0.00621121  0.16473670  1
  Te2-  Te168  1  0.00493073  -0.00299540  0.49771838  1
  Te2-  Te169  1  0.00200087  0.00471531  0.83581224  1
  Te2-  Te170  1  -0.01237198  0.32543331  0.16890250  1
  Te2-  Te171  1  0.00353607  0.33021503  0.50005561  1
  Te2-  Te172  1  0.00093408  0.34065629  0.83166955  1
  Te2-  Te173  1  0.00671700  0.66546821  0.14729609  1
  Te2-  Te174  1  0.00068422  0.66961097  0.49444051  1
  Te2-  Te175  1  -0.00435923  0.66761563  0.84501178  1
  Te2-  Te176  1  0.32551208  -0.00531350  0.16327404  1
  Te2-  Te177  1  0.33350693  -0.00068335  0.49881817  1
  Te2-  Te178  1  0.33327605  -0.00225803  0.84052542  1
  Te2-  Te179  1  0.32828442  0.34270837  0.16243149  1
  Te2-  Te180  1  0.33165296  0.33788566  0.50111990  1
  Te2-  Te181  1  0.32749979  0.34221067  0.83733008  1
  Te2-  Te182  1  0.32523728  0.66310411  0.16593268  1
  Te2-  Te183  1  0.32843561  0.66208539  0.50899504  1
  Te2-  Te184  1  0.33853038  0.65884847  0.82657141  1
  Te2-  Te185  1  0.66817712  -0.00414270  0.16648780  1
  Te2-  Te186  1  0.66762463  -0.00359255  0.49942744  1
  Te2-  Te187  1  0.66604997  -0.00156075  0.84279751  1
  Te2-  Te188  1  0.68453513  0.34402330  0.17329746  1
  Te2-  Te189  1  0.66848659  0.33383573  0.48995776  1
  Te2-  Te190  1  0.67290204  0.32921520  0.83333537  1
  Te2-  Te191  1  0.67052934  0.65842678  0.16090306  1
  Te2-  Te192  1  0.66879054  0.66614678  0.50751801  1
  Te2-  Te193  1  0.66410825  0.66661033  0.84051044  1
  Pb2+  Pb194  1  0.33534510  0.66385970  0.33657737  1
  Pb2+  Pb195  1  0.50081036  0.33128420  0.83870093  1
  Pb2+  Pb196  1  0.17337380  0.16691581  0.32656001  1
  Pb2+  Pb197  1  0.66872058  0.66471488  0.33395683  1
  Pb2+  Pb198  1  0.16568163  0.16661908  0.67209823  1
  Pb2+  Pb199  1  0.33571243  0.83282885  0.49809882  1
  Pb2+  Pb200  1  0.16636705  0.49787419  0.33008830  1
  Pb2+  Pb201  1  -0.00233721  0.67331138  0.32033694  1
  Pb2+  Pb202  1  0.34100579  0.66774902  -0.00115463  1
  Pb2+  Pb203  1  -0.00492937  0.49922859  0.50048406  1
  Pb2+  Pb204  1  0.66871923  0.17283917  0.16427291  1
  Pb2+  Pb205  1  0.33580620  0.82867161  0.83838566  1
  Pb2+  Pb206  1  0.50237535  0.15868661  0.66395868  1
  Pb2+  Pb207  1  0.49534142  -0.00286057  0.16745473  1
  Pb2+  Pb208  1  0.66453468  -0.00249244  0.67350511  1
  Pb2+  Pb209  1  0.16502250  0.50076044  -0.00175947  1
  Pb2+  Pb210  1  0.33503944  0.00635061  0.32897677  1
  Pb2+  Pb211  1  0.17383615  0.50211371  0.66971578  1
  Pb2+  Pb212  1  0.00809860  -0.00398040  0.66707383  1
  Pb2+  Pb213  1  0.33026395  0.16829765  0.84759362  1
  Pb2+  Pb214  1  0.66509397  0.16610448  0.49935963  1
  Pb2+  Pb215  1  0.50513309  0.50003540  0.00189459  1
