# generated using pymatgen
data_In22Ag21Sn22Bi21(Te54Pb11)2
_symmetry_space_group_name_H-M   'P 1'
_cell_length_a   19.16842434
_cell_length_b   19.16679616
_cell_length_c   19.19263823
_cell_angle_alpha   90.00250138
_cell_angle_beta   90.01882979
_cell_angle_gamma   90.00374481
_symmetry_Int_Tables_number   1
_chemical_formula_structural   In22Ag21Sn22Bi21(Te54Pb11)2
_chemical_formula_sum   'In22 Ag21 Sn22 Bi21 Te108 Pb22'
_cell_volume   7051.32271563
_cell_formula_units_Z   1
loop_
 _symmetry_equiv_pos_site_id
 _symmetry_equiv_pos_as_xyz
  1  'x, y, z'
loop_
 _atom_type_symbol
 _atom_type_oxidation_number
  In3+  3.0
  Ag+  1.0
  Sn2+  2.0
  Bi3+  3.0
  Te2-  -2.0
  Pb2+  2.0
loop_
 _atom_site_type_symbol
 _atom_site_label
 _atom_site_symmetry_multiplicity
 _atom_site_fract_x
 _atom_site_fract_y
 _atom_site_fract_z
 _atom_site_occupancy
  In3+  In0  1  0.16756522  0.16415899  0.34690202  1
  In3+  In1  1  0.34750641  0.30874631  -0.01392343  1
  In3+  In2  1  0.33321574  0.67989753  0.33674801  1
  In3+  In3  1  0.48563504  0.00223269  0.15595228  1
  In3+  In4  1  0.49214757  0.50574600  0.66473000  1
  In3+  In5  1  0.50294814  0.65416483  0.16337791  1
  In3+  In6  1  -0.00261819  0.02508242  -0.00138977  1
  In3+  In7  1  0.83299479  0.49504392  0.65938696  1
  In3+  In8  1  0.66784342  0.50657490  0.48774620  1
  In3+  In9  1  -0.01727275  0.83045247  0.82643111  1
  In3+  In10  1  0.66924994  0.00469193  0.33115263  1
  In3+  In11  1  0.16660001  0.31425878  0.16461561  1
  In3+  In12  1  0.83324370  0.68335558  0.50184739  1
  In3+  In13  1  0.49144759  0.00524829  0.81187253  1
  In3+  In14  1  0.17604194  0.50071829  0.01579219  1
  In3+  In15  1  0.49916043  0.66103438  0.83028589  1
  In3+  In16  1  0.64680826  0.16986081  0.16918937  1
  In3+  In17  1  0.49981395  0.15305089  0.68308291  1
  In3+  In18  1  0.66997185  0.83770722  0.82004076  1
  In3+  In19  1  0.33578231  0.50407415  0.50504726  1
  In3+  In20  1  0.50583143  0.32630056  0.51411958  1
  In3+  In21  1  0.33144516  0.85340457  0.51741194  1
  Ag+  Ag22  1  0.12700890  0.14592747  0.63932107  1
  Ag+  Ag23  1  0.30438928  0.03598127  0.69745056  1
  Ag+  Ag24  1  0.36426179  0.02762687  0.33468484  1
  Ag+  Ag25  1  0.03456480  0.29864835  0.63443825  1
  Ag+  Ag26  1  0.52604573  0.35168363  0.15916775  1
  Ag+  Ag27  1  0.80290067  0.82564750  0.35568115  1
  Ag+  Ag28  1  0.85854350  0.79917853  -0.01688064  1
  Ag+  Ag29  1  0.66820925  0.13906316  0.80570117  1
  Ag+  Ag30  1  0.69609225  0.65340409  0.31266047  1
  Ag+  Ag31  1  0.83949464  0.83052954  0.64792266  1
  Ag+  Ag32  1  0.67471689  0.68890091  0.02246657  1
  Ag+  Ag33  1  0.02621271  0.17597604  0.52836145  1
  Ag+  Ag34  1  0.66680464  0.13958263  0.47075458  1
  Ag+  Ag35  1  0.30499900  0.66761250  0.63609857  1
  Ag+  Ag36  1  0.30737056  0.16224335  0.80458169  1
  Ag+  Ag37  1  0.35238661  0.19587118  0.16715082  1
  Ag+  Ag38  1  0.52247008  0.16312265  -0.01629648  1
  Ag+  Ag39  1  0.14615422  0.66075395  0.14969892  1
  Ag+  Ag40  1  0.02750299  0.32855747  -0.02972006  1
  Ag+  Ag41  1  0.64294299  0.31714616  0.02493688  1
  Ag+  Ag42  1  0.67075865  0.02992275  0.69510783  1
  Sn2+  Sn43  1  0.83432150  0.00771702  0.50455326  1
  Sn2+  Sn44  1  0.17377504  -0.00754322  0.17011399  1
  Sn2+  Sn45  1  0.49775196  0.49255849  0.33816781  1
  Sn2+  Sn46  1  0.83870062  0.16013399  0.33748617  1
  Sn2+  Sn47  1  0.15868862  0.66432867  0.49327350  1
  Sn2+  Sn48  1  0.49460662  0.17081728  0.33242486  1
  Sn2+  Sn49  1  0.16082464  0.49291335  0.66800817  1
  Sn2+  Sn50  1  -0.00191388  0.48716923  0.50800311  1
  Sn2+  Sn51  1  0.00184196  0.49498081  0.83951340  1
  Sn2+  Sn52  1  0.83762138  0.50478150  0.34251492  1
  Sn2+  Sn53  1  0.83195168  0.32558191  0.50407680  1
  Sn2+  Sn54  1  0.17086183  0.83643468  0.32825375  1
  Sn2+  Sn55  1  0.00078356  0.84112251  0.49704354  1
  Sn2+  Sn56  1  0.66266183  0.83326134  0.50093778  1
  Sn2+  Sn57  1  -0.01123792  0.33301787  0.33647550  1
  Sn2+  Sn58  1  0.82377562  0.17550931  0.00201079  1
  Sn2+  Sn59  1  0.83109360  0.33514004  0.83543217  1
  Sn2+  Sn60  1  0.00475224  0.67109720  0.33339143  1
  Sn2+  Sn61  1  0.50641630  0.83998389  0.00182837  1
  Sn2+  Sn62  1  0.83981442  0.33387611  0.16149820  1
  Sn2+  Sn63  1  0.33093280  0.49842170  0.16964886  1
  Sn2+  Sn64  1  0.17244885  0.33736227  0.49773653  1
  Bi3+  Bi65  1  0.83181838  0.49564131  -0.00189363  1
  Bi3+  Bi66  1  0.34336484  0.66736038  0.00413070  1
  Bi3+  Bi67  1  0.33440979  0.83034184  0.16758053  1
  Bi3+  Bi68  1  -0.00142611  0.83460980  0.16624958  1
  Bi3+  Bi69  1  0.66704994  0.66674371  0.66862984  1
  Bi3+  Bi70  1  -0.00347521  0.16897176  0.17204173  1
  Bi3+  Bi71  1  0.50453184  0.82940463  0.66844896  1
  Bi3+  Bi72  1  0.81916887  0.16478589  0.66612474  1
  Bi3+  Bi73  1  0.66926141  0.83517934  0.16989386  1
  Bi3+  Bi74  1  0.67067849  0.33906842  0.66942909  1
  Bi3+  Bi75  1  0.50433013  0.00193286  0.49592608  1
  Bi3+  Bi76  1  -0.00494739  0.00044220  0.33316650  1
  Bi3+  Bi77  1  0.16835623  0.49738338  0.33577977  1
  Bi3+  Bi78  1  0.33220773  0.33204434  0.32970322  1
  Bi3+  Bi79  1  0.50006277  0.82848688  0.33281534  1
  Bi3+  Bi80  1  0.66945507  0.49958512  0.83327819  1
  Bi3+  Bi81  1  -0.00248910  0.66436131  0.66341115  1
  Bi3+  Bi82  1  0.16392144  0.16923233  -0.00061988  1
  Bi3+  Bi83  1  -0.00077459  0.49768227  0.17007585  1
  Bi3+  Bi84  1  0.83199493  0.00340326  0.83661705  1
  Bi3+  Bi85  1  0.83634703  0.00055300  0.16763585  1
  Te2-  Te86  1  0.15670307  0.16006454  0.16169909  1
  Te2-  Te87  1  0.17404592  0.17219410  0.50233734  1
  Te2-  Te88  1  0.16343129  0.16865867  0.83852573  1
  Te2-  Te89  1  0.16109367  0.51155684  0.17196221  1
  Te2-  Te90  1  0.16380331  0.49684530  0.49963484  1
  Te2-  Te91  1  0.16505051  0.50080255  0.83101551  1
  Te2-  Te92  1  0.16708313  0.82376140  0.16831000  1
  Te2-  Te93  1  0.17332241  0.82898394  0.49782085  1
  Te2-  Te94  1  0.17348389  0.83405831  0.83114104  1
  Te2-  Te95  1  0.49345926  0.15418270  0.17570469  1
  Te2-  Te96  1  0.51704256  0.17007221  0.48979958  1
  Te2-  Te97  1  0.51726118  0.15709553  0.83655491  1
  Te2-  Te98  1  0.50057937  0.49836953  0.16693161  1
  Te2-  Te99  1  0.50093930  0.49520728  0.49895902  1
  Te2-  Te100  1  0.50137888  0.49960618  0.82884126  1
  Te2-  Te101  1  0.50215839  0.84484966  0.17020585  1
  Te2-  Te102  1  0.49207357  0.83278497  0.50022552  1
  Te2-  Te103  1  0.50840429  0.84316454  0.83144563  1
  Te2-  Te104  1  0.83759265  0.16440783  0.17246897  1
  Te2-  Te105  1  0.81453430  0.16617867  0.50309238  1
  Te2-  Te106  1  0.81893264  0.16458173  0.83196379  1
  Te2-  Te107  1  0.83781424  0.50241806  0.17188108  1
  Te2-  Te108  1  0.83448254  0.49525964  0.50106390  1
  Te2-  Te109  1  0.83446515  0.50264165  0.83264903  1
  Te2-  Te110  1  0.83419210  0.83863625  0.16416242  1
  Te2-  Te111  1  0.83589456  0.83778793  0.49987620  1
  Te2-  Te112  1  0.82829100  0.83829508  0.84450616  1
  Te2-  Te113  1  0.15900556  0.00266493  0.00143881  1
  Te2-  Te114  1  0.15842864  0.00509416  0.33134885  1
  Te2-  Te115  1  0.16626493  0.00582242  0.66366057  1
  Te2-  Te116  1  0.16797517  0.34269780  0.00847598  1
  Te2-  Te117  1  0.16648483  0.33350347  0.33280388  1
  Te2-  Te118  1  0.17041395  0.33727668  0.66538104  1
  Te2-  Te119  1  0.17302716  0.65730886  0.00480371  1
  Te2-  Te120  1  0.17467113  0.66133582  0.33459163  1
  Te2-  Te121  1  0.16022391  0.66460581  0.66274484  1
  Te2-  Te122  1  0.49925151  0.01263285  0.00586772  1
  Te2-  Te123  1  0.51031898  -0.00350170  0.33636075  1
  Te2-  Te124  1  0.51175712  -0.00613517  0.65888482  1
  Te2-  Te125  1  0.49495167  0.32013109  0.01315088  1
  Te2-  Te126  1  0.49473330  0.33347097  0.31208619  1
  Te2-  Te127  1  0.50395783  0.34327076  0.66647052  1
  Te2-  Te128  1  0.50432362  0.66776187  0.00603312  1
  Te2-  Te129  1  0.49012015  0.66435022  0.32875636  1
  Te2-  Te130  1  0.50286640  0.66736183  0.66850159  1
  Te2-  Te131  1  0.84040384  0.00600777  0.00184843  1
  Te2-  Te132  1  0.83092681  -0.00868138  0.33292209  1
  Te2-  Te133  1  0.81762856  -0.00072763  0.67247692  1
  Te2-  Te134  1  0.83278387  0.33604544  0.00323387  1
  Te2-  Te135  1  0.83054673  0.33371343  0.33588753  1
  Te2-  Te136  1  0.83200171  0.33465647  0.66542818  1
  Te2-  Te137  1  0.81938364  0.65905087  0.00184275  1
  Te2-  Te138  1  0.83618388  0.67646474  0.34580586  1
  Te2-  Te139  1  0.83224171  0.67981032  0.66066103  1
  Te2-  Te140  1  -0.00249561  0.18332497  0.00641572  1
  Te2-  Te141  1  0.00500641  0.16360331  0.33344639  1
  Te2-  Te142  1  -0.01644603  0.16608684  0.67116822  1
  Te2-  Te143  1  -0.00106292  0.49196910  0.00583561  1
  Te2-  Te144  1  0.00426632  0.50365345  0.33553222  1
  Te2-  Te145  1  -0.00719118  0.50321280  0.66722955  1
  Te2-  Te146  1  0.00049689  0.82401521  0.00486674  1
  Te2-  Te147  1  0.00534006  0.83775670  0.33192039  1
  Te2-  Te148  1  -0.01069298  0.83071870  0.66673161  1
  Te2-  Te149  1  0.32343485  0.16748371  0.02183883  1
  Te2-  Te150  1  0.32036940  0.16908043  0.32030866  1
  Te2-  Te151  1  0.35167439  0.16956720  0.66374538  1
  Te2-  Te152  1  0.33115107  0.50374479  0.00067244  1
  Te2-  Te153  1  0.33015449  0.49461852  0.33809553  1
  Te2-  Te154  1  0.33078209  0.51594599  0.66095886  1
  Te2-  Te155  1  0.33806402  0.83290869  0.00375318  1
  Te2-  Te156  1  0.33612862  0.83279828  0.32987526  1
  Te2-  Te157  1  0.33932391  0.81823634  0.66409924  1
  Te2-  Te158  1  0.66631538  0.17093173  0.01614754  1
  Te2-  Te159  1  0.66834856  0.16299527  0.32473208  1
  Te2-  Te160  1  0.65464005  0.17527292  0.66108034  1
  Te2-  Te161  1  0.66843221  0.48921303  -0.00492569  1
  Te2-  Te162  1  0.66803101  0.50893553  0.33491123  1
  Te2-  Te163  1  0.67490480  0.50402346  0.66801326  1
  Te2-  Te164  1  0.66134815  0.83296996  0.00851986  1
  Te2-  Te165  1  0.65941992  0.81947870  0.33320614  1
  Te2-  Te166  1  0.66972798  0.82810273  0.66584314  1
  Te2-  Te167  1  0.00027977  -0.00110477  0.16545755  1
  Te2-  Te168  1  -0.00317000  0.00915321  0.49617253  1
  Te2-  Te169  1  -0.00513171  -0.00812222  0.83784978  1
  Te2-  Te170  1  0.00505914  0.33527749  0.17178267  1
  Te2-  Te171  1  0.00102661  0.32197348  0.49568137  1
  Te2-  Te172  1  -0.00636884  0.33840303  0.82930830  1
  Te2-  Te173  1  0.00000446  0.66788001  0.16877647  1
  Te2-  Te174  1  -0.00791883  0.66923567  0.50142543  1
  Te2-  Te175  1  -0.00092782  0.67092796  0.82875213  1
  Te2-  Te176  1  0.33302847  -0.00815148  0.18559218  1
  Te2-  Te177  1  0.34065507  0.00167803  0.48438802  1
  Te2-  Te178  1  0.34215087  0.01502040  0.83645214  1
  Te2-  Te179  1  0.31839774  0.33959158  0.16861923  1
  Te2-  Te180  1  0.34579351  0.33909534  0.49480225  1
  Te2-  Te181  1  0.33796095  0.31774702  0.83647378  1
  Te2-  Te182  1  0.34410979  0.66853005  0.16782853  1
  Te2-  Te183  1  0.33249299  0.65676320  0.49278457  1
  Te2-  Te184  1  0.34452802  0.66551766  0.84018801  1
  Te2-  Te185  1  0.67346209  -0.00031614  0.17460689  1
  Te2-  Te186  1  0.66609214  -0.00915461  0.48958028  1
  Te2-  Te187  1  0.66654212  -0.00678984  0.83808383  1
  Te2-  Te188  1  0.67095673  0.32398969  0.16961124  1
  Te2-  Te189  1  0.65987026  0.34911738  0.50450676  1
  Te2-  Te190  1  0.67021509  0.33848992  0.83063349  1
  Te2-  Te191  1  0.65909759  0.66974521  0.16933173  1
  Te2-  Te192  1  0.67380586  0.66104471  0.50477794  1
  Te2-  Te193  1  0.65613230  0.66506054  0.83211765  1
  Pb2+  Pb194  1  0.50218577  0.66368618  0.49630289  1
  Pb2+  Pb195  1  0.34771835  0.16888929  0.49405375  1
  Pb2+  Pb196  1  0.33506392  0.34113405  0.66474866  1
  Pb2+  Pb197  1  0.33172477  0.49583826  0.83218424  1
  Pb2+  Pb198  1  0.17262814  0.66743447  0.83371092  1
  Pb2+  Pb199  1  -0.00409173  0.65783446  -0.00294325  1
  Pb2+  Pb200  1  0.34107023  0.83828372  0.83124241  1
  Pb2+  Pb201  1  0.66115414  0.33489598  0.33761373  1
  Pb2+  Pb202  1  0.33183440  0.00399931  0.01124529  1
  Pb2+  Pb203  1  0.50227938  0.49568588  -0.00178704  1
  Pb2+  Pb204  1  0.82565259  0.66950153  0.83133179  1
  Pb2+  Pb205  1  0.16759242  0.00270637  0.83201411  1
  Pb2+  Pb206  1  0.16375026  0.33350759  0.83635627  1
  Pb2+  Pb207  1  -0.00840582  0.16960673  0.83809457  1
  Pb2+  Pb208  1  0.66893446  0.00078629  0.00533926  1
  Pb2+  Pb209  1  0.16504578  0.83570456  0.66621066  1
  Pb2+  Pb210  1  -0.01338541  -0.00256823  0.66533393  1
  Pb2+  Pb211  1  0.16381329  0.83116585  -0.00015827  1
  Pb2+  Pb212  1  0.16680512  -0.00255480  0.49730810  1
  Pb2+  Pb213  1  0.50712052  0.32559290  0.84090976  1
  Pb2+  Pb214  1  0.83251387  0.67313974  0.17194270  1
  Pb2+  Pb215  1  0.66947763  0.49695569  0.16056768  1
