# generated using pymatgen
data_In22Ag21Sn22Bi21(Te54Pb11)2
_symmetry_space_group_name_H-M   'P 1'
_cell_length_a   19.14748359
_cell_length_b   19.11271420
_cell_length_c   19.14836822
_cell_angle_alpha   89.99431917
_cell_angle_beta   89.98560731
_cell_angle_gamma   90.00959311
_symmetry_Int_Tables_number   1
_chemical_formula_structural   In22Ag21Sn22Bi21(Te54Pb11)2
_chemical_formula_sum   'In22 Ag21 Sn22 Bi21 Te108 Pb22'
_cell_volume   7007.54378561
_cell_formula_units_Z   1
loop_
 _symmetry_equiv_pos_site_id
 _symmetry_equiv_pos_as_xyz
  1  'x, y, z'
loop_
 _atom_type_symbol
 _atom_type_oxidation_number
  In3+  3.0
  Ag+  1.0
  Sn2+  2.0
  Bi3+  3.0
  Te2-  -2.0
  Pb2+  2.0
loop_
 _atom_site_type_symbol
 _atom_site_label
 _atom_site_symmetry_multiplicity
 _atom_site_fract_x
 _atom_site_fract_y
 _atom_site_fract_z
 _atom_site_occupancy
  In3+  In0  1  0.82803877  0.66484327  0.81868336  1
  In3+  In1  1  -0.00004354  0.33036249  0.66280156  1
  In3+  In2  1  0.16867901  0.49878340  0.66734101  1
  In3+  In3  1  0.33943641  0.49920243  0.84751737  1
  In3+  In4  1  0.00080875  0.49953618  0.50075668  1
  In3+  In5  1  0.83361980  0.49794537  0.66995491  1
  In3+  In6  1  0.16212745  0.48654710  0.33104740  1
  In3+  In7  1  0.49554281  0.17229876  0.33758168  1
  In3+  In8  1  -0.00235340  0.49648496  0.14682978  1
  In3+  In9  1  0.00654693  0.49940671  0.83099820  1
  In3+  In10  1  0.50043537  0.02025049  0.49871173  1
  In3+  In11  1  0.16814062  0.83557553  0.31295710  1
  In3+  In12  1  0.35414763  0.32787046  0.66863122  1
  In3+  In13  1  0.00212529  0.66478133  0.66383942  1
  In3+  In14  1  0.67484015  0.84177211  0.50030902  1
  In3+  In15  1  0.48801760  0.83219188  0.66006302  1
  In3+  In16  1  0.01592258  -0.01216228  0.66276191  1
  In3+  In17  1  0.68881929  0.49060522  0.16527097  1
  In3+  In18  1  0.64665689  0.49848360  0.51184474  1
  In3+  In19  1  0.66286699  -0.02892074  0.66394488  1
  In3+  In20  1  0.32799629  0.01378309  0.67852462  1
  In3+  In21  1  0.68851561  0.00156982  0.00874544  1
  Ag+  Ag22  1  0.30816807  0.15021635  0.84460092  1
  Ag+  Ag23  1  0.13679376  0.01449254  0.83145896  1
  Ag+  Ag24  1  0.00354694  0.14650502  0.52530471  1
  Ag+  Ag25  1  0.18801169  0.85691745  0.65893463  1
  Ag+  Ag26  1  0.30550406  0.02280133  0.36223235  1
  Ag+  Ag27  1  0.36098828  0.32827958  -0.03174523  1
  Ag+  Ag28  1  0.86172829  0.02431405  0.49953925  1
  Ag+  Ag29  1  0.02232388  0.33503790  0.31183466  1
  Ag+  Ag30  1  0.03057421  0.02074188  0.02872082  1
  Ag+  Ag31  1  0.47304375  0.48302798  0.66628153  1
  Ag+  Ag32  1  0.47554475  0.32236959  0.48710355  1
  Ag+  Ag33  1  0.80665109  0.31508099  0.14087618  1
  Ag+  Ag34  1  0.48417670  0.00300685  0.85864819  1
  Ag+  Ag35  1  0.16407223  0.64572272  0.19594495  1
  Ag+  Ag36  1  0.64469169  0.65987623  0.66137575  1
  Ag+  Ag37  1  0.83326169  0.14005007  -0.02330659  1
  Ag+  Ag38  1  0.66690244  0.35396350  0.34523723  1
  Ag+  Ag39  1  0.81413608  0.49871875  -0.02730036  1
  Ag+  Ag40  1  0.18347790  0.00437768  0.19091491  1
  Ag+  Ag41  1  0.64728687  0.02237993  0.36173021  1
  Ag+  Ag42  1  0.83019933  0.64748405  0.52068852  1
  Sn2+  Sn43  1  0.49010922  0.66009363  0.16903634  1
  Sn2+  Sn44  1  0.49343349  -0.00302287  0.16716626  1
  Sn2+  Sn45  1  0.17511776  -0.00232203  0.50137116  1
  Sn2+  Sn46  1  0.15989828  0.16302328  0.00171530  1
  Sn2+  Sn47  1  0.33914458  0.67064029  0.32851773  1
  Sn2+  Sn48  1  0.83155591  0.00114076  0.81847352  1
  Sn2+  Sn49  1  0.33497307  0.16193038  0.14625084  1
  Sn2+  Sn50  1  0.16351503  0.33390777  0.50001747  1
  Sn2+  Sn51  1  -0.00770496  0.01493463  0.33291108  1
  Sn2+  Sn52  1  0.66788549  0.15971398  0.83281253  1
  Sn2+  Sn53  1  0.32086602  0.00851158  -0.00299460  1
  Sn2+  Sn54  1  0.16747575  0.32504094  0.16026683  1
  Sn2+  Sn55  1  0.50425362  0.32048129  0.82774981  1
  Sn2+  Sn56  1  0.83482089  0.33002147  0.84657143  1
  Sn2+  Sn57  1  0.16285359  0.67430664  0.49977344  1
  Sn2+  Sn58  1  0.00241589  0.16990777  0.84043153  1
  Sn2+  Sn59  1  0.83269868  0.16217438  0.66448222  1
  Sn2+  Sn60  1  0.50447367  0.49379390  -0.01670767  1
  Sn2+  Sn61  1  0.34182371  0.32497141  0.33431826  1
  Sn2+  Sn62  1  0.49990336  0.84756265  0.33929582  1
  Sn2+  Sn63  1  -0.00515944  0.32562381  -0.00020327  1
  Sn2+  Sn64  1  0.66205358  0.49750838  0.83283296  1
  Bi3+  Bi65  1  0.83326181  0.83802878  0.66195804  1
  Bi3+  Bi66  1  0.33480395  0.83300331  0.49386806  1
  Bi3+  Bi67  1  0.67093544  0.66547140  0.33850150  1
  Bi3+  Bi68  1  0.83587797  0.33672723  0.50196724  1
  Bi3+  Bi69  1  0.66693328  0.83329502  0.82738726  1
  Bi3+  Bi70  1  0.16690676  0.83577890  -0.00903701  1
  Bi3+  Bi71  1  0.83985035  0.66687504  0.16809654  1
  Bi3+  Bi72  1  0.67143230  0.34259492  0.66449978  1
  Bi3+  Bi73  1  0.66607024  0.83030366  0.17053138  1
  Bi3+  Bi74  1  0.16260054  0.66735892  0.83412926  1
  Bi3+  Bi75  1  0.66830636  0.16535516  0.16894575  1
  Bi3+  Bi76  1  0.32732797  0.49945619  0.50121704  1
  Bi3+  Bi77  1  0.83641966  0.49594985  0.33959049  1
  Bi3+  Bi78  1  0.00115304  0.17132092  0.16492529  1
  Bi3+  Bi79  1  0.83401964  0.83855289  0.33521180  1
  Bi3+  Bi80  1  0.00090111  0.66962248  0.00147130  1
  Bi3+  Bi81  1  0.49862677  0.83271888  -0.00107578  1
  Bi3+  Bi82  1  0.83349245  0.17294963  0.33466307  1
  Bi3+  Bi83  1  0.00303953  0.83373230  0.16592885  1
  Bi3+  Bi84  1  0.32951810  0.49648707  0.16964074  1
  Bi3+  Bi85  1  0.33373740  0.83768579  0.16760683  1
  Te2-  Te86  1  0.16540042  0.15450063  0.16178394  1
  Te2-  Te87  1  0.15506632  0.16585134  0.49872898  1
  Te2-  Te88  1  0.16245201  0.16161447  0.83521746  1
  Te2-  Te89  1  0.16692344  0.49952096  0.17385896  1
  Te2-  Te90  1  0.16491554  0.50505951  0.49971842  1
  Te2-  Te91  1  0.16687146  0.50195913  0.82944000  1
  Te2-  Te92  1  0.16861266  0.84953844  0.15828436  1
  Te2-  Te93  1  0.17213609  0.83462202  0.51181722  1
  Te2-  Te94  1  0.16959832  0.82915689  0.82604150  1
  Te2-  Te95  1  0.50490921  0.16410231  0.17127441  1
  Te2-  Te96  1  0.50148645  0.17574952  0.49798749  1
  Te2-  Te97  1  0.51127270  0.15346515  0.83625539  1
  Te2-  Te98  1  0.48954451  0.50233179  0.16334998  1
  Te2-  Te99  1  0.49216536  0.49552779  0.51228514  1
  Te2-  Te100  1  0.49336276  0.49875953  0.82240561  1
  Te2-  Te101  1  0.49998122  0.82821557  0.16519493  1
  Te2-  Te102  1  0.49924535  0.83158814  0.50218747  1
  Te2-  Te103  1  0.50560721  0.84757223  0.83348764  1
  Te2-  Te104  1  0.83429272  0.17374283  0.17049743  1
  Te2-  Te105  1  0.84940434  0.17243626  0.49719460  1
  Te2-  Te106  1  0.83131207  0.17085333  0.83313034  1
  Te2-  Te107  1  0.84509497  0.50422342  0.17717867  1
  Te2-  Te108  1  0.84288735  0.50056933  0.50343624  1
  Te2-  Te109  1  0.83133211  0.50680744  0.82633864  1
  Te2-  Te110  1  0.83264171  0.83256169  0.16951611  1
  Te2-  Te111  1  0.82796099  0.83237326  0.49630906  1
  Te2-  Te112  1  0.83025114  0.82750277  0.82888022  1
  Te2-  Te113  1  0.16458311  -0.00299233  -0.02099518  1
  Te2-  Te114  1  0.16323646  -0.00662814  0.33877633  1
  Te2-  Te115  1  0.17127145  0.00178971  0.67517755  1
  Te2-  Te116  1  0.15790475  0.33005082  0.00129591  1
  Te2-  Te117  1  0.17073449  0.33341524  0.33530862  1
  Te2-  Te118  1  0.15644572  0.34275258  0.66591340  1
  Te2-  Te119  1  0.16411579  0.66998879  -0.00250925  1
  Te2-  Te120  1  0.16719940  0.68052743  0.33838883  1
  Te2-  Te121  1  0.15761927  0.65871397  0.67008091  1
  Te2-  Te122  1  0.49118215  -0.00582472  0.00553238  1
  Te2-  Te123  1  0.50358592  0.00424076  0.33759489  1
  Te2-  Te124  1  0.50774598  -0.00759156  0.65437682  1
  Te2-  Te125  1  0.50398576  0.33414759  -0.00368347  1
  Te2-  Te126  1  0.50893735  0.32963775  0.34332433  1
  Te2-  Te127  1  0.50753896  0.33921489  0.66607443  1
  Te2-  Te128  1  0.50001820  0.66638639  -0.00067428  1
  Te2-  Te129  1  0.50572658  0.66769817  0.33244809  1
  Te2-  Te130  1  0.49809567  0.67762301  0.66747266  1
  Te2-  Te131  1  0.83708988  -0.00560176  -0.00691573  1
  Te2-  Te132  1  0.83570272  0.00129968  0.34759552  1
  Te2-  Te133  1  0.81967866  -0.00203429  0.64717576  1
  Te2-  Te134  1  0.83728282  0.35127171  0.00277628  1
  Te2-  Te135  1  0.81788137  0.33736515  0.34116755  1
  Te2-  Te136  1  0.83436964  0.34086474  0.66918771  1
  Te2-  Te137  1  0.83885712  0.65283505  0.00702015  1
  Te2-  Te138  1  0.83426460  0.66626527  0.33040983  1
  Te2-  Te139  1  0.84584668  0.67237909  0.66491305  1
  Te2-  Te140  1  -0.01350208  0.15983972  0.00226928  1
  Te2-  Te141  1  -0.00405857  0.18297989  0.32531910  1
  Te2-  Te142  1  -0.00591790  0.17553487  0.67031853  1
  Te2-  Te143  1  -0.00166564  0.50393175  -0.00689056  1
  Te2-  Te144  1  0.00555668  0.48604834  0.34062664  1
  Te2-  Te145  1  -0.00400856  0.50332642  0.67176688  1
  Te2-  Te146  1  0.00232963  0.83508553  0.00262687  1
  Te2-  Te147  1  0.00091582  0.83638609  0.32801332  1
  Te2-  Te148  1  -0.00238912  0.83418515  0.66440119  1
  Te2-  Te149  1  0.33246082  0.17969343  -0.00924769  1
  Te2-  Te150  1  0.34003540  0.16313739  0.33119270  1
  Te2-  Te151  1  0.33629612  0.16896298  0.67411863  1
  Te2-  Te152  1  0.33415408  0.48232181  0.00159211  1
  Te2-  Te153  1  0.32574831  0.50018904  0.33541500  1
  Te2-  Te154  1  0.32553472  0.49341160  0.66223529  1
  Te2-  Te155  1  0.33435745  0.83121808  0.00323462  1
  Te2-  Te156  1  0.33165184  0.83871258  0.33041717  1
  Te2-  Te157  1  0.33422513  0.83881756  0.66044067  1
  Te2-  Te158  1  0.68149081  0.15880213  0.00448296  1
  Te2-  Te159  1  0.66942370  0.16389288  0.33004990  1
  Te2-  Te160  1  0.67150047  0.17880908  0.66493665  1
  Te2-  Te161  1  0.66850970  0.49948148  0.00495541  1
  Te2-  Te162  1  0.66757078  0.50341790  0.32678328  1
  Te2-  Te163  1  0.67551198  0.51047929  0.66589231  1
  Te2-  Te164  1  0.66279610  0.83863109  -0.00062094  1
  Te2-  Te165  1  0.66893339  0.83101138  0.33379911  1
  Te2-  Te166  1  0.67155134  0.81230700  0.66239634  1
  Te2-  Te167  1  0.00010647  -0.00013515  0.17032371  1
  Te2-  Te168  1  0.00720517  -0.00033805  0.50777959  1
  Te2-  Te169  1  -0.00921799  0.00180828  0.81495163  1
  Te2-  Te170  1  0.00648294  0.33783552  0.16529524  1
  Te2-  Te171  1  -0.00017783  0.34285823  0.50909028  1
  Te2-  Te172  1  -0.00269381  0.34216629  0.83019835  1
  Te2-  Te173  1  0.01054338  0.66740268  0.16705899  1
  Te2-  Te174  1  -0.00795976  0.65868331  0.50540411  1
  Te2-  Te175  1  -0.00358389  0.66059774  0.83599668  1
  Te2-  Te176  1  0.32847331  0.00007424  0.16325523  1
  Te2-  Te177  1  0.34229842  -0.00248274  0.50160995  1
  Te2-  Te178  1  0.34021694  0.00712901  0.82754391  1
  Te2-  Te179  1  0.32948580  0.33195498  0.17472881  1
  Te2-  Te180  1  0.33054866  0.33545590  0.50578007  1
  Te2-  Te181  1  0.33655379  0.34009985  0.82286010  1
  Te2-  Te182  1  0.31703537  0.66809696  0.17002704  1
  Te2-  Te183  1  0.33251532  0.66674936  0.49661781  1
  Te2-  Te184  1  0.32924134  0.65854808  0.83290149  1
  Te2-  Te185  1  0.66704404  -0.00529342  0.16336488  1
  Te2-  Te186  1  0.65621074  -0.00187204  0.50564838  1
  Te2-  Te187  1  0.67145988  -0.00523146  0.81919065  1
  Te2-  Te188  1  0.66519564  0.33619809  0.17357236  1
  Te2-  Te189  1  0.67143898  0.34436723  0.49912569  1
  Te2-  Te190  1  0.66635002  0.33703560  0.82873449  1
  Te2-  Te191  1  0.67027401  0.66849285  0.16899169  1
  Te2-  Te192  1  0.67884289  0.65083308  0.50148006  1
  Te2-  Te193  1  0.67184813  0.66761744  0.82681553  1
  Pb2+  Pb194  1  0.16371658  0.16460753  0.32971197  1
  Pb2+  Pb195  1  0.49720199  0.33293197  0.17267861  1
  Pb2+  Pb196  1  0.67148120  0.66619056  -0.00306601  1
  Pb2+  Pb197  1  0.16710719  0.32932908  0.83540347  1
  Pb2+  Pb198  1  0.67189041  0.32863640  0.00157839  1
  Pb2+  Pb199  1  0.33572684  0.83995982  0.83169028  1
  Pb2+  Pb200  1  0.00219952  0.65667287  0.33617204  1
  Pb2+  Pb201  1  0.33255939  0.65684749  0.00311919  1
  Pb2+  Pb202  1  0.50327385  0.16136796  0.00144665  1
  Pb2+  Pb203  1  0.50987437  0.66388388  0.50122353  1
  Pb2+  Pb204  1  0.83352960  0.82672568  -0.00155551  1
  Pb2+  Pb205  1  0.83471408  0.00721412  0.17364351  1
  Pb2+  Pb206  1  0.16430627  0.49741585  0.00111697  1
  Pb2+  Pb207  1  0.00331900  0.83263018  0.83268987  1
  Pb2+  Pb208  1  0.16289223  0.17204782  0.66523237  1
  Pb2+  Pb209  1  0.32532950  0.16636630  0.50121744  1
  Pb2+  Pb210  1  0.49666925  0.49783867  0.33622344  1
  Pb2+  Pb211  1  0.50617777  0.16319137  0.67108118  1
  Pb2+  Pb212  1  0.50153555  0.67277223  0.83189551  1
  Pb2+  Pb213  1  0.32682820  0.66477603  0.66416777  1
  Pb2+  Pb214  1  -0.00095007  0.83013641  0.49620850  1
  Pb2+  Pb215  1  0.67664509  0.17140276  0.49790850  1
