# generated using pymatgen
data_In22Ag21Sn22Bi21(Te54Pb11)2
_symmetry_space_group_name_H-M   'P 1'
_cell_length_a   19.14408567
_cell_length_b   19.13845895
_cell_length_c   19.16290531
_cell_angle_alpha   90.00463355
_cell_angle_beta   89.98927337
_cell_angle_gamma   89.99448551
_symmetry_Int_Tables_number   1
_chemical_formula_structural   In22Ag21Sn22Bi21(Te54Pb11)2
_chemical_formula_sum   'In22 Ag21 Sn22 Bi21 Te108 Pb22'
_cell_volume   7021.06407624
_cell_formula_units_Z   1
loop_
 _symmetry_equiv_pos_site_id
 _symmetry_equiv_pos_as_xyz
  1  'x, y, z'
loop_
 _atom_type_symbol
 _atom_type_oxidation_number
  In3+  3.0
  Ag+  1.0
  Sn2+  2.0
  Bi3+  3.0
  Te2-  -2.0
  Pb2+  2.0
loop_
 _atom_site_type_symbol
 _atom_site_label
 _atom_site_symmetry_multiplicity
 _atom_site_fract_x
 _atom_site_fract_y
 _atom_site_fract_z
 _atom_site_occupancy
  In3+  In0  1  0.50295867  0.15819494  0.67641242  1
  In3+  In1  1  0.84456739  0.49493818  0.33500656  1
  In3+  In2  1  0.66894459  0.50368784  0.48036991  1
  In3+  In3  1  0.01753433  0.68216222  0.33839106  1
  In3+  In4  1  0.67038487  0.33849258  0.65734139  1
  In3+  In5  1  0.31101752  -0.00236991  0.35389144  1
  In3+  In6  1  0.30864270  -0.00540487  -0.00055237  1
  In3+  In7  1  0.33112284  0.50039422  0.17640552  1
  In3+  In8  1  0.49628738  0.66910673  0.81421116  1
  In3+  In9  1  -0.01132027  0.49472041  0.82009096  1
  In3+  In10  1  0.83717555  0.66849566  0.19150258  1
  In3+  In11  1  0.53357478  0.33882006  0.16549550  1
  In3+  In12  1  0.49232833  0.66846145  0.50037002  1
  In3+  In13  1  0.50258672  0.83812183  -0.01010344  1
  In3+  In14  1  0.50508645  0.48919204  0.32898190  1
  In3+  In15  1  0.32345536  0.82138528  0.16890641  1
  In3+  In16  1  0.47604817  0.16112810  -0.00293042  1
  In3+  In17  1  0.67159971  -0.00834417  0.35329890  1
  In3+  In18  1  0.66520951  0.66733259  0.33567026  1
  In3+  In19  1  -0.00061635  -0.01103421  0.35763489  1
  In3+  In20  1  -0.00741874  0.34086287  0.33555634  1
  In3+  In21  1  0.50250408  0.49481863  0.64548054  1
  Ag+  Ag22  1  0.00955261  0.02538008  0.02458912  1
  Ag+  Ag23  1  0.18099304  0.36318552  0.47753828  1
  Ag+  Ag24  1  0.15699781  0.13935419  -0.02500782  1
  Ag+  Ag25  1  0.14205569  -0.02382928  0.50487311  1
  Ag+  Ag26  1  0.82283084  0.30746445  0.85300842  1
  Ag+  Ag27  1  -0.00688161  0.31410091  -0.03214805  1
  Ag+  Ag28  1  0.80230991  0.84647832  0.64207497  1
  Ag+  Ag29  1  -0.01500512  -0.00020951  0.66655635  1
  Ag+  Ag30  1  0.83949403  0.35721210  0.14456651  1
  Ag+  Ag31  1  0.33199517  0.85553131  0.80631513  1
  Ag+  Ag32  1  0.84546878  -0.02848217  0.53220667  1
  Ag+  Ag33  1  0.69021283  0.50658848  0.18611191  1
  Ag+  Ag34  1  0.68478703  0.33632043  0.35431776  1
  Ag+  Ag35  1  0.85875382  0.68385749  0.48586305  1
  Ag+  Ag36  1  -0.02374404  0.83072124  0.52585987  1
  Ag+  Ag37  1  0.69139941  -0.03509549  0.64903457  1
  Ag+  Ag38  1  0.68751733  0.83982882  0.83219459  1
  Ag+  Ag39  1  -0.02667716  0.86074244  0.18250014  1
  Ag+  Ag40  1  0.31240827  0.50007349  0.47606900  1
  Ag+  Ag41  1  0.13680849  0.68609741  0.16869055  1
  Ag+  Ag42  1  0.14892061  0.81048846  0.34376565  1
  Sn2+  Sn43  1  -0.00025847  0.32451001  0.65769171  1
  Sn2+  Sn44  1  0.16663644  0.67025613  0.84455886  1
  Sn2+  Sn45  1  0.33200777  0.67539724  0.33797284  1
  Sn2+  Sn46  1  0.66579862  0.66462179  -0.00100511  1
  Sn2+  Sn47  1  0.32718292  0.82975924  0.49930445  1
  Sn2+  Sn48  1  0.67671373  0.66420943  0.66626782  1
  Sn2+  Sn49  1  0.16286388  0.83585393  0.65859156  1
  Sn2+  Sn50  1  0.33442075  0.00225058  0.66919755  1
  Sn2+  Sn51  1  0.31195385  0.32814938  0.00382954  1
  Sn2+  Sn52  1  0.66629119  0.50682554  0.84137895  1
  Sn2+  Sn53  1  0.50550027  -0.00028699  0.49771755  1
  Sn2+  Sn54  1  0.51308586  0.34495063  0.83838213  1
  Sn2+  Sn55  1  -0.00320526  0.68179328  0.66773956  1
  Sn2+  Sn56  1  0.16551410  0.67464451  0.50392499  1
  Sn2+  Sn57  1  0.84074684  0.00561256  0.16917158  1
  Sn2+  Sn58  1  0.16408023  0.15990032  0.65980606  1
  Sn2+  Sn59  1  0.00512691  0.15753021  0.49873601  1
  Sn2+  Sn60  1  0.00241157  0.17025260  0.16658227  1
  Sn2+  Sn61  1  0.16976486  0.50160118  0.33557845  1
  Sn2+  Sn62  1  0.00649642  0.83599283  0.83925553  1
  Sn2+  Sn63  1  0.32982064  0.33579647  0.66290793  1
  Sn2+  Sn64  1  0.32621130  0.17588239  0.50025354  1
  Bi3+  Bi65  1  -0.00002349  0.66602489  -0.00045001  1
  Bi3+  Bi66  1  0.83539171  0.83126665  -0.00378789  1
  Bi3+  Bi67  1  0.16736448  0.49819253  0.00401040  1
  Bi3+  Bi68  1  0.83623054  -0.00459033  0.83631324  1
  Bi3+  Bi69  1  0.16671379  0.33662144  0.83370314  1
  Bi3+  Bi70  1  0.16373565  0.16733028  0.33732776  1
  Bi3+  Bi71  1  0.50314894  0.00328339  0.16653061  1
  Bi3+  Bi72  1  0.66815856  0.16732193  0.16501585  1
  Bi3+  Bi73  1  0.50156883  0.83358112  0.33000860  1
  Bi3+  Bi74  1  0.67456574  -0.00113430  -0.00359108  1
  Bi3+  Bi75  1  0.50710271  0.66511593  0.17084524  1
  Bi3+  Bi76  1  0.50341295  0.16760341  0.32872268  1
  Bi3+  Bi77  1  0.83120578  0.66882455  0.82805311  1
  Bi3+  Bi78  1  0.50201401  0.49772044  0.00507392  1
  Bi3+  Bi79  1  0.16524161  0.82813165  0.00223585  1
  Bi3+  Bi80  1  0.33248394  0.16743554  0.16525038  1
  Bi3+  Bi81  1  0.83961807  0.33390018  0.50344209  1
  Bi3+  Bi82  1  0.00351040  0.50199783  0.16713525  1
  Bi3+  Bi83  1  0.33410481  0.49766647  0.83799047  1
  Bi3+  Bi84  1  0.67154172  0.33251274  -0.00234673  1
  Bi3+  Bi85  1  0.83547394  0.16792976  0.33412963  1
  Te2-  Te86  1  0.17001843  0.16200040  0.17592036  1
  Te2-  Te87  1  0.16886843  0.16726625  0.49786963  1
  Te2-  Te88  1  0.16632290  0.17011183  0.82988681  1
  Te2-  Te89  1  0.17045814  0.50117637  0.16730701  1
  Te2-  Te90  1  0.16621511  0.50772007  0.49871357  1
  Te2-  Te91  1  0.16878583  0.50161907  0.83871610  1
  Te2-  Te92  1  0.17232763  0.82870834  0.16748480  1
  Te2-  Te93  1  0.17349546  0.83152830  0.48870373  1
  Te2-  Te94  1  0.18156565  0.82711901  0.83781809  1
  Te2-  Te95  1  0.49995952  0.16967840  0.16378573  1
  Te2-  Te96  1  0.49735037  0.16740723  0.48951048  1
  Te2-  Te97  1  0.49991174  0.17285117  0.83308665  1
  Te2-  Te98  1  0.49511684  0.49841834  0.16822804  1
  Te2-  Te99  1  0.50532258  0.50252975  0.49210576  1
  Te2-  Te100  1  0.49891715  0.51038266  0.84405403  1
  Te2-  Te101  1  0.49949616  0.83366186  0.16832281  1
  Te2-  Te102  1  0.49848918  0.82684953  0.49302183  1
  Te2-  Te103  1  0.47859784  0.82293230  0.83867853  1
  Te2-  Te104  1  0.83283186  0.16754483  0.17302776  1
  Te2-  Te105  1  0.83410397  0.16973104  0.49466809  1
  Te2-  Te106  1  0.83555408  0.16311484  0.82958056  1
  Te2-  Te107  1  0.83758243  0.50224282  0.17768724  1
  Te2-  Te108  1  0.82678235  0.49906553  0.49377935  1
  Te2-  Te109  1  0.83403699  0.50681622  0.83032422  1
  Te2-  Te110  1  0.83224384  0.82530859  0.16204756  1
  Te2-  Te111  1  0.83069856  0.82826488  0.49742967  1
  Te2-  Te112  1  0.83886870  0.82998894  0.83406062  1
  Te2-  Te113  1  0.15361083  -0.00692126  -0.00102516  1
  Te2-  Te114  1  0.15823752  0.00220015  0.34949051  1
  Te2-  Te115  1  0.17948173  0.00140598  0.65007602  1
  Te2-  Te116  1  0.14953906  0.33716384  -0.00451255  1
  Te2-  Te117  1  0.15942557  0.33189707  0.33621039  1
  Te2-  Te118  1  0.16438583  0.33024235  0.67277963  1
  Te2-  Te119  1  0.16530357  0.66393874  0.01481769  1
  Te2-  Te120  1  0.16860102  0.66666842  0.32133904  1
  Te2-  Te121  1  0.16246931  0.66763001  0.67024563  1
  Te2-  Te122  1  0.50875664  -0.00064409  0.00422569  1
  Te2-  Te123  1  0.51067263  0.00168712  0.32832523  1
  Te2-  Te124  1  0.50036113  0.00710042  0.66856290  1
  Te2-  Te125  1  0.50324164  0.33416090  0.00316133  1
  Te2-  Te126  1  0.49761316  0.33345061  0.32631463  1
  Te2-  Te127  1  0.50361841  0.34352890  0.67144682  1
  Te2-  Te128  1  0.50491701  0.66564354  0.01003526  1
  Te2-  Te129  1  0.50477366  0.66657515  0.33297959  1
  Te2-  Te130  1  0.50225751  0.66150686  0.65993588  1
  Te2-  Te131  1  0.84085368  -0.00631086  0.00031270  1
  Te2-  Te132  1  0.83124108  0.00520690  0.33014688  1
  Te2-  Te133  1  0.83281552  -0.00782623  0.67547599  1
  Te2-  Te134  1  0.84328169  0.33416095  -0.00373857  1
  Te2-  Te135  1  0.83360703  0.33601705  0.34080725  1
  Te2-  Te136  1  0.82977337  0.33608431  0.66291302  1
  Te2-  Te137  1  0.83329755  0.66895795  -0.00554254  1
  Te2-  Te138  1  0.82106389  0.65922776  0.34493541  1
  Te2-  Te139  1  0.83572500  0.67766537  0.66556661  1
  Te2-  Te140  1  0.01099862  0.17002648  0.00510391  1
  Te2-  Te141  1  -0.00066133  0.16207793  0.33436126  1
  Te2-  Te142  1  0.00261061  0.15572549  0.65923529  1
  Te2-  Te143  1  0.00401135  0.50407961  0.00417123  1
  Te2-  Te144  1  0.00022368  0.50860031  0.33256566  1
  Te2-  Te145  1  -0.00035756  0.50355005  0.66766700  1
  Te2-  Te146  1  0.00119641  0.82711861  0.00080168  1
  Te2-  Te147  1  0.00518386  0.83531278  0.32431242  1
  Te2-  Te148  1  0.01001571  0.83906139  0.66909624  1
  Te2-  Te149  1  0.31381305  0.16089241  0.00364376  1
  Te2-  Te150  1  0.33574873  0.15771083  0.33043323  1
  Te2-  Te151  1  0.34490032  0.17026370  0.65983807  1
  Te2-  Te152  1  0.33425216  0.49635640  0.00386682  1
  Te2-  Te153  1  0.33867718  0.50023125  0.33102050  1
  Te2-  Te154  1  0.34615885  0.49823524  0.67437588  1
  Te2-  Te155  1  0.33123710  0.83803987  0.01114796  1
  Te2-  Te156  1  0.34096567  0.84508686  0.32739969  1
  Te2-  Te157  1  0.33160352  0.83412309  0.66031686  1
  Te2-  Te158  1  0.67087402  0.16640635  0.00228110  1
  Te2-  Te159  1  0.66563381  0.18673127  0.32574659  1
  Te2-  Te160  1  0.65585663  0.17950838  0.66385131  1
  Te2-  Te161  1  0.66447469  0.49649467  0.00522950  1
  Te2-  Te162  1  0.65874914  0.48415455  0.32746872  1
  Te2-  Te163  1  0.65644373  0.49809754  0.67620542  1
  Te2-  Te164  1  0.66604676  0.83495806  -0.01235199  1
  Te2-  Te165  1  0.66516552  0.82800029  0.33049972  1
  Te2-  Te166  1  0.66046117  0.82449260  0.68055137  1
  Te2-  Te167  1  -0.00072206  0.00343493  0.16900049  1
  Te2-  Te168  1  -0.00733348  -0.01282832  0.50672913  1
  Te2-  Te169  1  0.00023914  -0.00532236  0.81685330  1
  Te2-  Te170  1  -0.01262870  0.34022624  0.18049436  1
  Te2-  Te171  1  0.00175391  0.33472214  0.49717037  1
  Te2-  Te172  1  -0.00093563  0.34034190  0.82344411  1
  Te2-  Te173  1  -0.00950453  0.66402568  0.16831725  1
  Te2-  Te174  1  0.00462635  0.68090196  0.49278158  1
  Te2-  Te175  1  -0.00023605  0.66349597  0.83599832  1
  Te2-  Te176  1  0.34118017  0.00508577  0.15566613  1
  Te2-  Te177  1  0.34554408  0.00121077  0.50001885  1
  Te2-  Te178  1  0.33347887  -0.00068100  0.84281571  1
  Te2-  Te179  1  0.32824664  0.33183806  0.16240220  1
  Te2-  Te180  1  0.32577978  0.34757670  0.50289847  1
  Te2-  Te181  1  0.33421348  0.33597913  0.83764006  1
  Te2-  Te182  1  0.34475524  0.66288282  0.17115443  1
  Te2-  Te183  1  0.33736967  0.65335184  0.49570180  1
  Te2-  Te184  1  0.33785294  0.65906745  0.83513858  1
  Te2-  Te185  1  0.66781266  0.00159343  0.15922443  1
  Te2-  Te186  1  0.66880047  -0.00060467  0.50807133  1
  Te2-  Te187  1  0.66886366  -0.00900356  0.83568573  1
  Te2-  Te188  1  0.68525930  0.33267229  0.15817969  1
  Te2-  Te189  1  0.66623329  0.34515392  0.50256246  1
  Te2-  Te190  1  0.67769279  0.33604342  0.83732709  1
  Te2-  Te191  1  0.67147072  0.65512732  0.17335519  1
  Te2-  Te192  1  0.65738739  0.65550578  0.49625971  1
  Te2-  Te193  1  0.66413975  0.67253282  0.83521595  1
  Pb2+  Pb194  1  0.15604735  0.33277527  0.16576717  1
  Pb2+  Pb195  1  0.32880576  0.66672835  0.66485196  1
  Pb2+  Pb196  1  0.49824788  0.83792092  0.66688653  1
  Pb2+  Pb197  1  0.83774240  0.83495840  0.33285076  1
  Pb2+  Pb198  1  0.83519703  0.49993709  0.00217383  1
  Pb2+  Pb199  1  0.66623085  0.82547950  0.50614797  1
  Pb2+  Pb200  1  0.84140831  0.16670366  0.00531084  1
  Pb2+  Pb201  1  0.66535016  0.82790992  0.15667748  1
  Pb2+  Pb202  1  0.49235066  0.33304887  0.50117977  1
  Pb2+  Pb203  1  0.83134067  0.16251036  0.66107190  1
  Pb2+  Pb204  1  0.16488614  -0.00568219  0.82003135  1
  Pb2+  Pb205  1  0.66616087  0.16885996  0.49502729  1
  Pb2+  Pb206  1  0.33581007  0.66860243  0.00210085  1
  Pb2+  Pb207  1  0.50268374  -0.00347089  0.83610494  1
  Pb2+  Pb208  1  0.33075968  0.32871822  0.33136649  1
  Pb2+  Pb209  1  0.82647237  0.50687764  0.66207229  1
  Pb2+  Pb210  1  0.66708689  0.16270227  0.83123728  1
  Pb2+  Pb211  1  0.33177461  0.16870409  0.82863902  1
  Pb2+  Pb212  1  0.17139734  0.49743481  0.66785897  1
  Pb2+  Pb213  1  0.16910615  -0.00681274  0.17415305  1
  Pb2+  Pb214  1  0.00090880  0.16442238  0.83334229  1
  Pb2+  Pb215  1  -0.00183824  0.50633824  0.50123017  1
