# generated using pymatgen
data_In22Ag21Sn22Bi21(Te54Pb11)2
_symmetry_space_group_name_H-M   'P 1'
_cell_length_a   19.14872074
_cell_length_b   19.14080220
_cell_length_c   19.13955978
_cell_angle_alpha   89.98632992
_cell_angle_beta   89.99202267
_cell_angle_gamma   89.99956898
_symmetry_Int_Tables_number   1
_chemical_formula_structural   In22Ag21Sn22Bi21(Te54Pb11)2
_chemical_formula_sum   'In22 Ag21 Sn22 Bi21 Te108 Pb22'
_cell_volume   7015.06709195
_cell_formula_units_Z   1
loop_
 _symmetry_equiv_pos_site_id
 _symmetry_equiv_pos_as_xyz
  1  'x, y, z'
loop_
 _atom_type_symbol
 _atom_type_oxidation_number
  In3+  3.0
  Ag+  1.0
  Sn2+  2.0
  Bi3+  3.0
  Te2-  -2.0
  Pb2+  2.0
loop_
 _atom_site_type_symbol
 _atom_site_label
 _atom_site_symmetry_multiplicity
 _atom_site_fract_x
 _atom_site_fract_y
 _atom_site_fract_z
 _atom_site_occupancy
  In3+  In0  1  0.01457653  0.65349142  0.00137851  1
  In3+  In1  1  0.82995829  0.32667813  0.16449794  1
  In3+  In2  1  0.66302705  0.66968358  0.00418310  1
  In3+  In3  1  0.17447013  0.82988984  0.34083723  1
  In3+  In4  1  0.49442972  0.02360194  0.82506510  1
  In3+  In5  1  0.31578775  0.15732027  0.83596985  1
  In3+  In6  1  0.66688768  0.34367285  -0.01952537  1
  In3+  In7  1  0.32135169  0.00052188  0.34291154  1
  In3+  In8  1  0.50308204  0.84255458  0.33409002  1
  In3+  In9  1  0.65461903  0.34660154  0.67054748  1
  In3+  In10  1  0.85045136  0.66742909  0.49452116  1
  In3+  In11  1  0.82942459  0.67597862  0.15766055  1
  In3+  In12  1  0.49269631  0.66234730  0.18193185  1
  In3+  In13  1  0.16790341  0.18607834  0.33280216  1
  In3+  In14  1  0.50233884  0.16251783  0.66418146  1
  In3+  In15  1  0.00717941  0.66264313  0.33183109  1
  In3+  In16  1  -0.00259187  0.00287588  0.66430571  1
  In3+  In17  1  0.67234938  0.49718411  0.15895676  1
  In3+  In18  1  0.00871333  0.83187161  0.49561123  1
  In3+  In19  1  0.83461702  0.34345036  0.52148872  1
  In3+  In20  1  0.66638668  -0.00575621  0.31986350  1
  In3+  In21  1  0.13334896  0.65622808  0.83795594  1
  Ag+  Ag22  1  0.32131052  0.01848086  0.68795384  1
  Ag+  Ag23  1  0.30477283  0.47707806  0.18359558  1
  Ag+  Ag24  1  0.19844520  0.36869127  0.16290308  1
  Ag+  Ag25  1  0.47418126  0.32989010  0.47637219  1
  Ag+  Ag26  1  0.14984772  0.65053862  0.51649525  1
  Ag+  Ag27  1  0.17091663  0.48063823  -0.02461527  1
  Ag+  Ag28  1  0.16869404  0.02440828  0.52369664  1
  Ag+  Ag29  1  0.64857052  0.80872895  0.16657895  1
  Ag+  Ag30  1  0.79605453  -0.00085212  0.80240955  1
  Ag+  Ag31  1  -0.01817973  0.47466445  0.83664305  1
  Ag+  Ag32  1  0.13590769  0.36773577  0.53042610  1
  Ag+  Ag33  1  0.82921985  0.65391126  0.85692411  1
  Ag+  Ag34  1  0.48000240  0.48038096  0.30069707  1
  Ag+  Ag35  1  0.35983915  0.00316038  0.02255357  1
  Ag+  Ag36  1  0.02995537  0.47109434  0.47649931  1
  Ag+  Ag37  1  0.69499815  0.01560403  0.66576031  1
  Ag+  Ag38  1  0.47753729  0.32192029  0.83591026  1
  Ag+  Ag39  1  0.83768161  0.35762721  0.82353192  1
  Ag+  Ag40  1  0.14485249  0.48391958  0.33703146  1
  Ag+  Ag41  1  0.80706302  0.00281497  0.16260403  1
  Ag+  Ag42  1  0.69651801  0.46333102  0.86750336  1
  Sn2+  Sn43  1  0.33329666  0.66902183  0.67030554  1
  Sn2+  Sn44  1  0.17393964  0.83576315  0.00186746  1
  Sn2+  Sn45  1  0.50526637  0.34151461  0.15873271  1
  Sn2+  Sn46  1  0.16828089  -0.01062722  0.83014690  1
  Sn2+  Sn47  1  0.49837547  -0.00550216  0.16131185  1
  Sn2+  Sn48  1  0.00381730  0.33637703  -0.00017752  1
  Sn2+  Sn49  1  0.83403648  0.16236975  -0.00157335  1
  Sn2+  Sn50  1  0.66361506  0.33551162  0.34088278  1
  Sn2+  Sn51  1  0.47906361  0.50154456  -0.00202854  1
  Sn2+  Sn52  1  0.83142439  0.83193962  0.33283978  1
  Sn2+  Sn53  1  0.33744083  0.83094620  0.16356998  1
  Sn2+  Sn54  1  0.00269311  0.33454724  0.32773197  1
  Sn2+  Sn55  1  -0.01083726  0.16701169  0.83025849  1
  Sn2+  Sn56  1  0.33423630  0.67087600  -0.00328920  1
  Sn2+  Sn57  1  0.82890825  0.82903985  0.67301082  1
  Sn2+  Sn58  1  0.50160952  0.83418682  0.00087782  1
  Sn2+  Sn59  1  0.16011635  0.50397879  0.65116642  1
  Sn2+  Sn60  1  0.33215442  0.65917685  0.33465327  1
  Sn2+  Sn61  1  0.34171572  0.49928431  0.83922336  1
  Sn2+  Sn62  1  0.49762584  0.84349374  0.66505444  1
  Sn2+  Sn63  1  0.83609397  0.50668801  0.67432392  1
  Sn2+  Sn64  1  0.66849871  0.66033691  0.33396071  1
  Bi3+  Bi65  1  0.00223295  0.16382221  0.49617506  1
  Bi3+  Bi66  1  0.17157712  0.66893488  0.16884829  1
  Bi3+  Bi67  1  0.66796436  0.66817604  0.66945324  1
  Bi3+  Bi68  1  0.17148205  -0.00187283  0.16229107  1
  Bi3+  Bi69  1  -0.00159529  0.83859013  0.83064709  1
  Bi3+  Bi70  1  0.16580653  0.17068718  0.00395921  1
  Bi3+  Bi71  1  0.67035348  0.16232616  0.83552984  1
  Bi3+  Bi72  1  0.50311180  0.65576690  0.49539601  1
  Bi3+  Bi73  1  -0.00070788  0.66843989  0.66846193  1
  Bi3+  Bi74  1  -0.00107054  0.83103557  0.16642567  1
  Bi3+  Bi75  1  0.66699633  0.82974886  0.83562935  1
  Bi3+  Bi76  1  0.83374026  0.16464529  0.33155472  1
  Bi3+  Bi77  1  0.00295843  -0.00346749  -0.00095694  1
  Bi3+  Bi78  1  0.66792077  0.16511846  0.50327106  1
  Bi3+  Bi79  1  0.33377611  0.83283007  0.83207369  1
  Bi3+  Bi80  1  0.67020036  0.49882772  0.50256549  1
  Bi3+  Bi81  1  0.50970576  0.66488375  0.83550408  1
  Bi3+  Bi82  1  0.33433797  0.83268336  0.49671626  1
  Bi3+  Bi83  1  0.49830414  0.50339900  0.66978289  1
  Bi3+  Bi84  1  0.33969067  0.33494724  0.66666937  1
  Bi3+  Bi85  1  0.66422413  0.17082934  0.16898977  1
  Te2-  Te86  1  0.16462693  0.16254209  0.16966054  1
  Te2-  Te87  1  0.16361704  0.16707667  0.48655365  1
  Te2-  Te88  1  0.16292179  0.16707322  0.83785878  1
  Te2-  Te89  1  0.16165549  0.51190532  0.18020025  1
  Te2-  Te90  1  0.16967704  0.50600945  0.48881487  1
  Te2-  Te91  1  0.17792676  0.51259724  0.83077793  1
  Te2-  Te92  1  0.16540999  0.83263264  0.16751809  1
  Te2-  Te93  1  0.16762480  0.82496766  0.49353687  1
  Te2-  Te94  1  0.16773878  0.82047098  0.83433342  1
  Te2-  Te95  1  0.50303538  0.16724856  0.16751075  1
  Te2-  Te96  1  0.50629548  0.18241414  0.50675752  1
  Te2-  Te97  1  0.50931308  0.17707640  0.82913953  1
  Te2-  Te98  1  0.51404962  0.51079503  0.16229866  1
  Te2-  Te99  1  0.50810031  0.49216879  0.50488915  1
  Te2-  Te100  1  0.50444336  0.50616517  0.83225434  1
  Te2-  Te101  1  0.50237087  0.82716384  0.17054456  1
  Te2-  Te102  1  0.50103929  0.82864622  0.49338298  1
  Te2-  Te103  1  0.50064332  0.82670090  0.83295141  1
  Te2-  Te104  1  0.82516328  0.15474812  0.16923135  1
  Te2-  Te105  1  0.83376974  0.17195062  0.49673931  1
  Te2-  Te106  1  0.82994812  0.14482477  0.83590955  1
  Te2-  Te107  1  0.82732331  0.51049171  0.16851366  1
  Te2-  Te108  1  0.83309488  0.49985136  0.50657056  1
  Te2-  Te109  1  0.83512864  0.50690373  0.83353804  1
  Te2-  Te110  1  0.83812452  0.83065247  0.17112161  1
  Te2-  Te111  1  0.84142720  0.83253591  0.49789334  1
  Te2-  Te112  1  0.82926286  0.85296661  0.83192252  1
  Te2-  Te113  1  0.16518191  0.00462355  -0.00093646  1
  Te2-  Te114  1  0.17061295  -0.01340971  0.32548243  1
  Te2-  Te115  1  0.17304983  0.00106130  0.67035949  1
  Te2-  Te116  1  0.16557506  0.33548400  0.01298639  1
  Te2-  Te117  1  0.16037283  0.33890517  0.31215515  1
  Te2-  Te118  1  0.17193595  0.33530533  0.66949870  1
  Te2-  Te119  1  0.16752563  0.66779688  0.00256575  1
  Te2-  Te120  1  0.16365836  0.67526300  0.32952258  1
  Te2-  Te121  1  0.16493585  0.66354873  0.66376198  1
  Te2-  Te122  1  0.50310481  -0.00003892  -0.00574619  1
  Te2-  Te123  1  0.50475008  -0.00268319  0.33348001  1
  Te2-  Te124  1  0.48513381  0.00533479  0.66828422  1
  Te2-  Te125  1  0.50849344  0.33996253  -0.01293881  1
  Te2-  Te126  1  0.50282071  0.33829499  0.33201666  1
  Te2-  Te127  1  0.50118965  0.33849398  0.68260515  1
  Te2-  Te128  1  0.50717088  0.66711388  -0.00132366  1
  Te2-  Te129  1  0.50436101  0.66443613  0.33381760  1
  Te2-  Te130  1  0.50314275  0.66869210  0.66423296  1
  Te2-  Te131  1  0.84017910  0.00073427  0.01395955  1
  Te2-  Te132  1  0.82742876  0.00061444  0.32394058  1
  Te2-  Te133  1  0.84260211  -0.00293108  0.65986784  1
  Te2-  Te134  1  0.82922671  0.32812935  0.00929603  1
  Te2-  Te135  1  0.83329243  0.32659761  0.32178268  1
  Te2-  Te136  1  0.83400871  0.33551958  0.67492955  1
  Te2-  Te137  1  0.82628670  0.66433789  0.00413193  1
  Te2-  Te138  1  0.83516617  0.66823109  0.34182538  1
  Te2-  Te139  1  0.83337037  0.67014645  0.65491722  1
  Te2-  Te140  1  0.00333311  0.16324912  -0.00295818  1
  Te2-  Te141  1  -0.00061252  0.16296326  0.33397393  1
  Te2-  Te142  1  0.00115118  0.16495108  0.66089626  1
  Te2-  Te143  1  0.01510755  0.50184702  -0.01545029  1
  Te2-  Te144  1  -0.00126202  0.50929691  0.33673042  1
  Te2-  Te145  1  0.00289859  0.50837251  0.68309162  1
  Te2-  Te146  1  0.00540973  0.83100564  -0.00281541  1
  Te2-  Te147  1  -0.00010513  0.82428739  0.33379896  1
  Te2-  Te148  1  -0.00079869  0.83444605  0.66647678  1
  Te2-  Te149  1  0.32970356  0.15424080  -0.00799765  1
  Te2-  Te150  1  0.32885871  0.16140539  0.33391548  1
  Te2-  Te151  1  0.33931038  0.16557550  0.67708963  1
  Te2-  Te152  1  0.32209446  0.50309251  -0.00026108  1
  Te2-  Te153  1  0.33854640  0.50571510  0.32512136  1
  Te2-  Te154  1  0.33502438  0.50005429  0.66788411  1
  Te2-  Te155  1  0.33516497  0.84606637  -0.00660587  1
  Te2-  Te156  1  0.34218974  0.83271468  0.33388711  1
  Te2-  Te157  1  0.33638021  0.83514476  0.66561134  1
  Te2-  Te158  1  0.66778822  0.16903477  0.00252919  1
  Te2-  Te159  1  0.66904639  0.16221115  0.33710147  1
  Te2-  Te160  1  0.66099976  0.16046377  0.66850639  1
  Te2-  Te161  1  0.66629454  0.50058658  0.00426560  1
  Te2-  Te162  1  0.66567985  0.49830347  0.34058979  1
  Te2-  Te163  1  0.66505503  0.50283047  0.66871805  1
  Te2-  Te164  1  0.66639163  0.82798266  0.00870501  1
  Te2-  Te165  1  0.66200779  0.83507657  0.32077415  1
  Te2-  Te166  1  0.66378457  0.82960839  0.66884403  1
  Te2-  Te167  1  0.00628281  -0.00704027  0.16467674  1
  Te2-  Te168  1  0.01579131  -0.00258196  0.50441001  1
  Te2-  Te169  1  0.00527593  -0.00174642  0.83189247  1
  Te2-  Te170  1  -0.01347495  0.33397976  0.16221455  1
  Te2-  Te171  1  -0.00339379  0.32901670  0.49657312  1
  Te2-  Te172  1  -0.01091217  0.32782358  0.83828721  1
  Te2-  Te173  1  -0.00433921  0.66969477  0.16286071  1
  Te2-  Te174  1  0.00493082  0.67314960  0.50441118  1
  Te2-  Te175  1  -0.01920748  0.67852499  0.83355753  1
  Te2-  Te176  1  0.33545123  -0.00388917  0.16846714  1
  Te2-  Te177  1  0.32143043  -0.00562542  0.49558024  1
  Te2-  Te178  1  0.33941866  -0.00243329  0.83302504  1
  Te2-  Te179  1  0.34590162  0.33573159  0.16391535  1
  Te2-  Te180  1  0.33045844  0.33097368  0.50445991  1
  Te2-  Te181  1  0.32975650  0.32981089  0.83076967  1
  Te2-  Te182  1  0.33851393  0.67081537  0.16313982  1
  Te2-  Te183  1  0.34228731  0.67146910  0.50219823  1
  Te2-  Te184  1  0.34358036  0.67164065  0.83409280  1
  Te2-  Te185  1  0.65996034  0.00390103  0.16572965  1
  Te2-  Te186  1  0.66541143  0.00270110  0.51452115  1
  Te2-  Te187  1  0.64928536  -0.00605222  0.82008467  1
  Te2-  Te188  1  0.66904541  0.33461114  0.17022399  1
  Te2-  Te189  1  0.67564824  0.33121929  0.51032271  1
  Te2-  Te190  1  0.68613345  0.32399838  0.82898127  1
  Te2-  Te191  1  0.67294099  0.66454750  0.16653255  1
  Te2-  Te192  1  0.66535548  0.66680893  0.50338714  1
  Te2-  Te193  1  0.67702096  0.67014863  0.83355438  1
  Pb2+  Pb194  1  0.83599046  0.83324991  -0.00181648  1
  Pb2+  Pb195  1  0.16847826  0.16786897  0.66201453  1
  Pb2+  Pb196  1  0.32746127  0.33812942  0.33638388  1
  Pb2+  Pb197  1  0.33049829  0.16662695  0.16441567  1
  Pb2+  Pb198  1  0.49679759  0.00316700  0.50091169  1
  Pb2+  Pb199  1  0.00335735  0.34329570  0.66735123  1
  Pb2+  Pb200  1  0.83715370  0.00102637  0.49194245  1
  Pb2+  Pb201  1  0.00295205  -0.00704175  0.33486204  1
  Pb2+  Pb202  1  0.83073037  0.16893550  0.66927332  1
  Pb2+  Pb203  1  -0.00438337  0.16502972  0.16410850  1
  Pb2+  Pb204  1  0.49973410  0.16982521  -0.00055055  1
  Pb2+  Pb205  1  0.67276966  -0.00130682  -0.00639652  1
  Pb2+  Pb206  1  0.50021989  0.17036222  0.33581015  1
  Pb2+  Pb207  1  0.33691164  0.49996779  0.49711482  1
  Pb2+  Pb208  1  0.33503322  0.33339698  -0.00344847  1
  Pb2+  Pb209  1  0.67284151  0.83778850  0.49215174  1
  Pb2+  Pb210  1  0.16795328  0.83300656  0.66222463  1
  Pb2+  Pb211  1  0.33366368  0.16494738  0.50500129  1
  Pb2+  Pb212  1  0.83194607  0.49484952  0.33796228  1
  Pb2+  Pb213  1  0.84039644  0.49504408  -0.00023704  1
  Pb2+  Pb214  1  0.00019700  0.50049153  0.16071519  1
  Pb2+  Pb215  1  0.16141633  0.34300986  0.84063967  1
