# generated using pymatgen
data_In22Ag21Sn22Bi21(Te54Pb11)2
_symmetry_space_group_name_H-M   'P 1'
_cell_length_a   19.15715766
_cell_length_b   19.14453136
_cell_length_c   19.14947444
_cell_angle_alpha   89.99575504
_cell_angle_beta   89.99297768
_cell_angle_gamma   90.00567655
_symmetry_Int_Tables_number   1
_chemical_formula_structural   In22Ag21Sn22Bi21(Te54Pb11)2
_chemical_formula_sum   'In22 Ag21 Sn22 Bi21 Te108 Pb22'
_cell_volume   7023.16167102
_cell_formula_units_Z   1
loop_
 _symmetry_equiv_pos_site_id
 _symmetry_equiv_pos_as_xyz
  1  'x, y, z'
loop_
 _atom_type_symbol
 _atom_type_oxidation_number
  In3+  3.0
  Ag+  1.0
  Sn2+  2.0
  Bi3+  3.0
  Te2-  -2.0
  Pb2+  2.0
loop_
 _atom_site_type_symbol
 _atom_site_label
 _atom_site_symmetry_multiplicity
 _atom_site_fract_x
 _atom_site_fract_y
 _atom_site_fract_z
 _atom_site_occupancy
  In3+  In0  1  0.66117787  0.33093277  0.32759570  1
  In3+  In1  1  0.82298087  0.67653447  0.18816573  1
  In3+  In2  1  0.35116145  0.33595090  -0.03399769  1
  In3+  In3  1  0.00225438  0.83339532  0.81767670  1
  In3+  In4  1  0.17124645  0.68430384  0.53068946  1
  In3+  In5  1  -0.01033397  0.81590923  0.17267182  1
  In3+  In6  1  0.65752482  0.65460956  0.67412495  1
  In3+  In7  1  0.50164629  0.82188363  -0.00849053  1
  In3+  In8  1  0.16796044  -0.00839253  0.50734454  1
  In3+  In9  1  -0.03072646  0.16854928  0.83198307  1
  In3+  In10  1  0.81903857  0.35101067  0.50257539  1
  In3+  In11  1  0.33460844  -0.02208318  0.34720784  1
  In3+  In12  1  0.00031247  0.67087208  -0.02646524  1
  In3+  In13  1  0.33939030  -0.00269356  0.67446389  1
  In3+  In14  1  0.16889543  0.82735552  0.67961544  1
  In3+  In15  1  0.81518093  0.83361926  -0.00373246  1
  In3+  In16  1  0.15452244  0.67316210  0.16805720  1
  In3+  In17  1  0.65583909  0.83083597  0.81060007  1
  In3+  In18  1  0.50884278  -0.00111551  0.16163902  1
  In3+  In19  1  -0.00094680  0.35737890  0.66135563  1
  In3+  In20  1  0.65644333  -0.00144035  -0.00313015  1
  In3+  In21  1  0.66597186  0.14276986  0.16807849  1
  Ag+  Ag22  1  0.83369780  0.83720136  0.35075617  1
  Ag+  Ag23  1  0.81072790  0.69076013  0.52294500  1
  Ag+  Ag24  1  0.47793243  0.52291777  0.67272751  1
  Ag+  Ag25  1  0.52838946  0.36041691  0.81986612  1
  Ag+  Ag26  1  0.51922845  0.63704351  0.50088094  1
  Ag+  Ag27  1  0.64546109  0.83184912  0.16292790  1
  Ag+  Ag28  1  0.64098088  0.46941270  0.84880503  1
  Ag+  Ag29  1  0.80843461  0.82186701  0.64706355  1
  Ag+  Ag30  1  0.50575165  0.17153036  -0.02523458  1
  Ag+  Ag31  1  0.18286680  0.65114198  0.83784493  1
  Ag+  Ag32  1  0.35751348  0.53186651  0.81662354  1
  Ag+  Ag33  1  0.50918069  0.52468569  0.30373617  1
  Ag+  Ag34  1  -0.02995513  0.34857987  0.35964015  1
  Ag+  Ag35  1  -0.01491958  0.66939419  0.65550079  1
  Ag+  Ag36  1  0.65037683  0.18184802  0.86616210  1
  Ag+  Ag37  1  0.33644916  0.82610786  0.51880421  1
  Ag+  Ag38  1  0.46918437  0.64230894  0.86204293  1
  Ag+  Ag39  1  0.67379013  0.14477525  0.51613903  1
  Ag+  Ag40  1  0.36222861  0.82068386  0.80301742  1
  Ag+  Ag41  1  0.35795758  0.35776144  0.67022071  1
  Ag+  Ag42  1  -0.02548680  0.52143080  0.19796649  1
  Sn2+  Sn43  1  0.83122990  0.15931428  0.34054658  1
  Sn2+  Sn44  1  0.17193444  0.83126131  -0.00286355  1
  Sn2+  Sn45  1  0.34418138  0.66765195  0.67049165  1
  Sn2+  Sn46  1  0.83151474  -0.01022699  0.50098958  1
  Sn2+  Sn47  1  0.66471139  -0.00064908  0.33743871  1
  Sn2+  Sn48  1  0.33235963  0.83507256  0.15654349  1
  Sn2+  Sn49  1  -0.00333606  0.16705159  0.50356297  1
  Sn2+  Sn50  1  -0.00112898  0.65999750  0.34231663  1
  Sn2+  Sn51  1  -0.00054107  -0.01747291  0.00493006  1
  Sn2+  Sn52  1  0.17640181  0.49889196  0.33132726  1
  Sn2+  Sn53  1  0.66137427  0.50418321  0.50502552  1
  Sn2+  Sn54  1  0.33970638  0.16585271  0.16561571  1
  Sn2+  Sn55  1  0.17133122  0.34111166  0.83345868  1
  Sn2+  Sn56  1  0.17279849  0.50334686  0.67176380  1
  Sn2+  Sn57  1  0.49508674  0.82453680  0.65877456  1
  Sn2+  Sn58  1  0.82796559  0.14831775  0.65620900  1
  Sn2+  Sn59  1  0.17698125  0.16468509  -0.00490002  1
  Sn2+  Sn60  1  0.33706147  0.00674266  0.00122661  1
  Sn2+  Sn61  1  0.49923834  0.33541447  0.51533146  1
  Sn2+  Sn62  1  0.65980470  0.83043335  0.48746381  1
  Sn2+  Sn63  1  0.49772699  0.00204622  0.49799209  1
  Sn2+  Sn64  1  0.34713621  0.16576880  0.49905130  1
  Bi3+  Bi65  1  0.16564130  0.49829324  -0.00165112  1
  Bi3+  Bi66  1  0.16585099  0.00122768  0.83396351  1
  Bi3+  Bi67  1  0.49947875  0.16699260  0.33508347  1
  Bi3+  Bi68  1  0.50137805  0.16264533  0.66408039  1
  Bi3+  Bi69  1  -0.00137305  -0.00116549  0.66945358  1
  Bi3+  Bi70  1  0.83545903  0.33598173  0.16812757  1
  Bi3+  Bi71  1  0.83509640  -0.00404562  0.83255872  1
  Bi3+  Bi72  1  0.00355522  0.33326893  -0.00424691  1
  Bi3+  Bi73  1  0.16677839  0.33158679  0.49891380  1
  Bi3+  Bi74  1  0.83622535  0.50872636  0.66571114  1
  Bi3+  Bi75  1  0.33185980  0.49870874  0.16642111  1
  Bi3+  Bi76  1  0.83465459  0.67122898  0.82754271  1
  Bi3+  Bi77  1  0.00609268  0.50109934  0.49780723  1
  Bi3+  Bi78  1  0.33625582  0.33370188  0.34488751  1
  Bi3+  Bi79  1  0.66545855  0.66748276  0.33880454  1
  Bi3+  Bi80  1  0.34002382  0.16137567  0.83093544  1
  Bi3+  Bi81  1  0.83689709  0.50347025  -0.00441493  1
  Bi3+  Bi82  1  0.16980088  -0.00058956  0.16508795  1
  Bi3+  Bi83  1  0.16400186  0.16797378  0.33406330  1
  Bi3+  Bi84  1  0.16513001  0.33852466  0.16556121  1
  Bi3+  Bi85  1  0.33212865  0.66297753  0.33543365  1
  Te2-  Te86  1  0.17074078  0.16792018  0.16701636  1
  Te2-  Te87  1  0.16797907  0.16577258  0.49671459  1
  Te2-  Te88  1  0.17537463  0.16405861  0.83360355  1
  Te2-  Te89  1  0.16824070  0.50095575  0.16248125  1
  Te2-  Te90  1  0.16776700  0.49537239  0.49969065  1
  Te2-  Te91  1  0.17189758  0.50330197  0.83586106  1
  Te2-  Te92  1  0.16603098  0.83444447  0.16340318  1
  Te2-  Te93  1  0.17616591  0.83742882  0.49810961  1
  Te2-  Te94  1  0.15890832  0.84068603  0.83637125  1
  Te2-  Te95  1  0.50641504  0.15981337  0.17283282  1
  Te2-  Te96  1  0.51472655  0.16610137  0.49890305  1
  Te2-  Te97  1  0.50543884  0.16235739  0.82686185  1
  Te2-  Te98  1  0.49710094  0.49930551  0.15797982  1
  Te2-  Te99  1  0.50360839  0.49201631  0.52160482  1
  Te2-  Te100  1  0.50141042  0.50524642  0.82026526  1
  Te2-  Te101  1  0.49737648  0.84333094  0.16583908  1
  Te2-  Te102  1  0.48755798  0.84441550  0.50205876  1
  Te2-  Te103  1  0.50357288  0.83062674  0.83920858  1
  Te2-  Te104  1  0.82619525  0.17028965  0.16847004  1
  Te2-  Te105  1  0.82647472  0.15895394  0.49794884  1
  Te2-  Te106  1  0.81594998  0.15859159  0.83058777  1
  Te2-  Te107  1  0.83400843  0.50282637  0.16048556  1
  Te2-  Te108  1  0.83994414  0.50384476  0.50140155  1
  Te2-  Te109  1  0.83704413  0.50650876  0.83032562  1
  Te2-  Te110  1  0.83828897  0.82656309  0.15371395  1
  Te2-  Te111  1  0.83365116  0.83258981  0.49944471  1
  Te2-  Te112  1  0.84394607  0.83338427  0.84419151  1
  Te2-  Te113  1  0.16756544  -0.00035460  0.00037068  1
  Te2-  Te114  1  0.17382023  0.00352849  0.33051141  1
  Te2-  Te115  1  0.16329688  -0.00362082  0.66699165  1
  Te2-  Te116  1  0.16667115  0.33261002  0.00213052  1
  Te2-  Te117  1  0.17108293  0.33131574  0.33166988  1
  Te2-  Te118  1  0.15317034  0.33471617  0.66248712  1
  Te2-  Te119  1  0.15861491  0.66336388  -0.01054377  1
  Te2-  Te120  1  0.16761278  0.66094897  0.32490650  1
  Te2-  Te121  1  0.17501009  0.67317375  0.68236210  1
  Te2-  Te122  1  0.50219376  0.01366407  0.00792361  1
  Te2-  Te123  1  0.49299790  0.00426131  0.32972284  1
  Te2-  Te124  1  0.49651831  -0.00287304  0.66562783  1
  Te2-  Te125  1  0.49892450  0.32259915  -0.00516159  1
  Te2-  Te126  1  0.50089765  0.32885439  0.34081125  1
  Te2-  Te127  1  0.50006862  0.32361539  0.67631290  1
  Te2-  Te128  1  0.50238372  0.66997967  0.00305522  1
  Te2-  Te129  1  0.49827080  0.66387916  0.34873917  1
  Te2-  Te130  1  0.50623696  0.66787359  0.65118139  1
  Te2-  Te131  1  0.83350704  -0.00598454  -0.00209685  1
  Te2-  Te132  1  0.83326455  -0.00904377  0.33382943  1
  Te2-  Te133  1  0.83757988  -0.02058866  0.67027015  1
  Te2-  Te134  1  0.83806797  0.33578041  -0.00000367  1
  Te2-  Te135  1  0.82830215  0.33174481  0.32968056  1
  Te2-  Te136  1  0.83932193  0.33632360  0.65658922  1
  Te2-  Te137  1  0.84394492  0.66793047  -0.00526111  1
  Te2-  Te138  1  0.83294175  0.67230892  0.33772269  1
  Te2-  Te139  1  0.83807709  0.67535084  0.66584041  1
  Te2-  Te140  1  0.00120675  0.16838073  -0.00971434  1
  Te2-  Te141  1  0.00168477  0.17061972  0.33548663  1
  Te2-  Te142  1  -0.00866676  0.16020802  0.67256067  1
  Te2-  Te143  1  0.00131801  0.50084389  -0.00214211  1
  Te2-  Te144  1  0.00333256  0.49116589  0.33733435  1
  Te2-  Te145  1  0.00136035  0.51532512  0.66194514  1
  Te2-  Te146  1  0.00607239  0.82549953  0.01567305  1
  Te2-  Te147  1  -0.01025678  0.83024912  0.32617753  1
  Te2-  Te148  1  0.01152608  0.83319537  0.66458457  1
  Te2-  Te149  1  0.34409026  0.17482992  -0.00524756  1
  Te2-  Te150  1  0.33301626  0.17071640  0.33562856  1
  Te2-  Te151  1  0.33513759  0.15391591  0.66492912  1
  Te2-  Te152  1  0.32915998  0.49149515  0.00030975  1
  Te2-  Te153  1  0.34755096  0.49828141  0.33372860  1
  Te2-  Te154  1  0.32972915  0.50162940  0.67411198  1
  Te2-  Te155  1  0.34456865  0.83697275  0.00126148  1
  Te2-  Te156  1  0.33311695  0.82779431  0.32529146  1
  Te2-  Te157  1  0.32526764  0.84063913  0.66480119  1
  Te2-  Te158  1  0.65937203  0.15434114  0.01034451  1
  Te2-  Te159  1  0.66456291  0.16820827  0.32289631  1
  Te2-  Te160  1  0.66814990  0.16588158  0.66060503  1
  Te2-  Te161  1  0.67335592  0.50325259  -0.01001500  1
  Te2-  Te162  1  0.65588453  0.50493120  0.33499355  1
  Te2-  Te163  1  0.67814363  0.50416634  0.66856301  1
  Te2-  Te164  1  0.65961261  0.84042616  0.01178615  1
  Te2-  Te165  1  0.67885642  0.83041915  0.33164668  1
  Te2-  Te166  1  0.66268876  0.83147451  0.65944612  1
  Te2-  Te167  1  0.00692063  0.00451461  0.16547091  1
  Te2-  Te168  1  0.00550807  0.00131092  0.50503526  1
  Te2-  Te169  1  0.00070450  0.00226448  0.83565898  1
  Te2-  Te170  1  0.00040406  0.33740832  0.15922358  1
  Te2-  Te171  1  0.00219250  0.33285578  0.50274389  1
  Te2-  Te172  1  0.00241398  0.32615050  0.82949454  1
  Te2-  Te173  1  0.00311320  0.66192729  0.17316462  1
  Te2-  Te174  1  0.01880345  0.66448563  0.50595647  1
  Te2-  Te175  1  -0.00011593  0.67621494  0.81999277  1
  Te2-  Te176  1  0.32964486  0.00430719  0.16560027  1
  Te2-  Te177  1  0.32647440  -0.00248427  0.49763054  1
  Te2-  Te178  1  0.32785736  -0.00627725  0.83337401  1
  Te2-  Te179  1  0.32910796  0.33538412  0.17716885  1
  Te2-  Te180  1  0.32898525  0.33190190  0.51058319  1
  Te2-  Te181  1  0.32731620  0.32357080  0.81744862  1
  Te2-  Te182  1  0.32982201  0.66261053  0.16946330  1
  Te2-  Te183  1  0.32070682  0.67623833  0.49730172  1
  Te2-  Te184  1  0.33158284  0.67954378  0.83013684  1
  Te2-  Te185  1  0.66613502  -0.01448843  0.17101202  1
  Te2-  Te186  1  0.66756142  -0.00148865  0.49490624  1
  Te2-  Te187  1  0.67195444  -0.01579092  0.83945608  1
  Te2-  Te188  1  0.66937287  0.34032455  0.17121643  1
  Te2-  Te189  1  0.67040518  0.33616064  0.48812468  1
  Te2-  Te190  1  0.67087885  0.32503614  0.83269488  1
  Te2-  Te191  1  0.66793016  0.67997962  0.17185330  1
  Te2-  Te192  1  0.66560764  0.67016995  0.50056770  1
  Te2-  Te193  1  0.67127433  0.67882470  0.82626248  1
  Pb2+  Pb194  1  0.66725031  0.00080194  0.66554212  1
  Pb2+  Pb195  1  0.83413427  0.33697155  0.82518479  1
  Pb2+  Pb196  1  0.66626529  0.50874953  0.16556007  1
  Pb2+  Pb197  1  0.67368054  0.67085407  -0.00493536  1
  Pb2+  Pb198  1  0.50835580  0.83400904  0.33871868  1
  Pb2+  Pb199  1  0.49721482  0.67251906  0.17583720  1
  Pb2+  Pb200  1  0.66678395  0.33133548  0.00219271  1
  Pb2+  Pb201  1  0.16184062  0.82948188  0.33111835  1
  Pb2+  Pb202  1  0.82652747  0.50248573  0.33289829  1
  Pb2+  Pb203  1  0.83613609  -0.00339330  0.16813660  1
  Pb2+  Pb204  1  0.83120675  0.16320838  -0.00071142  1
  Pb2+  Pb205  1  0.49909582  -0.00147009  0.83735970  1
  Pb2+  Pb206  1  0.00010058  0.17415417  0.16427402  1
  Pb2+  Pb207  1  0.00051330  0.00437793  0.33620770  1
  Pb2+  Pb208  1  0.66451321  0.33522584  0.66083068  1
  Pb2+  Pb209  1  0.16237312  0.16771314  0.66625237  1
  Pb2+  Pb210  1  0.49809933  0.32894008  0.16699062  1
  Pb2+  Pb211  1  0.00131072  0.83079907  0.49700375  1
  Pb2+  Pb212  1  0.33700968  0.50743035  0.50441969  1
  Pb2+  Pb213  1  0.49856412  0.49455495  -0.01468411  1
  Pb2+  Pb214  1  0.32747973  0.66688716  -0.00232263  1
  Pb2+  Pb215  1  0.00626688  0.50105324  0.83166819  1
