# generated using pymatgen
data_In22Ag21Sn22Bi21(Te54Pb11)2
_symmetry_space_group_name_H-M   'P 1'
_cell_length_a   19.12500751
_cell_length_b   19.13066522
_cell_length_c   19.10642939
_cell_angle_alpha   90.00624773
_cell_angle_beta   89.99720916
_cell_angle_gamma   89.99437015
_symmetry_Int_Tables_number   1
_chemical_formula_structural   In22Ag21Sn22Bi21(Te54Pb11)2
_chemical_formula_sum   'In22 Ag21 Sn22 Bi21 Te108 Pb22'
_cell_volume   6990.54788023
_cell_formula_units_Z   1
loop_
 _symmetry_equiv_pos_site_id
 _symmetry_equiv_pos_as_xyz
  1  'x, y, z'
loop_
 _atom_type_symbol
 _atom_type_oxidation_number
  In3+  3.0
  Ag+  1.0
  Sn2+  2.0
  Bi3+  3.0
  Te2-  -2.0
  Pb2+  2.0
loop_
 _atom_site_type_symbol
 _atom_site_label
 _atom_site_symmetry_multiplicity
 _atom_site_fract_x
 _atom_site_fract_y
 _atom_site_fract_z
 _atom_site_occupancy
  In3+  In0  1  0.30641651  0.83382392  0.49969093  1
  In3+  In1  1  -0.00019724  0.66357918  0.33331193  1
  In3+  In2  1  0.00053903  -0.00827756  0.33133231  1
  In3+  In3  1  0.33675740  0.67008684  0.33374160  1
  In3+  In4  1  0.68001327  0.16789147  0.49549811  1
  In3+  In5  1  0.00220751  0.00485303  -0.01317085  1
  In3+  In6  1  0.83800978  0.48699664  0.67434289  1
  In3+  In7  1  0.15336240  0.15733014  0.66378016  1
  In3+  In8  1  0.82863308  0.00243558  0.18221599  1
  In3+  In9  1  0.84308746  0.00271671  0.83866989  1
  In3+  In10  1  0.65889929  0.17601732  0.83403427  1
  In3+  In11  1  0.85961602  -0.00801763  0.50257693  1
  In3+  In12  1  0.34489711  0.33680618  0.68857244  1
  In3+  In13  1  0.17240738  0.48017624  0.67795137  1
  In3+  In14  1  0.33318635  0.49525033  0.49363087  1
  In3+  In15  1  0.00724560  0.65836756  0.66227098  1
  In3+  In16  1  0.33350967  0.49028004  0.15607404  1
  In3+  In17  1  0.48870311  0.66508381  0.17152153  1
  In3+  In18  1  0.33221525  0.65528331  0.66816122  1
  In3+  In19  1  0.83681956  0.34250121  0.49459368  1
  In3+  In20  1  0.00083335  0.32406886  0.33640445  1
  In3+  In21  1  0.65914431  0.85150423  0.82649567  1
  Ag+  Ag22  1  0.35692681  0.34139728  -0.02251102  1
  Ag+  Ag23  1  -0.01555677  0.15501173  0.49672588  1
  Ag+  Ag24  1  0.52401531  0.33959075  0.82789236  1
  Ag+  Ag25  1  0.47558471  0.84583624  0.33874009  1
  Ag+  Ag26  1  0.19583549  0.02419942  0.82266847  1
  Ag+  Ag27  1  0.18200673  0.02670569  0.47324320  1
  Ag+  Ag28  1  0.15935589  0.31964708  0.83427475  1
  Ag+  Ag29  1  0.83210272  0.18694916  -0.02605500  1
  Ag+  Ag30  1  0.02133435  0.17470434  0.86033274  1
  Ag+  Ag31  1  0.64502041  0.34887413  0.33443151  1
  Ag+  Ag32  1  -0.00236637  0.30243471  -0.02587786  1
  Ag+  Ag33  1  0.82062982  0.47617470  0.32460740  1
  Ag+  Ag34  1  0.51414049  -0.03075667  0.83764227  1
  Ag+  Ag35  1  0.18309119  0.67045006  0.15239077  1
  Ag+  Ag36  1  0.33069155  0.47648357  0.85385785  1
  Ag+  Ag37  1  0.00017540  0.31171597  0.67466430  1
  Ag+  Ag38  1  0.33374244  0.19596900  0.52598433  1
  Ag+  Ag39  1  0.68492193  0.51564520  0.16314722  1
  Ag+  Ag40  1  0.83660280  0.81599505  0.31889160  1
  Ag+  Ag41  1  0.36181531  0.02184559  0.36063468  1
  Ag+  Ag42  1  -0.00219162  0.85652341  0.49845064  1
  Sn2+  Sn43  1  0.16374940  0.66493272  0.83688292  1
  Sn2+  Sn44  1  0.83500268  0.67060197  0.82599444  1
  Sn2+  Sn45  1  0.82996974  0.33362311  0.16695737  1
  Sn2+  Sn46  1  0.66960165  0.83974935  0.48957887  1
  Sn2+  Sn47  1  0.00794043  0.48495828  0.83528077  1
  Sn2+  Sn48  1  0.67064159  0.66202053  0.33257334  1
  Sn2+  Sn49  1  0.84689925  0.33000004  0.83744925  1
  Sn2+  Sn50  1  0.49532116  0.15968905  0.34113262  1
  Sn2+  Sn51  1  0.49345034  -0.00323081  0.16404596  1
  Sn2+  Sn52  1  0.15846251  0.83450519  0.33445612  1
  Sn2+  Sn53  1  0.83684530  0.83597889  0.00624192  1
  Sn2+  Sn54  1  0.16208854  0.32724106  0.51301209  1
  Sn2+  Sn55  1  0.49126316  0.00049170  0.50498802  1
  Sn2+  Sn56  1  0.84052745  0.16961154  0.67401261  1
  Sn2+  Sn57  1  0.66888035  0.66471780  0.67030412  1
  Sn2+  Sn58  1  0.49672270  0.64969615  0.83472706  1
  Sn2+  Sn59  1  0.50015596  0.50193765  0.67252535  1
  Sn2+  Sn60  1  0.00107005  0.83407135  0.18367257  1
  Sn2+  Sn61  1  0.16552491  0.48987223  -0.00162784  1
  Sn2+  Sn62  1  0.50355578  0.33417168  0.16157752  1
  Sn2+  Sn63  1  0.50549073  0.49577934  -0.00204719  1
  Sn2+  Sn64  1  0.83268030  0.66853376  0.49719441  1
  Bi3+  Bi65  1  0.65979392  0.00173733  0.66254808  1
  Bi3+  Bi66  1  0.16670441  0.66512933  0.49916143  1
  Bi3+  Bi67  1  0.66696125  0.82730343  0.17182139  1
  Bi3+  Bi68  1  0.33478368  0.16685277  0.16111832  1
  Bi3+  Bi69  1  -0.00483996  0.00220862  0.66765697  1
  Bi3+  Bi70  1  0.50068839  0.66954191  0.49637576  1
  Bi3+  Bi71  1  0.16389177  0.33953280  0.16248541  1
  Bi3+  Bi72  1  0.16314255  0.83257221  0.66876200  1
  Bi3+  Bi73  1  0.16496867  0.83111494  -0.00083925  1
  Bi3+  Bi74  1  0.00046185  0.50044431  0.50043159  1
  Bi3+  Bi75  1  0.16275078  0.50326698  0.33553302  1
  Bi3+  Bi76  1  0.67179520  0.50080059  0.49227636  1
  Bi3+  Bi77  1  0.83385125  0.83464955  0.66603666  1
  Bi3+  Bi78  1  0.33248156  0.17050558  0.83579713  1
  Bi3+  Bi79  1  0.49819730  0.16716869  0.66642803  1
  Bi3+  Bi80  1  0.33246897  0.00479870  -0.00075327  1
  Bi3+  Bi81  1  0.66634247  0.17321409  0.17148317  1
  Bi3+  Bi82  1  0.33411055  0.83075922  0.17077491  1
  Bi3+  Bi83  1  -0.00072210  0.67062551  -0.00096495  1
  Bi3+  Bi84  1  0.83191287  0.16873499  0.33535064  1
  Bi3+  Bi85  1  0.00127220  0.50419458  0.16807316  1
  Te2-  Te86  1  0.16594563  0.17011322  0.16695496  1
  Te2-  Te87  1  0.18526256  0.16874183  0.51125646  1
  Te2-  Te88  1  0.16429368  0.16806243  0.82305896  1
  Te2-  Te89  1  0.16887084  0.50541460  0.17101765  1
  Te2-  Te90  1  0.16532596  0.50166836  0.50149747  1
  Te2-  Te91  1  0.17702152  0.50627067  0.82567692  1
  Te2-  Te92  1  0.16810055  0.82255914  0.16473945  1
  Te2-  Te93  1  0.15176232  0.82807894  0.50371824  1
  Te2-  Te94  1  0.16305292  0.83036071  0.83381487  1
  Te2-  Te95  1  0.50094638  0.16521134  0.16787906  1
  Te2-  Te96  1  0.48048130  0.16209653  0.50382305  1
  Te2-  Te97  1  0.50367897  0.18656378  0.82962045  1
  Te2-  Te98  1  0.48611739  0.50395697  0.16592666  1
  Te2-  Te99  1  0.50586158  0.50356889  0.50264127  1
  Te2-  Te100  1  0.48626817  0.48975364  0.82938856  1
  Te2-  Te101  1  0.50080488  0.82727430  0.18125415  1
  Te2-  Te102  1  0.50648299  0.83139237  0.48884575  1
  Te2-  Te103  1  0.50767909  0.82359922  0.83290299  1
  Te2-  Te104  1  0.82841888  0.16331372  0.17198261  1
  Te2-  Te105  1  0.83361339  0.16778753  0.49955002  1
  Te2-  Te106  1  0.81880351  0.16008072  0.82970407  1
  Te2-  Te107  1  0.83285765  0.49664540  0.17571637  1
  Te2-  Te108  1  0.83483356  0.49844441  0.49189419  1
  Te2-  Te109  1  0.83598471  0.49895551  0.82756127  1
  Te2-  Te110  1  0.82981043  0.84130959  0.17145814  1
  Te2-  Te111  1  0.84049697  0.83873157  0.50494139  1
  Te2-  Te112  1  0.82392092  0.84028817  0.83126947  1
  Te2-  Te113  1  0.16354186  -0.00328545  -0.00639436  1
  Te2-  Te114  1  0.15496563  -0.00483355  0.33203950  1
  Te2-  Te115  1  0.16035745  -0.00269923  0.67859646  1
  Te2-  Te116  1  0.14628573  0.33453620  0.00099736  1
  Te2-  Te117  1  0.16149927  0.33973744  0.33093436  1
  Te2-  Te118  1  0.15186979  0.33270091  0.67010494  1
  Te2-  Te119  1  0.16336536  0.66575327  0.00332353  1
  Te2-  Te120  1  0.16169433  0.66600406  0.33791786  1
  Te2-  Te121  1  0.16817269  0.66991022  0.66476945  1
  Te2-  Te122  1  0.49670190  -0.00001612  -0.00911448  1
  Te2-  Te123  1  0.50110057  -0.00701419  0.33309686  1
  Te2-  Te124  1  0.49814195  0.00235732  0.67741581  1
  Te2-  Te125  1  0.50312739  0.33809457  -0.00458613  1
  Te2-  Te126  1  0.49764566  0.33220800  0.33218917  1
  Te2-  Te127  1  0.49868922  0.33330231  0.67390477  1
  Te2-  Te128  1  0.49592186  0.66315939  0.00330427  1
  Te2-  Te129  1  0.49696499  0.67096526  0.33334834  1
  Te2-  Te130  1  0.49601202  0.66358958  0.66204293  1
  Te2-  Te131  1  0.84252801  -0.00555568  -0.00722651  1
  Te2-  Te132  1  0.83941715  0.00580609  0.34388482  1
  Te2-  Te133  1  0.82712823  0.00056225  0.66267345  1
  Te2-  Te134  1  0.84713885  0.33209102  -0.00128592  1
  Te2-  Te135  1  0.84168479  0.33041185  0.33583079  1
  Te2-  Te136  1  0.84695070  0.33503326  0.66323551  1
  Te2-  Te137  1  0.83639676  0.66984310  -0.00210999  1
  Te2-  Te138  1  0.84116965  0.67028270  0.33816786  1
  Te2-  Te139  1  0.83658429  0.67217493  0.66648952  1
  Te2-  Te140  1  -0.01593099  0.15748701  0.00287593  1
  Te2-  Te141  1  -0.00166996  0.16710998  0.34544821  1
  Te2-  Te142  1  0.00079998  0.16458032  0.64879872  1
  Te2-  Te143  1  0.00358916  0.50836624  0.00257015  1
  Te2-  Te144  1  -0.00178352  0.50856170  0.33363590  1
  Te2-  Te145  1  -0.00167821  0.50578227  0.66623950  1
  Te2-  Te146  1  0.00214822  0.83492005  0.00149504  1
  Te2-  Te147  1  -0.01149252  0.83774769  0.34324987  1
  Te2-  Te148  1  -0.00247303  0.83732245  0.66150077  1
  Te2-  Te149  1  0.33230118  0.17201213  -0.00087157  1
  Te2-  Te150  1  0.33407900  0.15985491  0.32205809  1
  Te2-  Te151  1  0.33389312  0.17738818  0.67340097  1
  Te2-  Te152  1  0.33292213  0.48900676  0.00114107  1
  Te2-  Te153  1  0.32827279  0.50820411  0.33671257  1
  Te2-  Te154  1  0.33018300  0.49432980  0.65585010  1
  Te2-  Te155  1  0.33006296  0.83457276  0.00333886  1
  Te2-  Te156  1  0.32790308  0.82627961  0.33239810  1
  Te2-  Te157  1  0.32862326  0.83232596  0.66005322  1
  Te2-  Te158  1  0.68040514  0.16788029  0.00579482  1
  Te2-  Te159  1  0.66576425  0.17227143  0.33663357  1
  Te2-  Te160  1  0.66288683  0.16593403  0.65574960  1
  Te2-  Te161  1  0.66845141  0.49954659  0.01298794  1
  Te2-  Te162  1  0.67320491  0.49676881  0.32911711  1
  Te2-  Te163  1  0.67708956  0.49896768  0.65966324  1
  Te2-  Te164  1  0.66797632  0.83422002  0.00614154  1
  Te2-  Te165  1  0.68406499  0.83059311  0.33171618  1
  Te2-  Te166  1  0.66857920  0.83562359  0.66566690  1
  Te2-  Te167  1  -0.00869586  -0.00353519  0.17356500  1
  Te2-  Te168  1  0.01101744  0.00648019  0.50366353  1
  Te2-  Te169  1  -0.00344489  0.01413697  0.83162997  1
  Te2-  Te170  1  0.00047788  0.34117949  0.17580922  1
  Te2-  Te171  1  -0.00403431  0.34035770  0.49381524  1
  Te2-  Te172  1  0.00448075  0.32577593  0.82651858  1
  Te2-  Te173  1  0.00175881  0.66777925  0.16759868  1
  Te2-  Te174  1  0.00262465  0.66258464  0.50211605  1
  Te2-  Te175  1  -0.00206900  0.66314480  0.83308842  1
  Te2-  Te176  1  0.33225101  -0.00377844  0.16121893  1
  Te2-  Te177  1  0.32355181  -0.01457675  0.49580153  1
  Te2-  Te178  1  0.33970301  0.00451471  0.83772498  1
  Te2-  Te179  1  0.32979320  0.33264157  0.15728428  1
  Te2-  Te180  1  0.33092376  0.34099227  0.49653897  1
  Te2-  Te181  1  0.30892687  0.33156291  0.83653814  1
  Te2-  Te182  1  0.32899538  0.66799224  0.17017542  1
  Te2-  Te183  1  0.33449291  0.66830304  0.50111124  1
  Te2-  Te184  1  0.33691623  0.66573677  0.82356555  1
  Te2-  Te185  1  0.66753714  -0.00049220  0.16600129  1
  Te2-  Te186  1  0.65843472  0.00813609  0.50217518  1
  Te2-  Te187  1  0.65977932  0.00597076  0.82753290  1
  Te2-  Te188  1  0.66276611  0.33263160  0.17987637  1
  Te2-  Te189  1  0.67224325  0.33530138  0.48824588  1
  Te2-  Te190  1  0.67403758  0.33084799  0.83051303  1
  Te2-  Te191  1  0.66313534  0.66193130  0.17195225  1
  Te2-  Te192  1  0.66441187  0.66590954  0.49998767  1
  Te2-  Te193  1  0.66460723  0.65987848  0.82933358  1
  Pb2+  Pb194  1  0.16127364  -0.00611293  0.16331916  1
  Pb2+  Pb195  1  0.33207933  0.83561640  0.82980637  1
  Pb2+  Pb196  1  0.49911230  0.83342512  0.65613164  1
  Pb2+  Pb197  1  0.50486978  0.50297614  0.33260968  1
  Pb2+  Pb198  1  0.33207128  0.33132636  0.32647867  1
  Pb2+  Pb199  1  0.32590247  0.00411432  0.66211512  1
  Pb2+  Pb200  1  0.50013240  0.83293803  0.00981104  1
  Pb2+  Pb201  1  -0.00524996  0.83637073  0.83068325  1
  Pb2+  Pb202  1  0.83478036  0.66630098  0.17138491  1
  Pb2+  Pb203  1  0.66432940  0.66671696  -0.00143425  1
  Pb2+  Pb204  1  0.16781888  0.16749163  0.34187945  1
  Pb2+  Pb205  1  0.67409188  0.33133933  0.65805027  1
  Pb2+  Pb206  1  0.15926376  0.16953157  -0.00501567  1
  Pb2+  Pb207  1  0.33022529  0.65590805  -0.00534094  1
  Pb2+  Pb208  1  -0.00335096  0.16853622  0.17243157  1
  Pb2+  Pb209  1  0.67333793  0.33338375  0.00796689  1
  Pb2+  Pb210  1  0.66782702  0.00195226  0.33409806  1
  Pb2+  Pb211  1  0.67207533  0.00204347  -0.00249305  1
  Pb2+  Pb212  1  0.83760278  0.49840608  0.00244140  1
  Pb2+  Pb213  1  0.50605393  0.16918436  -0.00251223  1
  Pb2+  Pb214  1  0.66085409  0.49587200  0.83429328  1
  Pb2+  Pb215  1  0.49930529  0.32998902  0.50057702  1
