# generated using pymatgen
data_In22Ag21Sn22Bi21(Te54Pb11)2
_symmetry_space_group_name_H-M   'P 1'
_cell_length_a   19.15511683
_cell_length_b   19.14693960
_cell_length_c   19.17068554
_cell_angle_alpha   90.00009330
_cell_angle_beta   89.99867692
_cell_angle_gamma   89.99413038
_symmetry_Int_Tables_number   1
_chemical_formula_structural   In22Ag21Sn22Bi21(Te54Pb11)2
_chemical_formula_sum   'In22 Ag21 Sn22 Bi21 Te108 Pb22'
_cell_volume   7031.07633967
_cell_formula_units_Z   1
loop_
 _symmetry_equiv_pos_site_id
 _symmetry_equiv_pos_as_xyz
  1  'x, y, z'
loop_
 _atom_type_symbol
 _atom_type_oxidation_number
  In3+  3.0
  Ag+  1.0
  Sn2+  2.0
  Bi3+  3.0
  Te2-  -2.0
  Pb2+  2.0
loop_
 _atom_site_type_symbol
 _atom_site_label
 _atom_site_symmetry_multiplicity
 _atom_site_fract_x
 _atom_site_fract_y
 _atom_site_fract_z
 _atom_site_occupancy
  In3+  In0  1  0.34341150  0.65582019  0.33650411  1
  In3+  In1  1  0.51160172  0.83375579  0.67827220  1
  In3+  In2  1  0.66289018  0.15866767  0.15275077  1
  In3+  In3  1  -0.00376801  0.18234174  0.82502746  1
  In3+  In4  1  0.66346815  0.83340473  0.85511529  1
  In3+  In5  1  0.50724298  0.17768049  0.35430663  1
  In3+  In6  1  0.00678010  0.82209636  0.16748999  1
  In3+  In7  1  0.17120535  0.50986295  -0.01796693  1
  In3+  In8  1  0.16034051  0.65517191  0.49051646  1
  In3+  In9  1  0.34518825  0.31753883  0.00388295  1
  In3+  In10  1  0.34015414  0.82853321  0.15875296  1
  In3+  In11  1  0.81526163  0.50468249  -0.00303893  1
  In3+  In12  1  0.66966413  -0.01741778  0.33620003  1
  In3+  In13  1  0.82964669  0.00875581  0.16151636  1
  In3+  In14  1  0.17148790  0.82864364  0.34683862  1
  In3+  In15  1  0.84417811  -0.00766347  0.50059306  1
  In3+  In16  1  0.33143103  0.82482920  0.82975352  1
  In3+  In17  1  0.16056446  0.18959382  -0.00923466  1
  In3+  In18  1  -0.00076786  0.82497824  0.81937810  1
  In3+  In19  1  0.15902044  0.66140737  0.16456503  1
  In3+  In20  1  0.67088435  0.16255572  0.48677006  1
  In3+  In21  1  0.49646004  -0.01699372  0.49769332  1
  Ag+  Ag22  1  0.66782481  0.47925832  0.81291178  1
  Ag+  Ag23  1  0.63453694  0.00715641  -0.02467949  1
  Ag+  Ag24  1  0.69752052  0.64191241  0.35976761  1
  Ag+  Ag25  1  0.81156300  0.48557162  0.35288037  1
  Ag+  Ag26  1  0.51617907  0.67093470  0.85881667  1
  Ag+  Ag27  1  -0.00087084  0.36151425  0.36541149  1
  Ag+  Ag28  1  0.66843355  0.81270043  0.51801461  1
  Ag+  Ag29  1  0.52623731  0.64347956  0.51610459  1
  Ag+  Ag30  1  0.81098308  0.13432921  -0.02481995  1
  Ag+  Ag31  1  -0.03057484  0.16249142  0.52995468  1
  Ag+  Ag32  1  0.50240358  0.30831948  0.85283855  1
  Ag+  Ag33  1  0.52611808  0.83049340  -0.02283306  1
  Ag+  Ag34  1  0.35358046  -0.01225349  0.69193773  1
  Ag+  Ag35  1  0.14481174  0.66348810  0.80806537  1
  Ag+  Ag36  1  0.80833452  0.66306818  0.80588176  1
  Ag+  Ag37  1  -0.02308226  -0.00086504  0.69475587  1
  Ag+  Ag38  1  0.68782959  0.64775580  -0.00983704  1
  Ag+  Ag39  1  0.52131099  0.19385524  -0.00769623  1
  Ag+  Ag40  1  0.84537931  0.53279974  0.70107187  1
  Ag+  Ag41  1  0.16861430  0.52431173  0.33575960  1
  Ag+  Ag42  1  -0.03274544  0.36253695  0.64044824  1
  Sn2+  Sn43  1  0.34902759  0.83171323  0.50076108  1
  Sn2+  Sn44  1  0.82755438  0.82813710  -0.00132938  1
  Sn2+  Sn45  1  0.50329306  0.00178828  0.16042334  1
  Sn2+  Sn46  1  0.83064077  0.83251109  0.67132501  1
  Sn2+  Sn47  1  0.16340696  -0.01141190  0.82929382  1
  Sn2+  Sn48  1  -0.00129333  0.49385119  0.17403706  1
  Sn2+  Sn49  1  0.50253113  0.33879001  0.50688179  1
  Sn2+  Sn50  1  -0.00579493  0.66469099  -0.00228788  1
  Sn2+  Sn51  1  0.50717985  0.50650415  0.67474195  1
  Sn2+  Sn52  1  0.82239199  0.66977982  0.16649751  1
  Sn2+  Sn53  1  0.16539032  -0.00103928  0.50777086  1
  Sn2+  Sn54  1  0.83676468  0.16649393  0.66609505  1
  Sn2+  Sn55  1  0.49684101  0.51716709  -0.00901834  1
  Sn2+  Sn56  1  0.16104648  0.00258648  0.16668578  1
  Sn2+  Sn57  1  0.34038816  0.66495385  -0.00367991  1
  Sn2+  Sn58  1  0.82979708  0.66407267  0.49593603  1
  Sn2+  Sn59  1  -0.00248133  0.65867060  0.33283062  1
  Sn2+  Sn60  1  0.67513780  0.50366482  0.50681375  1
  Sn2+  Sn61  1  0.50077044  0.16749763  0.67879835  1
  Sn2+  Sn62  1  0.16250677  0.34590115  0.17754857  1
  Sn2+  Sn63  1  0.83423712  0.33423058  0.49906778  1
  Sn2+  Sn64  1  0.68349195  0.33736647  0.33480381  1
  Bi3+  Bi65  1  0.34688893  0.50747943  0.83053444  1
  Bi3+  Bi66  1  0.00397906  0.00128931  0.00170355  1
  Bi3+  Bi67  1  0.83575498  0.33676164  0.16574400  1
  Bi3+  Bi68  1  0.16058334  0.82672949  0.00214407  1
  Bi3+  Bi69  1  0.33112900  -0.00617686  0.00097655  1
  Bi3+  Bi70  1  0.33705503  -0.00130118  0.33341118  1
  Bi3+  Bi71  1  0.66748316  0.83372995  0.16616481  1
  Bi3+  Bi72  1  0.33449656  0.16410173  0.50017296  1
  Bi3+  Bi73  1  0.16825285  0.83488574  0.66812236  1
  Bi3+  Bi74  1  -0.00038281  0.00107374  0.33345957  1
  Bi3+  Bi75  1  0.66721819  0.50523546  0.16382684  1
  Bi3+  Bi76  1  0.16231171  0.32791970  0.50144252  1
  Bi3+  Bi77  1  0.66602417  0.33324201  0.66347194  1
  Bi3+  Bi78  1  0.00251981  0.33781555  0.00152990  1
  Bi3+  Bi79  1  0.49867457  0.83890613  0.33059008  1
  Bi3+  Bi80  1  -0.00093025  0.16412401  0.16444725  1
  Bi3+  Bi81  1  0.83297675  0.83221735  0.33206334  1
  Bi3+  Bi82  1  0.16613153  0.16138098  0.32692317  1
  Bi3+  Bi83  1  0.33277044  0.67545959  0.66323231  1
  Bi3+  Bi84  1  0.33892746  0.32973467  0.66804419  1
  Bi3+  Bi85  1  0.49794400  0.66727944  0.16804565  1
  Te2-  Te86  1  0.16567446  0.16963707  0.16484961  1
  Te2-  Te87  1  0.17188081  0.16494522  0.49252456  1
  Te2-  Te88  1  0.16037110  0.16540464  0.83695566  1
  Te2-  Te89  1  0.16595584  0.50673047  0.18259667  1
  Te2-  Te90  1  0.16519188  0.49779362  0.49114442  1
  Te2-  Te91  1  0.17258681  0.51332175  0.82917096  1
  Te2-  Te92  1  0.16161967  0.82911260  0.16722970  1
  Te2-  Te93  1  0.16617092  0.83646810  0.50091223  1
  Te2-  Te94  1  0.16096229  0.81681523  0.83437958  1
  Te2-  Te95  1  0.50825229  0.16335356  0.14439851  1
  Te2-  Te96  1  0.49842737  0.17039707  0.50548974  1
  Te2-  Te97  1  0.50004752  0.16120196  0.84411456  1
  Te2-  Te98  1  0.50073533  0.50264118  0.16346515  1
  Te2-  Te99  1  0.50326029  0.50077586  0.50111870  1
  Te2-  Te100  1  0.51131979  0.51981115  0.83096674  1
  Te2-  Te101  1  0.50054466  0.83313556  0.16968622  1
  Te2-  Te102  1  0.51560644  0.83472609  0.49024784  1
  Te2-  Te103  1  0.49970862  0.82272803  0.83175640  1
  Te2-  Te104  1  0.83006699  0.17011142  0.16342046  1
  Te2-  Te105  1  0.82564261  0.16515926  0.49725378  1
  Te2-  Te106  1  0.84153675  0.16552113  0.83596053  1
  Te2-  Te107  1  0.82992611  0.50025855  0.15720281  1
  Te2-  Te108  1  0.83267819  0.49922162  0.49617348  1
  Te2-  Te109  1  0.81642209  0.51281737  0.84197675  1
  Te2-  Te110  1  0.83171418  0.83666336  0.17092552  1
  Te2-  Te111  1  0.82069998  0.83915324  0.49526147  1
  Te2-  Te112  1  0.84220899  0.82008603  0.82868072  1
  Te2-  Te113  1  0.16667547  -0.00832436  0.00090231  1
  Te2-  Te114  1  0.16837861  -0.00501131  0.33306455  1
  Te2-  Te115  1  0.17082079  -0.00488887  0.66786468  1
  Te2-  Te116  1  0.16769371  0.34371496  0.00393888  1
  Te2-  Te117  1  0.15632371  0.32401781  0.33760632  1
  Te2-  Te118  1  0.17398026  0.33203084  0.66668896  1
  Te2-  Te119  1  0.16898937  0.66514926  0.00923908  1
  Te2-  Te120  1  0.16807752  0.67473929  0.33285755  1
  Te2-  Te121  1  0.17012188  0.67009584  0.66105229  1
  Te2-  Te122  1  0.49014563  -0.01828565  0.00343633  1
  Te2-  Te123  1  0.50061407  0.00693417  0.33047284  1
  Te2-  Te124  1  0.49647973  -0.00607865  0.65953115  1
  Te2-  Te125  1  0.49568718  0.34017433  -0.00427523  1
  Te2-  Te126  1  0.49737088  0.32994641  0.33391642  1
  Te2-  Te127  1  0.50101391  0.33697004  0.66746028  1
  Te2-  Te128  1  0.49438649  0.68252428  0.00647940  1
  Te2-  Te129  1  0.49402712  0.67387589  0.33317150  1
  Te2-  Te130  1  0.49205136  0.67935097  0.65427204  1
  Te2-  Te131  1  0.84278947  -0.00418600  0.00652442  1
  Te2-  Te132  1  0.83258548  -0.00091265  0.33546527  1
  Te2-  Te133  1  0.83253004  -0.00151440  0.65879699  1
  Te2-  Te134  1  0.83926994  0.34314147  -0.00048455  1
  Te2-  Te135  1  0.84930302  0.34414032  0.32956511  1
  Te2-  Te136  1  0.82829199  0.32609057  0.66624119  1
  Te2-  Te137  1  0.83359247  0.66738363  0.00597099  1
  Te2-  Te138  1  0.83703994  0.67106628  0.33075241  1
  Te2-  Te139  1  0.83075197  0.67353972  0.65999858  1
  Te2-  Te140  1  0.00586183  0.16795611  0.00154189  1
  Te2-  Te141  1  0.00303401  0.16166876  0.32598865  1
  Te2-  Te142  1  -0.00430964  0.14937508  0.67421340  1
  Te2-  Te143  1  0.01815541  0.49876636  0.00502933  1
  Te2-  Te144  1  0.01445785  0.50316260  0.33165121  1
  Te2-  Te145  1  -0.01211906  0.50278348  0.67155272  1
  Te2-  Te146  1  -0.00038594  0.83487961  0.00993235  1
  Te2-  Te147  1  -0.00012418  0.83658741  0.32844202  1
  Te2-  Te148  1  0.00299058  0.84875744  0.66598843  1
  Te2-  Te149  1  0.32095057  0.16313382  -0.00119744  1
  Te2-  Te150  1  0.33726120  0.16272315  0.33389152  1
  Te2-  Te151  1  0.33657568  0.16427947  0.66386454  1
  Te2-  Te152  1  0.32875641  0.49976497  -0.00811373  1
  Te2-  Te153  1  0.32509975  0.50274692  0.33244385  1
  Te2-  Te154  1  0.33625269  0.50088213  0.66913622  1
  Te2-  Te155  1  0.32296364  0.83095511  -0.00212373  1
  Te2-  Te156  1  0.33175782  0.83793097  0.33271084  1
  Te2-  Te157  1  0.33066981  0.84128692  0.66791845  1
  Te2-  Te158  1  0.66817898  0.15300561  0.00092415  1
  Te2-  Te159  1  0.66191390  0.17401378  0.33146049  1
  Te2-  Te160  1  0.66197240  0.16954341  0.66097886  1
  Te2-  Te161  1  0.66023488  0.50177641  0.00201906  1
  Te2-  Te162  1  0.66820959  0.50222067  0.32747704  1
  Te2-  Te163  1  0.67499826  0.49659391  0.66662640  1
  Te2-  Te164  1  0.66922852  0.85760492  0.00564489  1
  Te2-  Te165  1  0.66680590  0.82968738  0.32698777  1
  Te2-  Te166  1  0.66258378  0.83260912  0.66341300  1
  Te2-  Te167  1  -0.00487366  -0.00099423  0.16778727  1
  Te2-  Te168  1  -0.00336848  0.01320436  0.49432864  1
  Te2-  Te169  1  0.00389382  -0.00923970  0.84093824  1
  Te2-  Te170  1  -0.00146916  0.32698897  0.16321849  1
  Te2-  Te171  1  0.00158575  0.31599856  0.50696417  1
  Te2-  Te172  1  0.00519934  0.33470438  0.83689965  1
  Te2-  Te173  1  0.00152506  0.66649465  0.16570801  1
  Te2-  Te174  1  0.00476217  0.67026258  0.49880290  1
  Te2-  Te175  1  0.00047298  0.67068508  0.83754106  1
  Te2-  Te176  1  0.32944466  -0.00907658  0.16775193  1
  Te2-  Te177  1  0.33759947  0.00102989  0.49508654  1
  Te2-  Te178  1  0.32957404  -0.00788654  0.83668714  1
  Te2-  Te179  1  0.33211532  0.33210834  0.15929784  1
  Te2-  Te180  1  0.33172708  0.32984544  0.50329277  1
  Te2-  Te181  1  0.34762758  0.33956093  0.83079288  1
  Te2-  Te182  1  0.33105712  0.67344819  0.17275010  1
  Te2-  Te183  1  0.32091748  0.67275579  0.49665888  1
  Te2-  Te184  1  0.33992164  0.66935634  0.82566961  1
  Te2-  Te185  1  0.67209126  0.00061568  0.17637762  1
  Te2-  Te186  1  0.65840684  0.00972100  0.48786583  1
  Te2-  Te187  1  0.66969178  -0.01079174  0.83172943  1
  Te2-  Te188  1  0.67232917  0.33638927  0.16682348  1
  Te2-  Te189  1  0.66799406  0.33127872  0.49755643  1
  Te2-  Te190  1  0.65762393  0.33297622  0.83067129  1
  Te2-  Te191  1  0.65990284  0.66974355  0.15262743  1
  Te2-  Te192  1  0.66965584  0.66595001  0.50036704  1
  Te2-  Te193  1  0.66692192  0.68421237  0.84701408  1
  Pb2+  Pb194  1  0.83050787  0.34145925  0.83124350  1
  Pb2+  Pb195  1  0.33958479  0.16002469  0.16499042  1
  Pb2+  Pb196  1  0.65941025  0.66458713  0.68015120  1
  Pb2+  Pb197  1  -0.01015999  0.50325721  0.83981613  1
  Pb2+  Pb198  1  -0.00087886  0.67335951  0.66712771  1
  Pb2+  Pb199  1  0.33080455  0.50494109  0.16084411  1
  Pb2+  Pb200  1  0.16228164  0.16211256  0.66338230  1
  Pb2+  Pb201  1  -0.00569796  0.84151879  0.49717165  1
  Pb2+  Pb202  1  0.83698481  -0.00956326  0.83454180  1
  Pb2+  Pb203  1  0.32356319  0.33295375  0.33250293  1
  Pb2+  Pb204  1  -0.00318392  0.49401131  0.49947471  1
  Pb2+  Pb205  1  0.15945201  0.49829586  0.66200539  1
  Pb2+  Pb206  1  0.49933725  -0.00765327  0.83623647  1
  Pb2+  Pb207  1  0.83512567  0.17429891  0.33045974  1
  Pb2+  Pb208  1  0.33279447  0.16731139  0.83126753  1
  Pb2+  Pb209  1  0.50199842  0.50375076  0.33386813  1
  Pb2+  Pb210  1  0.66941753  0.16527756  0.82782204  1
  Pb2+  Pb211  1  0.67074763  0.32842128  -0.00146007  1
  Pb2+  Pb212  1  0.66466328  0.00035074  0.65729231  1
  Pb2+  Pb213  1  0.17753356  0.33931545  0.83488570  1
  Pb2+  Pb214  1  0.50377864  0.32932671  0.16595712  1
  Pb2+  Pb215  1  0.33605690  0.50401870  0.50194693  1
