# generated using pymatgen
data_In22Ag21Sn22Bi21(Te54Pb11)2
_symmetry_space_group_name_H-M   'P 1'
_cell_length_a   19.12021809
_cell_length_b   19.13175964
_cell_length_c   19.12156378
_cell_angle_alpha   90.01153341
_cell_angle_beta   90.01025725
_cell_angle_gamma   89.96970527
_symmetry_Int_Tables_number   1
_chemical_formula_structural   In22Ag21Sn22Bi21(Te54Pb11)2
_chemical_formula_sum   'In22 Ag21 Sn22 Bi21 Te108 Pb22'
_cell_volume   6994.73213267
_cell_formula_units_Z   1
loop_
 _symmetry_equiv_pos_site_id
 _symmetry_equiv_pos_as_xyz
  1  'x, y, z'
loop_
 _atom_type_symbol
 _atom_type_oxidation_number
  In3+  3.0
  Ag+  1.0
  Sn2+  2.0
  Bi3+  3.0
  Te2-  -2.0
  Pb2+  2.0
loop_
 _atom_site_type_symbol
 _atom_site_label
 _atom_site_symmetry_multiplicity
 _atom_site_fract_x
 _atom_site_fract_y
 _atom_site_fract_z
 _atom_site_occupancy
  In3+  In0  1  0.83342129  0.85246825  0.66161806  1
  In3+  In1  1  -0.01859273  0.17301494  0.16941391  1
  In3+  In2  1  0.66025127  0.00799611  0.67440673  1
  In3+  In3  1  0.33808198  0.00070428  -0.00832480  1
  In3+  In4  1  0.33985934  0.48601856  0.83003781  1
  In3+  In5  1  0.84022243  0.34479271  0.16787488  1
  In3+  In6  1  0.82278226  0.83452173  -0.01594982  1
  In3+  In7  1  0.66831384  0.01476487  0.32797003  1
  In3+  In8  1  0.50581576  0.32883651  0.18312970  1
  In3+  In9  1  0.68583126  0.34053449  0.65931444  1
  In3+  In10  1  -0.00661773  0.00305362  0.65005976  1
  In3+  In11  1  0.67012115  0.84738999  0.49989184  1
  In3+  In12  1  0.14228639  0.32870737  0.83200796  1
  In3+  In13  1  0.34810806  0.83317821  0.83885174  1
  In3+  In14  1  0.49876147  0.17136069  -0.00530536  1
  In3+  In15  1  0.49782512  0.32091459  0.50260038  1
  In3+  In16  1  0.50559459  0.82339396  0.33799865  1
  In3+  In17  1  0.66956327  0.50179774  0.50799337  1
  In3+  In18  1  0.14893730  0.00411161  0.50636028  1
  In3+  In19  1  0.16429459  0.85077675  -0.00305021  1
  In3+  In20  1  -0.01594311  0.16469123  0.83273004  1
  In3+  In21  1  0.67693236  0.16566488  0.83168641  1
  Ag+  Ag22  1  0.12552778  0.36279946  0.47285561  1
  Ag+  Ag23  1  0.82644620  0.35924574  0.83081157  1
  Ag+  Ag24  1  0.50504417  0.47143480  0.64969818  1
  Ag+  Ag25  1  0.85040889  0.34846653  0.46554902  1
  Ag+  Ag26  1  0.02119014  0.00241718  0.34514030  1
  Ag+  Ag27  1  0.82594027  0.18528821  0.64677157  1
  Ag+  Ag28  1  -0.02322527  0.64129523  0.34762936  1
  Ag+  Ag29  1  0.50660553  0.02034900  0.48007511  1
  Ag+  Ag30  1  0.52708969  0.00463838  0.81418234  1
  Ag+  Ag31  1  0.35678174  0.86076159  0.13567666  1
  Ag+  Ag32  1  0.00934480  0.34826753  0.36739343  1
  Ag+  Ag33  1  -0.02630516  0.33133126  -0.01702958  1
  Ag+  Ag34  1  0.14192462  0.81207563  0.64064705  1
  Ag+  Ag35  1  0.30947555  0.32250246  -0.02974877  1
  Ag+  Ag36  1  0.86023024  0.46648499  -0.00389058  1
  Ag+  Ag37  1  0.83280799  0.46759401  0.35600932  1
  Ag+  Ag38  1  0.68566344  0.68537846  0.33624936  1
  Ag+  Ag39  1  0.49983584  0.64654601  0.83277441  1
  Ag+  Ag40  1  -0.01184995  0.16551010  0.47340461  1
  Ag+  Ag41  1  0.85080764  0.00876502  0.81937428  1
  Ag+  Ag42  1  0.68093642  0.17195813  0.18496273  1
  Sn2+  Sn43  1  0.66241729  0.66767985  0.66009664  1
  Sn2+  Sn44  1  -0.00540340  0.49687932  0.17371682  1
  Sn2+  Sn45  1  0.83420996  0.66092893  0.49398883  1
  Sn2+  Sn46  1  0.00019613  0.83664599  0.83616813  1
  Sn2+  Sn47  1  0.50891253  0.16600278  0.67044139  1
  Sn2+  Sn48  1  0.33259241  -0.00123703  0.66481794  1
  Sn2+  Sn49  1  0.51265335  0.32723438  0.83566890  1
  Sn2+  Sn50  1  0.83864718  0.83387679  0.32992786  1
  Sn2+  Sn51  1  0.16512330  0.83379290  0.32572287  1
  Sn2+  Sn52  1  0.82310281  0.01334960  0.50331455  1
  Sn2+  Sn53  1  -0.00237826  0.65791984  0.01301256  1
  Sn2+  Sn54  1  0.67100124  0.33759117  0.33531599  1
  Sn2+  Sn55  1  0.66375938  0.82915205  0.82728308  1
  Sn2+  Sn56  1  0.82928547  0.66049688  0.17189603  1
  Sn2+  Sn57  1  0.31972587  0.16159174  0.50291886  1
  Sn2+  Sn58  1  0.15834188  0.16904833  0.33612315  1
  Sn2+  Sn59  1  0.33482876  0.65308260  -0.00032757  1
  Sn2+  Sn60  1  0.49922872  0.16340356  0.33069196  1
  Sn2+  Sn61  1  0.83977256  0.16393783  0.34144727  1
  Sn2+  Sn62  1  0.32244970  0.33233806  0.33430887  1
  Sn2+  Sn63  1  0.16483686  0.17577718  0.00282051  1
  Sn2+  Sn64  1  0.66559028  0.49885198  0.83678333  1
  Bi3+  Bi65  1  0.50433950  0.66599808  0.51008926  1
  Bi3+  Bi66  1  0.33792048  0.16983006  0.16955918  1
  Bi3+  Bi67  1  0.83238347  -0.00379781  0.16786883  1
  Bi3+  Bi68  1  0.00146465  0.83506790  0.16743486  1
  Bi3+  Bi69  1  0.67055019  0.49379733  0.16811713  1
  Bi3+  Bi70  1  0.00095226  0.32721630  0.67089536  1
  Bi3+  Bi71  1  0.33737038  0.83594910  0.50343852  1
  Bi3+  Bi72  1  0.16172083  0.16538843  0.66836510  1
  Bi3+  Bi73  1  0.49948031  0.00273835  0.17063457  1
  Bi3+  Bi74  1  0.33762900  0.49562954  0.50215275  1
  Bi3+  Bi75  1  0.33770074  0.67157331  0.66995699  1
  Bi3+  Bi76  1  0.16248993  0.00299851  0.83143198  1
  Bi3+  Bi77  1  0.33470830  0.49871381  0.16724326  1
  Bi3+  Bi78  1  0.33503935  0.33104005  0.66406464  1
  Bi3+  Bi79  1  0.83165489  0.16013020  0.00230195  1
  Bi3+  Bi80  1  0.49945282  0.49690220  -0.00138866  1
  Bi3+  Bi81  1  0.66540284  0.33245509  -0.00381972  1
  Bi3+  Bi82  1  0.82712223  0.67030226  0.83046975  1
  Bi3+  Bi83  1  0.33195883  0.66767873  0.33405605  1
  Bi3+  Bi84  1  0.16945593  0.49856534  -0.00121984  1
  Bi3+  Bi85  1  0.16338391  0.66702183  0.16748489  1
  Te2-  Te86  1  0.17505515  0.16533775  0.16560081  1
  Te2-  Te87  1  0.15992356  0.15929943  0.50614960  1
  Te2-  Te88  1  0.16590794  0.16659458  0.83508806  1
  Te2-  Te89  1  0.16919447  0.50007914  0.16482302  1
  Te2-  Te90  1  0.17212896  0.50019998  0.49993508  1
  Te2-  Te91  1  0.17816407  0.50015092  0.83662638  1
  Te2-  Te92  1  0.16734563  0.83033248  0.15848770  1
  Te2-  Te93  1  0.17049357  0.84703345  0.50086205  1
  Te2-  Te94  1  0.16408173  0.84071083  0.84069730  1
  Te2-  Te95  1  0.49961401  0.16772948  0.16540021  1
  Te2-  Te96  1  0.49877691  0.16671417  0.49779129  1
  Te2-  Te97  1  0.50758655  0.15472941  0.83684509  1
  Te2-  Te98  1  0.50048294  0.49436695  0.16519113  1
  Te2-  Te99  1  0.50260493  0.50259099  0.50356401  1
  Te2-  Te100  1  0.49653215  0.49834138  0.83762780  1
  Te2-  Te101  1  0.49747961  0.83608909  0.17168635  1
  Te2-  Te102  1  0.50447682  0.82773402  0.49850745  1
  Te2-  Te103  1  0.50012866  0.85548967  0.83462628  1
  Te2-  Te104  1  0.82659806  0.15820946  0.16539598  1
  Te2-  Te105  1  0.83896836  0.16888584  0.50138536  1
  Te2-  Te106  1  0.83100945  0.15352414  0.84102912  1
  Te2-  Te107  1  0.83074629  0.49718189  0.14614238  1
  Te2-  Te108  1  0.82424440  0.49019884  0.50389840  1
  Te2-  Te109  1  0.82924796  0.50774181  0.84844653  1
  Te2-  Te110  1  0.83605127  0.83344771  0.16383665  1
  Te2-  Te111  1  0.82642874  0.83654350  0.50627660  1
  Te2-  Te112  1  0.83252525  0.83181879  0.82725287  1
  Te2-  Te113  1  0.17427195  0.00713165  -0.00050412  1
  Te2-  Te114  1  0.17015367  0.00246996  0.34765992  1
  Te2-  Te115  1  0.16304895  0.00365539  0.66609226  1
  Te2-  Te116  1  0.16590749  0.33485142  -0.00864505  1
  Te2-  Te117  1  0.15464489  0.32921164  0.33283059  1
  Te2-  Te118  1  0.16943194  0.32824060  0.67045806  1
  Te2-  Te119  1  0.16705990  0.66065494  0.00391175  1
  Te2-  Te120  1  0.16705546  0.66782862  0.33170332  1
  Te2-  Te121  1  0.16904482  0.66974786  0.66875782  1
  Te2-  Te122  1  0.49258087  0.00751701  0.00786416  1
  Te2-  Te123  1  0.50956950  -0.00697267  0.33267132  1
  Te2-  Te124  1  0.50602102  0.00690516  0.66680640  1
  Te2-  Te125  1  0.50333341  0.33119596  -0.00310988  1
  Te2-  Te126  1  0.50129053  0.33271345  0.34165670  1
  Te2-  Te127  1  0.49838964  0.32553524  0.66573537  1
  Te2-  Te128  1  0.49728140  0.66277724  -0.00934767  1
  Te2-  Te129  1  0.49632804  0.66830188  0.33840020  1
  Te2-  Te130  1  0.50107311  0.67052118  0.67589376  1
  Te2-  Te131  1  0.83284809  -0.00785086  0.00170708  1
  Te2-  Te132  1  0.82117407  -0.00302043  0.33211853  1
  Te2-  Te133  1  0.83924665  0.00202496  0.67213619  1
  Te2-  Te134  1  0.82731505  0.32198760  -0.00400658  1
  Te2-  Te135  1  0.83836594  0.32251124  0.32194462  1
  Te2-  Te136  1  0.83356830  0.32864519  0.68184867  1
  Te2-  Te137  1  0.83749883  0.67786646  -0.00308287  1
  Te2-  Te138  1  0.83442061  0.67422343  0.33530557  1
  Te2-  Te139  1  0.82709695  0.66343596  0.66550610  1
  Te2-  Te140  1  -0.00359072  0.17877539  0.00455651  1
  Te2-  Te141  1  0.00161346  0.15423500  0.32434786  1
  Te2-  Te142  1  -0.00337036  0.16021903  0.67757071  1
  Te2-  Te143  1  0.00580842  0.48958551  0.00392084  1
  Te2-  Te144  1  -0.01579072  0.49435005  0.33089159  1
  Te2-  Te145  1  0.00255915  0.49737281  0.66825511  1
  Te2-  Te146  1  0.00839229  0.83184325  0.00488595  1
  Te2-  Te147  1  0.00455629  0.85153042  0.32984152  1
  Te2-  Te148  1  -0.00014525  0.84391125  0.66433586  1
  Te2-  Te149  1  0.33851935  0.17960179  0.00501441  1
  Te2-  Te150  1  0.33448864  0.16933987  0.33523150  1
  Te2-  Te151  1  0.33096770  0.16628828  0.66569471  1
  Te2-  Te152  1  0.33538553  0.48584332  0.00411098  1
  Te2-  Te153  1  0.33641257  0.50092265  0.33610787  1
  Te2-  Te154  1  0.34816919  0.50045864  0.66639214  1
  Te2-  Te155  1  0.32633922  0.82951971  -0.00321208  1
  Te2-  Te156  1  0.33235813  0.82928167  0.34051030  1
  Te2-  Te157  1  0.32871397  0.83311754  0.66716248  1
  Te2-  Te158  1  0.66182402  0.16983402  -0.00578782  1
  Te2-  Te159  1  0.66277377  0.17009665  0.33133402  1
  Te2-  Te160  1  0.67909765  0.16288565  0.67185679  1
  Te2-  Te161  1  0.66253093  0.49667861  0.00365443  1
  Te2-  Te162  1  0.68386609  0.49221484  0.32780199  1
  Te2-  Te163  1  0.65472711  0.49331917  0.66987959  1
  Te2-  Te164  1  0.66788517  0.83349523  0.00128937  1
  Te2-  Te165  1  0.66517812  0.83034038  0.34394397  1
  Te2-  Te166  1  0.67364217  0.83805683  0.65989310  1
  Te2-  Te167  1  -0.00347112  0.00109582  0.17173117  1
  Te2-  Te168  1  -0.00783354  0.01232668  0.49538212  1
  Te2-  Te169  1  0.00038141  0.00174988  0.83801361  1
  Te2-  Te170  1  -0.00703898  0.32718851  0.16399739  1
  Te2-  Te171  1  -0.00917325  0.31784251  0.51082991  1
  Te2-  Te172  1  -0.01610028  0.32997940  0.83320606  1
  Te2-  Te173  1  0.00104577  0.66992261  0.17684423  1
  Te2-  Te174  1  -0.00346511  0.66666445  0.49277527  1
  Te2-  Te175  1  -0.00290994  0.67035099  0.83466669  1
  Te2-  Te176  1  0.33411602  0.00296528  0.16540387  1
  Te2-  Te177  1  0.35434379  -0.00291420  0.50571276  1
  Te2-  Te178  1  0.32678734  -0.00524469  0.83706378  1
  Te2-  Te179  1  0.33983714  0.33541696  0.17436010  1
  Te2-  Te180  1  0.33617173  0.33419832  0.50219660  1
  Te2-  Te181  1  0.34244147  0.33186909  0.82550983  1
  Te2-  Te182  1  0.33003001  0.66208140  0.16905036  1
  Te2-  Te183  1  0.33730722  0.66594003  0.50286034  1
  Te2-  Te184  1  0.34577941  0.67749418  0.83126054  1
  Te2-  Te185  1  0.66522339  0.00832295  0.17051980  1
  Te2-  Te186  1  0.65741824  -0.00102868  0.49989930  1
  Te2-  Te187  1  0.67507790  -0.00244084  0.82603714  1
  Te2-  Te188  1  0.66582784  0.32651564  0.16393410  1
  Te2-  Te189  1  0.66039914  0.33696700  0.50863735  1
  Te2-  Te190  1  0.67494660  0.32861556  0.82978823  1
  Te2-  Te191  1  0.66708412  0.66227570  0.18021174  1
  Te2-  Te192  1  0.66458090  0.65590654  0.48943808  1
  Te2-  Te193  1  0.66113553  0.66984402  0.83082375  1
  Pb2+  Pb194  1  0.16469519  -0.00126366  0.17620913  1
  Pb2+  Pb195  1  0.33748336  0.16335499  0.83560565  1
  Pb2+  Pb196  1  0.00120328  0.00685175  0.00507406  1
  Pb2+  Pb197  1  0.17429144  0.67360028  0.83656975  1
  Pb2+  Pb198  1  0.66338654  0.00301024  -0.00556422  1
  Pb2+  Pb199  1  0.33809284  -0.00058125  0.33882152  1
  Pb2+  Pb200  1  0.00157161  0.50155397  0.83761816  1
  Pb2+  Pb201  1  -0.00560604  0.49168657  0.49974825  1
  Pb2+  Pb202  1  0.17596371  0.49716199  0.66757744  1
  Pb2+  Pb203  1  0.16200330  0.33012672  0.16147384  1
  Pb2+  Pb204  1  0.66784203  0.83607727  0.17552328  1
  Pb2+  Pb205  1  -0.00534093  0.83701602  0.49485663  1
  Pb2+  Pb206  1  0.49895059  0.66543260  0.16462319  1
  Pb2+  Pb207  1  0.16541664  0.67552874  0.49912108  1
  Pb2+  Pb208  1  0.15857713  0.49954994  0.33240107  1
  Pb2+  Pb209  1  -0.00722400  0.67242543  0.66697626  1
  Pb2+  Pb210  1  0.51423398  0.49969060  0.33676374  1
  Pb2+  Pb211  1  0.82956184  0.49673741  0.67507105  1
  Pb2+  Pb212  1  0.49988566  0.83846669  0.66783471  1
  Pb2+  Pb213  1  0.67085520  0.66435383  0.00290507  1
  Pb2+  Pb214  1  0.49675280  0.83532991  -0.00052774  1
  Pb2+  Pb215  1  0.66912506  0.16833540  0.50106798  1
