# generated using pymatgen
data_In22Ag21Sn22Bi21(Te54Pb11)2
_symmetry_space_group_name_H-M   'P 1'
_cell_length_a   19.13522502
_cell_length_b   19.13627509
_cell_length_c   19.14264104
_cell_angle_alpha   90.00985891
_cell_angle_beta   89.98075218
_cell_angle_gamma   89.99177048
_symmetry_Int_Tables_number   1
_chemical_formula_structural   In22Ag21Sn22Bi21(Te54Pb11)2
_chemical_formula_sum   'In22 Ag21 Sn22 Bi21 Te108 Pb22'
_cell_volume   7009.59295120
_cell_formula_units_Z   1
loop_
 _symmetry_equiv_pos_site_id
 _symmetry_equiv_pos_as_xyz
  1  'x, y, z'
loop_
 _atom_type_symbol
 _atom_type_oxidation_number
  In3+  3.0
  Ag+  1.0
  Sn2+  2.0
  Bi3+  3.0
  Te2-  -2.0
  Pb2+  2.0
loop_
 _atom_site_type_symbol
 _atom_site_label
 _atom_site_symmetry_multiplicity
 _atom_site_fract_x
 _atom_site_fract_y
 _atom_site_fract_z
 _atom_site_occupancy
  In3+  In0  1  0.50073665  0.64478531  0.84329181  1
  In3+  In1  1  0.35159284  -0.00306631  0.01700771  1
  In3+  In2  1  -0.00401770  -0.01123629  -0.00532396  1
  In3+  In3  1  0.17969744  0.17453262  0.66756586  1
  In3+  In4  1  0.84865282  0.82939856  0.33094491  1
  In3+  In5  1  0.17575773  0.33319996  0.83816941  1
  In3+  In6  1  0.65319067  0.16499141  0.49778081  1
  In3+  In7  1  0.66233728  0.84857666  0.49949556  1
  In3+  In8  1  0.85235588  0.00890477  0.50088993  1
  In3+  In9  1  0.83788245  0.67712692  0.82238376  1
  In3+  In10  1  0.00535290  0.32722520  0.66633787  1
  In3+  In11  1  0.84086117  0.16961783  0.35575990  1
  In3+  In12  1  0.19168439  0.33634062  0.49024975  1
  In3+  In13  1  0.15471502  0.83645549  0.00257125  1
  In3+  In14  1  0.64527125  0.32636887  0.66676176  1
  In3+  In15  1  0.85800060  0.50042898  0.34703441  1
  In3+  In16  1  0.49141876  0.65194667  0.49605629  1
  In3+  In17  1  0.17265632  0.48075683  0.00359452  1
  In3+  In18  1  0.50720644  0.16950507  -0.02688662  1
  In3+  In19  1  0.67503066  0.17084276  0.81141063  1
  In3+  In20  1  0.84310234  0.33451619  0.82771849  1
  In3+  In21  1  0.84193660  0.33026361  0.17000154  1
  Ag+  Ag22  1  0.50242049  -0.01750897  0.48657232  1
  Ag+  Ag23  1  -0.02446919  0.33581282  0.01899469  1
  Ag+  Ag24  1  0.50120606  0.32267011  0.52205885  1
  Ag+  Ag25  1  0.32887187  0.51950619  0.47119390  1
  Ag+  Ag26  1  0.85642891  0.17692497  0.66864962  1
  Ag+  Ag27  1  0.35605981  0.49802923  0.17818133  1
  Ag+  Ag28  1  0.02429022  0.64552395  0.32949870  1
  Ag+  Ag29  1  0.48402543  0.19298264  0.66262193  1
  Ag+  Ag30  1  0.14267704  0.13935812  0.30943301  1
  Ag+  Ag31  1  0.17268320  0.52659394  0.30411041  1
  Ag+  Ag32  1  0.82999192  -0.02097090  0.85556897  1
  Ag+  Ag33  1  0.01086872  0.47599378  0.85791333  1
  Ag+  Ag34  1  0.02286329  0.80586036  0.15143951  1
  Ag+  Ag35  1  0.31758664  0.34300699  0.64505050  1
  Ag+  Ag36  1  -0.01842030  0.00203681  0.30426973  1
  Ag+  Ag37  1  0.33823199  0.35710750  -0.01621796  1
  Ag+  Ag38  1  0.31786706  0.63877611  0.33650308  1
  Ag+  Ag39  1  -0.03222629  0.02892871  0.67554492  1
  Ag+  Ag40  1  0.46612331  0.69691383  0.13725198  1
  Ag+  Ag41  1  0.47647788  0.32491288  0.81740225  1
  Ag+  Ag42  1  0.49767703  0.80412963  0.02882224  1
  Sn2+  Sn43  1  0.83831398  0.84867497  0.66038482  1
  Sn2+  Sn44  1  0.49385987  0.48576963  0.00217020  1
  Sn2+  Sn45  1  0.15297247  0.00362761  0.82935865  1
  Sn2+  Sn46  1  0.66800642  -0.00070178  -0.00335391  1
  Sn2+  Sn47  1  0.33450281  0.65027320  0.66123525  1
  Sn2+  Sn48  1  0.83651517  0.00718172  0.17296620  1
  Sn2+  Sn49  1  0.66174336  0.17236711  0.16994944  1
  Sn2+  Sn50  1  0.01191399  0.49550803  0.50249779  1
  Sn2+  Sn51  1  0.49749957  0.82970386  0.33540980  1
  Sn2+  Sn52  1  0.66308678  0.50258674  0.16863657  1
  Sn2+  Sn53  1  0.33613103  0.17979026  0.16424480  1
  Sn2+  Sn54  1  0.50238443  0.00426499  0.82292391  1
  Sn2+  Sn55  1  0.49294050  0.16489967  0.34910220  1
  Sn2+  Sn56  1  0.17241830  0.00332840  0.50127840  1
  Sn2+  Sn57  1  0.17533508  0.33330251  0.17154242  1
  Sn2+  Sn58  1  0.83625274  0.49000027  0.67069580  1
  Sn2+  Sn59  1  0.17258473  0.66239956  0.16806650  1
  Sn2+  Sn60  1  0.83410937  0.66469898  0.16812782  1
  Sn2+  Sn61  1  0.83151671  0.16987664  -0.00809762  1
  Sn2+  Sn62  1  0.65308597  0.50129512  0.49617332  1
  Sn2+  Sn63  1  0.33232159  0.81497441  0.16774281  1
  Sn2+  Sn64  1  0.15846601  0.83197067  0.33264126  1
  Bi3+  Bi65  1  0.83262590  0.49863752  0.00127722  1
  Bi3+  Bi66  1  0.50004336  0.50302061  0.66950095  1
  Bi3+  Bi67  1  0.66720633  0.66672356  0.33490127  1
  Bi3+  Bi68  1  0.33502100  0.16594113  0.49815319  1
  Bi3+  Bi69  1  0.83285402  0.66944080  0.49747256  1
  Bi3+  Bi70  1  0.33270067  0.00209102  0.33649629  1
  Bi3+  Bi71  1  0.50073712  0.83693391  0.66683906  1
  Bi3+  Bi72  1  -0.00536345  0.50237028  0.16841548  1
  Bi3+  Bi73  1  0.67387432  0.49743296  0.83064897  1
  Bi3+  Bi74  1  0.66229195  0.00160768  0.66738180  1
  Bi3+  Bi75  1  0.16883248  0.83821885  0.66696741  1
  Bi3+  Bi76  1  -0.00443548  0.16864844  0.83862290  1
  Bi3+  Bi77  1  -0.00416940  0.16950276  0.16318201  1
  Bi3+  Bi78  1  0.33408908  0.33061665  0.33278253  1
  Bi3+  Bi79  1  0.16683091  0.49640103  0.67026513  1
  Bi3+  Bi80  1  0.00049106  0.66583328  0.65924087  1
  Bi3+  Bi81  1  0.33355046  0.00063496  0.66803643  1
  Bi3+  Bi82  1  0.16626489  0.66508002  0.83171514  1
  Bi3+  Bi83  1  0.66798555  0.83466331  0.17179192  1
  Bi3+  Bi84  1  0.49954025  0.33203697  0.16794608  1
  Bi3+  Bi85  1  -0.00180454  0.83466628  0.49816241  1
  Te2-  Te86  1  0.16226601  0.16959710  0.16726450  1
  Te2-  Te87  1  0.17087744  0.17543757  0.51125103  1
  Te2-  Te88  1  0.16116679  0.17051302  0.82897601  1
  Te2-  Te89  1  0.15594418  0.50102940  0.15818536  1
  Te2-  Te90  1  0.18114937  0.49051021  0.50873505  1
  Te2-  Te91  1  0.15725614  0.50250658  0.83736264  1
  Te2-  Te92  1  0.16545560  0.83281850  0.16066237  1
  Te2-  Te93  1  0.16344310  0.83260406  0.50413713  1
  Te2-  Te94  1  0.16765086  0.83107327  0.83253525  1
  Te2-  Te95  1  0.50009429  0.16944338  0.17708816  1
  Te2-  Te96  1  0.50083903  0.17330604  0.50973596  1
  Te2-  Te97  1  0.50977750  0.17666925  0.82090732  1
  Te2-  Te98  1  0.50299913  0.49666759  0.16129120  1
  Te2-  Te99  1  0.48965885  0.49782614  0.50509033  1
  Te2-  Te100  1  0.50875669  0.48527882  0.83360478  1
  Te2-  Te101  1  0.50393993  0.83556816  0.17463375  1
  Te2-  Te102  1  0.50703797  0.83265180  0.50380780  1
  Te2-  Te103  1  0.50251161  0.83894540  0.82715746  1
  Te2-  Te104  1  0.83295337  0.17387259  0.16484036  1
  Te2-  Te105  1  0.83281811  0.16554914  0.50986376  1
  Te2-  Te106  1  0.83166064  0.17664303  0.82026157  1
  Te2-  Te107  1  0.83090864  0.49455973  0.16599466  1
  Te2-  Te108  1  0.83167861  0.50395089  0.49924064  1
  Te2-  Te109  1  0.83700301  0.49463039  0.83616988  1
  Te2-  Te110  1  0.83060470  0.83720625  0.17639495  1
  Te2-  Te111  1  0.83206473  0.83498615  0.49416629  1
  Te2-  Te112  1  0.83104344  0.83264339  0.83346337  1
  Te2-  Te113  1  0.15659226  -0.00874311  -0.00779381  1
  Te2-  Te114  1  0.17085022  0.00003687  0.34224775  1
  Te2-  Te115  1  0.17057460  -0.00032535  0.67006259  1
  Te2-  Te116  1  0.18450874  0.33067044  -0.00363644  1
  Te2-  Te117  1  0.17089138  0.33210723  0.33962349  1
  Te2-  Te118  1  0.17344123  0.33493177  0.67325982  1
  Te2-  Te119  1  0.16550730  0.68121363  -0.00587297  1
  Te2-  Te120  1  0.16864114  0.67294232  0.33043289  1
  Te2-  Te121  1  0.16641671  0.66701323  0.66821669  1
  Te2-  Te122  1  0.50230623  0.01305411  -0.00808504  1
  Te2-  Te123  1  0.49831701  0.00340725  0.34097620  1
  Te2-  Te124  1  0.49871941  -0.00126304  0.66523305  1
  Te2-  Te125  1  0.48664361  0.32131631  0.00352565  1
  Te2-  Te126  1  0.49882158  0.33140478  0.33152102  1
  Te2-  Te127  1  0.49489189  0.34076580  0.67132312  1
  Te2-  Te128  1  0.49879393  0.65731008  -0.00152645  1
  Te2-  Te129  1  0.50506524  0.66835550  0.34184867  1
  Te2-  Te130  1  0.49786554  0.66818685  0.65707983  1
  Te2-  Te131  1  0.83714956  0.00501274  0.00064042  1
  Te2-  Te132  1  0.83865082  0.01048277  0.34411402  1
  Te2-  Te133  1  0.82404876  0.00448045  0.65438438  1
  Te2-  Te134  1  0.82858146  0.33600386  0.00096363  1
  Te2-  Te135  1  0.83591372  0.33586734  0.33105568  1
  Te2-  Te136  1  0.84537727  0.32845147  0.66926730  1
  Te2-  Te137  1  0.83648450  0.66437771  -0.00013959  1
  Te2-  Te138  1  0.83183685  0.66102188  0.33577391  1
  Te2-  Te139  1  0.83785000  0.66812385  0.66481719  1
  Te2-  Te140  1  -0.00392890  0.18602064  -0.00090195  1
  Te2-  Te141  1  -0.00224489  0.15549352  0.33090666  1
  Te2-  Te142  1  0.00570731  0.17145049  0.67308905  1
  Te2-  Te143  1  -0.00211946  0.48761557  0.00400456  1
  Te2-  Te144  1  0.01181618  0.49826507  0.33364384  1
  Te2-  Te145  1  0.00330152  0.50448320  0.66207950  1
  Te2-  Te146  1  -0.00549029  0.83284641  0.00856919  1
  Te2-  Te147  1  -0.00151493  0.85499531  0.33772502  1
  Te2-  Te148  1  0.00349605  0.82876195  0.66374534  1
  Te2-  Te149  1  0.33534164  0.14998941  0.00581541  1
  Te2-  Te150  1  0.32742374  0.16530041  0.33388144  1
  Te2-  Te151  1  0.33546837  0.16714482  0.66440543  1
  Te2-  Te152  1  0.32534400  0.50346109  0.00569851  1
  Te2-  Te153  1  0.31900994  0.49248744  0.32638989  1
  Te2-  Te154  1  0.33378791  0.49090387  0.66850515  1
  Te2-  Te155  1  0.35253040  0.84348982  0.00668917  1
  Te2-  Te156  1  0.33148023  0.84047739  0.32625123  1
  Te2-  Te157  1  0.33277476  0.83058735  0.66292249  1
  Te2-  Te158  1  0.66254733  0.16443614  0.00442249  1
  Te2-  Te159  1  0.67557195  0.16805142  0.34135488  1
  Te2-  Te160  1  0.66214731  0.16900044  0.65858744  1
  Te2-  Te161  1  0.66792521  0.49783863  -0.00461812  1
  Te2-  Te162  1  0.66379594  0.50234788  0.33584108  1
  Te2-  Te163  1  0.66761687  0.49212344  0.66652122  1
  Te2-  Te164  1  0.65204343  0.83683095  0.00595828  1
  Te2-  Te165  1  0.66912903  0.83264680  0.33798910  1
  Te2-  Te166  1  0.66849771  0.83488019  0.66113928  1
  Te2-  Te167  1  -0.00327527  0.00826625  0.15530701  1
  Te2-  Te168  1  0.00219179  -0.00110124  0.52158328  1
  Te2-  Te169  1  -0.01724513  0.00629110  0.82954909  1
  Te2-  Te170  1  0.00236460  0.33475415  0.16634169  1
  Te2-  Te171  1  -0.00331800  0.33669273  0.50713082  1
  Te2-  Te172  1  0.00149121  0.33387962  0.82352892  1
  Te2-  Te173  1  -0.00370150  0.66577054  0.18026887  1
  Te2-  Te174  1  -0.00371995  0.66818482  0.48878953  1
  Te2-  Te175  1  -0.00148976  0.66654540  0.82762697  1
  Te2-  Te176  1  0.33254624  0.00356073  0.16979751  1
  Te2-  Te177  1  0.34211108  0.00272966  0.50311709  1
  Te2-  Te178  1  0.33061550  0.00282049  0.82904074  1
  Te2-  Te179  1  0.33477116  0.34335329  0.16902570  1
  Te2-  Te180  1  0.34604292  0.32742612  0.50011147  1
  Te2-  Te181  1  0.33027453  0.33142805  0.83793764  1
  Te2-  Te182  1  0.33271204  0.65625394  0.18109318  1
  Te2-  Te183  1  0.33593620  0.66482338  0.48900331  1
  Te2-  Te184  1  0.33267145  0.66599579  0.83154650  1
  Te2-  Te185  1  0.67033772  0.00045998  0.16613385  1
  Te2-  Te186  1  0.65332439  0.00558188  0.50297217  1
  Te2-  Te187  1  0.67941100  0.01239130  0.82980579  1
  Te2-  Te188  1  0.66353231  0.33427282  0.16503791  1
  Te2-  Te189  1  0.65481311  0.33303885  0.50964886  1
  Te2-  Te190  1  0.67687513  0.33085408  0.82288440  1
  Te2-  Te191  1  0.66828648  0.67096467  0.17189523  1
  Te2-  Te192  1  0.67094555  0.66613119  0.49797293  1
  Te2-  Te193  1  0.66862327  0.66192905  0.83219730  1
  Pb2+  Pb194  1  0.00205958  0.65595059  0.00283893  1
  Pb2+  Pb195  1  0.00005767  0.83504314  0.83466168  1
  Pb2+  Pb196  1  0.66750482  0.66676544  0.00349601  1
  Pb2+  Pb197  1  0.82212504  0.83698597  0.00814873  1
  Pb2+  Pb198  1  0.67171786  0.00063607  0.33455213  1
  Pb2+  Pb199  1  0.65784258  0.32971889  -0.00781548  1
  Pb2+  Pb200  1  0.33739954  0.16699455  0.83587377  1
  Pb2+  Pb201  1  0.50154160  0.00356197  0.16748985  1
  Pb2+  Pb202  1  0.66685255  0.66154168  0.66537579  1
  Pb2+  Pb203  1  0.33533709  0.83237788  0.49248033  1
  Pb2+  Pb204  1  0.16437651  0.16246083  -0.00013930  1
  Pb2+  Pb205  1  0.00633106  0.32592347  0.33660669  1
  Pb2+  Pb206  1  0.33177916  0.49845849  0.83614341  1
  Pb2+  Pb207  1  0.33096094  0.67187731  0.00791671  1
  Pb2+  Pb208  1  0.49105265  0.50111552  0.33197565  1
  Pb2+  Pb209  1  0.16521203  -0.00034993  0.16855881  1
  Pb2+  Pb210  1  0.33852140  0.83710704  0.83654254  1
  Pb2+  Pb211  1  0.82446467  0.33497230  0.50282501  1
  Pb2+  Pb212  1  0.00419510  0.16639787  0.50269350  1
  Pb2+  Pb213  1  0.16473560  0.65682524  0.49750428  1
  Pb2+  Pb214  1  0.66530095  0.33413408  0.33597192  1
  Pb2+  Pb215  1  0.66395946  0.83921361  0.83302611  1
