# generated using pymatgen
data_In22Ag21Sn22Bi21(Te54Pb11)2
_symmetry_space_group_name_H-M   'P 1'
_cell_length_a   19.16157442
_cell_length_b   19.16403881
_cell_length_c   19.17816982
_cell_angle_alpha   89.98397631
_cell_angle_beta   89.98047039
_cell_angle_gamma   90.02865506
_symmetry_Int_Tables_number   1
_chemical_formula_structural   In22Ag21Sn22Bi21(Te54Pb11)2
_chemical_formula_sum   'In22 Ag21 Sn22 Bi21 Te108 Pb22'
_cell_volume   7042.47469970
_cell_formula_units_Z   1
loop_
 _symmetry_equiv_pos_site_id
 _symmetry_equiv_pos_as_xyz
  1  'x, y, z'
loop_
 _atom_type_symbol
 _atom_type_oxidation_number
  In3+  3.0
  Ag+  1.0
  Sn2+  2.0
  Bi3+  3.0
  Te2-  -2.0
  Pb2+  2.0
loop_
 _atom_site_type_symbol
 _atom_site_label
 _atom_site_symmetry_multiplicity
 _atom_site_fract_x
 _atom_site_fract_y
 _atom_site_fract_z
 _atom_site_occupancy
  In3+  In0  1  0.32961598  -0.00305354  0.65261853  1
  In3+  In1  1  0.33379937  -0.00063386  0.00574152  1
  In3+  In2  1  -0.00770715  0.50432411  0.82251984  1
  In3+  In3  1  0.17865224  0.16411932  0.00723217  1
  In3+  In4  1  -0.02073700  0.33409250  0.65860568  1
  In3+  In5  1  0.66785750  0.31870475  0.34896937  1
  In3+  In6  1  0.33612317  0.17328278  0.18608091  1
  In3+  In7  1  -0.03413436  0.83897082  0.82993335  1
  In3+  In8  1  0.50217739  -0.00519357  0.47826560  1
  In3+  In9  1  0.50452867  0.16547687  0.66172510  1
  In3+  In10  1  0.49769627  0.66634837  0.17178661  1
  In3+  In11  1  0.82169744  0.66845616  0.50954188  1
  In3+  In12  1  0.01557741  0.50523199  0.49685140  1
  In3+  In13  1  0.49776407  -0.00423237  0.83113523  1
  In3+  In14  1  0.67162757  0.13486037  0.49031395  1
  In3+  In15  1  0.49952762  0.35597161  0.84300452  1
  In3+  In16  1  0.33713623  0.64571369  0.01987189  1
  In3+  In17  1  0.67848579  0.84040740  0.16761912  1
  In3+  In18  1  0.01638885  0.32744200  0.33638808  1
  In3+  In19  1  0.65096249  0.67451088  0.65523989  1
  In3+  In20  1  0.33481904  0.83515312  0.17473311  1
  In3+  In21  1  0.66431739  0.49408042  0.48283955  1
  Ag+  Ag22  1  0.49526339  0.36362867  0.49486704  1
  Ag+  Ag23  1  0.51076993  0.66525465  0.80925921  1
  Ag+  Ag24  1  0.14497834  0.00420641  0.47587288  1
  Ag+  Ag25  1  0.30586293  0.00074709  0.30664782  1
  Ag+  Ag26  1  0.80728112  0.31598288  0.84754197  1
  Ag+  Ag27  1  0.20554996  -0.03174939  0.81166195  1
  Ag+  Ag28  1  0.31300704  0.53308007  0.49537182  1
  Ag+  Ag29  1  0.85401862  0.00622237  0.19453355  1
  Ag+  Ag30  1  0.34768460  0.64299042  0.36664036  1
  Ag+  Ag31  1  0.83010732  0.84594950  0.64137773  1
  Ag+  Ag32  1  0.20082038  0.63374169  0.46463613  1
  Ag+  Ag33  1  0.48189754  0.65826638  0.47241680  1
  Ag+  Ag34  1  0.63993806  0.67352702  0.36057189  1
  Ag+  Ag35  1  0.66012911  0.85508260  0.80967988  1
  Ag+  Ag36  1  0.33609658  0.47402046  0.20000844  1
  Ag+  Ag37  1  0.16212295  0.16986675  0.31096339  1
  Ag+  Ag38  1  0.80733029  0.18081198  0.33793340  1
  Ag+  Ag39  1  0.31342124  0.35336699  0.32482561  1
  Ag+  Ag40  1  0.64190405  0.83083727  0.51813534  1
  Ag+  Ag41  1  0.33572957  0.35334813  0.03156319  1
  Ag+  Ag42  1  0.70233424  -0.04199425  0.35106997  1
  Sn2+  Sn43  1  0.49773143  0.83249238  -0.00814290  1
  Sn2+  Sn44  1  -0.00226108  0.00413479  0.33634421  1
  Sn2+  Sn45  1  0.16879454  0.83803632  0.34041293  1
  Sn2+  Sn46  1  0.49800078  0.49357822  0.66185446  1
  Sn2+  Sn47  1  0.83735351  0.16304749  0.01472003  1
  Sn2+  Sn48  1  0.00932881  0.33727844  -0.01120790  1
  Sn2+  Sn49  1  0.33701949  0.66938391  0.66707897  1
  Sn2+  Sn50  1  0.82624812  0.67302167  0.17547292  1
  Sn2+  Sn51  1  0.16579757  -0.00078840  0.17078814  1
  Sn2+  Sn52  1  0.17161812  0.32850919  0.83487853  1
  Sn2+  Sn53  1  0.16303103  0.33900219  0.16375126  1
  Sn2+  Sn54  1  0.16856353  0.49188029  0.00158428  1
  Sn2+  Sn55  1  0.50397038  -0.00308021  0.16992527  1
  Sn2+  Sn56  1  0.00186760  0.83387689  0.16300554  1
  Sn2+  Sn57  1  0.83387079  0.48975163  0.00438771  1
  Sn2+  Sn58  1  0.15924685  0.83103590  0.66891973  1
  Sn2+  Sn59  1  0.65757485  0.50406423  0.17154020  1
  Sn2+  Sn60  1  0.49703884  0.50131972  0.00087241  1
  Sn2+  Sn61  1  0.83499352  -0.00458756  0.49774402  1
  Sn2+  Sn62  1  0.48721770  0.17100751  0.33755167  1
  Sn2+  Sn63  1  0.34173488  0.82795120  0.83530805  1
  Sn2+  Sn64  1  0.82678796  0.83802871  0.33928476  1
  Bi3+  Bi65  1  0.00235266  0.66696533  0.66527415  1
  Bi3+  Bi66  1  0.33984522  0.33209688  0.65829435  1
  Bi3+  Bi67  1  0.00529838  0.82919851  0.49853027  1
  Bi3+  Bi68  1  0.00494042  0.66791656  0.33703825  1
  Bi3+  Bi69  1  0.50158384  0.50033296  0.33402157  1
  Bi3+  Bi70  1  0.00086342  0.17218010  0.83499982  1
  Bi3+  Bi71  1  -0.00250675  0.00283698  0.00041685  1
  Bi3+  Bi72  1  0.49815756  0.16697192  -0.00242881  1
  Bi3+  Bi73  1  0.66551452  -0.00170736  0.00712615  1
  Bi3+  Bi74  1  0.17166817  0.16762021  0.67265400  1
  Bi3+  Bi75  1  0.66124569  0.33947093  0.66573380  1
  Bi3+  Bi76  1  0.66781292  0.50153792  0.83568118  1
  Bi3+  Bi77  1  0.17463890  0.66758911  0.82853857  1
  Bi3+  Bi78  1  0.66222125  0.66611698  0.00119775  1
  Bi3+  Bi79  1  0.16628890  0.66840106  0.16384358  1
  Bi3+  Bi80  1  0.34083757  0.16668939  0.49939151  1
  Bi3+  Bi81  1  0.32923553  0.84347923  0.49627351  1
  Bi3+  Bi82  1  0.00322410  0.66679498  -0.00288344  1
  Bi3+  Bi83  1  0.33218857  0.16689304  0.83585718  1
  Bi3+  Bi84  1  0.83211293  0.83072590  0.00544972  1
  Bi3+  Bi85  1  0.66360812  0.16481458  0.16879634  1
  Te2-  Te86  1  0.17714152  0.16882256  0.16290916  1
  Te2-  Te87  1  0.17227934  0.15049019  0.51164594  1
  Te2-  Te88  1  0.16638660  0.16494286  0.83728527  1
  Te2-  Te89  1  0.18620581  0.50420224  0.16173400  1
  Te2-  Te90  1  0.16914901  0.49239495  0.49826818  1
  Te2-  Te91  1  0.16560189  0.50186754  0.83587505  1
  Te2-  Te92  1  0.16888348  0.83194491  0.16701640  1
  Te2-  Te93  1  0.16581058  0.85190188  0.50382236  1
  Te2-  Te94  1  0.17110153  0.82882831  0.83086081  1
  Te2-  Te95  1  0.49595816  0.16737135  0.16334024  1
  Te2-  Te96  1  0.50813861  0.15199963  0.50223599  1
  Te2-  Te97  1  0.49582425  0.16179065  0.83561872  1
  Te2-  Te98  1  0.48511741  0.50610808  0.16947105  1
  Te2-  Te99  1  0.51455964  0.51666720  0.49800818  1
  Te2-  Te100  1  0.50298292  0.51316140  0.83281652  1
  Te2-  Te101  1  0.48719695  0.82737268  0.16276054  1
  Te2-  Te102  1  0.49554849  0.84009809  0.50001729  1
  Te2-  Te103  1  0.51036668  0.82918769  0.83394327  1
  Te2-  Te104  1  0.82767523  0.15624897  0.17766792  1
  Te2-  Te105  1  0.82444092  0.16584789  0.49058892  1
  Te2-  Te106  1  0.83794499  0.17162264  0.83551657  1
  Te2-  Te107  1  0.83159769  0.49905009  0.16351321  1
  Te2-  Te108  1  0.81894011  0.50910533  0.49966737  1
  Te2-  Te109  1  0.83444145  0.49734770  0.83696952  1
  Te2-  Te110  1  0.83485255  0.84292141  0.16712245  1
  Te2-  Te111  1  0.84391147  0.82545602  0.49618210  1
  Te2-  Te112  1  0.81225809  0.83146444  0.84294727  1
  Te2-  Te113  1  0.15863611  0.00845981  0.00338477  1
  Te2-  Te114  1  0.15872563  0.00867928  0.32875468  1
  Te2-  Te115  1  0.17520397  0.00266324  0.67348418  1
  Te2-  Te116  1  0.18232042  0.32740289  0.00226244  1
  Te2-  Te117  1  0.17079675  0.32281973  0.33164371  1
  Te2-  Te118  1  0.17628713  0.33061436  0.66652106  1
  Te2-  Te119  1  0.16891141  0.66577861  -0.00315625  1
  Te2-  Te120  1  0.16584721  0.66994681  0.32760325  1
  Te2-  Te121  1  0.16538480  0.66845915  0.66640255  1
  Te2-  Te122  1  0.50360818  0.00391718  0.00205042  1
  Te2-  Te123  1  0.50616800  0.00582900  0.32853995  1
  Te2-  Te124  1  0.49580073  0.00342677  0.67717352  1
  Te2-  Te125  1  0.48643252  0.32991372  0.00069414  1
  Te2-  Te126  1  0.51412423  0.33880523  0.34547736  1
  Te2-  Te127  1  0.50241488  0.32532278  0.65340292  1
  Te2-  Te128  1  0.49523843  0.66450272  0.01179905  1
  Te2-  Te129  1  0.49315844  0.66794917  0.32701431  1
  Te2-  Te130  1  0.50042867  0.66604903  0.66311334  1
  Te2-  Te131  1  0.83136462  -0.00293311  0.00310576  1
  Te2-  Te132  1  0.83928179  0.00559115  0.33967735  1
  Te2-  Te133  1  0.82987526  -0.00644011  0.66412585  1
  Te2-  Te134  1  0.83660753  0.33167480  -0.00622718  1
  Te2-  Te135  1  0.82162331  0.32885632  0.33476172  1
  Te2-  Te136  1  0.82478500  0.33240537  0.67253886  1
  Te2-  Te137  1  0.83742137  0.66672942  0.00530087  1
  Te2-  Te138  1  0.84635926  0.66763325  0.33140556  1
  Te2-  Te139  1  0.84194307  0.67284900  0.66362983  1
  Te2-  Te140  1  0.00012235  0.16968868  -0.00157198  1
  Te2-  Te141  1  0.01420794  0.17450844  0.33414772  1
  Te2-  Te142  1  0.00270211  0.17219098  0.67003999  1
  Te2-  Te143  1  0.00239178  0.50356289  -0.00169312  1
  Te2-  Te144  1  0.00137877  0.49762602  0.33604686  1
  Te2-  Te145  1  -0.00161453  0.49977895  0.66073950  1
  Te2-  Te146  1  -0.00240203  0.83197072  -0.00588252  1
  Te2-  Te147  1  0.00270074  0.83227256  0.33389668  1
  Te2-  Te148  1  -0.01047339  0.82992331  0.66788978  1
  Te2-  Te149  1  0.33444365  0.15909394  -0.00267559  1
  Te2-  Te150  1  0.32803530  0.15053447  0.33538461  1
  Te2-  Te151  1  0.33769143  0.16069821  0.67074072  1
  Te2-  Te152  1  0.33699714  0.49478202  -0.00729322  1
  Te2-  Te153  1  0.33976009  0.49729074  0.34646079  1
  Te2-  Te154  1  0.33884459  0.49847471  0.65009010  1
  Te2-  Te155  1  0.33616493  0.84378562  0.00059402  1
  Te2-  Te156  1  0.32963001  0.85164513  0.33125293  1
  Te2-  Te157  1  0.33123763  0.84075404  0.66689169  1
  Te2-  Te158  1  0.66674832  0.16489652  0.00363043  1
  Te2-  Te159  1  0.66023328  0.16609430  0.33409938  1
  Te2-  Te160  1  0.66392581  0.16875791  0.65881239  1
  Te2-  Te161  1  0.66409734  0.50099977  0.00168813  1
  Te2-  Te162  1  0.66345763  0.52434545  0.33055214  1
  Te2-  Te163  1  0.66158845  0.50544404  0.67310432  1
  Te2-  Te164  1  0.66700922  0.83183157  0.01012333  1
  Te2-  Te165  1  0.66773054  0.82012230  0.31782599  1
  Te2-  Te166  1  0.67810470  0.82348131  0.66669662  1
  Te2-  Te167  1  -0.00202095  -0.00074973  0.16258768  1
  Te2-  Te168  1  -0.00142254  -0.00423316  0.50401591  1
  Te2-  Te169  1  -0.00047788  0.00190573  0.83913513  1
  Te2-  Te170  1  0.00327760  0.33467506  0.16475926  1
  Te2-  Te171  1  0.00000603  0.33954405  0.49630935  1
  Te2-  Te172  1  0.00895578  0.33675114  0.83097378  1
  Te2-  Te173  1  0.00224390  0.66698213  0.16265407  1
  Te2-  Te174  1  0.01255137  0.66503819  0.50059315  1
  Te2-  Te175  1  0.00418712  0.66452250  0.83403585  1
  Te2-  Te176  1  0.33305562  -0.00147246  0.16042018  1
  Te2-  Te177  1  0.34597875  0.00419163  0.49930007  1
  Te2-  Te178  1  0.34042593  0.00140349  0.84815579  1
  Te2-  Te179  1  0.33112989  0.32676214  0.17682046  1
  Te2-  Te180  1  0.34937512  0.32450621  0.49801207  1
  Te2-  Te181  1  0.34121251  0.32907805  0.82239900  1
  Te2-  Te182  1  0.32837402  0.67844432  0.16561775  1
  Te2-  Te183  1  0.33545395  0.68222038  0.50598550  1
  Te2-  Te184  1  0.33543290  0.66903950  0.82978318  1
  Te2-  Te185  1  0.66642779  0.00046770  0.16772632  1
  Te2-  Te186  1  0.66641673  -0.01903788  0.49250444  1
  Te2-  Te187  1  0.65797141  0.00000785  0.83940694  1
  Te2-  Te188  1  0.66593052  0.33150694  0.16603419  1
  Te2-  Te189  1  0.65706368  0.33999786  0.50308658  1
  Te2-  Te190  1  0.66357623  0.33594199  0.83007038  1
  Te2-  Te191  1  0.66362933  0.66473356  0.15968531  1
  Te2-  Te192  1  0.67215359  0.68504870  0.50282073  1
  Te2-  Te193  1  0.65634263  0.66062200  0.84286107  1
  Pb2+  Pb194  1  0.66354425  0.16555807  0.82935341  1
  Pb2+  Pb195  1  0.82845988  0.50611822  0.66867013  1
  Pb2+  Pb196  1  0.16771954  0.50057491  0.66837535  1
  Pb2+  Pb197  1  0.82743282  0.33665642  0.50219184  1
  Pb2+  Pb198  1  0.83267701  0.16084380  0.66231380  1
  Pb2+  Pb199  1  0.17061702  0.83902985  -0.00162374  1
  Pb2+  Pb200  1  0.00177670  0.16579306  0.16929235  1
  Pb2+  Pb201  1  0.00667075  -0.00193556  0.67194164  1
  Pb2+  Pb202  1  0.50029334  0.83447366  0.66762687  1
  Pb2+  Pb203  1  0.82619900  0.66545294  0.83436840  1
  Pb2+  Pb204  1  0.50030821  0.33654993  0.17748314  1
  Pb2+  Pb205  1  0.00770142  0.50058128  0.16450993  1
  Pb2+  Pb206  1  0.83203513  0.00129796  0.83514280  1
  Pb2+  Pb207  1  0.49992308  0.83861216  0.33066935  1
  Pb2+  Pb208  1  0.00237114  0.16687867  0.49823016  1
  Pb2+  Pb209  1  0.83127609  0.49799799  0.33052905  1
  Pb2+  Pb210  1  0.17096119  0.49886073  0.32789936  1
  Pb2+  Pb211  1  0.33384251  0.49995758  0.82207566  1
  Pb2+  Pb212  1  0.66195169  -0.00485628  0.66039202  1
  Pb2+  Pb213  1  0.65987831  0.33412381  -0.00029837  1
  Pb2+  Pb214  1  0.83250867  0.32558477  0.16565428  1
  Pb2+  Pb215  1  0.17773902  0.31718007  0.49909207  1
