# generated using pymatgen
data_In22Ag21Sn22Bi21(Te54Pb11)2
_symmetry_space_group_name_H-M   'P 1'
_cell_length_a   19.17756681
_cell_length_b   19.16395598
_cell_length_c   19.18469548
_cell_angle_alpha   89.99544455
_cell_angle_beta   89.99297302
_cell_angle_gamma   89.99456831
_symmetry_Int_Tables_number   1
_chemical_formula_structural   In22Ag21Sn22Bi21(Te54Pb11)2
_chemical_formula_sum   'In22 Ag21 Sn22 Bi21 Te108 Pb22'
_cell_volume   7050.72169120
_cell_formula_units_Z   1
loop_
 _symmetry_equiv_pos_site_id
 _symmetry_equiv_pos_as_xyz
  1  'x, y, z'
loop_
 _atom_type_symbol
 _atom_type_oxidation_number
  In3+  3.0
  Ag+  1.0
  Sn2+  2.0
  Bi3+  3.0
  Te2-  -2.0
  Pb2+  2.0
loop_
 _atom_site_type_symbol
 _atom_site_label
 _atom_site_symmetry_multiplicity
 _atom_site_fract_x
 _atom_site_fract_y
 _atom_site_fract_z
 _atom_site_occupancy
  In3+  In0  1  0.66579929  0.33576216  0.67088703  1
  In3+  In1  1  0.50049744  0.16939038  0.65097070  1
  In3+  In2  1  0.66073969  0.32970579  0.35282129  1
  In3+  In3  1  0.82954852  0.33012786  0.51921997  1
  In3+  In4  1  0.81135050  0.66235422  0.16478015  1
  In3+  In5  1  0.16774116  0.19461274  0.33730802  1
  In3+  In6  1  0.83851098  0.66633383  0.81492593  1
  In3+  In7  1  0.33802742  0.65134131  -0.02112150  1
  In3+  In8  1  0.67021836  0.19374807  0.15351063  1
  In3+  In9  1  0.17566251  0.65179468  0.83420322  1
  In3+  In10  1  0.34195695  0.18331759  0.80452498  1
  In3+  In11  1  -0.01385522  0.33068922  0.33979919  1
  In3+  In12  1  0.00313732  0.67547939  0.69400389  1
  In3+  In13  1  0.17698641  0.16526661  -0.02040579  1
  In3+  In14  1  0.16733774  0.49133032  0.67845926  1
  In3+  In15  1  0.83672111  0.35129467  0.16504949  1
  In3+  In16  1  0.02403632  0.50220599  0.50094101  1
  In3+  In17  1  0.85026705  0.82485141  0.33851940  1
  In3+  In18  1  -0.01329609  0.00607778  -0.02127308  1
  In3+  In19  1  0.14353467  0.16641959  0.67350260  1
  In3+  In20  1  0.52364674  0.34179007  0.83078530  1
  In3+  In21  1  0.82860474  0.83224428  -0.01761162  1
  Ag+  Ag22  1  -0.02286459  0.48119353  0.79684354  1
  Ag+  Ag23  1  0.33266485  0.48060232  0.46781230  1
  Ag+  Ag24  1  0.85018971  0.02077184  0.80717212  1
  Ag+  Ag25  1  0.52357350  0.52126005  -0.02977254  1
  Ag+  Ag26  1  0.34643437  0.47847511  0.81098286  1
  Ag+  Ag27  1  0.51313476  0.63243695  0.14034189  1
  Ag+  Ag28  1  0.69501544  0.02579830  -0.01419767  1
  Ag+  Ag29  1  0.52546713  0.52136913  0.33516611  1
  Ag+  Ag30  1  -0.00609783  0.19280179  0.85847237  1
  Ag+  Ag31  1  0.30980035  0.03024438  0.65238406  1
  Ag+  Ag32  1  0.02168731  0.84988814  0.82207570  1
  Ag+  Ag33  1  0.81979465  0.31036546  0.85205433  1
  Ag+  Ag34  1  0.19662598  0.49492792  0.36471557  1
  Ag+  Ag35  1  0.30252978  0.64777260  0.65357330  1
  Ag+  Ag36  1  0.64707653  0.49857976  0.19251786  1
  Ag+  Ag37  1  0.86122336  0.85711483  0.69212363  1
  Ag+  Ag38  1  0.69121486  0.49689506  0.82987164  1
  Ag+  Ag39  1  0.32499810  0.18602752  0.49742177  1
  Ag+  Ag40  1  0.68471233  0.16639836  0.51997982  1
  Ag+  Ag41  1  0.02633879  0.14308398  0.49643404  1
  Ag+  Ag42  1  0.30147569  0.37145769  0.35809847  1
  Sn2+  Sn43  1  0.83465211  0.49359117  0.33851325  1
  Sn2+  Sn44  1  0.33014944  0.84129737  0.82947563  1
  Sn2+  Sn45  1  0.33720049  0.34322522  0.65730266  1
  Sn2+  Sn46  1  0.49287651  0.66049660  0.49935867  1
  Sn2+  Sn47  1  0.16214659  0.83516340  -0.00381527  1
  Sn2+  Sn48  1  0.33163706  0.00498356  0.35016458  1
  Sn2+  Sn49  1  0.66425021  -0.00478436  0.67651165  1
  Sn2+  Sn50  1  0.66607858  0.34353846  0.00196282  1
  Sn2+  Sn51  1  0.33397794  0.66570674  0.33962782  1
  Sn2+  Sn52  1  0.49493774  0.33810666  0.49283314  1
  Sn2+  Sn53  1  0.82974835  0.16321804  0.66963839  1
  Sn2+  Sn54  1  0.66669632  0.83048680  0.16893260  1
  Sn2+  Sn55  1  0.16758655  0.33396063  0.16854805  1
  Sn2+  Sn56  1  0.00005293  0.50500867  0.16754951  1
  Sn2+  Sn57  1  0.00525649  0.00420677  0.33770835  1
  Sn2+  Sn58  1  0.49935244  0.00613345  0.50405133  1
  Sn2+  Sn59  1  0.66573440  0.85560587  0.49890842  1
  Sn2+  Sn60  1  0.33828204  0.16813172  0.18157180  1
  Sn2+  Sn61  1  -0.00619507  0.83604330  0.15500721  1
  Sn2+  Sn62  1  0.66706985  0.00805468  0.32500888  1
  Sn2+  Sn63  1  0.83419854  0.50181173  0.66483923  1
  Sn2+  Sn64  1  -0.00309385  0.00497220  0.66830005  1
  Bi3+  Bi65  1  0.16755333  0.00234924  0.16960956  1
  Bi3+  Bi66  1  0.67074481  0.66222539  0.66471331  1
  Bi3+  Bi67  1  0.33271620  0.83010479  0.16415393  1
  Bi3+  Bi68  1  0.49872673  0.83016552  0.33705674  1
  Bi3+  Bi69  1  0.00115294  0.65728834  0.33278145  1
  Bi3+  Bi70  1  0.49897160  0.16360505  0.33746373  1
  Bi3+  Bi71  1  0.83001009  0.65801217  0.49659090  1
  Bi3+  Bi72  1  0.50543133  0.83454242  0.66786953  1
  Bi3+  Bi73  1  0.16510004  0.49719951  0.00177626  1
  Bi3+  Bi74  1  0.15885625  0.33499221  0.83571801  1
  Bi3+  Bi75  1  0.83028576  0.16595332  0.33343573  1
  Bi3+  Bi76  1  0.49654868  0.16715906  -0.00116532  1
  Bi3+  Bi77  1  0.00309425  0.67221021  0.00499053  1
  Bi3+  Bi78  1  0.66376255  0.82919569  0.83153280  1
  Bi3+  Bi79  1  0.50212909  -0.00248233  0.16644059  1
  Bi3+  Bi80  1  0.82942457  -0.00642376  0.17153054  1
  Bi3+  Bi81  1  0.50071595  0.00323653  0.83583848  1
  Bi3+  Bi82  1  0.49968988  0.33247001  0.16389280  1
  Bi3+  Bi83  1  0.33290869  -0.00143517  -0.00277226  1
  Bi3+  Bi84  1  0.34016181  0.50115075  0.16344928  1
  Bi3+  Bi85  1  0.33617647  0.82939501  0.50556228  1
  Te2-  Te86  1  0.16756493  0.16539303  0.18503368  1
  Te2-  Te87  1  0.17308601  0.16850775  0.48933599  1
  Te2-  Te88  1  0.14157834  0.16989525  0.82729403  1
  Te2-  Te89  1  0.16879433  0.49259614  0.16248921  1
  Te2-  Te90  1  0.17693350  0.49846213  0.51072083  1
  Te2-  Te91  1  0.16124802  0.49952748  0.83654758  1
  Te2-  Te92  1  0.16777784  0.83660125  0.16326196  1
  Te2-  Te93  1  0.16865936  0.83323709  0.50197855  1
  Te2-  Te94  1  0.16644801  0.83186740  0.83725085  1
  Te2-  Te95  1  0.50696347  0.16275287  0.16604559  1
  Te2-  Te96  1  0.49318398  0.16747745  0.49886390  1
  Te2-  Te97  1  0.49563178  0.16924283  0.83640707  1
  Te2-  Te98  1  0.49959739  0.49206345  0.17947965  1
  Te2-  Te99  1  0.48789315  0.49584020  0.48639985  1
  Te2-  Te100  1  0.49062323  0.48765502  0.83153212  1
  Te2-  Te101  1  0.49750227  0.83407265  0.17153277  1
  Te2-  Te102  1  0.50040302  0.83423730  0.50213878  1
  Te2-  Te103  1  0.49943723  0.83413547  0.83286302  1
  Te2-  Te104  1  0.82839990  0.15639576  0.16884003  1
  Te2-  Te105  1  0.83009465  0.17879138  0.49621827  1
  Te2-  Te106  1  0.84527173  0.16623828  0.82895392  1
  Te2-  Te107  1  0.83149217  0.50371988  0.16632636  1
  Te2-  Te108  1  0.82724164  0.49223675  0.50268523  1
  Te2-  Te109  1  0.83877094  0.51401492  0.82737366  1
  Te2-  Te110  1  0.82872272  0.83042776  0.18111733  1
  Te2-  Te111  1  0.82896254  0.82698589  0.49179428  1
  Te2-  Te112  1  0.82514673  0.82137037  0.82907867  1
  Te2-  Te113  1  0.16715769  0.00466432  0.00727269  1
  Te2-  Te114  1  0.16535174  -0.00583763  0.33021182  1
  Te2-  Te115  1  0.16638360  0.01091421  0.66961827  1
  Te2-  Te116  1  0.16535722  0.32778218  0.00160380  1
  Te2-  Te117  1  0.15881608  0.34631841  0.33260520  1
  Te2-  Te118  1  0.16752995  0.32595386  0.67093926  1
  Te2-  Te119  1  0.16711093  0.66453825  -0.00550885  1
  Te2-  Te120  1  0.16313686  0.64811045  0.33580913  1
  Te2-  Te121  1  0.15829774  0.66525509  0.67752697  1
  Te2-  Te122  1  0.49772048  0.00196046  0.00163824  1
  Te2-  Te123  1  0.49890737  -0.00133607  0.33066028  1
  Te2-  Te124  1  0.50444968  0.00052230  0.67510116  1
  Te2-  Te125  1  0.50057954  0.32813538  -0.00157826  1
  Te2-  Te126  1  0.50771310  0.32159026  0.32723879  1
  Te2-  Te127  1  0.50474114  0.32790650  0.67141781  1
  Te2-  Te128  1  0.49103034  0.66165429  -0.00146435  1
  Te2-  Te129  1  0.49926705  0.66833561  0.33886897  1
  Te2-  Te130  1  0.50710594  0.66752440  0.66415944  1
  Te2-  Te131  1  0.83467675  -0.01116398  0.00777441  1
  Te2-  Te132  1  0.83436091  0.00076569  0.33312916  1
  Te2-  Te133  1  0.82926521  -0.00337129  0.66570570  1
  Te2-  Te134  1  0.83194156  0.33082843  -0.00053431  1
  Te2-  Te135  1  0.82728462  0.32677076  0.32101991  1
  Te2-  Te136  1  0.82582301  0.33327290  0.67114975  1
  Te2-  Te137  1  0.84045339  0.67353210  0.01451453  1
  Te2-  Te138  1  0.83531606  0.66405327  0.33056986  1
  Te2-  Te139  1  0.83734925  0.66655743  0.65749327  1
  Te2-  Te140  1  0.00292451  0.15728002  0.00277735  1
  Te2-  Te141  1  -0.00304190  0.17449865  0.34931821  1
  Te2-  Te142  1  -0.00410969  0.16508921  0.64559184  1
  Te2-  Te143  1  0.00265885  0.50673013  0.00562822  1
  Te2-  Te144  1  -0.00536221  0.49415348  0.33471774  1
  Te2-  Te145  1  0.00863949  0.50569007  0.65712278  1
  Te2-  Te146  1  -0.00489001  0.83587272  -0.00719498  1
  Te2-  Te147  1  0.00235786  0.82743878  0.33376574  1
  Te2-  Te148  1  0.00239515  0.82760760  0.67586413  1
  Te2-  Te149  1  0.33306522  0.16195489  0.00919666  1
  Te2-  Te150  1  0.33452849  0.16251372  0.34512532  1
  Te2-  Te151  1  0.34348015  0.17187691  0.65390183  1
  Te2-  Te152  1  0.32755332  0.50147810  0.00251491  1
  Te2-  Te153  1  0.33811874  0.50921352  0.32402998  1
  Te2-  Te154  1  0.32185292  0.50257928  0.67014299  1
  Te2-  Te155  1  0.33001897  0.83538173  0.00115374  1
  Te2-  Te156  1  0.33587421  0.83446264  0.33499495  1
  Te2-  Te157  1  0.34346732  0.83075772  0.66884180  1
  Te2-  Te158  1  0.66231000  0.16852970  -0.00239407  1
  Te2-  Te159  1  0.66525682  0.17065957  0.32915090  1
  Te2-  Te160  1  0.66078806  0.16609456  0.66513186  1
  Te2-  Te161  1  0.66696893  0.49708328  -0.02074996  1
  Te2-  Te162  1  0.66830213  0.48643965  0.33897796  1
  Te2-  Te163  1  0.66341750  0.49657143  0.67703338  1
  Te2-  Te164  1  0.67260671  0.82641670  -0.00114786  1
  Te2-  Te165  1  0.65951174  0.83777657  0.33549852  1
  Te2-  Te166  1  0.66698482  0.82808282  0.66570063  1
  Te2-  Te167  1  -0.00023269  -0.00350269  0.17351785  1
  Te2-  Te168  1  -0.00167937  -0.00308986  0.49945606  1
  Te2-  Te169  1  -0.00678330  -0.00564086  0.82900038  1
  Te2-  Te170  1  -0.00913694  0.33303976  0.17147209  1
  Te2-  Te171  1  -0.01003581  0.34965655  0.49588432  1
  Te2-  Te172  1  -0.00313594  0.34006755  0.83290514  1
  Te2-  Te173  1  0.00323578  0.67093192  0.17031839  1
  Te2-  Te174  1  -0.00690603  0.65763940  0.49469701  1
  Te2-  Te175  1  -0.00675340  0.66496461  0.84260686  1
  Te2-  Te176  1  0.33411430  -0.00254626  0.16641772  1
  Te2-  Te177  1  0.33896274  -0.00879790  0.51272732  1
  Te2-  Te178  1  0.33619651  0.00514264  0.83580919  1
  Te2-  Te179  1  0.33654619  0.33081740  0.17421751  1
  Te2-  Te180  1  0.33595258  0.33354347  0.49678659  1
  Te2-  Te181  1  0.31983246  0.33300822  0.83160706  1
  Te2-  Te182  1  0.33736245  0.66948140  0.17064933  1
  Te2-  Te183  1  0.33356069  0.66923204  0.50976593  1
  Te2-  Te184  1  0.32818081  0.66935566  0.82863209  1
  Te2-  Te185  1  0.66480734  -0.00818599  0.16253138  1
  Te2-  Te186  1  0.66211845  0.01441546  0.50085542  1
  Te2-  Te187  1  0.66375806  -0.00649861  0.84457235  1
  Te2-  Te188  1  0.66834357  0.34855053  0.16076358  1
  Te2-  Te189  1  0.66620955  0.32127280  0.50738328  1
  Te2-  Te190  1  0.67716091  0.33538416  0.82701476  1
  Te2-  Te191  1  0.65780928  0.65194125  0.16737351  1
  Te2-  Te192  1  0.66845860  0.66374889  0.50198424  1
  Te2-  Te193  1  0.67113670  0.66340097  0.82684199  1
  Pb2+  Pb194  1  -0.00358150  0.33475990  0.66806255  1
  Pb2+  Pb195  1  0.82948072  0.00562625  0.50102447  1
  Pb2+  Pb196  1  -0.00543433  0.83049672  0.50688119  1
  Pb2+  Pb197  1  0.16614682  0.66556639  0.50192277  1
  Pb2+  Pb198  1  0.66939954  0.66079209  -0.00462560  1
  Pb2+  Pb199  1  0.17193340  0.00364504  0.49821279  1
  Pb2+  Pb200  1  0.49113496  0.49790452  0.65931659  1
  Pb2+  Pb201  1  -0.00211800  0.33585886  0.00010708  1
  Pb2+  Pb202  1  0.16127484  0.33195153  0.50401208  1
  Pb2+  Pb203  1  0.49950383  0.65723927  0.82868094  1
  Pb2+  Pb204  1  0.83430746  0.16282885  -0.00388319  1
  Pb2+  Pb205  1  0.50194165  0.83253836  0.00290992  1
  Pb2+  Pb206  1  -0.00100581  0.16466982  0.17643221  1
  Pb2+  Pb207  1  0.65847212  0.49492699  0.50668527  1
  Pb2+  Pb208  1  0.16961596  0.81988499  0.33082453  1
  Pb2+  Pb209  1  0.17749790  0.83677120  0.67002986  1
  Pb2+  Pb210  1  0.17362930  0.66027371  0.16443593  1
  Pb2+  Pb211  1  0.66998270  0.16170737  0.82884983  1
  Pb2+  Pb212  1  0.33435934  0.33238906  0.00320551  1
  Pb2+  Pb213  1  0.66558300  0.66600115  0.33414781  1
  Pb2+  Pb214  1  0.16668978  0.00130703  0.83774509  1
  Pb2+  Pb215  1  0.83294332  0.50083633  -0.00430822  1
