# generated using pymatgen
data_In22Ag21Sn22Bi21(Te54Pb11)2
_symmetry_space_group_name_H-M   'P 1'
_cell_length_a   19.10853005
_cell_length_b   19.13417827
_cell_length_c   19.12188056
_cell_angle_alpha   89.99948580
_cell_angle_beta   89.99596410
_cell_angle_gamma   89.99883925
_symmetry_Int_Tables_number   1
_chemical_formula_structural   In22Ag21Sn22Bi21(Te54Pb11)2
_chemical_formula_sum   'In22 Ag21 Sn22 Bi21 Te108 Pb22'
_cell_volume   6991.45707475
_cell_formula_units_Z   1
loop_
 _symmetry_equiv_pos_site_id
 _symmetry_equiv_pos_as_xyz
  1  'x, y, z'
loop_
 _atom_type_symbol
 _atom_type_oxidation_number
  In3+  3.0
  Ag+  1.0
  Sn2+  2.0
  Bi3+  3.0
  Te2-  -2.0
  Pb2+  2.0
loop_
 _atom_site_type_symbol
 _atom_site_label
 _atom_site_symmetry_multiplicity
 _atom_site_fract_x
 _atom_site_fract_y
 _atom_site_fract_z
 _atom_site_occupancy
  In3+  In0  1  -0.00258854  0.15671374  0.16052639  1
  In3+  In1  1  0.49676453  0.15196256  0.00173464  1
  In3+  In2  1  0.50219859  0.15643630  0.65238789  1
  In3+  In3  1  0.48443031  0.50139089  0.33249791  1
  In3+  In4  1  0.18297236  0.33186166  0.83441865  1
  In3+  In5  1  0.17561412  0.33441406  0.16765342  1
  In3+  In6  1  0.16613342  0.33518872  0.49657722  1
  In3+  In7  1  0.83101506  0.68389237  0.50819392  1
  In3+  In8  1  0.65658735  0.68938544  0.66795723  1
  In3+  In9  1  0.82469616  0.16724141  -0.01126942  1
  In3+  In10  1  0.33481609  0.33582139  0.00802397  1
  In3+  In11  1  0.68153530  0.83639054  0.16839804  1
  In3+  In12  1  0.01159887  0.66585323  -0.00570497  1
  In3+  In13  1  0.83109812  0.51249157  -0.00096966  1
  In3+  In14  1  0.83030621  0.50129999  0.34868542  1
  In3+  In15  1  0.49445035  -0.00014967  0.16277065  1
  In3+  In16  1  0.33337935  0.33487568  0.67474742  1
  In3+  In17  1  0.65849399  0.33867451  -0.00115726  1
  In3+  In18  1  -0.01648535  0.16835018  0.49622698  1
  In3+  In19  1  0.82670274  0.32969581  0.48585206  1
  In3+  In20  1  0.16236340  0.83390197  0.65687350  1
  In3+  In21  1  0.32612092  0.32782061  0.33621980  1
  Ag+  Ag22  1  0.14484433  0.48747560  0.32836342  1
  Ag+  Ag23  1  0.81173899  0.84701473  0.33517313  1
  Ag+  Ag24  1  0.83349697  0.14886066  0.33613904  1
  Ag+  Ag25  1  0.33016571  -0.02948292  -0.01802015  1
  Ag+  Ag26  1  0.33355869  0.68618296  0.67679344  1
  Ag+  Ag27  1  0.52557829  0.03215806  0.81990379  1
  Ag+  Ag28  1  0.31621197  0.51602839  0.85457568  1
  Ag+  Ag29  1  0.02539865  0.17275279  0.80207639  1
  Ag+  Ag30  1  0.29977826  0.14931616  0.13845448  1
  Ag+  Ag31  1  0.35066031  0.85898508  0.16958322  1
  Ag+  Ag32  1  0.67795826  -0.00705128  0.64278639  1
  Ag+  Ag33  1  0.33201827  0.85784170  0.81017274  1
  Ag+  Ag34  1  -0.01413156  0.46967811  0.47711947  1
  Ag+  Ag35  1  0.65801587  0.14225460  0.81764336  1
  Ag+  Ag36  1  -0.00048012  0.80910660  0.48029641  1
  Ag+  Ag37  1  0.01690156  0.81269616  0.18613674  1
  Ag+  Ag38  1  0.68214257  0.17382733  0.52199013  1
  Ag+  Ag39  1  0.68379516  0.00171898  0.34737124  1
  Ag+  Ag40  1  0.47829309  0.48404204  -0.00316450  1
  Ag+  Ag41  1  0.66714819  0.63943472  -0.02473197  1
  Ag+  Ag42  1  0.13470952  -0.02619145  0.48377373  1
  Sn2+  Sn43  1  0.84305203  0.67368209  0.83497759  1
  Sn2+  Sn44  1  0.66698749  0.50714561  0.17310512  1
  Sn2+  Sn45  1  0.17169540  -0.00409519  0.17761099  1
  Sn2+  Sn46  1  0.01332389  0.84454435  0.83446220  1
  Sn2+  Sn47  1  -0.00465733  -0.00415256  0.33542678  1
  Sn2+  Sn48  1  0.17467298  0.66548015  0.82793142  1
  Sn2+  Sn49  1  0.00847010  0.48920916  0.83646041  1
  Sn2+  Sn50  1  -0.00168544  0.33515289  -0.00177872  1
  Sn2+  Sn51  1  0.16956717  0.83808755  -0.00282504  1
  Sn2+  Sn52  1  0.34559422  0.16301904  0.83923160  1
  Sn2+  Sn53  1  0.49945532  0.67076825  0.50335835  1
  Sn2+  Sn54  1  0.67560751  0.84849115  0.49240899  1
  Sn2+  Sn55  1  0.50466579  -0.00447794  0.50446817  1
  Sn2+  Sn56  1  0.50054924  0.33452993  0.83322857  1
  Sn2+  Sn57  1  0.66714836  0.31160016  0.33207890  1
  Sn2+  Sn58  1  0.00449711  0.66803218  0.66203160  1
  Sn2+  Sn59  1  0.49973707  0.83581958  0.32805505  1
  Sn2+  Sn60  1  0.34890808  0.67136148  -0.01073048  1
  Sn2+  Sn61  1  -0.00095371  0.50709285  0.17780153  1
  Sn2+  Sn62  1  -0.00014832  0.67388441  0.33136043  1
  Sn2+  Sn63  1  0.66362304  0.32310212  0.67395406  1
  Sn2+  Sn64  1  0.83323637  0.00143025  0.49502292  1
  Bi3+  Bi65  1  0.00694392  -0.00025091  -0.00080735  1
  Bi3+  Bi66  1  0.66245764  0.49931968  0.83293015  1
  Bi3+  Bi67  1  0.33192213  0.50094599  0.49925224  1
  Bi3+  Bi68  1  0.67167243  0.16556412  0.16778299  1
  Bi3+  Bi69  1  0.16527568  -0.00193463  0.83514907  1
  Bi3+  Bi70  1  0.83285982  0.00049236  0.17074772  1
  Bi3+  Bi71  1  0.65883056  0.00424564  0.00597868  1
  Bi3+  Bi72  1  0.83900798  0.33126687  0.16327683  1
  Bi3+  Bi73  1  0.83357319  0.33365107  0.83485614  1
  Bi3+  Bi74  1  0.33862373  0.16721109  0.49814533  1
  Bi3+  Bi75  1  -0.00502415  0.00018174  0.66894208  1
  Bi3+  Bi76  1  0.16855554  0.50151911  0.66368701  1
  Bi3+  Bi77  1  0.49730574  0.83705075  0.66897126  1
  Bi3+  Bi78  1  0.83198915  0.66555209  0.16764516  1
  Bi3+  Bi79  1  0.49843286  0.66582885  0.83670853  1
  Bi3+  Bi80  1  0.49404690  0.83169453  -0.00015614  1
  Bi3+  Bi81  1  0.50501081  0.33552550  0.16697447  1
  Bi3+  Bi82  1  0.33487667  0.49554135  0.16673335  1
  Bi3+  Bi83  1  0.50018641  0.66696294  0.16604258  1
  Bi3+  Bi84  1  0.33595127  0.00297449  0.33747717  1
  Bi3+  Bi85  1  0.16669543  0.83032928  0.33237047  1
  Te2-  Te86  1  0.15948361  0.17453369  0.16999062  1
  Te2-  Te87  1  0.17703897  0.17958742  0.50089607  1
  Te2-  Te88  1  0.17125287  0.16982365  0.83219393  1
  Te2-  Te89  1  0.16897709  0.49252958  0.17768852  1
  Te2-  Te90  1  0.16606838  0.49112982  0.49865912  1
  Te2-  Te91  1  0.17277201  0.49122743  0.82956213  1
  Te2-  Te92  1  0.15974005  0.83819052  0.16955818  1
  Te2-  Te93  1  0.15573976  0.83044341  0.50251478  1
  Te2-  Te94  1  0.17999500  0.83640049  0.83199858  1
  Te2-  Te95  1  0.50671381  0.17244749  0.16003357  1
  Te2-  Te96  1  0.50277951  0.16533855  0.49863783  1
  Te2-  Te97  1  0.51077363  0.17408890  0.84791239  1
  Te2-  Te98  1  0.50073908  0.50106226  0.15662562  1
  Te2-  Te99  1  0.49920008  0.50434247  0.49607227  1
  Te2-  Te100  1  0.50182419  0.50284365  0.84604490  1
  Te2-  Te101  1  0.49597480  0.83168606  0.16594689  1
  Te2-  Te102  1  0.50385724  0.83116310  0.50372949  1
  Te2-  Te103  1  0.48230521  0.82911880  0.83374261  1
  Te2-  Te104  1  0.83718663  0.16668941  0.18281206  1
  Te2-  Te105  1  0.82676951  0.17268494  0.48930446  1
  Te2-  Te106  1  0.81334347  0.17158262  0.83584222  1
  Te2-  Te107  1  0.83461903  0.49853516  0.15682925  1
  Te2-  Te108  1  0.84105548  0.48637479  0.50194009  1
  Te2-  Te109  1  0.83424359  0.49966401  0.84196348  1
  Te2-  Te110  1  0.83516057  0.83412581  0.18083868  1
  Te2-  Te111  1  0.84390868  0.83391573  0.48579047  1
  Te2-  Te112  1  0.83095946  0.83091404  0.83364140  1
  Te2-  Te113  1  0.17451141  0.00006092  0.00308773  1
  Te2-  Te114  1  0.16861791  -0.00277082  0.34211121  1
  Te2-  Te115  1  0.16042610  -0.00744243  0.66950708  1
  Te2-  Te116  1  0.17015279  0.33309249  -0.00134445  1
  Te2-  Te117  1  0.16835714  0.34102845  0.33158417  1
  Te2-  Te118  1  0.17047364  0.33578836  0.67367021  1
  Te2-  Te119  1  0.16568335  0.66858150  -0.00392538  1
  Te2-  Te120  1  0.16298976  0.66522192  0.33262646  1
  Te2-  Te121  1  0.17781808  0.66817514  0.66908947  1
  Te2-  Te122  1  0.48468683  -0.00321088  0.00368562  1
  Te2-  Te123  1  0.49688426  -0.00449863  0.33009354  1
  Te2-  Te124  1  0.50459901  0.00235036  0.67660524  1
  Te2-  Te125  1  0.49944071  0.33835127  0.00533085  1
  Te2-  Te126  1  0.50475551  0.34013173  0.32804801  1
  Te2-  Te127  1  0.49844618  0.32813545  0.66777656  1
  Te2-  Te128  1  0.51588736  0.67042534  0.00243804  1
  Te2-  Te129  1  0.50282208  0.66351310  0.33073296  1
  Te2-  Te130  1  0.49474891  0.67127320  0.66985136  1
  Te2-  Te131  1  0.83510004  0.00490625  0.00875162  1
  Te2-  Te132  1  0.83204165  -0.00355975  0.33267864  1
  Te2-  Te133  1  0.82614202  0.00078595  0.66475956  1
  Te2-  Te134  1  0.83197704  0.32625443  0.00203914  1
  Te2-  Te135  1  0.83295034  0.34276115  0.32801622  1
  Te2-  Te136  1  0.83180741  0.33372324  0.67009680  1
  Te2-  Te137  1  0.81493721  0.66644631  0.00435753  1
  Te2-  Te138  1  0.83926423  0.65779382  0.32896544  1
  Te2-  Te139  1  0.82911273  0.66880860  0.66340509  1
  Te2-  Te140  1  -0.00681620  0.16162780  0.00703433  1
  Te2-  Te141  1  -0.00920000  0.16160460  0.34025628  1
  Te2-  Te142  1  -0.00106427  0.16434449  0.65746815  1
  Te2-  Te143  1  -0.00486324  0.50648388  -0.00177529  1
  Te2-  Te144  1  -0.00237533  0.50338039  0.33490310  1
  Te2-  Te145  1  0.00636277  0.50696512  0.67452988  1
  Te2-  Te146  1  -0.00040686  0.83847518  -0.00832050  1
  Te2-  Te147  1  0.00598837  0.83617450  0.33391466  1
  Te2-  Te148  1  0.00446255  0.83634501  0.67346239  1
  Te2-  Te149  1  0.34107666  0.17927856  0.00274981  1
  Te2-  Te150  1  0.33502265  0.17151299  0.33331317  1
  Te2-  Te151  1  0.34360480  0.17357700  0.66591859  1
  Te2-  Te152  1  0.33160624  0.49712084  0.00074261  1
  Te2-  Te153  1  0.33042782  0.49377636  0.33362751  1
  Te2-  Te154  1  0.33050029  0.48919147  0.66098999  1
  Te2-  Te155  1  0.33300660  0.82844043  0.01985066  1
  Te2-  Te156  1  0.33041279  0.83595284  0.32289965  1
  Te2-  Te157  1  0.33251582  0.83254823  0.66265042  1
  Te2-  Te158  1  0.66414478  0.16698783  0.00615068  1
  Te2-  Te159  1  0.67501042  0.15515056  0.32861733  1
  Te2-  Te160  1  0.65559962  0.16430519  0.66793343  1
  Te2-  Te161  1  0.67300149  0.49407186  -0.00004222  1
  Te2-  Te162  1  0.67680537  0.49737656  0.33441929  1
  Te2-  Te163  1  0.66343395  0.49301038  0.66936434  1
  Te2-  Te164  1  0.66050392  0.84248431  0.01025488  1
  Te2-  Te165  1  0.66328921  0.84600851  0.33494117  1
  Te2-  Te166  1  0.66140595  0.84541250  0.66513089  1
  Te2-  Te167  1  -0.00100478  0.00227707  0.16206245  1
  Te2-  Te168  1  -0.00364339  0.01176114  0.50748144  1
  Te2-  Te169  1  0.00215939  0.01884902  0.83463364  1
  Te2-  Te170  1  0.00019788  0.33834650  0.16076825  1
  Te2-  Te171  1  0.00330515  0.32555779  0.50053969  1
  Te2-  Te172  1  -0.00466619  0.31965895  0.83842959  1
  Te2-  Te173  1  -0.00579076  0.67207621  0.15410782  1
  Te2-  Te174  1  -0.01392557  0.66473599  0.50566029  1
  Te2-  Te175  1  0.00061504  0.66693262  0.83760547  1
  Te2-  Te176  1  0.33891695  0.01138507  0.17526714  1
  Te2-  Te177  1  0.33733756  0.00417583  0.50091750  1
  Te2-  Te178  1  0.32697187  0.00439246  0.83947584  1
  Te2-  Te179  1  0.33714836  0.33227859  0.16929577  1
  Te2-  Te180  1  0.33301903  0.33432488  0.49506340  1
  Te2-  Te181  1  0.33511247  0.33291923  0.83475786  1
  Te2-  Te182  1  0.33726019  0.65632006  0.16219754  1
  Te2-  Te183  1  0.33566183  0.66342072  0.50182476  1
  Te2-  Te184  1  0.33647980  0.65886185  0.82720662  1
  Te2-  Te185  1  0.66558765  -0.00102888  0.16736507  1
  Te2-  Te186  1  0.66384768  0.00741606  0.49793070  1
  Te2-  Te187  1  0.66574806  -0.00240871  0.84669945  1
  Te2-  Te188  1  0.67243085  0.33353907  0.16432602  1
  Te2-  Te189  1  0.67355914  0.32351136  0.50058292  1
  Te2-  Te190  1  0.67038871  0.33853223  0.83983111  1
  Te2-  Te191  1  0.66671259  0.67533311  0.17044435  1
  Te2-  Te192  1  0.67461782  0.67125448  0.50687630  1
  Te2-  Te193  1  0.66682398  0.66328949  0.82806219  1
  Pb2+  Pb194  1  0.83369892  0.83508689  0.65997846  1
  Pb2+  Pb195  1  0.83236729  0.83305939  0.00612113  1
  Pb2+  Pb196  1  0.16281587  0.16553393  0.33679254  1
  Pb2+  Pb197  1  0.67061950  0.49915418  0.50224293  1
  Pb2+  Pb198  1  0.33539301  0.00184436  0.67189839  1
  Pb2+  Pb199  1  0.17072511  0.16220276  0.66465924  1
  Pb2+  Pb200  1  0.15914567  0.65916378  0.50054206  1
  Pb2+  Pb201  1  0.82777982  0.16723622  0.66639497  1
  Pb2+  Pb202  1  0.50600117  0.16328423  0.32834435  1
  Pb2+  Pb203  1  0.50251880  0.33415937  0.49888650  1
  Pb2+  Pb204  1  0.49669385  0.49918919  0.67507250  1
  Pb2+  Pb205  1  0.16361877  0.50015001  0.00541576  1
  Pb2+  Pb206  1  0.33317256  0.66521574  0.33250301  1
  Pb2+  Pb207  1  0.65357733  0.83321109  0.83859204  1
  Pb2+  Pb208  1  0.33210579  0.83464150  0.49342770  1
  Pb2+  Pb209  1  0.83381880  0.00096224  0.83593909  1
  Pb2+  Pb210  1  0.67204197  0.67201357  0.33806974  1
  Pb2+  Pb211  1  0.00073985  0.33839744  0.67072057  1
  Pb2+  Pb212  1  0.16752286  0.66978859  0.16524625  1
  Pb2+  Pb213  1  0.83188737  0.50188655  0.67256875  1
  Pb2+  Pb214  1  0.16572745  0.16619198  -0.00110469  1
  Pb2+  Pb215  1  0.00003897  0.32819579  0.32905388  1
