# generated using pymatgen
data_In22Ag21Sn22Bi21(Te54Pb11)2
_symmetry_space_group_name_H-M   'P 1'
_cell_length_a   19.18492019
_cell_length_b   19.15375989
_cell_length_c   19.17068661
_cell_angle_alpha   90.00561116
_cell_angle_beta   90.01336259
_cell_angle_gamma   89.99995733
_symmetry_Int_Tables_number   1
_chemical_formula_structural   In22Ag21Sn22Bi21(Te54Pb11)2
_chemical_formula_sum   'In22 Ag21 Sn22 Bi21 Te108 Pb22'
_cell_volume   7044.52459306
_cell_formula_units_Z   1
loop_
 _symmetry_equiv_pos_site_id
 _symmetry_equiv_pos_as_xyz
  1  'x, y, z'
loop_
 _atom_type_symbol
 _atom_type_oxidation_number
  In3+  3.0
  Ag+  1.0
  Sn2+  2.0
  Bi3+  3.0
  Te2-  -2.0
  Pb2+  2.0
loop_
 _atom_site_type_symbol
 _atom_site_label
 _atom_site_symmetry_multiplicity
 _atom_site_fract_x
 _atom_site_fract_y
 _atom_site_fract_z
 _atom_site_occupancy
  In3+  In0  1  0.51923671  0.16994619  0.33258342  1
  In3+  In1  1  0.83017608  0.33090169  0.48123415  1
  In3+  In2  1  0.50068936  0.01030353  0.16446894  1
  In3+  In3  1  0.00210973  0.17080128  0.50959662  1
  In3+  In4  1  0.15925238  0.00273162  0.50416900  1
  In3+  In5  1  -0.00032934  0.81265070  0.50660705  1
  In3+  In6  1  0.67977551  0.17460532  0.15836437  1
  In3+  In7  1  0.83735571  0.02420797  0.49970512  1
  In3+  In8  1  0.31731553  0.50137740  0.17168513  1
  In3+  In9  1  0.50869095  0.34245493  0.49705354  1
  In3+  In10  1  0.50012695  0.82133477  0.33436104  1
  In3+  In11  1  0.15771303  0.18381345  0.33584855  1
  In3+  In12  1  0.01051780  0.48328613  0.16548975  1
  In3+  In13  1  0.17485003  0.81093361  0.67400763  1
  In3+  In14  1  0.00836593  0.49989950  0.50764739  1
  In3+  In15  1  0.49438850  0.50831040  -0.01005356  1
  In3+  In16  1  0.49755452  0.15622740  0.68312983  1
  In3+  In17  1  0.65460016  0.85303625  0.16922674  1
  In3+  In18  1  0.00971098  0.33503094  0.00088794  1
  In3+  In19  1  0.66996975  0.32955569  0.00883359  1
  In3+  In20  1  0.17293123  0.50760004  0.69358721  1
  In3+  In21  1  0.00383454  0.67233492  0.32271644  1
  Ag+  Ag22  1  0.53195426  0.80459715  0.70454694  1
  Ag+  Ag23  1  0.69222742  0.16617152  0.86138619  1
  Ag+  Ag24  1  0.86014381  0.15491594  0.31424612  1
  Ag+  Ag25  1  0.35771132  0.85999631  0.15678005  1
  Ag+  Ag26  1  0.85208469  0.16873975  0.68424421  1
  Ag+  Ag27  1  -0.00506288  0.63805759  0.69592477  1
  Ag+  Ag28  1  0.02289635  0.18495824  0.15519572  1
  Ag+  Ag29  1  0.18541091  0.30457769  0.15430650  1
  Ag+  Ag30  1  0.13916958  0.48436161  0.33373275  1
  Ag+  Ag31  1  0.85290180  0.17001958  0.02443711  1
  Ag+  Ag32  1  0.14608402  0.69255681  0.80661162  1
  Ag+  Ag33  1  0.35817864  0.66856879  0.70477701  1
  Ag+  Ag34  1  0.36228469  0.52977107  0.79713121  1
  Ag+  Ag35  1  0.01861503  0.62785107  -0.01460134  1
  Ag+  Ag36  1  0.48073254  0.52066605  0.32498326  1
  Ag+  Ag37  1  0.19396440  0.17279156  0.68392544  1
  Ag+  Ag38  1  0.85352053  0.32460095  0.14427740  1
  Ag+  Ag39  1  0.68930875  0.33069077  0.30924957  1
  Ag+  Ag40  1  0.45976903  0.64064637  0.81817223  1
  Ag+  Ag41  1  0.02974812  0.52695759  0.80401596  1
  Ag+  Ag42  1  0.47282212  -0.00067693  0.80225904  1
  Sn2+  Sn43  1  0.83198525  0.65548723  0.16354847  1
  Sn2+  Sn44  1  0.16498123  0.00052790  0.16845550  1
  Sn2+  Sn45  1  0.16688590  0.00463296  0.82350877  1
  Sn2+  Sn46  1  0.66845908  0.49446178  0.83213817  1
  Sn2+  Sn47  1  0.49199371  0.34005659  0.17255617  1
  Sn2+  Sn48  1  -0.00595177  0.17136899  0.83907886  1
  Sn2+  Sn49  1  0.33839066  -0.00788551  -0.00107625  1
  Sn2+  Sn50  1  0.67672846  0.67541765  0.67792353  1
  Sn2+  Sn51  1  0.49813697  0.83147745  -0.00436393  1
  Sn2+  Sn52  1  0.33202774  0.50039661  0.49005029  1
  Sn2+  Sn53  1  0.33442818  -0.00116970  0.33251963  1
  Sn2+  Sn54  1  0.33233611  0.17000906  0.17095751  1
  Sn2+  Sn55  1  0.32491321  0.34071192  0.67074256  1
  Sn2+  Sn56  1  0.16731195  0.66488109  0.50233406  1
  Sn2+  Sn57  1  0.66721003  0.01330906  0.33614478  1
  Sn2+  Sn58  1  0.66708210  -0.00201134  -0.01048415  1
  Sn2+  Sn59  1  0.32752505  0.82851111  0.49339222  1
  Sn2+  Sn60  1  0.32549653  0.66430333  -0.00037012  1
  Sn2+  Sn61  1  0.66002363  0.83882562  0.83939913  1
  Sn2+  Sn62  1  0.16858880  0.50402556  0.00605290  1
  Sn2+  Sn63  1  0.82658685  0.49406436  0.00273992  1
  Sn2+  Sn64  1  0.66589447  0.00858314  0.67311416  1
  Bi3+  Bi65  1  0.16377141  0.67082656  0.16989779  1
  Bi3+  Bi66  1  0.33093988  0.66844228  0.33167317  1
  Bi3+  Bi67  1  0.83284687  0.66216762  0.49993488  1
  Bi3+  Bi68  1  0.32929565  0.33258698  0.33719447  1
  Bi3+  Bi69  1  0.66438823  0.16811804  0.49940405  1
  Bi3+  Bi70  1  0.33231342  0.16723599  0.83348392  1
  Bi3+  Bi71  1  0.17095597  0.83200734  0.33787623  1
  Bi3+  Bi72  1  0.83452918  0.00326377  0.82987355  1
  Bi3+  Bi73  1  0.67084339  0.49839625  0.49810343  1
  Bi3+  Bi74  1  -0.00087192  0.83607280  0.16841677  1
  Bi3+  Bi75  1  0.16458491  0.33318928  0.83572434  1
  Bi3+  Bi76  1  0.50030247  0.00266719  0.49088972  1
  Bi3+  Bi77  1  0.66615297  0.66401777  -0.00298559  1
  Bi3+  Bi78  1  0.66256667  0.33272314  0.66954933  1
  Bi3+  Bi79  1  0.00024866  0.00322085  -0.00034488  1
  Bi3+  Bi80  1  0.82861680  0.33161997  0.83781745  1
  Bi3+  Bi81  1  0.82944762  0.49628365  0.32945030  1
  Bi3+  Bi82  1  0.66568867  0.49591856  0.16761488  1
  Bi3+  Bi83  1  0.49510155  0.16858938  0.00519045  1
  Bi3+  Bi84  1  0.00120110  0.00284829  0.66538560  1
  Bi3+  Bi85  1  -0.00312850  0.33599477  0.33165790  1
  Te2-  Te86  1  0.16562582  0.16006387  0.17106178  1
  Te2-  Te87  1  0.15854908  0.16565441  0.49187634  1
  Te2-  Te88  1  0.16527974  0.17112475  0.83135175  1
  Te2-  Te89  1  0.16173885  0.50726732  0.17848017  1
  Te2-  Te90  1  0.15940365  0.50283849  0.48362111  1
  Te2-  Te91  1  0.16700930  0.49127107  0.84293004  1
  Te2-  Te92  1  0.16390537  0.83457563  0.17401272  1
  Te2-  Te93  1  0.16180579  0.83709404  0.50032870  1
  Te2-  Te94  1  0.17030764  0.83701668  0.82707891  1
  Te2-  Te95  1  0.49502719  0.16643149  0.17014772  1
  Te2-  Te96  1  0.49947641  0.16506279  0.48816535  1
  Te2-  Te97  1  0.49333458  0.14980365  0.83778729  1
  Te2-  Te98  1  0.50550098  0.49750846  0.17811094  1
  Te2-  Te99  1  0.50536927  0.49844629  0.48901149  1
  Te2-  Te100  1  0.50110596  0.49418458  0.83611639  1
  Te2-  Te101  1  0.50155311  0.83470124  0.16975531  1
  Te2-  Te102  1  0.49681106  0.83926878  0.49015621  1
  Te2-  Te103  1  0.50428611  0.85600809  0.83658566  1
  Te2-  Te104  1  0.82619518  0.17674997  0.17099990  1
  Te2-  Te105  1  0.82892068  0.17443911  0.49915931  1
  Te2-  Te106  1  0.83619770  0.16696216  0.83104316  1
  Te2-  Te107  1  0.82610185  0.48474780  0.16670508  1
  Te2-  Te108  1  0.83601741  0.49630317  0.49625927  1
  Te2-  Te109  1  0.82927739  0.49392336  0.83600179  1
  Te2-  Te110  1  0.83376505  0.83357556  0.16914479  1
  Te2-  Te111  1  0.83825207  0.82753211  0.49803347  1
  Te2-  Te112  1  0.83019615  0.83883831  0.83279323  1
  Te2-  Te113  1  0.16438379  -0.00165253  -0.00248408  1
  Te2-  Te114  1  0.17148698  -0.00694562  0.34238297  1
  Te2-  Te115  1  0.16433981  0.02026237  0.65834008  1
  Te2-  Te116  1  0.16361310  0.33717713  0.00981858  1
  Te2-  Te117  1  0.16309433  0.33825952  0.32321226  1
  Te2-  Te118  1  0.16774980  0.32414968  0.66906063  1
  Te2-  Te119  1  0.15945159  0.66190593  0.00989502  1
  Te2-  Te120  1  0.16648747  0.67009412  0.33347409  1
  Te2-  Te121  1  0.14678628  0.65932737  0.66325055  1
  Te2-  Te122  1  0.50255544  0.00288662  0.01035620  1
  Te2-  Te123  1  0.50084883  0.01005745  0.32702055  1
  Te2-  Te124  1  0.49814547  0.00322941  0.65533037  1
  Te2-  Te125  1  0.50447133  0.33043045  0.00129790  1
  Te2-  Te126  1  0.48881824  0.32268952  0.34151952  1
  Te2-  Te127  1  0.49684381  0.33159446  0.65848527  1
  Te2-  Te128  1  0.50155366  0.66314511  -0.01500632  1
  Te2-  Te129  1  0.49787114  0.66675392  0.33157719  1
  Te2-  Te130  1  0.50396820  0.66556995  0.67688221  1
  Te2-  Te131  1  0.83473996  0.01592983  -0.00425119  1
  Te2-  Te132  1  0.83181689  0.01083809  0.34130610  1
  Te2-  Te133  1  0.83556027  0.01331671  0.66327686  1
  Te2-  Te134  1  0.82301314  0.32118022  -0.00024003  1
  Te2-  Te135  1  0.83586730  0.33155932  0.32995778  1
  Te2-  Te136  1  0.82748487  0.32139040  0.67532562  1
  Te2-  Te137  1  0.82706497  0.66433187  0.00408026  1
  Te2-  Te138  1  0.83496708  0.66255988  0.33343176  1
  Te2-  Te139  1  0.84589855  0.66482222  0.66253846  1
  Te2-  Te140  1  -0.00140937  0.16766283  0.00940054  1
  Te2-  Te141  1  0.00299828  0.17237205  0.33353063  1
  Te2-  Te142  1  -0.00142133  0.16426005  0.66316633  1
  Te2-  Te143  1  -0.00635097  0.48892761  0.01213886  1
  Te2-  Te144  1  -0.00779683  0.50184892  0.32149520  1
  Te2-  Te145  1  0.00420791  0.49420279  0.66244203  1
  Te2-  Te146  1  -0.00132750  0.83960223  0.00340674  1
  Te2-  Te147  1  0.00435281  0.83304146  0.33732434  1
  Te2-  Te148  1  0.01036812  0.84159132  0.65937981  1
  Te2-  Te149  1  0.33333264  0.16410127  -0.00084009  1
  Te2-  Te150  1  0.31552140  0.16967252  0.33263644  1
  Te2-  Te151  1  0.34033579  0.16666788  0.66868469  1
  Te2-  Te152  1  0.34119683  0.50010542  0.01143220  1
  Te2-  Te153  1  0.33495445  0.50045075  0.32973242  1
  Te2-  Te154  1  0.32064393  0.50971709  0.65896723  1
  Te2-  Te155  1  0.33677928  0.83354113  0.01072652  1
  Te2-  Te156  1  0.33716647  0.83077637  0.32244625  1
  Te2-  Te157  1  0.32550103  0.81463210  0.66341479  1
  Te2-  Te158  1  0.65589820  0.16679890  0.00394801  1
  Te2-  Te159  1  0.66992307  0.18063058  0.33723653  1
  Te2-  Te160  1  0.65150198  0.17071720  0.66018647  1
  Te2-  Te161  1  0.66012523  0.49698299  0.00024584  1
  Te2-  Te162  1  0.66854877  0.48333064  0.33581283  1
  Te2-  Te163  1  0.66332094  0.49885467  0.66357308  1
  Te2-  Te164  1  0.66426503  0.83052047  0.00914513  1
  Te2-  Te165  1  0.66063362  0.83449712  0.32490740  1
  Te2-  Te166  1  0.66904915  0.83555209  0.66758117  1
  Te2-  Te167  1  -0.00236684  -0.00049986  0.16410751  1
  Te2-  Te168  1  -0.00333171  0.00914255  0.50116632  1
  Te2-  Te169  1  0.00005294  0.00292195  0.83352582  1
  Te2-  Te170  1  -0.00183009  0.32952389  0.16695647  1
  Te2-  Te171  1  -0.00626488  0.33241036  0.49787632  1
  Te2-  Te172  1  -0.00091877  0.33418058  0.84565209  1
  Te2-  Te173  1  -0.00254191  0.67415335  0.16797174  1
  Te2-  Te174  1  -0.00403043  0.66035658  0.49091134  1
  Te2-  Te175  1  0.00388352  0.66552991  0.84429585  1
  Te2-  Te176  1  0.33479210  0.00361586  0.16619434  1
  Te2-  Te177  1  0.33590642  -0.00347720  0.49799985  1
  Te2-  Te178  1  0.32671552  0.00166969  0.83214367  1
  Te2-  Te179  1  0.32696937  0.34026905  0.17332335  1
  Te2-  Te180  1  0.33157275  0.33657769  0.50112660  1
  Te2-  Te181  1  0.32831013  0.33037123  0.83246126  1
  Te2-  Te182  1  0.33005634  0.65994178  0.16850529  1
  Te2-  Te183  1  0.33266475  0.66730462  0.49330498  1
  Te2-  Te184  1  0.31045022  0.66113274  0.84454544  1
  Te2-  Te185  1  0.66203559  0.00601832  0.16878297  1
  Te2-  Te186  1  0.66667334  0.00295117  0.49928343  1
  Te2-  Te187  1  0.67413708  0.01366817  0.83245371  1
  Te2-  Te188  1  0.65781580  0.32973387  0.16504522  1
  Te2-  Te189  1  0.66867740  0.33459022  0.50494792  1
  Te2-  Te190  1  0.66604439  0.31957291  0.83228905  1
  Te2-  Te191  1  0.66571811  0.65968939  0.16303633  1
  Te2-  Te192  1  0.66819428  0.66410664  0.50214266  1
  Te2-  Te193  1  0.66736267  0.66772321  0.83530786  1
  Pb2+  Pb194  1  0.83299025  0.83836073  0.33279489  1
  Pb2+  Pb195  1  0.49238787  0.49892011  0.65950995  1
  Pb2+  Pb196  1  -0.00240070  0.32876104  0.67349760  1
  Pb2+  Pb197  1  0.66545458  0.83499039  0.49814260  1
  Pb2+  Pb198  1  0.33061578  0.16605568  0.49951523  1
  Pb2+  Pb199  1  0.83112499  0.00812828  0.16537149  1
  Pb2+  Pb200  1  0.32979785  -0.01666622  0.66405646  1
  Pb2+  Pb201  1  0.00082508  0.83051646  0.83085552  1
  Pb2+  Pb202  1  0.49996845  0.32098613  0.83120002  1
  Pb2+  Pb203  1  0.83820024  0.83965962  0.66425633  1
  Pb2+  Pb204  1  0.16632085  0.82995326  0.00225758  1
  Pb2+  Pb205  1  0.83289056  0.84130905  0.00231909  1
  Pb2+  Pb206  1  0.49740695  0.66302699  0.15352163  1
  Pb2+  Pb207  1  0.49740827  0.67110653  0.50910994  1
  Pb2+  Pb208  1  0.33499565  0.33514359  0.00202374  1
  Pb2+  Pb209  1  0.83042206  0.49110792  0.66733990  1
  Pb2+  Pb210  1  0.16442782  0.16546245  -0.00182360  1
  Pb2+  Pb211  1  0.16349370  0.33849738  0.49806886  1
  Pb2+  Pb212  1  0.34176092  0.82273049  0.83423298  1
  Pb2+  Pb213  1  0.83595620  0.66290568  0.83458412  1
  Pb2+  Pb214  1  0.66766618  0.65567994  0.33185289  1
  Pb2+  Pb215  1  0.00519343  0.00453227  0.33235597  1
