# generated using pymatgen
data_In22Ag21Sn22Bi21(Te54Pb11)2
_symmetry_space_group_name_H-M   'P 1'
_cell_length_a   19.16909441
_cell_length_b   19.15342806
_cell_length_c   19.14180024
_cell_angle_alpha   89.98802649
_cell_angle_beta   89.99960366
_cell_angle_gamma   89.98752300
_symmetry_Int_Tables_number   1
_chemical_formula_structural   In22Ag21Sn22Bi21(Te54Pb11)2
_chemical_formula_sum   'In22 Ag21 Sn22 Bi21 Te108 Pb22'
_cell_volume   7027.98572951
_cell_formula_units_Z   1
loop_
 _symmetry_equiv_pos_site_id
 _symmetry_equiv_pos_as_xyz
  1  'x, y, z'
loop_
 _atom_type_symbol
 _atom_type_oxidation_number
  In3+  3.0
  Ag+  1.0
  Sn2+  2.0
  Bi3+  3.0
  Te2-  -2.0
  Pb2+  2.0
loop_
 _atom_site_type_symbol
 _atom_site_label
 _atom_site_symmetry_multiplicity
 _atom_site_fract_x
 _atom_site_fract_y
 _atom_site_fract_z
 _atom_site_occupancy
  In3+  In0  1  0.17909931  0.65806817  0.49802938  1
  In3+  In1  1  0.66191706  0.65957695  0.35214436  1
  In3+  In2  1  0.66070409  0.64519274  0.66341619  1
  In3+  In3  1  0.66155047  -0.00181023  0.31917243  1
  In3+  In4  1  0.65088450  0.35143529  0.33577747  1
  In3+  In5  1  0.17930013  0.17734882  0.01369086  1
  In3+  In6  1  0.83107146  0.82262022  0.00853247  1
  In3+  In7  1  -0.00071894  0.34506246  0.67919704  1
  In3+  In8  1  0.83824192  0.49121683  0.66652947  1
  In3+  In9  1  0.16881979  0.84646969  0.01302879  1
  In3+  In10  1  0.16437478  0.03183718  0.82403775  1
  In3+  In11  1  0.66094577  0.16396069  0.17486380  1
  In3+  In12  1  0.81543289  0.16678402  0.66562660  1
  In3+  In13  1  0.84704190  0.33574228  0.16757438  1
  In3+  In14  1  0.66004340  0.84068111  0.48762263  1
  In3+  In15  1  0.82930535  0.81187000  0.66683053  1
  In3+  In16  1  0.33047395  0.33425486  0.32671553  1
  In3+  In17  1  0.64658361  0.83714803  0.82737828  1
  In3+  In18  1  0.33462767  0.48579128  0.17115373  1
  In3+  In19  1  0.16518356  0.80636031  0.66793787  1
  In3+  In20  1  0.16790784  0.34242727  0.50256643  1
  In3+  In21  1  0.84889250  0.00353521  0.16899595  1
  Ag+  Ag22  1  0.51532654  0.50487849  0.32921958  1
  Ag+  Ag23  1  0.32952082  0.33552968  -0.02178443  1
  Ag+  Ag24  1  0.51955807  0.66814800  0.50856333  1
  Ag+  Ag25  1  0.02774777  0.50095484  0.80301530  1
  Ag+  Ag26  1  -0.02362342  0.36121643  0.32765121  1
  Ag+  Ag27  1  0.80461480  0.63749025  0.16680494  1
  Ag+  Ag28  1  0.69503248  0.33086268  0.69636334  1
  Ag+  Ag29  1  0.19737296  0.86368763  0.37271375  1
  Ag+  Ag30  1  0.69444991  -0.02240779  0.66067391  1
  Ag+  Ag31  1  -0.02889483  0.48692378  0.16496536  1
  Ag+  Ag32  1  0.18452565  0.50371813  0.66603532  1
  Ag+  Ag33  1  0.03236918  0.02129017  0.35828663  1
  Ag+  Ag34  1  0.14399668  0.33835858  0.80734772  1
  Ag+  Ag35  1  0.19135474  -0.02451343  0.16422476  1
  Ag+  Ag36  1  0.35631673  0.14458547  0.18774330  1
  Ag+  Ag37  1  0.67092676  0.47353686  0.51600860  1
  Ag+  Ag38  1  -0.02800940  0.68137720  0.63836776  1
  Ag+  Ag39  1  0.50338175  0.31282922  0.80380782  1
  Ag+  Ag40  1  0.30404301  0.83141595  0.47372139  1
  Ag+  Ag41  1  0.52857396  0.64880238  0.86467194  1
  Ag+  Ag42  1  0.52752806  0.13979035  0.63722775  1
  Sn2+  Sn43  1  0.49868738  0.17731715  -0.00435916  1
  Sn2+  Sn44  1  0.33139685  0.00270689  0.33580428  1
  Sn2+  Sn45  1  0.16878327  0.17314847  0.66970877  1
  Sn2+  Sn46  1  0.49754567  0.82180805  0.33828053  1
  Sn2+  Sn47  1  0.49822407  -0.00408518  0.16967078  1
  Sn2+  Sn48  1  0.33450358  0.83196727  0.16457805  1
  Sn2+  Sn49  1  0.66837311  0.82769141  0.16257435  1
  Sn2+  Sn50  1  -0.00314704  0.82886178  0.49164860  1
  Sn2+  Sn51  1  0.33109117  0.65642235  0.00098992  1
  Sn2+  Sn52  1  0.49644445  0.00714846  0.83057611  1
  Sn2+  Sn53  1  0.84270993  0.49963123  -0.00538495  1
  Sn2+  Sn54  1  0.34696254  0.51049480  0.49925808  1
  Sn2+  Sn55  1  0.49777180  0.83961531  0.00080701  1
  Sn2+  Sn56  1  0.65638676  0.50077440  0.16754162  1
  Sn2+  Sn57  1  0.83766363  0.33902178  0.49292496  1
  Sn2+  Sn58  1  -0.00515593  0.49427461  0.49409282  1
  Sn2+  Sn59  1  0.66449411  0.66153479  -0.00589595  1
  Sn2+  Sn60  1  0.50046749  0.66985021  0.17468923  1
  Sn2+  Sn61  1  0.16226103  0.66744971  0.17264500  1
  Sn2+  Sn62  1  0.49830022  0.34920279  0.50430221  1
  Sn2+  Sn63  1  0.83281892  -0.00162233  0.83385810  1
  Sn2+  Sn64  1  0.49876074  -0.00380547  0.50204173  1
  Bi3+  Bi65  1  0.49946769  0.50211464  0.66174962  1
  Bi3+  Bi66  1  0.83242541  0.16287242  -0.00049040  1
  Bi3+  Bi67  1  0.33185401  0.17324798  0.83421685  1
  Bi3+  Bi68  1  0.16823658  0.16799486  0.33101336  1
  Bi3+  Bi69  1  0.32967651  0.00168426  0.66652317  1
  Bi3+  Bi70  1  0.00184612  -0.00039012  0.00074512  1
  Bi3+  Bi71  1  -0.00479352  0.67163728  0.33004084  1
  Bi3+  Bi72  1  0.32810787  0.83429372  0.83272842  1
  Bi3+  Bi73  1  0.00272182  0.17280011  0.50077281  1
  Bi3+  Bi74  1  0.00067158  0.66696007  0.00114779  1
  Bi3+  Bi75  1  0.33170897  0.33366077  0.66655558  1
  Bi3+  Bi76  1  0.49877167  0.33400720  0.17030402  1
  Bi3+  Bi77  1  0.66047499  0.50100951  0.82934817  1
  Bi3+  Bi78  1  0.00335013  0.82197861  0.83026744  1
  Bi3+  Bi79  1  0.16525290  0.65925723  0.83219579  1
  Bi3+  Bi80  1  -0.00164319  0.83052901  0.16577508  1
  Bi3+  Bi81  1  0.16619531  0.50158342  0.33806413  1
  Bi3+  Bi82  1  0.33513706  0.50112703  0.83441772  1
  Bi3+  Bi83  1  0.66291639  0.16598998  0.83483393  1
  Bi3+  Bi84  1  0.16759260  0.33572831  0.17322081  1
  Bi3+  Bi85  1  0.83240776  0.83105335  0.33419441  1
  Te2-  Te86  1  0.16985545  0.17351176  0.16805228  1
  Te2-  Te87  1  0.16571042  0.16919216  0.49631307  1
  Te2-  Te88  1  0.16786783  0.19098999  0.83640867  1
  Te2-  Te89  1  0.17865426  0.49964826  0.17390821  1
  Te2-  Te90  1  0.16715715  0.50230954  0.50395724  1
  Te2-  Te91  1  0.17331165  0.49272791  0.82680135  1
  Te2-  Te92  1  0.16315005  0.83061710  0.16761009  1
  Te2-  Te93  1  0.15676394  0.82821866  0.51097616  1
  Te2-  Te94  1  0.16374538  0.82609854  0.82653899  1
  Te2-  Te95  1  0.50095570  0.16824422  0.16458916  1
  Te2-  Te96  1  0.49782030  0.16947076  0.49809210  1
  Te2-  Te97  1  0.49746361  0.16767677  0.83538115  1
  Te2-  Te98  1  0.49477450  0.49948617  0.17880733  1
  Te2-  Te99  1  0.50396179  0.51318248  0.49956765  1
  Te2-  Te100  1  0.49957333  0.50922804  0.83054661  1
  Te2-  Te101  1  0.50285269  0.83514983  0.16630161  1
  Te2-  Te102  1  0.50794068  0.82376507  0.49760670  1
  Te2-  Te103  1  0.49290926  0.83561255  0.83380401  1
  Te2-  Te104  1  0.82756241  0.16398398  0.16208209  1
  Te2-  Te105  1  0.83816208  0.17088759  0.50622825  1
  Te2-  Te106  1  0.83084782  0.16794286  0.83446159  1
  Te2-  Te107  1  0.82333294  0.49050371  0.16388259  1
  Te2-  Te108  1  0.82002191  0.49631169  0.50681532  1
  Te2-  Te109  1  0.82218318  0.50139342  0.82607928  1
  Te2-  Te110  1  0.83229151  0.84168076  0.16679350  1
  Te2-  Te111  1  0.82939047  0.83383099  0.50608077  1
  Te2-  Te112  1  0.84378212  0.83567499  0.82245305  1
  Te2-  Te113  1  0.16297990  0.00189773  0.01490231  1
  Te2-  Te114  1  0.17193514  -0.00040862  0.32186794  1
  Te2-  Te115  1  0.16757268  0.00537922  0.66806688  1
  Te2-  Te116  1  0.17745259  0.33191729  0.00957617  1
  Te2-  Te117  1  0.17010049  0.33534584  0.33935815  1
  Te2-  Te118  1  0.16215288  0.34455331  0.66000551  1
  Te2-  Te119  1  0.16346000  0.67053538  -0.00119527  1
  Te2-  Te120  1  0.16131075  0.66668148  0.34231723  1
  Te2-  Te121  1  0.16311229  0.65267540  0.66744822  1
  Te2-  Te122  1  0.49937708  0.00078244  -0.00107227  1
  Te2-  Te123  1  0.50562555  -0.00321129  0.33925760  1
  Te2-  Te124  1  0.49105730  0.00221947  0.66923648  1
  Te2-  Te125  1  0.49120224  0.33521171  0.00976830  1
  Te2-  Te126  1  0.49530202  0.34592762  0.33534150  1
  Te2-  Te127  1  0.49291404  0.33988195  0.65984433  1
  Te2-  Te128  1  0.49790590  0.67363804  0.00479469  1
  Te2-  Te129  1  0.50792185  0.65780990  0.33906082  1
  Te2-  Te130  1  0.50778603  0.66663053  0.65924448  1
  Te2-  Te131  1  0.83606582  0.00012857  0.00137193  1
  Te2-  Te132  1  0.82209531  -0.00672622  0.32796423  1
  Te2-  Te133  1  0.83641217  0.01484126  0.67124923  1
  Te2-  Te134  1  0.83356670  0.32865538  0.00859830  1
  Te2-  Te135  1  0.83240646  0.33158830  0.32356208  1
  Te2-  Te136  1  0.83896294  0.32946325  0.66381993  1
  Te2-  Te137  1  0.83540590  0.66670200  0.01580891  1
  Te2-  Te138  1  0.82783271  0.66904421  0.31668159  1
  Te2-  Te139  1  0.82948615  0.65948597  0.66658289  1
  Te2-  Te140  1  -0.00317255  0.16584594  -0.00253755  1
  Te2-  Te141  1  0.00446425  0.16371455  0.33521049  1
  Te2-  Te142  1  0.00958013  0.17460222  0.66375889  1
  Te2-  Te143  1  -0.00281104  0.50349221  0.01658004  1
  Te2-  Te144  1  0.00270282  0.50696463  0.32402297  1
  Te2-  Te145  1  -0.01034169  0.49612914  0.66067112  1
  Te2-  Te146  1  -0.00249393  0.83329119  -0.00382761  1
  Te2-  Te147  1  -0.00608090  0.83391683  0.33003319  1
  Te2-  Te148  1  -0.00217935  0.82296476  0.66754516  1
  Te2-  Te149  1  0.33185970  0.17838237  -0.00482849  1
  Te2-  Te150  1  0.33130193  0.17140699  0.33069365  1
  Te2-  Te151  1  0.33133294  0.16794311  0.67137629  1
  Te2-  Te152  1  0.33464848  0.49265158  -0.00029329  1
  Te2-  Te153  1  0.32705777  0.49476431  0.33879354  1
  Te2-  Te154  1  0.33432004  0.49905834  0.66491866  1
  Te2-  Te155  1  0.32702345  0.83336333  -0.00491220  1
  Te2-  Te156  1  0.33635505  0.83366563  0.32629648  1
  Te2-  Te157  1  0.32493948  0.83827938  0.67121794  1
  Te2-  Te158  1  0.66865679  0.16421172  -0.00150729  1
  Te2-  Te159  1  0.66941320  0.15215261  0.33163310  1
  Te2-  Te160  1  0.66205099  0.18417964  0.67427301  1
  Te2-  Te161  1  0.67028070  0.50155788  -0.00382780  1
  Te2-  Te162  1  0.66429397  0.50596098  0.33665180  1
  Te2-  Te163  1  0.66455288  0.48876611  0.66396134  1
  Te2-  Te164  1  0.67317542  0.82922224  -0.01189341  1
  Te2-  Te165  1  0.66996099  0.83268105  0.33269435  1
  Te2-  Te166  1  0.67494062  0.83400024  0.67779542  1
  Te2-  Te167  1  0.00076770  -0.00453080  0.16265358  1
  Te2-  Te168  1  -0.00120544  0.00138124  0.49945528  1
  Te2-  Te169  1  0.00673378  -0.00464891  0.83686383  1
  Te2-  Te170  1  0.00170300  0.34092584  0.17646189  1
  Te2-  Te171  1  0.00184092  0.33539296  0.48556026  1
  Te2-  Te172  1  -0.00139324  0.35049784  0.83173445  1
  Te2-  Te173  1  0.00129703  0.67059292  0.16605252  1
  Te2-  Te174  1  -0.00177649  0.66185243  0.49445527  1
  Te2-  Te175  1  0.00195491  0.65320746  0.83693500  1
  Te2-  Te176  1  0.33624762  0.00145578  0.16894355  1
  Te2-  Te177  1  0.33541868  -0.01431348  0.50123301  1
  Te2-  Te178  1  0.32443664  0.00224587  0.83284637  1
  Te2-  Te179  1  0.33365892  0.33203948  0.17193571  1
  Te2-  Te180  1  0.32627145  0.33546845  0.50492626  1
  Te2-  Te181  1  0.34998676  0.33699229  0.82951702  1
  Te2-  Te182  1  0.33159155  0.66830229  0.16224733  1
  Te2-  Te183  1  0.32726083  0.68139910  0.49721093  1
  Te2-  Te184  1  0.32841278  0.66848115  0.83477023  1
  Te2-  Te185  1  0.66059049  0.00111028  0.16546201  1
  Te2-  Te186  1  0.66116755  -0.00652462  0.51564741  1
  Te2-  Te187  1  0.66583162  0.00060583  0.82045662  1
  Te2-  Te188  1  0.66024947  0.32748538  0.17975452  1
  Te2-  Te189  1  0.66635869  0.33114521  0.48447717  1
  Te2-  Te190  1  0.65291193  0.33444768  0.83794614  1
  Te2-  Te191  1  0.66073930  0.66561998  0.16087311  1
  Te2-  Te192  1  0.66766428  0.67831968  0.50340245  1
  Te2-  Te193  1  0.66738600  0.67054259  0.82551412  1
  Pb2+  Pb194  1  0.83558108  0.66788041  0.84187948  1
  Pb2+  Pb195  1  0.33550881  0.66927387  0.66513267  1
  Pb2+  Pb196  1  0.33502918  0.66330897  0.33074487  1
  Pb2+  Pb197  1  0.50126867  0.50250238  0.00421665  1
  Pb2+  Pb198  1  0.33093041  0.00628003  0.00157925  1
  Pb2+  Pb199  1  0.83825690  0.16480999  0.33340967  1
  Pb2+  Pb200  1  0.50182148  0.16948995  0.33279278  1
  Pb2+  Pb201  1  0.00226873  0.16688683  0.16738646  1
  Pb2+  Pb202  1  0.83567370  0.49919598  0.33517019  1
  Pb2+  Pb203  1  0.16641006  0.50229571  -0.00189602  1
  Pb2+  Pb204  1  0.65975851  0.33236084  0.00861489  1
  Pb2+  Pb205  1  0.50236477  0.83529647  0.66333722  1
  Pb2+  Pb206  1  0.33402041  0.16186655  0.50143644  1
  Pb2+  Pb207  1  0.66659089  -0.00437305  -0.00824405  1
  Pb2+  Pb208  1  0.83392614  0.66557513  0.49217868  1
  Pb2+  Pb209  1  0.82748127  0.33626377  0.83598620  1
  Pb2+  Pb210  1  0.00878433  0.33634934  0.00377823  1
  Pb2+  Pb211  1  0.00041498  -0.00538133  0.66701458  1
  Pb2+  Pb212  1  0.00123962  0.17140304  0.82928956  1
  Pb2+  Pb213  1  0.66482847  0.16534680  0.50469227  1
  Pb2+  Pb214  1  0.82879734  0.00071675  0.49736144  1
  Pb2+  Pb215  1  0.16814239  -0.00059739  0.49427371  1
