# generated using pymatgen
data_In22Ag21Sn22Bi21(Te54Pb11)2
_symmetry_space_group_name_H-M   'P 1'
_cell_length_a   19.14329606
_cell_length_b   19.11808078
_cell_length_c   19.12601420
_cell_angle_alpha   90.00692930
_cell_angle_beta   90.01295731
_cell_angle_gamma   90.00329791
_symmetry_Int_Tables_number   1
_chemical_formula_structural   In22Ag21Sn22Bi21(Te54Pb11)2
_chemical_formula_sum   'In22 Ag21 Sn22 Bi21 Te108 Pb22'
_cell_volume   6999.79734893
_cell_formula_units_Z   1
loop_
 _symmetry_equiv_pos_site_id
 _symmetry_equiv_pos_as_xyz
  1  'x, y, z'
loop_
 _atom_type_symbol
 _atom_type_oxidation_number
  In3+  3.0
  Ag+  1.0
  Sn2+  2.0
  Bi3+  3.0
  Te2-  -2.0
  Pb2+  2.0
loop_
 _atom_site_type_symbol
 _atom_site_label
 _atom_site_symmetry_multiplicity
 _atom_site_fract_x
 _atom_site_fract_y
 _atom_site_fract_z
 _atom_site_occupancy
  In3+  In0  1  0.64526027  0.16773939  0.16368047  1
  In3+  In1  1  0.16135164  0.82675400  0.35178288  1
  In3+  In2  1  0.68044267  0.83498819  0.16338875  1
  In3+  In3  1  0.47150613  0.66643202  0.49505264  1
  In3+  In4  1  0.33022421  0.81673327  0.16783247  1
  In3+  In5  1  0.16164366  0.82634208  0.66036648  1
  In3+  In6  1  0.16073051  0.16690033  -0.00618669  1
  In3+  In7  1  0.01042935  0.52192717  0.49884888  1
  In3+  In8  1  0.86121327  0.00536280  0.50799964  1
  In3+  In9  1  0.83386002  0.66567202  0.85348513  1
  In3+  In10  1  0.49357484  0.18532900  0.67107867  1
  In3+  In11  1  0.31452344  0.33465076  0.32354405  1
  In3+  In12  1  0.32143665  0.33694085  -0.00546660  1
  In3+  In13  1  0.66136955  0.67568114  0.00338314  1
  In3+  In14  1  0.66866041  0.31077566  -0.00258624  1
  In3+  In15  1  0.33344579  0.16392223  0.50739358  1
  In3+  In16  1  0.50930997  0.48174135  -0.00158320  1
  In3+  In17  1  0.33011706  0.49735387  0.15257465  1
  In3+  In18  1  0.67472737  0.16702708  0.84312440  1
  In3+  In19  1  0.85585089  0.67397731  0.49266458  1
  In3+  In20  1  0.32417984  0.49884040  0.83065834  1
  In3+  In21  1  0.66597079  0.83529422  0.84945786  1
  Ag+  Ag22  1  0.47564253  0.33836099  0.18896708  1
  Ag+  Ag23  1  0.86250034  0.67708936  0.14871340  1
  Ag+  Ag24  1  0.18523323  0.34913009  0.85074500  1
  Ag+  Ag25  1  0.68933726  0.00383991  -0.01841390  1
  Ag+  Ag26  1  0.00198824  0.65283527  0.31901712  1
  Ag+  Ag27  1  0.01397182  0.01342507  -0.01799784  1
  Ag+  Ag28  1  0.16688450  0.64554314  0.51000406  1
  Ag+  Ag29  1  0.16808279  0.00465914  0.49464627  1
  Ag+  Ag30  1  -0.02186527  0.64451576  0.69018681  1
  Ag+  Ag31  1  0.02011816  0.18919794  0.85347723  1
  Ag+  Ag32  1  0.33197249  -0.02658736  0.68703070  1
  Ag+  Ag33  1  -0.02218136  0.50397987  0.14048828  1
  Ag+  Ag34  1  0.01890198  0.36398453  0.30821241  1
  Ag+  Ag35  1  0.32528989  0.14883151  0.14253012  1
  Ag+  Ag36  1  0.48030421  0.33379807  0.85264471  1
  Ag+  Ag37  1  0.02538654  0.00476965  0.30884002  1
  Ag+  Ag38  1  0.30514061  0.33037948  0.64239152  1
  Ag+  Ag39  1  0.15033422  0.52225396  -0.00019650  1
  Ag+  Ag40  1  0.85504712  0.82678253  0.00924161  1
  Ag+  Ag41  1  0.86040584  0.13133176  0.00071375  1
  Ag+  Ag42  1  0.29538136  0.63454713  0.33521329  1
  Sn2+  Sn43  1  0.83991911  0.16207858  0.31591683  1
  Sn2+  Sn44  1  0.16282005  0.66733892  0.17142935  1
  Sn2+  Sn45  1  0.16091802  0.83852839  -0.00156411  1
  Sn2+  Sn46  1  0.50121760  0.00919817  0.83365228  1
  Sn2+  Sn47  1  0.49137166  0.33631424  0.50080961  1
  Sn2+  Sn48  1  -0.00436178  0.32837654  0.00232249  1
  Sn2+  Sn49  1  0.66990703  0.83203874  0.50085723  1
  Sn2+  Sn50  1  0.16333579  0.32633414  0.51268661  1
  Sn2+  Sn51  1  0.16638377  0.15848059  0.66835750  1
  Sn2+  Sn52  1  0.83889072  0.50027715  0.32968028  1
  Sn2+  Sn53  1  0.83697390  0.83156553  0.67395446  1
  Sn2+  Sn54  1  0.16300831  0.00356486  0.17387043  1
  Sn2+  Sn55  1  0.83406454  0.50890715  0.65932334  1
  Sn2+  Sn56  1  0.48642044  -0.00203139  0.50871305  1
  Sn2+  Sn57  1  0.49481858  0.49803241  0.67413638  1
  Sn2+  Sn58  1  0.33386229  0.66170158  0.01005154  1
  Sn2+  Sn59  1  0.65155903  -0.00115948  0.66297337  1
  Sn2+  Sn60  1  0.49497338  0.17206442  0.32934926  1
  Sn2+  Sn61  1  0.00325295  0.17301295  0.49989843  1
  Sn2+  Sn62  1  0.00531300  0.49211455  0.83426141  1
  Sn2+  Sn63  1  0.32946167  0.66240324  0.65772786  1
  Sn2+  Sn64  1  0.33322233  0.84171116  0.49321924  1
  Bi3+  Bi65  1  0.83218061  -0.00379401  0.83856660  1
  Bi3+  Bi66  1  0.83455310  0.33314839  0.16753790  1
  Bi3+  Bi67  1  0.67184818  0.50360463  0.50045896  1
  Bi3+  Bi68  1  0.83769343  0.83699361  0.33215781  1
  Bi3+  Bi69  1  0.49953228  0.16650072  -0.00481930  1
  Bi3+  Bi70  1  0.83270833  0.33260420  0.83922728  1
  Bi3+  Bi71  1  0.16625967  0.33480308  0.16146524  1
  Bi3+  Bi72  1  0.67238792  0.32869744  0.32799504  1
  Bi3+  Bi73  1  0.66856698  0.33009314  0.66434640  1
  Bi3+  Bi74  1  0.33363692  0.00765222  0.33525799  1
  Bi3+  Bi75  1  0.50002434  0.83076471  0.66538622  1
  Bi3+  Bi76  1  0.83353435  0.32760702  0.49868105  1
  Bi3+  Bi77  1  0.16686942  -0.00001219  0.83306151  1
  Bi3+  Bi78  1  -0.00251758  0.83289147  0.83513086  1
  Bi3+  Bi79  1  0.00074722  0.83817269  0.50250219  1
  Bi3+  Bi80  1  0.49602158  0.83440806  0.00029463  1
  Bi3+  Bi81  1  0.49625661  0.66281948  0.16870335  1
  Bi3+  Bi82  1  0.66496138  -0.00135766  0.33331566  1
  Bi3+  Bi83  1  -0.00017879  0.33192400  0.66542570  1
  Bi3+  Bi84  1  0.16558676  0.16570058  0.33498759  1
  Bi3+  Bi85  1  0.83423759  -0.00178072  0.16509725  1
  Te2-  Te86  1  0.17870323  0.17271530  0.16981969  1
  Te2-  Te87  1  0.17346708  0.16276294  0.50055812  1
  Te2-  Te88  1  0.16369658  0.16299986  0.83727717  1
  Te2-  Te89  1  0.17616861  0.49595424  0.15097421  1
  Te2-  Te90  1  0.16279941  0.49684997  0.49724662  1
  Te2-  Te91  1  0.16942721  0.49543963  0.84680913  1
  Te2-  Te92  1  0.17402518  0.83683096  0.15942768  1
  Te2-  Te93  1  0.16631612  0.85065593  0.50478442  1
  Te2-  Te94  1  0.16357077  0.83373975  0.82949784  1
  Te2-  Te95  1  0.49369304  0.18360973  0.16175601  1
  Te2-  Te96  1  0.49303179  0.16542453  0.50622071  1
  Te2-  Te97  1  0.50239519  0.17734229  0.83012010  1
  Te2-  Te98  1  0.49365938  0.49188138  0.15846835  1
  Te2-  Te99  1  0.50617166  0.50950951  0.50221283  1
  Te2-  Te100  1  0.50023349  0.48834014  0.84141284  1
  Te2-  Te101  1  0.48953233  0.83068799  0.16341310  1
  Te2-  Te102  1  0.50100631  0.82452008  0.50200628  1
  Te2-  Te103  1  0.50411338  0.83318043  0.83259865  1
  Te2-  Te104  1  0.83777050  0.16741455  0.15232226  1
  Te2-  Te105  1  0.83256942  0.16228652  0.49936943  1
  Te2-  Te106  1  0.82961886  0.16299799  0.84895067  1
  Te2-  Te107  1  0.83355213  0.50160234  0.17015211  1
  Te2-  Te108  1  0.83431473  0.49322933  0.49889478  1
  Te2-  Te109  1  0.83604595  0.50509582  0.83013524  1
  Te2-  Te110  1  0.83531074  0.82414931  0.16508430  1
  Te2-  Te111  1  0.83641847  0.84489309  0.49860791  1
  Te2-  Te112  1  0.83117204  0.83001439  0.83994941  1
  Te2-  Te113  1  0.16263097  0.00798723  0.00111419  1
  Te2-  Te114  1  0.17095745  0.00269136  0.33529123  1
  Te2-  Te115  1  0.18284987  0.00052153  0.67368321  1
  Te2-  Te116  1  0.16568614  0.32593420  -0.00256903  1
  Te2-  Te117  1  0.15988820  0.32981351  0.33474306  1
  Te2-  Te118  1  0.16128352  0.32902666  0.67434251  1
  Te2-  Te119  1  0.17676461  0.66820385  0.00037357  1
  Te2-  Te120  1  0.15433970  0.67624025  0.32910373  1
  Te2-  Te121  1  0.17255137  0.67014325  0.65636933  1
  Te2-  Te122  1  0.49759562  0.00129946  -0.00298312  1
  Te2-  Te123  1  0.49855985  0.00336951  0.33524716  1
  Te2-  Te124  1  0.48384187  -0.00740900  0.66877459  1
  Te2-  Te125  1  0.51403357  0.32948084  -0.00361847  1
  Te2-  Te126  1  0.50929207  0.33133551  0.33324266  1
  Te2-  Te127  1  0.50761914  0.33734142  0.66488227  1
  Te2-  Te128  1  0.49929020  0.67165693  0.00270271  1
  Te2-  Te129  1  0.50347541  0.66790636  0.33477356  1
  Te2-  Te130  1  0.49706498  0.66676842  0.66098602  1
  Te2-  Te131  1  0.83265894  -0.01445757  0.00295437  1
  Te2-  Te132  1  0.82672108  -0.00149338  0.33219111  1
  Te2-  Te133  1  0.82771398  -0.00196529  0.66863441  1
  Te2-  Te134  1  0.82957304  0.33459281  0.00098668  1
  Te2-  Te135  1  0.83511622  0.32745707  0.33329967  1
  Te2-  Te136  1  0.83233173  0.33387815  0.66891672  1
  Te2-  Te137  1  0.82452364  0.67723854  0.00709254  1
  Te2-  Te138  1  0.84984686  0.67498730  0.33868609  1
  Te2-  Te139  1  0.83996613  0.67163379  0.65202202  1
  Te2-  Te140  1  0.00535903  0.16138944  -0.00243696  1
  Te2-  Te141  1  0.00318990  0.15503795  0.33593703  1
  Te2-  Te142  1  -0.00184375  0.16895143  0.66670673  1
  Te2-  Te143  1  0.00420915  0.49894694  -0.00528652  1
  Te2-  Te144  1  -0.00240733  0.50380683  0.34694759  1
  Te2-  Te145  1  0.00003944  0.50094645  0.66197280  1
  Te2-  Te146  1  0.00217906  0.83467786  -0.00128701  1
  Te2-  Te147  1  0.00472207  0.85245669  0.33913756  1
  Te2-  Te148  1  0.00400654  0.82922363  0.66864866  1
  Te2-  Te149  1  0.33642291  0.17977219  -0.00027682  1
  Te2-  Te150  1  0.33196317  0.17494136  0.34043658  1
  Te2-  Te151  1  0.33844559  0.18362964  0.66273818  1
  Te2-  Te152  1  0.34540514  0.49467859  -0.00142159  1
  Te2-  Te153  1  0.33020072  0.48973756  0.33575105  1
  Te2-  Te154  1  0.33501253  0.48825913  0.67380326  1
  Te2-  Te155  1  0.33273770  0.83024934  0.00289447  1
  Te2-  Te156  1  0.32134217  0.84174581  0.32817875  1
  Te2-  Te157  1  0.33599582  0.82570011  0.66235387  1
  Te2-  Te158  1  0.66091806  0.15167008  0.00181977  1
  Te2-  Te159  1  0.66608419  0.16536859  0.32559178  1
  Te2-  Te160  1  0.65750841  0.16656363  0.66920216  1
  Te2-  Te161  1  0.66330169  0.51645898  -0.00069153  1
  Te2-  Te162  1  0.66867747  0.49470195  0.33611659  1
  Te2-  Te163  1  0.66575314  0.49684574  0.66370419  1
  Te2-  Te164  1  0.65767544  0.84143617  0.00291015  1
  Te2-  Te165  1  0.66985328  0.83576933  0.32986537  1
  Te2-  Te166  1  0.66426513  0.83713048  0.66778095  1
  Te2-  Te167  1  -0.00470070  -0.00019217  0.16254803  1
  Te2-  Te168  1  0.01297262  0.00265365  0.50643846  1
  Te2-  Te169  1  -0.00390794  -0.00431255  0.83639509  1
  Te2-  Te170  1  -0.00115627  0.34679407  0.16431177  1
  Te2-  Te171  1  -0.00530660  0.33207604  0.50394888  1
  Te2-  Te172  1  -0.00772328  0.33186074  0.83156262  1
  Te2-  Te173  1  0.00502261  0.65322468  0.16955004  1
  Te2-  Te174  1  0.01178262  0.67465875  0.49951788  1
  Te2-  Te175  1  -0.00693123  0.66810024  0.83305255  1
  Te2-  Te176  1  0.33282375  0.00562322  0.17254922  1
  Te2-  Te177  1  0.32566554  0.00666119  0.49743969  1
  Te2-  Te178  1  0.33104996  -0.00037591  0.83409911  1
  Te2-  Te179  1  0.33013660  0.33982527  0.16686033  1
  Te2-  Te180  1  0.33409348  0.33218251  0.49780687  1
  Te2-  Te181  1  0.33237619  0.34296801  0.84136812  1
  Te2-  Te182  1  0.33588391  0.65996653  0.18524208  1
  Te2-  Te183  1  0.31907979  0.67031559  0.48459630  1
  Te2-  Te184  1  0.33483623  0.65620146  0.83113365  1
  Te2-  Te185  1  0.66898621  0.00030223  0.17088000  1
  Te2-  Te186  1  0.65596256  -0.00436940  0.49755747  1
  Te2-  Te187  1  0.66842786  -0.00031765  0.83366201  1
  Te2-  Te188  1  0.67330089  0.32829883  0.16421990  1
  Te2-  Te189  1  0.66867103  0.33431494  0.49835526  1
  Te2-  Te190  1  0.67261617  0.32687279  0.83056351  1
  Te2-  Te191  1  0.65691066  0.67303277  0.16327077  1
  Te2-  Te192  1  0.68224299  0.66576609  0.49825545  1
  Te2-  Te193  1  0.67325025  0.67385947  0.83518842  1
  Pb2+  Pb194  1  0.32953613  0.00274383  0.00410582  1
  Pb2+  Pb195  1  0.00659315  0.83041512  0.17273327  1
  Pb2+  Pb196  1  0.67081304  0.66966871  0.66336562  1
  Pb2+  Pb197  1  0.33353518  0.82809826  0.83179613  1
  Pb2+  Pb198  1  0.66182632  0.16226078  0.49803883  1
  Pb2+  Pb199  1  0.67955659  0.66622666  0.33194669  1
  Pb2+  Pb200  1  0.66455503  0.49983175  0.16494370  1
  Pb2+  Pb201  1  0.66743196  0.49697393  0.83366441  1
  Pb2+  Pb202  1  0.33126412  0.17039505  0.82976195  1
  Pb2+  Pb203  1  0.50230061  0.65948698  0.83265885  1
  Pb2+  Pb204  1  0.49102583  0.83232387  0.33239747  1
  Pb2+  Pb205  1  0.50016157  0.00766688  0.16530228  1
  Pb2+  Pb206  1  0.00551563  0.17118532  0.16880830  1
  Pb2+  Pb207  1  0.49662859  0.50181536  0.33054852  1
  Pb2+  Pb208  1  0.33354662  0.50136629  0.50565922  1
  Pb2+  Pb209  1  0.83129696  0.16414964  0.67649719  1
  Pb2+  Pb210  1  0.16409352  0.66311030  0.82677236  1
  Pb2+  Pb211  1  0.16256402  0.50366792  0.32075675  1
  Pb2+  Pb212  1  0.16625860  0.49732988  0.67040317  1
  Pb2+  Pb213  1  0.83625339  0.50255987  0.00094565  1
  Pb2+  Pb214  1  0.00813864  -0.00008271  0.67183912  1
  Pb2+  Pb215  1  0.00481466  0.66906200  0.00291571  1
