# generated using pymatgen
data_In22Ag21Sn22Bi21(Te54Pb11)2
_symmetry_space_group_name_H-M   'P 1'
_cell_length_a   19.10954396
_cell_length_b   19.09749517
_cell_length_c   19.12244447
_cell_angle_alpha   89.99265420
_cell_angle_beta   90.00786569
_cell_angle_gamma   89.99962853
_symmetry_Int_Tables_number   1
_chemical_formula_structural   In22Ag21Sn22Bi21(Te54Pb11)2
_chemical_formula_sum   'In22 Ag21 Sn22 Bi21 Te108 Pb22'
_cell_volume   6978.62934745
_cell_formula_units_Z   1
loop_
 _symmetry_equiv_pos_site_id
 _symmetry_equiv_pos_as_xyz
  1  'x, y, z'
loop_
 _atom_type_symbol
 _atom_type_oxidation_number
  In3+  3.0
  Ag+  1.0
  Sn2+  2.0
  Bi3+  3.0
  Te2-  -2.0
  Pb2+  2.0
loop_
 _atom_site_type_symbol
 _atom_site_label
 _atom_site_symmetry_multiplicity
 _atom_site_fract_x
 _atom_site_fract_y
 _atom_site_fract_z
 _atom_site_occupancy
  In3+  In0  1  0.48720664  0.16326000  0.34733104  1
  In3+  In1  1  0.16263448  0.83565966  0.32963009  1
  In3+  In2  1  0.66191456  0.50226454  0.83863421  1
  In3+  In3  1  0.82114500  0.00092535  0.17567038  1
  In3+  In4  1  0.48931191  0.00240335  0.16650612  1
  In3+  In5  1  0.32571598  0.83609811  0.84219150  1
  In3+  In6  1  -0.00395123  0.67228820  -0.01616043  1
  In3+  In7  1  0.66993358  0.66573833  0.34447993  1
  In3+  In8  1  -0.00238476  0.64528414  0.64910840  1
  In3+  In9  1  0.16387494  0.51922721  -0.01692951  1
  In3+  In10  1  0.16739588  0.65742625  0.49863419  1
  In3+  In11  1  0.66498817  0.17476052  0.50110135  1
  In3+  In12  1  0.49997640  0.00533702  0.83223760  1
  In3+  In13  1  0.81893540  0.84209377  -0.00258858  1
  In3+  In14  1  0.67031142  0.49702011  0.50769719  1
  In3+  In15  1  0.16922378  0.32197234  0.49992589  1
  In3+  In16  1  0.02215689  0.16642715  0.81967298  1
  In3+  In17  1  0.16324951  0.49975082  0.33797265  1
  In3+  In18  1  0.83074860  0.33771804  0.83076124  1
  In3+  In19  1  0.00524331  0.83941629  0.83031822  1
  In3+  In20  1  0.49813775  0.65316640  0.83445163  1
  In3+  In21  1  0.33695884  -0.00957247  -0.01470589  1
  Ag+  Ag22  1  0.85545254  0.83107012  0.35191683  1
  Ag+  Ag23  1  0.15463421  0.83891173  0.02241749  1
  Ag+  Ag24  1  0.19388730  0.48659840  0.63709693  1
  Ag+  Ag25  1  0.51945821  0.83611028  -0.02885390  1
  Ag+  Ag26  1  -0.02830728  0.48074094  0.50166900  1
  Ag+  Ag27  1  -0.02333364  0.15629656  0.49733282  1
  Ag+  Ag28  1  0.83387794  0.81300744  0.64914717  1
  Ag+  Ag29  1  0.83153850  0.51810065  0.67557533  1
  Ag+  Ag30  1  0.17535659  0.01506690  0.83335758  1
  Ag+  Ag31  1  0.33451145  0.48963995  0.81280638  1
  Ag+  Ag32  1  0.68845847  0.50591390  0.19072618  1
  Ag+  Ag33  1  0.51845156  0.34164372  0.50001556  1
  Ag+  Ag34  1  0.33806562  0.14654914  0.51822235  1
  Ag+  Ag35  1  0.69229736  0.65415723  -0.00270479  1
  Ag+  Ag36  1  0.81363058  0.66340679  0.48093108  1
  Ag+  Ag37  1  0.30337007  0.02716380  0.36365836  1
  Ag+  Ag38  1  0.68888992  0.14200401  0.83907843  1
  Ag+  Ag39  1  0.81198677  0.19216647  0.36496642  1
  Ag+  Ag40  1  0.32907895  0.13992665  0.85606691  1
  Ag+  Ag41  1  0.33719346  0.02116328  0.64982553  1
  Ag+  Ag42  1  0.31432774  0.47993436  0.52182120  1
  Sn2+  Sn43  1  0.66633264  0.33948763  -0.00112391  1
  Sn2+  Sn44  1  0.17233159  0.16680081  0.65957120  1
  Sn2+  Sn45  1  0.00495625  0.33366455  -0.00112530  1
  Sn2+  Sn46  1  0.66314948  0.81641655  0.16594451  1
  Sn2+  Sn47  1  0.34030205  0.67353646  0.33661389  1
  Sn2+  Sn48  1  0.50403611  0.33214747  0.17367033  1
  Sn2+  Sn49  1  -0.00495832  0.83506772  0.16076879  1
  Sn2+  Sn50  1  0.15921545  0.16355488  0.34126213  1
  Sn2+  Sn51  1  0.32857805  0.83535715  0.50674366  1
  Sn2+  Sn52  1  0.50924537  0.67007239  0.15253242  1
  Sn2+  Sn53  1  0.66378247  0.33352701  0.32898705  1
  Sn2+  Sn54  1  0.33586595  0.16249905  0.16623804  1
  Sn2+  Sn55  1  0.33301799  0.33232447  -0.01013252  1
  Sn2+  Sn56  1  0.50393174  0.84085171  0.67018821  1
  Sn2+  Sn57  1  0.16639428  0.00076569  0.51167451  1
  Sn2+  Sn58  1  0.01099563  -0.00609968  0.00142491  1
  Sn2+  Sn59  1  -0.00300356  0.83422371  0.50566888  1
  Sn2+  Sn60  1  0.83158436  0.66723993  0.83005136  1
  Sn2+  Sn61  1  0.82961351  0.50186330  -0.00771857  1
  Sn2+  Sn62  1  0.83143011  0.33268911  0.16090543  1
  Sn2+  Sn63  1  0.83724225  0.00052844  0.83241082  1
  Sn2+  Sn64  1  0.17278530  0.00143633  0.15539713  1
  Bi3+  Bi65  1  0.33063431  0.66999828  0.00048983  1
  Bi3+  Bi66  1  0.33517404  0.33320001  0.33141002  1
  Bi3+  Bi67  1  -0.00149641  0.33212509  0.66585929  1
  Bi3+  Bi68  1  0.49796298  0.32931645  0.83205296  1
  Bi3+  Bi69  1  0.33505067  0.83386527  0.16885353  1
  Bi3+  Bi70  1  0.66529724  0.33055213  0.66842224  1
  Bi3+  Bi71  1  0.66924605  -0.00099561  0.33425911  1
  Bi3+  Bi72  1  0.00111367  0.66694900  0.33654434  1
  Bi3+  Bi73  1  0.50122768  0.83550925  0.33374856  1
  Bi3+  Bi74  1  0.16179302  0.83193825  0.66359959  1
  Bi3+  Bi75  1  0.00677367  0.00133832  0.66902893  1
  Bi3+  Bi76  1  0.32918674  0.67047872  0.66765184  1
  Bi3+  Bi77  1  0.00081218  0.32974742  0.33754132  1
  Bi3+  Bi78  1  0.16987102  0.67002378  0.82943390  1
  Bi3+  Bi79  1  0.66758205  0.83207368  0.49839252  1
  Bi3+  Bi80  1  0.33341347  0.49888718  0.17003745  1
  Bi3+  Bi81  1  0.83450943  0.16625053  -0.00178930  1
  Bi3+  Bi82  1  0.00223373  0.00007739  0.33537193  1
  Bi3+  Bi83  1  0.83303266  0.16425669  0.67105610  1
  Bi3+  Bi84  1  0.49812330  0.16725704  0.66583208  1
  Bi3+  Bi85  1  0.49604544  0.49724846  0.33297854  1
  Te2-  Te86  1  0.16717140  0.16231955  0.17015926  1
  Te2-  Te87  1  0.18396605  0.16633680  0.50067959  1
  Te2-  Te88  1  0.17711138  0.16451697  0.82939571  1
  Te2-  Te89  1  0.16904070  0.50012770  0.18104158  1
  Te2-  Te90  1  0.17122843  0.50655667  0.49306290  1
  Te2-  Te91  1  0.17464311  0.50596673  0.83227147  1
  Te2-  Te92  1  0.16966004  0.83649019  0.17147353  1
  Te2-  Te93  1  0.16266796  0.83532830  0.50109543  1
  Te2-  Te94  1  0.16577262  0.83059097  0.82557982  1
  Te2-  Te95  1  0.50263601  0.16286363  0.16521252  1
  Te2-  Te96  1  0.49191421  0.17315229  0.50074012  1
  Te2-  Te97  1  0.48031228  0.16421190  0.82893120  1
  Te2-  Te98  1  0.49620567  0.50012556  0.17028346  1
  Te2-  Te99  1  0.50710240  0.49275937  0.49386434  1
  Te2-  Te100  1  0.48909757  0.49684662  0.83402133  1
  Te2-  Te101  1  0.49790023  0.83920437  0.17093876  1
  Te2-  Te102  1  0.50268209  0.83116966  0.49995474  1
  Te2-  Te103  1  0.49209368  0.84724352  0.82651176  1
  Te2-  Te104  1  0.83212704  0.16118950  0.16141718  1
  Te2-  Te105  1  0.82867760  0.16585441  0.50796798  1
  Te2-  Te106  1  0.83437062  0.17043701  0.83419483  1
  Te2-  Te107  1  0.83244959  0.49671482  0.16178680  1
  Te2-  Te108  1  0.82520734  0.51255073  0.50305850  1
  Te2-  Te109  1  0.83100727  0.49794199  0.82733097  1
  Te2-  Te110  1  0.83265229  0.84118328  0.15148615  1
  Te2-  Te111  1  0.83027254  0.82006300  0.50088634  1
  Te2-  Te112  1  0.84016691  0.83541292  0.84453505  1
  Te2-  Te113  1  0.16944810  -0.01244683  -0.01119458  1
  Te2-  Te114  1  0.16405569  -0.00582987  0.33340141  1
  Te2-  Te115  1  0.16917445  -0.00311492  0.67616140  1
  Te2-  Te116  1  0.16417548  0.33178991  -0.00071998  1
  Te2-  Te117  1  0.16643462  0.33276867  0.33866067  1
  Te2-  Te118  1  0.16067250  0.34267997  0.65956291  1
  Te2-  Te119  1  0.16430054  0.67853911  -0.00371470  1
  Te2-  Te120  1  0.16747415  0.67756585  0.33904799  1
  Te2-  Te121  1  0.16019324  0.66625549  0.66474344  1
  Te2-  Te122  1  0.49273843  -0.01291418  -0.00514513  1
  Te2-  Te123  1  0.50492192  0.00331124  0.32756590  1
  Te2-  Te124  1  0.48707064  0.00320929  0.67074340  1
  Te2-  Te125  1  0.49951617  0.33570854  -0.00271616  1
  Te2-  Te126  1  0.50017345  0.32760147  0.34213071  1
  Te2-  Te127  1  0.50231891  0.33131495  0.65899150  1
  Te2-  Te128  1  0.49158442  0.68336661  -0.01239932  1
  Te2-  Te129  1  0.50913443  0.66734238  0.32788369  1
  Te2-  Te130  1  0.49813539  0.67047935  0.67442765  1
  Te2-  Te131  1  0.83852162  0.00043165  -0.00459737  1
  Te2-  Te132  1  0.83662010  -0.01463108  0.32941874  1
  Te2-  Te133  1  0.83896347  0.00248344  0.67181903  1
  Te2-  Te134  1  0.83487883  0.33349255  -0.00529829  1
  Te2-  Te135  1  0.83520656  0.33281974  0.33138748  1
  Te2-  Te136  1  0.83150560  0.32789823  0.67145465  1
  Te2-  Te137  1  0.84113932  0.66641987  -0.00431593  1
  Te2-  Te138  1  0.83333316  0.67796259  0.33320911  1
  Te2-  Te139  1  0.84586640  0.66924665  0.67407710  1
  Te2-  Te140  1  -0.00337058  0.16806618  -0.00411919  1
  Te2-  Te141  1  -0.00077108  0.16515043  0.34697666  1
  Te2-  Te142  1  0.00132049  0.16809514  0.65802223  1
  Te2-  Te143  1  0.00737771  0.50328152  -0.00143890  1
  Te2-  Te144  1  0.00423856  0.50069806  0.34785642  1
  Te2-  Te145  1  -0.01487070  0.49492989  0.65681436  1
  Te2-  Te146  1  0.00878840  0.83057291  -0.00467566  1
  Te2-  Te147  1  0.00178648  0.83411005  0.33467306  1
  Te2-  Te148  1  -0.00636008  0.83955181  0.67071118  1
  Te2-  Te149  1  0.33222078  0.16316100  0.00344128  1
  Te2-  Te150  1  0.33441613  0.16675829  0.32921591  1
  Te2-  Te151  1  0.33245783  0.16735437  0.66458480  1
  Te2-  Te152  1  0.32338592  0.50404239  0.00843027  1
  Te2-  Te153  1  0.33380071  0.50173668  0.33239535  1
  Te2-  Te154  1  0.33655505  0.50797283  0.66528223  1
  Te2-  Te155  1  0.32779610  0.83330086  0.00176695  1
  Te2-  Te156  1  0.33893178  0.83419101  0.33350996  1
  Te2-  Te157  1  0.32838219  0.82991186  0.66863855  1
  Te2-  Te158  1  0.66980272  0.16922310  -0.01055913  1
  Te2-  Te159  1  0.67066190  0.16346666  0.33800462  1
  Te2-  Te160  1  0.66469919  0.16826610  0.68306918  1
  Te2-  Te161  1  0.66559873  0.50581415  -0.00800863  1
  Te2-  Te162  1  0.66126914  0.50437039  0.33529772  1
  Te2-  Te163  1  0.67818255  0.49580340  0.66727838  1
  Te2-  Te164  1  0.66541137  0.82887539  0.00271235  1
  Te2-  Te165  1  0.66320061  0.83062166  0.33297799  1
  Te2-  Te166  1  0.67910236  0.83286820  0.66405428  1
  Te2-  Te167  1  0.00449104  -0.00447710  0.16994341  1
  Te2-  Te168  1  0.00275777  0.00866234  0.50038741  1
  Te2-  Te169  1  0.00741755  0.00415573  0.83102082  1
  Te2-  Te170  1  -0.00122147  0.33205897  0.17261058  1
  Te2-  Te171  1  0.00680451  0.33725562  0.49922136  1
  Te2-  Te172  1  -0.00316665  0.32893380  0.83037717  1
  Te2-  Te173  1  0.00034444  0.66874429  0.17477607  1
  Te2-  Te174  1  0.00824388  0.66872130  0.49860991  1
  Te2-  Te175  1  0.00404490  0.67086830  0.83227955  1
  Te2-  Te176  1  0.33509803  -0.00443956  0.16597208  1
  Te2-  Te177  1  0.33140452  -0.00283089  0.50199606  1
  Te2-  Te178  1  0.32524900  -0.00710372  0.83483071  1
  Te2-  Te179  1  0.33876417  0.33306657  0.16646040  1
  Te2-  Te180  1  0.32201920  0.33661818  0.49020810  1
  Te2-  Te181  1  0.33688139  0.34271875  0.83259879  1
  Te2-  Te182  1  0.33745692  0.66778080  0.16649764  1
  Te2-  Te183  1  0.32645889  0.66894251  0.50183249  1
  Te2-  Te184  1  0.33585255  0.66932611  0.83476809  1
  Te2-  Te185  1  0.66670525  -0.00232968  0.17096846  1
  Te2-  Te186  1  0.66799337  -0.00211474  0.49758456  1
  Te2-  Te187  1  0.65918011  -0.00227457  0.83470486  1
  Te2-  Te188  1  0.66531368  0.34743949  0.16649912  1
  Te2-  Te189  1  0.66646148  0.33636444  0.50129812  1
  Te2-  Te190  1  0.66121092  0.34292476  0.83165900  1
  Te2-  Te191  1  0.66461089  0.65427300  0.14950390  1
  Te2-  Te192  1  0.66560098  0.66602074  0.50233976  1
  Te2-  Te193  1  0.66119186  0.65966847  0.84345461  1
  Pb2+  Pb194  1  0.17074768  0.33123154  0.16687129  1
  Pb2+  Pb195  1  0.49998006  0.16224182  -0.00447886  1
  Pb2+  Pb196  1  0.66610672  0.00002277  0.00280915  1
  Pb2+  Pb197  1  0.49447110  0.66017719  0.49796249  1
  Pb2+  Pb198  1  -0.00188566  0.16253351  0.17253714  1
  Pb2+  Pb199  1  0.49870296  0.00358544  0.49727146  1
  Pb2+  Pb200  1  0.00199263  0.50149980  0.82601888  1
  Pb2+  Pb201  1  0.83736645  0.34026758  0.50193251  1
  Pb2+  Pb202  1  0.83321046  0.50458216  0.33681018  1
  Pb2+  Pb203  1  0.66311848  0.00109729  0.66764784  1
  Pb2+  Pb204  1  0.66747458  0.17350892  0.16767306  1
  Pb2+  Pb205  1  0.82941151  0.67163944  0.16717176  1
  Pb2+  Pb206  1  0.50723486  0.50061054  0.66349130  1
  Pb2+  Pb207  1  0.16836919  0.33571543  0.83024093  1
  Pb2+  Pb208  1  0.67286237  0.66524170  0.67240284  1
  Pb2+  Pb209  1  0.33102940  0.33247080  0.65941721  1
  Pb2+  Pb210  1  0.16867210  0.66783486  0.16671352  1
  Pb2+  Pb211  1  0.83706691  -0.00891963  0.49943702  1
  Pb2+  Pb212  1  -0.00127797  0.50042817  0.17028450  1
  Pb2+  Pb213  1  0.49623130  0.50908115  0.00214901  1
  Pb2+  Pb214  1  0.66688786  0.82927534  0.83306502  1
  Pb2+  Pb215  1  0.16537992  0.15750739  -0.00095097  1
