# generated using pymatgen
data_In22Ag21Sn22Bi21(Te54Pb11)2
_symmetry_space_group_name_H-M   'P 1'
_cell_length_a   19.14238172
_cell_length_b   19.15016849
_cell_length_c   19.14902129
_cell_angle_alpha   89.98277715
_cell_angle_beta   90.00507138
_cell_angle_gamma   89.99908247
_symmetry_Int_Tables_number   1
_chemical_formula_structural   In22Ag21Sn22Bi21(Te54Pb11)2
_chemical_formula_sum   'In22 Ag21 Sn22 Bi21 Te108 Pb22'
_cell_volume   7019.64472441
_cell_formula_units_Z   1
loop_
 _symmetry_equiv_pos_site_id
 _symmetry_equiv_pos_as_xyz
  1  'x, y, z'
loop_
 _atom_type_symbol
 _atom_type_oxidation_number
  In3+  3.0
  Ag+  1.0
  Sn2+  2.0
  Bi3+  3.0
  Te2-  -2.0
  Pb2+  2.0
loop_
 _atom_site_type_symbol
 _atom_site_label
 _atom_site_symmetry_multiplicity
 _atom_site_fract_x
 _atom_site_fract_y
 _atom_site_fract_z
 _atom_site_occupancy
  In3+  In0  1  0.16632036  0.49838377  0.33135074  1
  In3+  In1  1  0.00234560  0.49608510  0.83137317  1
  In3+  In2  1  0.65573823  -0.01033888  -0.00376181  1
  In3+  In3  1  0.66333262  0.16533069  0.50350357  1
  In3+  In4  1  0.00130255  0.02359228  0.00968730  1
  In3+  In5  1  0.48091159  0.17223128  -0.01376107  1
  In3+  In6  1  0.65107101  0.33494826  0.33423869  1
  In3+  In7  1  0.81402059  0.00157039  0.15929000  1
  In3+  In8  1  0.17105726  0.66561728  0.82390771  1
  In3+  In9  1  0.51562628  0.49703532  0.64295238  1
  In3+  In10  1  -0.01690995  0.48792899  0.16000938  1
  In3+  In11  1  0.50302866  0.14397711  0.33886110  1
  In3+  In12  1  0.15284762  0.65647788  0.16028518  1
  In3+  In13  1  0.00077456  0.67720097  0.66115542  1
  In3+  In14  1  0.00223248  0.85245089  0.50913746  1
  In3+  In15  1  0.66862664  0.64313290  0.00074504  1
  In3+  In16  1  0.34547138  0.84737047  0.50366181  1
  In3+  In17  1  0.50605138  0.50858016  0.32825858  1
  In3+  In18  1  0.49827171  0.34367715  0.83221918  1
  In3+  In19  1  0.16495129  0.49677353  0.65533986  1
  In3+  In20  1  0.50536009  0.66395122  0.81351719  1
  In3+  In21  1  0.83081237  0.17827692  -0.01235746  1
  Ag+  Ag22  1  0.49197743  0.64583105  0.48529015  1
  Ag+  Ag23  1  0.63960904  0.80729477  0.49924418  1
  Ag+  Ag24  1  0.00063755  0.51998738  0.52036594  1
  Ag+  Ag25  1  0.83170909  0.48280084  -0.01670575  1
  Ag+  Ag26  1  0.31197023  0.35997723  0.00448088  1
  Ag+  Ag27  1  0.64816409  0.14174953  0.86191164  1
  Ag+  Ag28  1  0.68374606  0.49181654  0.19259691  1
  Ag+  Ag29  1  -0.00302101  0.17466245  0.49986526  1
  Ag+  Ag30  1  0.34830502  0.36112997  0.64016618  1
  Ag+  Ag31  1  0.64332823  0.01555229  0.63505678  1
  Ag+  Ag32  1  0.34840176  -0.00354971  -0.00262613  1
  Ag+  Ag33  1  0.18801474  0.35878453  0.13788330  1
  Ag+  Ag34  1  0.17685071  -0.03020080  0.14273353  1
  Ag+  Ag35  1  0.51724843  0.00087838  0.52890590  1
  Ag+  Ag36  1  0.46982314  0.84918393  0.36063655  1
  Ag+  Ag37  1  0.01824975  0.34851926  -0.01203067  1
  Ag+  Ag38  1  0.35684399  0.17871857  0.49016607  1
  Ag+  Ag39  1  0.19216673  0.85913639  0.65328869  1
  Ag+  Ag40  1  0.36649393  0.02799924  0.63121510  1
  Ag+  Ag41  1  0.64025884  0.48068890  0.81545257  1
  Ag+  Ag42  1  0.86288705  0.48420733  0.68967575  1
  Sn2+  Sn43  1  0.68145444  0.50464243  0.50330580  1
  Sn2+  Sn44  1  0.16957423  -0.00330690  0.83460971  1
  Sn2+  Sn45  1  0.16795197  0.16829865  0.01250086  1
  Sn2+  Sn46  1  0.82327031  0.82582441  0.66466623  1
  Sn2+  Sn47  1  0.00055280  0.33182504  0.33272165  1
  Sn2+  Sn48  1  0.33141971  0.00617349  0.33036431  1
  Sn2+  Sn49  1  0.16543826  0.16884765  0.33614544  1
  Sn2+  Sn50  1  0.16785389  0.83979786  -0.00530419  1
  Sn2+  Sn51  1  0.83804036  0.32843544  0.16361756  1
  Sn2+  Sn52  1  -0.00681203  0.17034298  0.83291457  1
  Sn2+  Sn53  1  0.67080826  -0.00436440  0.33511717  1
  Sn2+  Sn54  1  0.00336706  0.66034951  0.34189496  1
  Sn2+  Sn55  1  0.49643904  0.83232196  0.00890253  1
  Sn2+  Sn56  1  0.33318676  0.83687261  0.16771940  1
  Sn2+  Sn57  1  0.32718761  0.32759918  0.32661494  1
  Sn2+  Sn58  1  0.33021656  0.83844467  0.82958188  1
  Sn2+  Sn59  1  0.66788948  0.67286335  0.33091664  1
  Sn2+  Sn60  1  0.66476465  0.82636175  0.18098211  1
  Sn2+  Sn61  1  0.00049345  -0.00284258  0.67285509  1
  Sn2+  Sn62  1  0.17938629  0.33212556  0.83542150  1
  Sn2+  Sn63  1  -0.00392887  0.65942799  -0.00561626  1
  Sn2+  Sn64  1  0.16832116  0.83502781  0.33910126  1
  Bi3+  Bi65  1  0.33202455  0.66923030  0.66473635  1
  Bi3+  Bi66  1  0.83737389  0.49916963  0.33510411  1
  Bi3+  Bi67  1  0.83712255  0.83429551  0.33402730  1
  Bi3+  Bi68  1  0.50237506  0.66899556  0.17150746  1
  Bi3+  Bi69  1  0.16342483  0.32885304  0.50225324  1
  Bi3+  Bi70  1  0.00460409  -0.00221048  0.32907866  1
  Bi3+  Bi71  1  0.49178612  -0.00114167  0.16943142  1
  Bi3+  Bi72  1  0.00488148  0.17285317  0.16745736  1
  Bi3+  Bi73  1  0.49650051  0.33316435  0.16710604  1
  Bi3+  Bi74  1  0.00567806  0.32928079  0.67070312  1
  Bi3+  Bi75  1  0.83221213  0.16770119  0.66369053  1
  Bi3+  Bi76  1  0.16655776  0.16366382  0.67088711  1
  Bi3+  Bi77  1  0.32939427  0.16247666  0.83350130  1
  Bi3+  Bi78  1  0.50184208  0.82904013  0.66646342  1
  Bi3+  Bi79  1  0.16571933  0.00160204  0.50039601  1
  Bi3+  Bi80  1  0.83295649  0.16926245  0.33266599  1
  Bi3+  Bi81  1  0.83382961  0.66742375  0.83099846  1
  Bi3+  Bi82  1  0.50624190  0.49837893  0.00365363  1
  Bi3+  Bi83  1  0.66382453  0.33195599  0.00046074  1
  Bi3+  Bi84  1  0.66697401  0.66726163  0.66748208  1
  Bi3+  Bi85  1  0.00377243  0.83146098  0.83457408  1
  Te2-  Te86  1  0.16408623  0.17443557  0.17351757  1
  Te2-  Te87  1  0.15479695  0.16554011  0.50528366  1
  Te2-  Te88  1  0.16298657  0.16641273  0.83560319  1
  Te2-  Te89  1  0.16926077  0.50094176  0.17216030  1
  Te2-  Te90  1  0.15081093  0.49542181  0.49617162  1
  Te2-  Te91  1  0.15902031  0.50449574  0.83536943  1
  Te2-  Te92  1  0.17333747  0.82442631  0.16730919  1
  Te2-  Te93  1  0.15641690  0.83550744  0.51064320  1
  Te2-  Te94  1  0.16391762  0.82389425  0.82502778  1
  Te2-  Te95  1  0.50052213  0.16761365  0.18247116  1
  Te2-  Te96  1  0.50154276  0.15326225  0.49568709  1
  Te2-  Te97  1  0.50577089  0.16926094  0.83518513  1
  Te2-  Te98  1  0.50904471  0.50113087  0.16873656  1
  Te2-  Te99  1  0.49915245  0.49717457  0.49311599  1
  Te2-  Te100  1  0.49761841  0.50260160  0.84198936  1
  Te2-  Te101  1  0.50244807  0.83321065  0.17084852  1
  Te2-  Te102  1  0.49952510  0.85150323  0.50404344  1
  Te2-  Te103  1  0.49676080  0.82486478  0.83437428  1
  Te2-  Te104  1  0.83847809  0.15987749  0.17059557  1
  Te2-  Te105  1  0.83945042  0.16767010  0.49800180  1
  Te2-  Te106  1  0.82654642  0.17224740  0.82968728  1
  Te2-  Te107  1  0.82870843  0.49840208  0.17236476  1
  Te2-  Te108  1  0.84959643  0.50158211  0.49353175  1
  Te2-  Te109  1  0.84703304  0.50690129  0.83460511  1
  Te2-  Te110  1  0.83283516  0.84087692  0.17023029  1
  Te2-  Te111  1  0.84581735  0.83374470  0.49780128  1
  Te2-  Te112  1  0.83700454  0.83198883  0.83065792  1
  Te2-  Te113  1  0.15293727  -0.00082401  0.00063798  1
  Te2-  Te114  1  0.16550691  0.00133065  0.33682747  1
  Te2-  Te115  1  0.16096678  0.00109271  0.66615218  1
  Te2-  Te116  1  0.16359781  0.33161389  -0.00361428  1
  Te2-  Te117  1  0.16594206  0.33645396  0.33803121  1
  Te2-  Te118  1  0.16799209  0.33079157  0.66939581  1
  Te2-  Te119  1  0.16591090  0.66819880  0.00575480  1
  Te2-  Te120  1  0.16252726  0.66189358  0.32774023  1
  Te2-  Te121  1  0.16492712  0.65794577  0.66896225  1
  Te2-  Te122  1  0.49881006  0.00602766  0.00925921  1
  Te2-  Te123  1  0.49991229  -0.01004728  0.32723912  1
  Te2-  Te124  1  0.50283823  -0.00623038  0.67642263  1
  Te2-  Te125  1  0.50260705  0.33115578  0.00621631  1
  Te2-  Te126  1  0.49649446  0.34378873  0.32842622  1
  Te2-  Te127  1  0.49017735  0.34216282  0.67244973  1
  Te2-  Te128  1  0.50855351  0.66456378  0.00733756  1
  Te2-  Te129  1  0.50495642  0.66440054  0.33709443  1
  Te2-  Te130  1  0.49908464  0.66333221  0.65591612  1
  Te2-  Te131  1  0.84744168  0.00447534  0.00767084  1
  Te2-  Te132  1  0.83948501  0.00183122  0.32424149  1
  Te2-  Te133  1  0.84038243  0.00213720  0.66596081  1
  Te2-  Te134  1  0.82658655  0.33614237  0.00455896  1
  Te2-  Te135  1  0.83374829  0.33216555  0.32933337  1
  Te2-  Te136  1  0.83706888  0.33880131  0.66751895  1
  Te2-  Te137  1  0.82573072  0.66397752  -0.00478730  1
  Te2-  Te138  1  0.83586930  0.66790462  0.33194717  1
  Te2-  Te139  1  0.83172418  0.65828432  0.66832204  1
  Te2-  Te140  1  -0.00838696  0.17782045  0.00112144  1
  Te2-  Te141  1  -0.00374285  0.16373973  0.33200508  1
  Te2-  Te142  1  -0.00343057  0.16636482  0.67225542  1
  Te2-  Te143  1  -0.01379687  0.49424087  0.00636933  1
  Te2-  Te144  1  0.00110652  0.49714248  0.31745020  1
  Te2-  Te145  1  0.00812400  0.49234507  0.66770164  1
  Te2-  Te146  1  0.00202075  0.82091995  -0.00321242  1
  Te2-  Te147  1  0.00106101  0.83332806  0.33349883  1
  Te2-  Te148  1  -0.00450521  0.82956446  0.66969921  1
  Te2-  Te149  1  0.33210782  0.15048877  -0.00166534  1
  Te2-  Te150  1  0.33824224  0.16709888  0.34336206  1
  Te2-  Te151  1  0.32796268  0.16268316  0.67411213  1
  Te2-  Te152  1  0.33735298  0.50625289  -0.00086277  1
  Te2-  Te153  1  0.32673774  0.49593577  0.33585530  1
  Te2-  Te154  1  0.32245926  0.50336852  0.66811141  1
  Te2-  Te155  1  0.33399674  0.84509883  -0.00310412  1
  Te2-  Te156  1  0.32610347  0.83425972  0.34130647  1
  Te2-  Te157  1  0.33602654  0.83125498  0.66177858  1
  Te2-  Te158  1  0.67882969  0.16610672  0.00327998  1
  Te2-  Te159  1  0.66879506  0.17270271  0.33904427  1
  Te2-  Te160  1  0.67073890  0.15912012  0.65833534  1
  Te2-  Te161  1  0.67204665  0.49320890  -0.00729939  1
  Te2-  Te162  1  0.67077268  0.50031606  0.33947407  1
  Te2-  Te163  1  0.66331634  0.50135669  0.67029005  1
  Te2-  Te164  1  0.66438666  0.83988619  0.00514027  1
  Te2-  Te165  1  0.67632585  0.83119051  0.34792526  1
  Te2-  Te166  1  0.66612531  0.83040490  0.65273714  1
  Te2-  Te167  1  0.02035019  0.00447422  0.16514775  1
  Te2-  Te168  1  0.00142349  0.00616907  0.49555284  1
  Te2-  Te169  1  0.00366977  -0.00454513  0.84169888  1
  Te2-  Te170  1  0.00219009  0.33446051  0.16345866  1
  Te2-  Te171  1  0.00419109  0.32334064  0.50430718  1
  Te2-  Te172  1  0.00383885  0.33788858  0.83823656  1
  Te2-  Te173  1  0.00252878  0.66250649  0.16520053  1
  Te2-  Te174  1  0.00200726  0.66601683  0.50608557  1
  Te2-  Te175  1  0.00099681  0.66446196  0.82807831  1
  Te2-  Te176  1  0.32642739  -0.00278862  0.16054378  1
  Te2-  Te177  1  0.32575200  -0.00167668  0.49515116  1
  Te2-  Te178  1  0.32920158  -0.00003326  0.84297825  1
  Te2-  Te179  1  0.33218186  0.33153023  0.15599266  1
  Te2-  Te180  1  0.32823543  0.32377406  0.50033129  1
  Te2-  Te181  1  0.34111929  0.32251449  0.85512546  1
  Te2-  Te182  1  0.34104241  0.67018776  0.16733313  1
  Te2-  Te183  1  0.34116257  0.66536428  0.50326002  1
  Te2-  Te184  1  0.32824327  0.66857311  0.82812736  1
  Te2-  Te185  1  0.65954605  0.00064981  0.16574985  1
  Te2-  Te186  1  0.66266273  0.00859279  0.49019115  1
  Te2-  Te187  1  0.66981629  -0.00190163  0.84416463  1
  Te2-  Te188  1  0.66218921  0.34398800  0.17105238  1
  Te2-  Te189  1  0.66277154  0.33348581  0.49684044  1
  Te2-  Te190  1  0.65607753  0.33614528  0.83498532  1
  Te2-  Te191  1  0.66421047  0.66351275  0.16258905  1
  Te2-  Te192  1  0.65484980  0.66098922  0.50329215  1
  Te2-  Te193  1  0.66763861  0.66482185  0.83117428  1
  Pb2+  Pb194  1  0.83363377  0.66705514  0.16313826  1
  Pb2+  Pb195  1  0.17171023  0.66789432  0.49916454  1
  Pb2+  Pb196  1  0.66358863  0.32773143  0.66776247  1
  Pb2+  Pb197  1  0.33429361  0.66598254  0.33467869  1
  Pb2+  Pb198  1  0.32902710  0.49163770  0.83386103  1
  Pb2+  Pb199  1  0.82974601  0.34049188  0.83552673  1
  Pb2+  Pb200  1  0.00692418  0.83739309  0.16380855  1
  Pb2+  Pb201  1  0.83451565  0.33536197  0.49861614  1
  Pb2+  Pb202  1  0.49677415  -0.00288779  0.84135700  1
  Pb2+  Pb203  1  0.49556614  0.16681936  0.66690859  1
  Pb2+  Pb204  1  0.66390783  0.83140710  0.82944128  1
  Pb2+  Pb205  1  0.82646021  0.66723808  0.50075072  1
  Pb2+  Pb206  1  0.66805688  0.17698013  0.16828326  1
  Pb2+  Pb207  1  0.49646716  0.32488493  0.49738777  1
  Pb2+  Pb208  1  0.32455168  0.49426107  0.50107661  1
  Pb2+  Pb209  1  0.33658399  0.67754869  -0.00046814  1
  Pb2+  Pb210  1  0.83215280  0.83351562  -0.00002575  1
  Pb2+  Pb211  1  0.33970783  0.50016857  0.16814804  1
  Pb2+  Pb212  1  0.83659845  0.00559511  0.83402759  1
  Pb2+  Pb213  1  0.33061052  0.16520321  0.17138618  1
  Pb2+  Pb214  1  0.15835205  0.50111849  0.00258245  1
  Pb2+  Pb215  1  0.82852193  0.00032928  0.49880355  1
