# generated using pymatgen
data_In22Ag21Sn22Bi21(Te54Pb11)2
_symmetry_space_group_name_H-M   'P 1'
_cell_length_a   19.12135955
_cell_length_b   19.12306750
_cell_length_c   19.11851429
_cell_angle_alpha   90.00429869
_cell_angle_beta   90.00347878
_cell_angle_gamma   89.99235367
_symmetry_Int_Tables_number   1
_chemical_formula_structural   In22Ag21Sn22Bi21(Te54Pb11)2
_chemical_formula_sum   'In22 Ag21 Sn22 Bi21 Te108 Pb22'
_cell_volume   6990.85766302
_cell_formula_units_Z   1
loop_
 _symmetry_equiv_pos_site_id
 _symmetry_equiv_pos_as_xyz
  1  'x, y, z'
loop_
 _atom_type_symbol
 _atom_type_oxidation_number
  In3+  3.0
  Ag+  1.0
  Sn2+  2.0
  Bi3+  3.0
  Te2-  -2.0
  Pb2+  2.0
loop_
 _atom_site_type_symbol
 _atom_site_label
 _atom_site_symmetry_multiplicity
 _atom_site_fract_x
 _atom_site_fract_y
 _atom_site_fract_z
 _atom_site_occupancy
  In3+  In0  1  0.16667425  0.49160137  0.33282668  1
  In3+  In1  1  0.01090117  0.18661735  0.50173159  1
  In3+  In2  1  -0.00211248  0.00441852  0.00667827  1
  In3+  In3  1  0.66884900  0.84225860  0.80554287  1
  In3+  In4  1  0.31772544  0.49526853  0.82085847  1
  In3+  In5  1  0.50176089  0.17158741  0.67500710  1
  In3+  In6  1  0.84503306  0.14891439  -0.00187822  1
  In3+  In7  1  0.66323101  0.32911419  -0.00747847  1
  In3+  In8  1  0.01453380  0.16934914  0.82515864  1
  In3+  In9  1  0.83505543  0.69226042  0.83328424  1
  In3+  In10  1  0.49536052  0.00504710  0.16590665  1
  In3+  In11  1  0.82955442  0.84009802  0.01521662  1
  In3+  In12  1  -0.00360555  -0.00760848  0.34575905  1
  In3+  In13  1  -0.00815254  0.85649802  0.82631614  1
  In3+  In14  1  0.83513174  0.32703691  0.83216145  1
  In3+  In15  1  0.66541640  0.17443457  0.16007163  1
  In3+  In16  1  0.17536269  0.01036039  0.13524819  1
  In3+  In17  1  0.34556297  0.82834384  0.49877298  1
  In3+  In18  1  0.66973918  0.49778224  0.17759708  1
  In3+  In19  1  0.66722323  0.16046665  0.83922865  1
  In3+  In20  1  0.49911091  0.63959478  0.83404335  1
  In3+  In21  1  0.33773289  0.82580201  0.18100384  1
  Ag+  Ag22  1  0.47631202  0.46725176  0.69538027  1
  Ag+  Ag23  1  0.85687451  0.00185415  0.82724208  1
  Ag+  Ag24  1  0.81572260  0.80919329  0.36223430  1
  Ag+  Ag25  1  0.36566893  0.47045929  0.16813249  1
  Ag+  Ag26  1  0.69833420  0.80990839  0.48913860  1
  Ag+  Ag27  1  0.84727557  0.51608373  0.35973137  1
  Ag+  Ag28  1  0.18188691  0.18297384  -0.00048186  1
  Ag+  Ag29  1  0.18384627  0.31612233  0.83893035  1
  Ag+  Ag30  1  0.00939780  0.33289622  0.68325899  1
  Ag+  Ag31  1  0.50863183  0.35574809  0.17138757  1
  Ag+  Ag32  1  0.14709831  0.79943172  0.69127740  1
  Ag+  Ag33  1  0.83479513  -0.01399026  0.19009305  1
  Ag+  Ag34  1  0.48010172  0.33188955  0.80997114  1
  Ag+  Ag35  1  0.81767201  0.64447472  0.19577672  1
  Ag+  Ag36  1  0.01429281  0.51920767  0.52484992  1
  Ag+  Ag37  1  0.85323043  0.83801024  0.67773575  1
  Ag+  Ag38  1  0.17279861  -0.01988398  0.83230858  1
  Ag+  Ag39  1  0.35328918  -0.00167000  0.01528251  1
  Ag+  Ag40  1  0.48961261  0.02171525  0.52215356  1
  Ag+  Ag41  1  0.30938777  0.65251272  0.32894380  1
  Ag+  Ag42  1  0.67317234  0.66142327  0.31189258  1
  Sn2+  Sn43  1  0.66611933  0.34084399  0.33416304  1
  Sn2+  Sn44  1  0.81956709  -0.00334758  0.50626040  1
  Sn2+  Sn45  1  0.66692031  0.50614152  0.50046163  1
  Sn2+  Sn46  1  0.16498099  0.67078351  0.83772069  1
  Sn2+  Sn47  1  0.49502648  0.83340171  -0.00821681  1
  Sn2+  Sn48  1  0.33053668  0.15898882  0.49951302  1
  Sn2+  Sn49  1  0.16714362  0.16531124  0.68050369  1
  Sn2+  Sn50  1  0.83179275  0.66545240  0.49901967  1
  Sn2+  Sn51  1  0.16734376  0.67073633  0.49917746  1
  Sn2+  Sn52  1  0.00241551  0.49702531  0.82688177  1
  Sn2+  Sn53  1  0.16343610  0.33846495  0.51453109  1
  Sn2+  Sn54  1  0.67599176  0.33751483  0.67372624  1
  Sn2+  Sn55  1  0.49193840  0.17481214  -0.00309793  1
  Sn2+  Sn56  1  0.17818093  0.48780125  0.00663517  1
  Sn2+  Sn57  1  -0.00856510  0.66137503  0.33048941  1
  Sn2+  Sn58  1  0.17636434  0.33743346  0.16095655  1
  Sn2+  Sn59  1  0.49870657  0.16489488  0.33395228  1
  Sn2+  Sn60  1  0.32990570  0.16017610  0.83805240  1
  Sn2+  Sn61  1  0.49302120  0.49230110  -0.00377741  1
  Sn2+  Sn62  1  0.16746575  0.83949913  -0.00346639  1
  Sn2+  Sn63  1  0.33840097  0.16479211  0.15727190  1
  Sn2+  Sn64  1  0.16364191  0.49330092  0.66373880  1
  Bi3+  Bi65  1  0.49790486  0.83336062  0.66543302  1
  Bi3+  Bi66  1  0.50379062  0.50423912  0.33549996  1
  Bi3+  Bi67  1  0.66790750  0.66611158  -0.00248393  1
  Bi3+  Bi68  1  0.15827077  0.67202550  0.16657777  1
  Bi3+  Bi69  1  -0.00151639  0.66946423  -0.00251928  1
  Bi3+  Bi70  1  0.15971134  0.83461394  0.32973278  1
  Bi3+  Bi71  1  0.83185690  0.50070000  -0.00414182  1
  Bi3+  Bi72  1  0.66888487  0.49885559  0.83368344  1
  Bi3+  Bi73  1  -0.00333477  0.50244397  0.16284846  1
  Bi3+  Bi74  1  0.50746472  0.83253583  0.33334493  1
  Bi3+  Bi75  1  -0.00128560  0.83554871  0.15876143  1
  Bi3+  Bi76  1  0.50087211  0.66886855  0.50067918  1
  Bi3+  Bi77  1  0.33058500  0.00163820  0.66957709  1
  Bi3+  Bi78  1  -0.00418925  0.33501079  0.32813267  1
  Bi3+  Bi79  1  0.66621840  0.66968480  0.66683973  1
  Bi3+  Bi80  1  0.33610068  0.83165639  0.83256921  1
  Bi3+  Bi81  1  0.66974051  0.83770941  0.17086748  1
  Bi3+  Bi82  1  0.67132504  -0.00139648  0.33374483  1
  Bi3+  Bi83  1  0.66518561  0.00122052  0.66254036  1
  Bi3+  Bi84  1  0.00283920  0.82831363  0.49756682  1
  Bi3+  Bi85  1  0.66713085  0.16720657  0.49685855  1
  Te2-  Te86  1  0.16576496  0.16134355  0.15290079  1
  Te2-  Te87  1  0.16645130  0.16891971  0.50226567  1
  Te2-  Te88  1  0.16516590  0.17154705  0.84177589  1
  Te2-  Te89  1  0.16003907  0.50559809  0.17225334  1
  Te2-  Te90  1  0.15763249  0.50455404  0.48907390  1
  Te2-  Te91  1  0.16976869  0.50563188  0.83801025  1
  Te2-  Te92  1  0.16161743  0.83973486  0.16480274  1
  Te2-  Te93  1  0.16524509  0.83202686  0.49265993  1
  Te2-  Te94  1  0.17051828  0.82985415  0.83282863  1
  Te2-  Te95  1  0.50473185  0.15778547  0.16563610  1
  Te2-  Te96  1  0.50064421  0.16636091  0.49655505  1
  Te2-  Te97  1  0.50142490  0.18107766  0.83189848  1
  Te2-  Te98  1  0.51162553  0.50422974  0.16923393  1
  Te2-  Te99  1  0.49854515  0.50489778  0.49675999  1
  Te2-  Te100  1  0.50418668  0.48201739  0.83814762  1
  Te2-  Te101  1  0.49959757  0.83863440  0.16627126  1
  Te2-  Te102  1  0.49948077  0.83198887  0.49758057  1
  Te2-  Te103  1  0.49960187  0.83621156  0.83031862  1
  Te2-  Te104  1  0.82538013  0.16629951  0.15077734  1
  Te2-  Te105  1  0.83207513  0.16336739  0.50254035  1
  Te2-  Te106  1  0.82103756  0.16575732  0.84253188  1
  Te2-  Te107  1  0.82800229  0.50251282  0.15784036  1
  Te2-  Te108  1  0.83515313  0.50373387  0.50350821  1
  Te2-  Te109  1  0.83290972  0.49037936  0.83471338  1
  Te2-  Te110  1  0.83559773  0.83847604  0.16516400  1
  Te2-  Te111  1  0.84287572  0.83678559  0.50257328  1
  Te2-  Te112  1  0.83520331  0.84656347  0.82550299  1
  Te2-  Te113  1  0.15191527  -0.00250295  -0.01320866  1
  Te2-  Te114  1  0.15713588  -0.00277854  0.33360381  1
  Te2-  Te115  1  0.16942690  0.00720904  0.67690960  1
  Te2-  Te116  1  0.16832050  0.33018204  -0.00889171  1
  Te2-  Te117  1  0.16402868  0.33714467  0.32939839  1
  Te2-  Te118  1  0.15995538  0.33546013  0.67581801  1
  Te2-  Te119  1  0.16349735  0.66669868  0.00413216  1
  Te2-  Te120  1  0.16162983  0.67081986  0.32850932  1
  Te2-  Te121  1  0.16788406  0.65836811  0.66415160  1
  Te2-  Te122  1  0.50171637  0.00253668  0.00778278  1
  Te2-  Te123  1  0.50424668  -0.00597550  0.32208116  1
  Te2-  Te124  1  0.49929868  -0.00088103  0.66758447  1
  Te2-  Te125  1  0.50879162  0.33280043  0.01600491  1
  Te2-  Te126  1  0.50606884  0.33770775  0.32292446  1
  Te2-  Te127  1  0.50426794  0.32714470  0.66389116  1
  Te2-  Te128  1  0.50432455  0.66707233  -0.00332923  1
  Te2-  Te129  1  0.51843490  0.67042240  0.33626712  1
  Te2-  Te130  1  0.50269314  0.66995983  0.66741569  1
  Te2-  Te131  1  0.83794911  -0.00380028  -0.02094087  1
  Te2-  Te132  1  0.83766297  0.00151615  0.33798578  1
  Te2-  Te133  1  0.82723545  -0.00686444  0.67480265  1
  Te2-  Te134  1  0.82377507  0.33610594  -0.00735729  1
  Te2-  Te135  1  0.82979035  0.33536920  0.32956712  1
  Te2-  Te136  1  0.83405991  0.33177883  0.67282682  1
  Te2-  Te137  1  0.83237195  0.66796609  -0.01040292  1
  Te2-  Te138  1  0.82536255  0.66402185  0.33964864  1
  Te2-  Te139  1  0.82852142  0.68316057  0.67471061  1
  Te2-  Te140  1  -0.00404620  0.16266902  -0.00536808  1
  Te2-  Te141  1  0.00026429  0.16797293  0.34056252  1
  Te2-  Te142  1  0.00199976  0.18025963  0.66305682  1
  Te2-  Te143  1  -0.00055876  0.50403119  -0.00187307  1
  Te2-  Te144  1  -0.00958521  0.49955913  0.32336506  1
  Te2-  Te145  1  0.00278274  0.48749053  0.66793585  1
  Te2-  Te146  1  -0.00621872  0.83260539  -0.01026943  1
  Te2-  Te147  1  -0.00393713  0.83460951  0.32691080  1
  Te2-  Te148  1  0.00621990  0.83493639  0.67033429  1
  Te2-  Te149  1  0.32805234  0.15136777  -0.00287082  1
  Te2-  Te150  1  0.33585435  0.16452272  0.33054928  1
  Te2-  Te151  1  0.33908972  0.16385703  0.66829151  1
  Te2-  Te152  1  0.33573033  0.50061861  0.02154351  1
  Te2-  Te153  1  0.33831961  0.50665367  0.31908272  1
  Te2-  Te154  1  0.33550345  0.50209119  0.66844188  1
  Te2-  Te155  1  0.33429965  0.84545013  -0.00560711  1
  Te2-  Te156  1  0.33314342  0.83002432  0.33537725  1
  Te2-  Te157  1  0.33071732  0.83818798  0.66482669  1
  Te2-  Te158  1  0.66157256  0.16942222  -0.00166962  1
  Te2-  Te159  1  0.66280655  0.16434170  0.33112507  1
  Te2-  Te160  1  0.65980814  0.16594269  0.66374795  1
  Te2-  Te161  1  0.66691185  0.50159002  -0.00274478  1
  Te2-  Te162  1  0.66922787  0.50688078  0.33126673  1
  Te2-  Te163  1  0.66142806  0.50421273  0.67097065  1
  Te2-  Te164  1  0.66866348  0.82938078  0.00364105  1
  Te2-  Te165  1  0.67174010  0.83494657  0.33819259  1
  Te2-  Te166  1  0.66002768  0.83656057  0.64795437  1
  Te2-  Te167  1  -0.01555633  -0.00311196  0.15776315  1
  Te2-  Te168  1  -0.00358763  -0.00584439  0.49926441  1
  Te2-  Te169  1  0.00493144  0.00938120  0.83174373  1
  Te2-  Te170  1  0.00484645  0.33500437  0.16514045  1
  Te2-  Te171  1  0.00505080  0.33830656  0.48993999  1
  Te2-  Te172  1  -0.00712909  0.32416072  0.83091868  1
  Te2-  Te173  1  -0.00761115  0.67025138  0.16105643  1
  Te2-  Te174  1  -0.00095384  0.66542608  0.49956225  1
  Te2-  Te175  1  -0.00574149  0.66506084  0.83583842  1
  Te2-  Te176  1  0.32757102  -0.00525216  0.16107033  1
  Te2-  Te177  1  0.34131244  0.00042995  0.50179717  1
  Te2-  Te178  1  0.32343822  -0.00257221  0.83156931  1
  Te2-  Te179  1  0.33464660  0.32507826  0.16445200  1
  Te2-  Te180  1  0.32880230  0.33303267  0.49813046  1
  Te2-  Te181  1  0.33059905  0.33969044  0.83394090  1
  Te2-  Te182  1  0.32437204  0.67450897  0.17588824  1
  Te2-  Te183  1  0.33542631  0.67035954  0.48616740  1
  Te2-  Te184  1  0.33710639  0.66453357  0.83686374  1
  Te2-  Te185  1  0.68272019  -0.00153866  0.17037638  1
  Te2-  Te186  1  0.65600735  0.00675372  0.49722869  1
  Te2-  Te187  1  0.66062195  0.00553834  0.82909557  1
  Te2-  Te188  1  0.65827599  0.32938675  0.16499323  1
  Te2-  Te189  1  0.66906706  0.33252797  0.50014525  1
  Te2-  Te190  1  0.66826725  0.33275424  0.83515379  1
  Te2-  Te191  1  0.67503229  0.67290458  0.16359316  1
  Te2-  Te192  1  0.66631224  0.66607977  0.50596696  1
  Te2-  Te193  1  0.66854811  0.66590089  0.83339268  1
  Pb2+  Pb194  1  0.83737924  0.33431682  0.50044070  1
  Pb2+  Pb195  1  0.83032906  0.16714398  0.33068645  1
  Pb2+  Pb196  1  -0.00167825  0.33345753  -0.00402097  1
  Pb2+  Pb197  1  0.83169908  0.16196958  0.67233913  1
  Pb2+  Pb198  1  0.32702357  0.50280909  0.49045591  1
  Pb2+  Pb199  1  0.16776046  0.16734141  0.32756667  1
  Pb2+  Pb200  1  0.32727539  0.33100369  0.66559724  1
  Pb2+  Pb201  1  0.83033041  0.50706354  0.66741972  1
  Pb2+  Pb202  1  0.33657277  0.33911248  0.33077492  1
  Pb2+  Pb203  1  0.33348338  0.67137701  0.00687200  1
  Pb2+  Pb204  1  -0.00334714  0.16259710  0.16914909  1
  Pb2+  Pb205  1  0.16776873  -0.00069843  0.50598717  1
  Pb2+  Pb206  1  0.82851392  0.33449334  0.16256908  1
  Pb2+  Pb207  1  0.33006461  -0.00318579  0.33136967  1
  Pb2+  Pb208  1  -0.00017045  0.00720266  0.66476025  1
  Pb2+  Pb209  1  -0.00220231  0.66355916  0.66858310  1
  Pb2+  Pb210  1  0.33527726  0.67149355  0.66369837  1
  Pb2+  Pb211  1  0.33920033  0.32909997  -0.00219725  1
  Pb2+  Pb212  1  0.50127491  0.33424923  0.49461040  1
  Pb2+  Pb213  1  0.50273583  0.67036305  0.16932433  1
  Pb2+  Pb214  1  0.67015481  -0.00117394  0.00246154  1
  Pb2+  Pb215  1  0.49243148  0.00816388  0.83881065  1
