# generated using pymatgen
data_In22Ag21Sn22Bi21(Te54Pb11)2
_symmetry_space_group_name_H-M   'P 1'
_cell_length_a   19.08506685
_cell_length_b   19.10168673
_cell_length_c   19.08486591
_cell_angle_alpha   89.99517304
_cell_angle_beta   90.00270707
_cell_angle_gamma   90.00403991
_symmetry_Int_Tables_number   1
_chemical_formula_structural   In22Ag21Sn22Bi21(Te54Pb11)2
_chemical_formula_sum   'In22 Ag21 Sn22 Bi21 Te108 Pb22'
_cell_volume   6957.52080271
_cell_formula_units_Z   1
loop_
 _symmetry_equiv_pos_site_id
 _symmetry_equiv_pos_as_xyz
  1  'x, y, z'
loop_
 _atom_type_symbol
 _atom_type_oxidation_number
  In3+  3.0
  Ag+  1.0
  Sn2+  2.0
  Bi3+  3.0
  Te2-  -2.0
  Pb2+  2.0
loop_
 _atom_site_type_symbol
 _atom_site_label
 _atom_site_symmetry_multiplicity
 _atom_site_fract_x
 _atom_site_fract_y
 _atom_site_fract_z
 _atom_site_occupancy
  In3+  In0  1  0.66498996  0.16841679  0.49430369  1
  In3+  In1  1  0.48652962  0.83460625  0.33661872  1
  In3+  In2  1  0.16647597  0.67362592  0.83524386  1
  In3+  In3  1  0.50822856  0.34307119  0.16402625  1
  In3+  In4  1  0.31928955  0.66699233  0.00022377  1
  In3+  In5  1  0.16759907  0.16560861  0.00090760  1
  In3+  In6  1  0.31856007  -0.00013112  0.00074568  1
  In3+  In7  1  0.66159186  0.00229380  0.65469203  1
  In3+  In8  1  0.84860655  0.16287452  0.66615816  1
  In3+  In9  1  0.32851277  0.15291544  0.83193899  1
  In3+  In10  1  0.16952641  0.49959631  -0.00488825  1
  In3+  In11  1  0.84819303  -0.01799714  0.16630655  1
  In3+  In12  1  0.16311579  0.17458180  0.33332799  1
  In3+  In13  1  0.49807140  -0.00047408  0.15767738  1
  In3+  In14  1  0.82288676  0.51076641  0.00619949  1
  In3+  In15  1  0.84372593  0.17037077  0.00955403  1
  In3+  In16  1  0.32578130  0.67337770  0.67513213  1
  In3+  In17  1  0.00002852  -0.02026095  0.30714695  1
  In3+  In18  1  0.82932757  0.32008097  0.16673796  1
  In3+  In19  1  -0.00086924  0.81739283  0.17263424  1
  In3+  In20  1  0.33101724  -0.01173488  0.64777053  1
  In3+  In21  1  0.66118178  0.64969190  0.00479673  1
  Ag+  Ag22  1  0.31556179  0.16848395  0.15428893  1
  Ag+  Ag23  1  0.47978675  0.50300842  -0.00233759  1
  Ag+  Ag24  1  0.82717507  0.65810974  0.15558835  1
  Ag+  Ag25  1  0.68990129  0.33654067  0.35541848  1
  Ag+  Ag26  1  0.81020464  0.83364979  0.32888466  1
  Ag+  Ag27  1  0.15810100  0.81827962  0.64467875  1
  Ag+  Ag28  1  -0.02005587  0.64542570  0.02689842  1
  Ag+  Ag29  1  -0.00617904  -0.02213722  0.00548684  1
  Ag+  Ag30  1  0.49941723  -0.02059522  0.50027210  1
  Ag+  Ag31  1  -0.01681798  0.68502045  0.32327823  1
  Ag+  Ag32  1  0.31893791  0.83849163  0.52353233  1
  Ag+  Ag33  1  0.68903010  0.34774410  -0.00255788  1
  Ag+  Ag34  1  0.15621052  0.52544628  0.30118732  1
  Ag+  Ag35  1  0.01398897  0.16023065  0.16663455  1
  Ag+  Ag36  1  0.66903563  0.63786306  0.63907268  1
  Ag+  Ag37  1  0.33319581  0.30325858  0.69050438  1
  Ag+  Ag38  1  0.66588312  0.52405794  0.83496389  1
  Ag+  Ag39  1  0.33045014  0.83559175  0.82114793  1
  Ag+  Ag40  1  0.19514714  0.18155080  0.64360077  1
  Ag+  Ag41  1  0.17111040  0.84496143  0.35074596  1
  Ag+  Ag42  1  0.19295138  0.52517760  0.67371860  1
  Sn2+  Sn43  1  0.17065915  0.00186518  0.17145521  1
  Sn2+  Sn44  1  0.17052981  0.34065789  0.51114570  1
  Sn2+  Sn45  1  -0.00392153  0.49578380  0.17098623  1
  Sn2+  Sn46  1  0.49528658  0.49851647  0.33150566  1
  Sn2+  Sn47  1  -0.00449488  0.50264582  0.83477037  1
  Sn2+  Sn48  1  0.65858761  0.82994607  0.82801894  1
  Sn2+  Sn49  1  0.49574675  0.67236437  0.50707774  1
  Sn2+  Sn50  1  0.49717701  0.16191139  0.33002064  1
  Sn2+  Sn51  1  0.00434396  0.16072030  0.49194593  1
  Sn2+  Sn52  1  0.50276197  0.50493057  0.67888536  1
  Sn2+  Sn53  1  0.84005872  0.51188702  0.32884280  1
  Sn2+  Sn54  1  0.50464315  0.66947674  0.16531952  1
  Sn2+  Sn55  1  0.83120764  0.00138585  0.83756232  1
  Sn2+  Sn56  1  -0.01155697  0.66451278  0.65988110  1
  Sn2+  Sn57  1  0.49631694  0.17206017  0.66406220  1
  Sn2+  Sn58  1  0.50504188  0.17382175  0.00453345  1
  Sn2+  Sn59  1  0.82656689  0.33506708  0.83270525  1
  Sn2+  Sn60  1  0.32547651  0.83831799  0.16830066  1
  Sn2+  Sn61  1  0.66398576  0.01142876  0.33377822  1
  Sn2+  Sn62  1  0.16275559  0.66853875  0.17374779  1
  Sn2+  Sn63  1  0.66683798  0.83392570  0.49404251  1
  Sn2+  Sn64  1  0.66920266  0.49199933  0.16741014  1
  Bi3+  Bi65  1  0.67089746  0.00268481  0.00461759  1
  Bi3+  Bi66  1  0.49572333  0.33639616  0.49683678  1
  Bi3+  Bi67  1  0.83491248  0.66688455  0.49562888  1
  Bi3+  Bi68  1  0.16751951  0.33835710  0.83142588  1
  Bi3+  Bi69  1  0.00558610  0.83403631  0.83666777  1
  Bi3+  Bi70  1  0.66257409  0.16133314  0.83742661  1
  Bi3+  Bi71  1  -0.00217998  0.34124493  0.00155574  1
  Bi3+  Bi72  1  0.33384587  0.33132655  0.33120123  1
  Bi3+  Bi73  1  0.49910318  0.83228321  0.66464377  1
  Bi3+  Bi74  1  0.33354008  0.51043775  0.49832800  1
  Bi3+  Bi75  1  0.82955836  0.49826695  0.67177839  1
  Bi3+  Bi76  1  0.00433259  0.83572968  0.49915994  1
  Bi3+  Bi77  1  0.33217709  0.32752529  0.00222129  1
  Bi3+  Bi78  1  0.66272336  0.16829134  0.16862074  1
  Bi3+  Bi79  1  0.33335050  -0.00050701  0.32842751  1
  Bi3+  Bi80  1  0.16717583  0.83430165  -0.00070753  1
  Bi3+  Bi81  1  0.33274507  0.66742097  0.32734054  1
  Bi3+  Bi82  1  0.50114397  0.66747175  0.83469777  1
  Bi3+  Bi83  1  0.16911153  0.66568384  0.49974796  1
  Bi3+  Bi84  1  0.16605897  -0.00201907  0.83541421  1
  Bi3+  Bi85  1  -0.00015803  0.33147025  0.33078147  1
  Te2-  Te86  1  0.16524607  0.16297288  0.16528968  1
  Te2-  Te87  1  0.16528080  0.16693217  0.49947146  1
  Te2-  Te88  1  0.17146196  0.16557402  0.84260806  1
  Te2-  Te89  1  0.16620852  0.50202812  0.15533689  1
  Te2-  Te90  1  0.17214698  0.50371580  0.52085399  1
  Te2-  Te91  1  0.16681868  0.50265028  0.82355867  1
  Te2-  Te92  1  0.15637907  0.83184539  0.15943831  1
  Te2-  Te93  1  0.17033239  0.83101852  0.49900874  1
  Te2-  Te94  1  0.17503354  0.83273572  0.83695043  1
  Te2-  Te95  1  0.50210723  0.15955848  0.16932004  1
  Te2-  Te96  1  0.50441038  0.17446068  0.49740143  1
  Te2-  Te97  1  0.49468634  0.16527627  0.83609457  1
  Te2-  Te98  1  0.50452434  0.50109721  0.16116618  1
  Te2-  Te99  1  0.49710677  0.50288386  0.49910890  1
  Te2-  Te100  1  0.50964982  0.50540293  0.84443098  1
  Te2-  Te101  1  0.49753906  0.83751390  0.17373192  1
  Te2-  Te102  1  0.49884442  0.83038802  0.49806873  1
  Te2-  Te103  1  0.48768046  0.83084449  0.83163037  1
  Te2-  Te104  1  0.82789907  0.16555180  0.16624039  1
  Te2-  Te105  1  0.82704989  0.16447468  0.50560054  1
  Te2-  Te106  1  0.82919433  0.16548910  0.82671688  1
  Te2-  Te107  1  0.83527607  0.50790841  0.16291843  1
  Te2-  Te108  1  0.83262569  0.50158269  0.50136560  1
  Te2-  Te109  1  0.82388957  0.49778852  0.83567673  1
  Te2-  Te110  1  0.84244598  0.82952390  0.17998835  1
  Te2-  Te111  1  0.83933714  0.82997806  0.48576276  1
  Te2-  Te112  1  0.83854016  0.83534904  0.82918170  1
  Te2-  Te113  1  0.16056300  0.00323719  0.00094739  1
  Te2-  Te114  1  0.16467641  -0.00606798  0.33094817  1
  Te2-  Te115  1  0.17850967  0.00324247  0.67431985  1
  Te2-  Te116  1  0.16662633  0.33360883  -0.00310013  1
  Te2-  Te117  1  0.16757752  0.33013923  0.33825333  1
  Te2-  Te118  1  0.18297810  0.32519995  0.67159854  1
  Te2-  Te119  1  0.16754204  0.66726645  -0.00428495  1
  Te2-  Te120  1  0.17281981  0.66768740  0.33571799  1
  Te2-  Te121  1  0.16785848  0.67198634  0.66734725  1
  Te2-  Te122  1  0.50514069  0.00098595  0.00314786  1
  Te2-  Te123  1  0.49584691  -0.00383120  0.34064630  1
  Te2-  Te124  1  0.49200751  -0.00417142  0.65536229  1
  Te2-  Te125  1  0.49119473  0.34241259  0.00890084  1
  Te2-  Te126  1  0.49538878  0.33578303  0.32593237  1
  Te2-  Te127  1  0.48348135  0.33550290  0.66281587  1
  Te2-  Te128  1  0.50468269  0.65648630  0.00117484  1
  Te2-  Te129  1  0.49622090  0.66790896  0.33027191  1
  Te2-  Te130  1  0.52192578  0.67093840  0.67164601  1
  Te2-  Te131  1  0.83867444  0.00565614  0.00829867  1
  Te2-  Te132  1  0.84116683  -0.01014715  0.32425463  1
  Te2-  Te133  1  0.82821255  0.00491990  0.66687103  1
  Te2-  Te134  1  0.83669145  0.33647104  0.00482554  1
  Te2-  Te135  1  0.83526014  0.33826320  0.32420240  1
  Te2-  Te136  1  0.83309021  0.32964857  0.66700504  1
  Te2-  Te137  1  0.83600873  0.66380369  0.00661206  1
  Te2-  Te138  1  0.83693882  0.67007336  0.33394178  1
  Te2-  Te139  1  0.81830737  0.66508073  0.66317182  1
  Te2-  Te140  1  -0.00236500  0.17826792  0.01244417  1
  Te2-  Te141  1  0.00640451  0.16715040  0.32437380  1
  Te2-  Te142  1  0.00055625  0.16683428  0.66639662  1
  Te2-  Te143  1  0.00818239  0.50378745  -0.00372129  1
  Te2-  Te144  1  0.01252200  0.49325876  0.33101147  1
  Te2-  Te145  1  -0.00912561  0.50292472  0.66921017  1
  Te2-  Te146  1  0.00320668  0.82807051  0.00245407  1
  Te2-  Te147  1  0.01706686  0.82828736  0.33165400  1
  Te2-  Te148  1  0.00939663  0.83331772  0.66731387  1
  Te2-  Te149  1  0.33346895  0.16274086  0.00495539  1
  Te2-  Te150  1  0.32544872  0.16488974  0.32883541  1
  Te2-  Te151  1  0.33750659  0.15565801  0.67138701  1
  Te2-  Te152  1  0.33005211  0.50128693  -0.00031987  1
  Te2-  Te153  1  0.32336222  0.50036899  0.33591228  1
  Te2-  Te154  1  0.34213214  0.51699042  0.66271474  1
  Te2-  Te155  1  0.33180530  0.83740376  0.00843781  1
  Te2-  Te156  1  0.32759307  0.83353885  0.32797782  1
  Te2-  Te157  1  0.33394074  0.83236512  0.67179089  1
  Te2-  Te158  1  0.67122742  0.16410587  0.00119354  1
  Te2-  Te159  1  0.66859909  0.18213249  0.33372978  1
  Te2-  Te160  1  0.65853371  0.15738046  0.67230624  1
  Te2-  Te161  1  0.67397558  0.49657042  -0.00733249  1
  Te2-  Te162  1  0.66731578  0.48746287  0.33064678  1
  Te2-  Te163  1  0.66740924  0.49426047  0.68007406  1
  Te2-  Te164  1  0.66822628  0.84116295  -0.00152392  1
  Te2-  Te165  1  0.66176891  0.83948521  0.33662185  1
  Te2-  Te166  1  0.66472789  0.84660917  0.66504497  1
  Te2-  Te167  1  -0.00135882  0.01097630  0.15728415  1
  Te2-  Te168  1  -0.00156019  -0.00097948  0.50074810  1
  Te2-  Te169  1  0.00032798  -0.00236076  0.84746136  1
  Te2-  Te170  1  -0.00686746  0.32783140  0.16590200  1
  Te2-  Te171  1  0.00203343  0.32801718  0.49673488  1
  Te2-  Te172  1  0.00081277  0.33430662  0.83607080  1
  Te2-  Te173  1  -0.00008997  0.66545858  0.17152654  1
  Te2-  Te174  1  0.00173206  0.67165887  0.49677032  1
  Te2-  Te175  1  0.00887765  0.67222408  0.82829697  1
  Te2-  Te176  1  0.33978867  0.01067857  0.16540128  1
  Te2-  Te177  1  0.34172174  -0.01052810  0.49305747  1
  Te2-  Te178  1  0.33069980  -0.00546557  0.84558736  1
  Te2-  Te179  1  0.33503270  0.32085137  0.16725650  1
  Te2-  Te180  1  0.33411913  0.33906325  0.49399509  1
  Te2-  Te181  1  0.32964920  0.33081646  0.83845209  1
  Te2-  Te182  1  0.33672963  0.66697989  0.16154229  1
  Te2-  Te183  1  0.33349221  0.67833399  0.49670171  1
  Te2-  Te184  1  0.33409908  0.67650652  0.83786803  1
  Te2-  Te185  1  0.66481240  0.00473647  0.17063628  1
  Te2-  Te186  1  0.65406920  0.00787953  0.49732412  1
  Te2-  Te187  1  0.66812081  -0.00228437  0.83799066  1
  Te2-  Te188  1  0.66628259  0.33002269  0.14968608  1
  Te2-  Te189  1  0.66031745  0.32806332  0.50220922  1
  Te2-  Te190  1  0.66629731  0.32229100  0.84595996  1
  Te2-  Te191  1  0.67559393  0.66673235  0.15921218  1
  Te2-  Te192  1  0.66845684  0.66948252  0.49440243  1
  Te2-  Te193  1  0.66673709  0.67266676  0.84788097  1
  Pb2+  Pb194  1  0.83643724  0.83279598  0.65924197  1
  Pb2+  Pb195  1  0.83621314  0.83381948  0.00126550  1
  Pb2+  Pb196  1  -0.00071076  0.16569034  0.84179746  1
  Pb2+  Pb197  1  0.83832788  0.16243071  0.33379712  1
  Pb2+  Pb198  1  0.33514933  0.50574239  0.83190080  1
  Pb2+  Pb199  1  0.50038662  0.82744719  0.00298505  1
  Pb2+  Pb200  1  0.16370197  0.33208984  0.16959777  1
  Pb2+  Pb201  1  0.66854304  0.83511756  0.16842485  1
  Pb2+  Pb202  1  0.00683373  0.00087469  0.67308167  1
  Pb2+  Pb203  1  0.33742741  0.49522798  0.16779408  1
  Pb2+  Pb204  1  0.83346232  0.33247820  0.49675252  1
  Pb2+  Pb205  1  0.16833123  -0.00059681  0.50198383  1
  Pb2+  Pb206  1  0.00483271  0.50142418  0.49724519  1
  Pb2+  Pb207  1  0.66404178  0.50107980  0.50219498  1
  Pb2+  Pb208  1  0.83907584  0.66513724  0.83470101  1
  Pb2+  Pb209  1  0.82696504  -0.00337399  0.49608511  1
  Pb2+  Pb210  1  0.67022389  0.65968980  0.32620111  1
  Pb2+  Pb211  1  0.33545630  0.16530152  0.49631777  1
  Pb2+  Pb212  1  0.65953271  0.32613768  0.67601273  1
  Pb2+  Pb213  1  0.01062058  0.33448774  0.66635769  1
  Pb2+  Pb214  1  0.49934973  0.33604165  0.83783173  1
  Pb2+  Pb215  1  0.49946558  -0.00215317  0.82705819  1
