# generated using pymatgen
data_In22Ag21Sn22Bi21(Te54Pb11)2
_symmetry_space_group_name_H-M   'P 1'
_cell_length_a   19.16481781
_cell_length_b   19.18068671
_cell_length_c   19.17540903
_cell_angle_alpha   89.99493482
_cell_angle_beta   89.99668220
_cell_angle_gamma   89.98910203
_symmetry_Int_Tables_number   1
_chemical_formula_structural   In22Ag21Sn22Bi21(Te54Pb11)2
_chemical_formula_sum   'In22 Ag21 Sn22 Bi21 Te108 Pb22'
_cell_volume   7048.77216537
_cell_formula_units_Z   1
loop_
 _symmetry_equiv_pos_site_id
 _symmetry_equiv_pos_as_xyz
  1  'x, y, z'
loop_
 _atom_type_symbol
 _atom_type_oxidation_number
  In3+  3.0
  Ag+  1.0
  Sn2+  2.0
  Bi3+  3.0
  Te2-  -2.0
  Pb2+  2.0
loop_
 _atom_site_type_symbol
 _atom_site_label
 _atom_site_symmetry_multiplicity
 _atom_site_fract_x
 _atom_site_fract_y
 _atom_site_fract_z
 _atom_site_occupancy
  In3+  In0  1  0.83069548  0.00565498  0.83998534  1
  In3+  In1  1  0.67357198  0.50261370  0.51015590  1
  In3+  In2  1  0.83634962  0.01483368  0.18036528  1
  In3+  In3  1  0.66970630  -0.02352282  0.66433968  1
  In3+  In4  1  0.14960307  0.64975071  0.49184281  1
  In3+  In5  1  -0.00163370  0.31914624  0.32343802  1
  In3+  In6  1  0.35237842  0.82304281  0.17309877  1
  In3+  In7  1  0.35580458  0.50655741  0.18934017  1
  In3+  In8  1  0.50623127  0.51206365  0.33267144  1
  In3+  In9  1  -0.01047611  0.66174052  0.32916289  1
  In3+  In10  1  0.50411227  0.30430111  0.15437694  1
  In3+  In11  1  0.65076549  0.82847065  0.84263839  1
  In3+  In12  1  0.00120681  0.35278612  0.66623211  1
  In3+  In13  1  0.67422021  0.83044997  0.49685692  1
  In3+  In14  1  0.81019832  0.65928604  0.18654413  1
  In3+  In15  1  0.65259639  0.34144795  0.33456950  1
  In3+  In16  1  0.32084292  0.47858685  0.83106127  1
  In3+  In17  1  -0.00583256  0.83052803  0.18379738  1
  In3+  In18  1  -0.00604087  0.01816886  0.66563614  1
  In3+  In19  1  0.47530416  0.64787675  0.83165498  1
  In3+  In20  1  0.48339452  0.33703355  0.49867434  1
  In3+  In21  1  0.16593648  0.49652879  0.65876927  1
  Ag+  Ag22  1  0.80793821  0.67648854  0.48509935  1
  Ag+  Ag23  1  0.67058785  -0.02134923  0.02385703  1
  Ag+  Ag24  1  0.66704977  0.47815463  0.16541805  1
  Ag+  Ag25  1  0.52925312  0.00639737  0.47235259  1
  Ag+  Ag26  1  0.47261437  -0.00354486  0.18311942  1
  Ag+  Ag27  1  0.52924750  0.35648498  0.79912431  1
  Ag+  Ag28  1  0.69632332  0.64912807  0.68458649  1
  Ag+  Ag29  1  0.15931541  0.30240720  0.86122089  1
  Ag+  Ag30  1  0.52375750  0.86195730  0.33043127  1
  Ag+  Ag31  1  -0.01742176  0.02998309  0.29991750  1
  Ag+  Ag32  1  0.00198086  0.18755864  0.19752190  1
  Ag+  Ag33  1  0.80547173  0.19511516  0.29987733  1
  Ag+  Ag34  1  0.35538881  0.32770695  0.30941046  1
  Ag+  Ag35  1  -0.02400907  0.50727922  0.49823460  1
  Ag+  Ag36  1  0.35477709  0.52610965  0.47163333  1
  Ag+  Ag37  1  0.69699934  0.83837003  0.19640212  1
  Ag+  Ag38  1  0.68923866  0.34088543  -0.02674320  1
  Ag+  Ag39  1  0.34037342  0.69091760  0.35632878  1
  Ag+  Ag40  1  0.80833937  0.52234420  0.67065253  1
  Ag+  Ag41  1  -0.00551564  0.19524589  0.83199368  1
  Ag+  Ag42  1  0.17152724  0.64512472  0.80312085  1
  Sn2+  Sn43  1  0.50463657  0.67968502  0.17118645  1
  Sn2+  Sn44  1  0.15602527  -0.00295235  0.83952103  1
  Sn2+  Sn45  1  0.35528997  0.00045744  0.00323052  1
  Sn2+  Sn46  1  0.00071630  0.50123970  0.82759521  1
  Sn2+  Sn47  1  0.82620579  0.50351798  -0.00645739  1
  Sn2+  Sn48  1  0.16435444  0.83827906  0.67132522  1
  Sn2+  Sn49  1  0.83310104  0.82869598  0.66731282  1
  Sn2+  Sn50  1  0.16251339  -0.00448610  0.17011943  1
  Sn2+  Sn51  1  0.32627354  0.00547723  0.33494620  1
  Sn2+  Sn52  1  0.83339593  0.83445427  -0.00374223  1
  Sn2+  Sn53  1  0.50082508  0.83424282  0.65049547  1
  Sn2+  Sn54  1  0.83218773  0.83761704  0.32585682  1
  Sn2+  Sn55  1  0.82455554  0.33936642  0.16896648  1
  Sn2+  Sn56  1  -0.00101987  0.82746843  0.50145633  1
  Sn2+  Sn57  1  0.50131195  0.00812876  0.83620032  1
  Sn2+  Sn58  1  -0.00490688  0.33011640  -0.00382608  1
  Sn2+  Sn59  1  0.67595972  0.33723059  0.66522968  1
  Sn2+  Sn60  1  0.34134898  0.82945620  0.83707295  1
  Sn2+  Sn61  1  0.65570955  0.66220066  0.33629383  1
  Sn2+  Sn62  1  0.16730582  0.16221950  0.32917980  1
  Sn2+  Sn63  1  0.50213857  0.16492132  0.33945442  1
  Sn2+  Sn64  1  -0.00357536  0.17654252  0.50880111  1
  Bi3+  Bi65  1  0.33345792  0.66579283  0.66696747  1
  Bi3+  Bi66  1  0.83163229  0.16737795  0.66583263  1
  Bi3+  Bi67  1  0.50165381  0.16188341  0.66793377  1
  Bi3+  Bi68  1  0.50513508  0.16589942  -0.00317844  1
  Bi3+  Bi69  1  0.33351459  0.33236109  0.66689188  1
  Bi3+  Bi70  1  0.00186337  0.83066037  0.83033876  1
  Bi3+  Bi71  1  0.33127019  0.33397185  0.00092418  1
  Bi3+  Bi72  1  0.16286552  0.33325326  0.50228568  1
  Bi3+  Bi73  1  0.84125808  0.66889626  0.82988669  1
  Bi3+  Bi74  1  0.33352498  0.66912055  -0.00212334  1
  Bi3+  Bi75  1  0.16503160  -0.00671908  0.49893157  1
  Bi3+  Bi76  1  0.00392349  0.66743542  0.66452968  1
  Bi3+  Bi77  1  0.33196858  0.16134510  0.83645992  1
  Bi3+  Bi78  1  0.83233978  0.16852860  -0.00140017  1
  Bi3+  Bi79  1  0.83445466  0.33344128  0.50385481  1
  Bi3+  Bi80  1  0.33290440  0.16263480  0.49710966  1
  Bi3+  Bi81  1  0.50461033  0.67155935  0.49928083  1
  Bi3+  Bi82  1  0.16609107  0.82933149  0.33601513  1
  Bi3+  Bi83  1  0.16957560  0.49997914  0.33389262  1
  Bi3+  Bi84  1  0.17131400  0.66421168  0.17366056  1
  Bi3+  Bi85  1  0.33580039  0.83485789  0.49607684  1
  Te2-  Te86  1  0.15116025  0.16334978  0.17167632  1
  Te2-  Te87  1  0.16734588  0.16302541  0.49776592  1
  Te2-  Te88  1  0.16759248  0.15806927  0.83206163  1
  Te2-  Te89  1  0.16425978  0.50201681  0.17105065  1
  Te2-  Te90  1  0.17815898  0.49760028  0.50003223  1
  Te2-  Te91  1  0.16676951  0.50126571  0.82395224  1
  Te2-  Te92  1  0.15346823  0.82802908  0.17383300  1
  Te2-  Te93  1  0.17016368  0.83021522  0.49888955  1
  Te2-  Te94  1  0.16697510  0.83757082  0.83249146  1
  Te2-  Te95  1  0.49937480  0.15115808  0.16372971  1
  Te2-  Te96  1  0.49528816  0.14934586  0.50616141  1
  Te2-  Te97  1  0.49554850  0.17269785  0.83259643  1
  Te2-  Te98  1  0.50714329  0.50697291  0.17687730  1
  Te2-  Te99  1  0.49985984  0.50246634  0.48918118  1
  Te2-  Te100  1  0.49912822  0.49473070  0.83318927  1
  Te2-  Te101  1  0.49932778  0.84757079  0.17799942  1
  Te2-  Te102  1  0.49657292  0.83194322  0.48354845  1
  Te2-  Te103  1  0.50057412  0.83914955  0.82949107  1
  Te2-  Te104  1  0.84884244  0.16811270  0.16320930  1
  Te2-  Te105  1  0.83429780  0.16882960  0.50482235  1
  Te2-  Te106  1  0.83882329  0.16606436  0.83200014  1
  Te2-  Te107  1  0.82000724  0.50785980  0.16769745  1
  Te2-  Te108  1  0.82757338  0.49691422  0.51128431  1
  Te2-  Te109  1  0.83613372  0.50527433  0.82128474  1
  Te2-  Te110  1  0.83821444  0.81292723  0.16523288  1
  Te2-  Te111  1  0.83127046  0.82296089  0.49838650  1
  Te2-  Te112  1  0.83710672  0.83103234  0.82822616  1
  Te2-  Te113  1  0.16359908  -0.00096922  0.00446633  1
  Te2-  Te114  1  0.15986545  -0.00692845  0.33592536  1
  Te2-  Te115  1  0.16282627  -0.00151272  0.66380465  1
  Te2-  Te116  1  0.16785510  0.33421748  0.00456232  1
  Te2-  Te117  1  0.15319787  0.33440871  0.34046436  1
  Te2-  Te118  1  0.16714626  0.33813088  0.66373008  1
  Te2-  Te119  1  0.17043876  0.66669093  0.00880554  1
  Te2-  Te120  1  0.19015270  0.66426189  0.33624540  1
  Te2-  Te121  1  0.16948377  0.66712355  0.65628661  1
  Te2-  Te122  1  0.52014452  0.00568262  -0.00400747  1
  Te2-  Te123  1  0.49425553  0.00617857  0.33060823  1
  Te2-  Te124  1  0.50927116  -0.00023141  0.67028135  1
  Te2-  Te125  1  0.49272457  0.32943460  0.00480068  1
  Te2-  Te126  1  0.49968042  0.32531977  0.34005727  1
  Te2-  Te127  1  0.49844795  0.32768917  0.65881968  1
  Te2-  Te128  1  0.49637822  0.66889201  -0.00620607  1
  Te2-  Te129  1  0.48681615  0.66300645  0.33504586  1
  Te2-  Te130  1  0.49515426  0.66956367  0.66686735  1
  Te2-  Te131  1  0.81884585  0.00526013  -0.00716407  1
  Te2-  Te132  1  0.84321828  -0.00516976  0.33295632  1
  Te2-  Te133  1  0.83264414  0.00299399  0.66842435  1
  Te2-  Te134  1  0.83418004  0.33425124  0.00587033  1
  Te2-  Te135  1  0.84381080  0.33047479  0.33866374  1
  Te2-  Te136  1  0.84226312  0.33141006  0.66544293  1
  Te2-  Te137  1  0.83173625  0.66299848  -0.00845431  1
  Te2-  Te138  1  0.83327366  0.66444668  0.33907133  1
  Te2-  Te139  1  0.84148712  0.66605397  0.66553895  1
  Te2-  Te140  1  -0.00684590  0.17134142  -0.01716741  1
  Te2-  Te141  1  0.00270552  0.16626889  0.34464109  1
  Te2-  Te142  1  -0.00507273  0.17008554  0.68133235  1
  Te2-  Te143  1  -0.00725051  0.49623968  0.00125146  1
  Te2-  Te144  1  0.00445058  0.51040548  0.34654910  1
  Te2-  Te145  1  0.00870593  0.50518868  0.65491837  1
  Te2-  Te146  1  -0.00419404  0.83444280  -0.00784468  1
  Te2-  Te147  1  0.00233704  0.82194038  0.34055364  1
  Te2-  Te148  1  -0.00015448  0.82964576  0.66572075  1
  Te2-  Te149  1  0.33559730  0.16743563  0.00025189  1
  Te2-  Te150  1  0.33231088  0.17587129  0.33484164  1
  Te2-  Te151  1  0.33626314  0.16671063  0.66830631  1
  Te2-  Te152  1  0.33187939  0.50111743  -0.01558592  1
  Te2-  Te153  1  0.32996356  0.47571800  0.33676998  1
  Te2-  Te154  1  0.32794096  0.49816035  0.67248188  1
  Te2-  Te155  1  0.33632423  0.83310062  0.00607857  1
  Te2-  Te156  1  0.32870067  0.83793430  0.33014927  1
  Te2-  Te157  1  0.33366565  0.82985560  0.66455227  1
  Te2-  Te158  1  0.66844050  0.18801388  -0.00090160  1
  Te2-  Te159  1  0.66796864  0.16813625  0.33461313  1
  Te2-  Te160  1  0.66612486  0.17355331  0.66839466  1
  Te2-  Te161  1  0.66788358  0.48965810  0.01005278  1
  Te2-  Te162  1  0.66066569  0.49658624  0.31980845  1
  Te2-  Te163  1  0.66206135  0.50596391  0.66355020  1
  Te2-  Te164  1  0.67108848  0.83433519  -0.00731025  1
  Te2-  Te165  1  0.66667912  0.82812173  0.34219927  1
  Te2-  Te166  1  0.66528339  0.82457201  0.64995438  1
  Te2-  Te167  1  -0.01091431  -0.01597015  0.16271615  1
  Te2-  Te168  1  0.00466264  0.00054678  0.51113839  1
  Te2-  Te169  1  -0.00691528  -0.00713733  0.82465638  1
  Te2-  Te170  1  -0.00397493  0.33408510  0.17064012  1
  Te2-  Te171  1  0.00070607  0.34265197  0.50802565  1
  Te2-  Te172  1  0.01546774  0.34127829  0.82772223  1
  Te2-  Te173  1  0.00381701  0.66794401  0.17223459  1
  Te2-  Te174  1  -0.00015015  0.65778581  0.49946047  1
  Te2-  Te175  1  0.01189192  0.66637458  0.82999933  1
  Te2-  Te176  1  0.32549554  -0.00275973  0.16453675  1
  Te2-  Te177  1  0.32956662  -0.00197990  0.50226642  1
  Te2-  Te178  1  0.33168141  -0.00102835  0.84093778  1
  Te2-  Te179  1  0.34248120  0.33911347  0.16190506  1
  Te2-  Te180  1  0.32808387  0.32420193  0.50576148  1
  Te2-  Te181  1  0.31934241  0.32456714  0.83212595  1
  Te2-  Te182  1  0.33637816  0.66329973  0.15960459  1
  Te2-  Te183  1  0.34088954  0.66892305  0.50505476  1
  Te2-  Te184  1  0.31866421  0.67099183  0.83232187  1
  Te2-  Te185  1  0.68729486  -0.01082351  0.17001131  1
  Te2-  Te186  1  0.66936643  -0.00616485  0.50733018  1
  Te2-  Te187  1  0.67206505  -0.01115720  0.81913868  1
  Te2-  Te188  1  0.65864193  0.33015432  0.18053143  1
  Te2-  Te189  1  0.67082674  0.34309284  0.49417982  1
  Te2-  Te190  1  0.67129796  0.33816882  0.82691979  1
  Te2-  Te191  1  0.66174627  0.68634098  0.16942220  1
  Te2-  Te192  1  0.66503263  0.65977551  0.49737154  1
  Te2-  Te193  1  0.67453053  0.67703693  0.82746744  1
  Pb2+  Pb194  1  -0.00816299  0.50123721  0.17480986  1
  Pb2+  Pb195  1  0.83152824  0.49568897  0.34185395  1
  Pb2+  Pb196  1  0.33834649  -0.00371890  0.67375422  1
  Pb2+  Pb197  1  0.66518024  0.66279262  0.00023039  1
  Pb2+  Pb198  1  0.66819203  0.00046573  0.33407021  1
  Pb2+  Pb199  1  0.50441767  0.83806164  0.00762999  1
  Pb2+  Pb200  1  0.66721755  0.50809869  0.83975047  1
  Pb2+  Pb201  1  0.16307463  0.16983362  0.66525127  1
  Pb2+  Pb202  1  0.84300261  0.33711907  0.83519207  1
  Pb2+  Pb203  1  0.66380589  0.17120047  0.50107103  1
  Pb2+  Pb204  1  0.16280903  0.50159673  -0.00576053  1
  Pb2+  Pb205  1  0.16092225  0.16504203  0.00052045  1
  Pb2+  Pb206  1  -0.00757687  0.00368239  -0.00450733  1
  Pb2+  Pb207  1  0.32781069  0.16337452  0.16908784  1
  Pb2+  Pb208  1  0.49888443  0.49912589  0.00761805  1
  Pb2+  Pb209  1  0.49429795  0.50181829  0.65970366  1
  Pb2+  Pb210  1  0.17130084  0.33333523  0.17459904  1
  Pb2+  Pb211  1  -0.00145069  0.66539360  0.00100395  1
  Pb2+  Pb212  1  0.83835907  -0.00742203  0.50065662  1
  Pb2+  Pb213  1  0.67236329  0.15847871  0.16263843  1
  Pb2+  Pb214  1  0.16634281  0.83349001  0.00285756  1
  Pb2+  Pb215  1  0.66724275  0.16094746  0.83558863  1
