# generated using pymatgen
data_In22Ag21Sn22Bi21(Te54Pb11)2
_symmetry_space_group_name_H-M   'P 1'
_cell_length_a   19.15017146
_cell_length_b   19.12907839
_cell_length_c   19.12608451
_cell_angle_alpha   89.99447256
_cell_angle_beta   90.00511839
_cell_angle_gamma   90.01044230
_symmetry_Int_Tables_number   1
_chemical_formula_structural   In22Ag21Sn22Bi21(Te54Pb11)2
_chemical_formula_sum   'In22 Ag21 Sn22 Bi21 Te108 Pb22'
_cell_volume   7006.36523661
_cell_formula_units_Z   1
loop_
 _symmetry_equiv_pos_site_id
 _symmetry_equiv_pos_as_xyz
  1  'x, y, z'
loop_
 _atom_type_symbol
 _atom_type_oxidation_number
  In3+  3.0
  Ag+  1.0
  Sn2+  2.0
  Bi3+  3.0
  Te2-  -2.0
  Pb2+  2.0
loop_
 _atom_site_type_symbol
 _atom_site_label
 _atom_site_symmetry_multiplicity
 _atom_site_fract_x
 _atom_site_fract_y
 _atom_site_fract_z
 _atom_site_occupancy
  In3+  In0  1  -0.00364590  0.66999212  0.65296829  1
  In3+  In1  1  0.17630448  0.17508658  0.33614816  1
  In3+  In2  1  0.67876683  0.68110390  0.33438362  1
  In3+  In3  1  0.35298473  0.66836028  0.01161124  1
  In3+  In4  1  0.81256469  0.00440213  0.83907387  1
  In3+  In5  1  0.49916821  -0.00181994  0.15501718  1
  In3+  In6  1  0.16434578  0.33253095  0.80611012  1
  In3+  In7  1  0.33288375  0.01624830  0.00958036  1
  In3+  In8  1  0.33427536  0.49167851  0.84426496  1
  In3+  In9  1  0.17239765  0.00096215  0.82955565  1
  In3+  In10  1  0.33646255  0.47472764  0.15864739  1
  In3+  In11  1  0.16776414  0.84385983  0.33917102  1
  In3+  In12  1  0.16590125  0.33523190  0.15898323  1
  In3+  In13  1  0.52274377  0.66391514  0.48933503  1
  In3+  In14  1  0.63939502  0.33704675  0.00055011  1
  In3+  In15  1  0.66600401  0.82553801  0.84652850  1
  In3+  In16  1  0.65565871  0.17085067  0.83124762  1
  In3+  In17  1  0.16727218  0.83572752  0.66076100  1
  In3+  In18  1  0.85614996  0.32755869  0.84163859  1
  In3+  In19  1  0.16875392  0.67660841  0.83315124  1
  In3+  In20  1  0.00048757  0.49102509  0.48788342  1
  In3+  In21  1  0.31503592  0.17422109  0.82290998  1
  Ag+  Ag22  1  0.15774753  0.18793348  0.69073346  1
  Ag+  Ag23  1  0.64206558  0.85961191  0.49527879  1
  Ag+  Ag24  1  0.81068850  0.63619143  0.17532215  1
  Ag+  Ag25  1  0.85779530  -0.00053519  0.15851743  1
  Ag+  Ag26  1  0.53217561  -0.03448626  0.49866784  1
  Ag+  Ag27  1  0.33588386  0.30740738  0.64552100  1
  Ag+  Ag28  1  -0.00108337  0.84572608  0.47686338  1
  Ag+  Ag29  1  -0.02413881  0.30957909  0.66761225  1
  Ag+  Ag30  1  0.64747205  0.16664871  0.15131182  1
  Ag+  Ag31  1  0.18805649  0.30812080  0.50370410  1
  Ag+  Ag32  1  -0.02627552  0.49992281  0.18726403  1
  Ag+  Ag33  1  -0.01435208  0.14346597  0.83751671  1
  Ag+  Ag34  1  0.35225401  0.85116867  0.49774211  1
  Ag+  Ag35  1  0.49990497  0.49980916  0.01860740  1
  Ag+  Ag36  1  0.63824828  0.48046378  0.48417703  1
  Ag+  Ag37  1  0.47276689  0.02445671  0.85173530  1
  Ag+  Ag38  1  0.47261511  0.85441853  0.02314853  1
  Ag+  Ag39  1  0.33482631  0.31572438  -0.01978983  1
  Ag+  Ag40  1  0.34962372  0.16564957  0.15881084  1
  Ag+  Ag41  1  0.81264851  0.81835074  0.34627848  1
  Ag+  Ag42  1  0.52065280  0.52376377  0.31091722  1
  Sn2+  Sn43  1  0.16770757  0.17212789  0.00530499  1
  Sn2+  Sn44  1  -0.00226245  0.83887593  0.82717875  1
  Sn2+  Sn45  1  -0.00258221  0.67639424  0.32872467  1
  Sn2+  Sn46  1  0.16390262  0.48727290  0.66806397  1
  Sn2+  Sn47  1  -0.00941875  0.82068811  0.16595574  1
  Sn2+  Sn48  1  0.66314351  0.49170506  0.17531649  1
  Sn2+  Sn49  1  0.84885322  0.16577798  0.67324630  1
  Sn2+  Sn50  1  0.66506043  0.33696683  0.32376246  1
  Sn2+  Sn51  1  0.16076403  0.66525768  0.16429492  1
  Sn2+  Sn52  1  0.32805319  0.50596739  0.50384948  1
  Sn2+  Sn53  1  0.83558877  0.49462631  0.66822694  1
  Sn2+  Sn54  1  0.83545612  -0.00979404  0.48929824  1
  Sn2+  Sn55  1  0.00161105  0.00506876  0.66718828  1
  Sn2+  Sn56  1  0.49975189  0.32894499  0.17170984  1
  Sn2+  Sn57  1  0.00326844  0.33168906  0.34356248  1
  Sn2+  Sn58  1  0.50090744  0.15950066  0.66346771  1
  Sn2+  Sn59  1  0.50074121  0.34244903  0.49927722  1
  Sn2+  Sn60  1  0.82949346  0.16992538  0.00227978  1
  Sn2+  Sn61  1  0.17132606  0.49692933  0.00151682  1
  Sn2+  Sn62  1  0.83549636  0.31707337  0.16538054  1
  Sn2+  Sn63  1  0.66771768  0.00524064  0.32584518  1
  Sn2+  Sn64  1  0.34308931  0.00114887  0.34024615  1
  Bi3+  Bi65  1  0.83271562  0.16372304  0.33274511  1
  Bi3+  Bi66  1  0.33409098  0.33638362  0.33719343  1
  Bi3+  Bi67  1  0.00056940  0.17545173  0.15999399  1
  Bi3+  Bi68  1  -0.00098403  0.00222115  0.33163301  1
  Bi3+  Bi69  1  0.16296686  -0.00358224  0.50265295  1
  Bi3+  Bi70  1  0.00144312  0.66430602  0.00185163  1
  Bi3+  Bi71  1  0.66725204  0.00010402  0.66475947  1
  Bi3+  Bi72  1  0.33723482  -0.00375232  0.66652591  1
  Bi3+  Bi73  1  0.00508488  0.50419939  0.83355883  1
  Bi3+  Bi74  1  0.32921265  0.66553189  0.66682593  1
  Bi3+  Bi75  1  0.66827806  0.66103538  0.00426972  1
  Bi3+  Bi76  1  0.49499214  0.49788663  0.66498010  1
  Bi3+  Bi77  1  0.83635024  0.33468388  0.50237046  1
  Bi3+  Bi78  1  0.32682389  0.66482206  0.33476384  1
  Bi3+  Bi79  1  0.50428923  0.83556633  0.66968078  1
  Bi3+  Bi80  1  0.49772840  0.66783130  0.82902859  1
  Bi3+  Bi81  1  0.50263632  0.16792333  0.33608172  1
  Bi3+  Bi82  1  0.16629864  0.66716210  0.50216491  1
  Bi3+  Bi83  1  0.83178246  0.83525792  0.00291246  1
  Bi3+  Bi84  1  0.83932599  0.66866020  0.49544744  1
  Bi3+  Bi85  1  0.17081629  0.49796698  0.33541813  1
  Te2-  Te86  1  0.16043743  0.17557135  0.17568319  1
  Te2-  Te87  1  0.16542935  0.16104671  0.49123549  1
  Te2-  Te88  1  0.16636250  0.17327584  0.83699103  1
  Te2-  Te89  1  0.18007912  0.49496452  0.17267330  1
  Te2-  Te90  1  0.15819787  0.50519979  0.49945703  1
  Te2-  Te91  1  0.17140958  0.49217526  0.83565686  1
  Te2-  Te92  1  0.16201016  0.83239373  0.17086783  1
  Te2-  Te93  1  0.15136422  0.83116786  0.50259081  1
  Te2-  Te94  1  0.16840639  0.83210573  0.82792523  1
  Te2-  Te95  1  0.49897645  0.16262914  0.17300164  1
  Te2-  Te96  1  0.50048019  0.17483344  0.49953634  1
  Te2-  Te97  1  0.50262081  0.16524712  0.83350197  1
  Te2-  Te98  1  0.49271348  0.49395954  0.16969537  1
  Te2-  Te99  1  0.49655418  0.50782774  0.50363213  1
  Te2-  Te100  1  0.49216201  0.50330922  0.82892805  1
  Te2-  Te101  1  0.49967336  0.84101275  0.16597084  1
  Te2-  Te102  1  0.49729857  0.81805318  0.50461966  1
  Te2-  Te103  1  0.50718637  0.82919377  0.82966864  1
  Te2-  Te104  1  0.84180584  0.15556974  0.16790099  1
  Te2-  Te105  1  0.83594213  0.16866453  0.49936731  1
  Te2-  Te106  1  0.84145957  0.16769641  0.83481184  1
  Te2-  Te107  1  0.82872645  0.48972495  0.16912793  1
  Te2-  Te108  1  0.84229301  0.50232067  0.50357811  1
  Te2-  Te109  1  0.83744247  0.49828118  0.83165814  1
  Te2-  Te110  1  0.83714380  0.84941143  0.16289163  1
  Te2-  Te111  1  0.84791027  0.82935886  0.49002314  1
  Te2-  Te112  1  0.82859050  0.84250717  0.83526578  1
  Te2-  Te113  1  0.17847944  0.00170537  -0.00609312  1
  Te2-  Te114  1  0.16750240  0.00070966  0.33649361  1
  Te2-  Te115  1  0.17146994  -0.00542060  0.66751372  1
  Te2-  Te116  1  0.18549298  0.33594345  0.00641489  1
  Te2-  Te117  1  0.16584100  0.33424753  0.35324522  1
  Te2-  Te118  1  0.18374876  0.32871035  0.65612953  1
  Te2-  Te119  1  0.16389203  0.66188171  -0.00582359  1
  Te2-  Te120  1  0.16474103  0.66421387  0.33488743  1
  Te2-  Te121  1  0.16678662  0.66818458  0.67009411  1
  Te2-  Te122  1  0.49060292  -0.00213022  -0.00406908  1
  Te2-  Te123  1  0.50025257  0.00569521  0.35434343  1
  Te2-  Te124  1  0.50156665  -0.00226900  0.65035719  1
  Te2-  Te125  1  0.48578121  0.34467378  0.00321489  1
  Te2-  Te126  1  0.49805925  0.33136088  0.33578138  1
  Te2-  Te127  1  0.48663706  0.33229136  0.66465806  1
  Te2-  Te128  1  0.50637989  0.65640121  -0.00584909  1
  Te2-  Te129  1  0.49116132  0.66556419  0.33688117  1
  Te2-  Te130  1  0.49537498  0.66817680  0.66488486  1
  Te2-  Te131  1  0.83176675  0.00009361  -0.00106682  1
  Te2-  Te132  1  0.83641880  0.00333564  0.32546862  1
  Te2-  Te133  1  0.83313248  0.00440574  0.67473290  1
  Te2-  Te134  1  0.84385046  0.33148668  -0.00472014  1
  Te2-  Te135  1  0.83736462  0.33003842  0.33547548  1
  Te2-  Te136  1  0.82919821  0.33366315  0.66838112  1
  Te2-  Te137  1  0.83190566  0.66940248  0.00926495  1
  Te2-  Te138  1  0.83384110  0.67348590  0.32163543  1
  Te2-  Te139  1  0.83676537  0.66915301  0.66502136  1
  Te2-  Te140  1  0.00432261  0.16844154  -0.00756698  1
  Te2-  Te141  1  -0.00173492  0.16592141  0.33001372  1
  Te2-  Te142  1  0.00959037  0.16509293  0.68023136  1
  Te2-  Te143  1  0.00284294  0.50109081  -0.00337906  1
  Te2-  Te144  1  0.00466789  0.50022941  0.33162680  1
  Te2-  Te145  1  0.00231067  0.51570081  0.67376506  1
  Te2-  Te146  1  -0.00228374  0.83042077  -0.00176447  1
  Te2-  Te147  1  0.00836694  0.83977440  0.32913825  1
  Te2-  Te148  1  0.00592244  0.82940692  0.67112412  1
  Te2-  Te149  1  0.32999303  0.16943121  0.00958823  1
  Te2-  Te150  1  0.33320602  0.16961966  0.32851419  1
  Te2-  Te151  1  0.32897094  0.16042412  0.67226001  1
  Te2-  Te152  1  0.34239411  0.51428224  0.00381756  1
  Te2-  Te153  1  0.33271422  0.50017800  0.33212077  1
  Te2-  Te154  1  0.33195781  0.50456005  0.67159309  1
  Te2-  Te155  1  0.33417257  0.82024205  -0.00147568  1
  Te2-  Te156  1  0.32502245  0.83104869  0.34522316  1
  Te2-  Te157  1  0.33356863  0.83168103  0.65607303  1
  Te2-  Te158  1  0.66870172  0.17311095  0.00387190  1
  Te2-  Te159  1  0.66853730  0.17065763  0.32450817  1
  Te2-  Te160  1  0.66861815  0.16332455  0.67346225  1
  Te2-  Te161  1  0.65714544  0.49540593  0.00416233  1
  Te2-  Te162  1  0.66101165  0.49586666  0.33790264  1
  Te2-  Te163  1  0.66104296  0.50100676  0.66453857  1
  Te2-  Te164  1  0.66733231  0.82749158  0.00338565  1
  Te2-  Te165  1  0.66637083  0.83419075  0.34437248  1
  Te2-  Te166  1  0.66603361  0.83759614  0.64651878  1
  Te2-  Te167  1  0.00613014  0.00560325  0.16653805  1
  Te2-  Te168  1  0.00043662  -0.00397356  0.49924356  1
  Te2-  Te169  1  0.01609042  -0.00071306  0.83028323  1
  Te2-  Te170  1  0.00678382  0.33903862  0.16831164  1
  Te2-  Te171  1  -0.00412912  0.33919904  0.51785243  1
  Te2-  Te172  1  0.00669885  0.34072963  0.81563454  1
  Te2-  Te173  1  0.00339106  0.65048642  0.16299450  1
  Te2-  Te174  1  0.00117222  0.66669557  0.49776658  1
  Te2-  Te175  1  0.00648194  0.66865239  0.83791859  1
  Te2-  Te176  1  0.34104246  0.01028364  0.16787091  1
  Te2-  Te177  1  0.32593515  -0.00446309  0.50160015  1
  Te2-  Te178  1  0.32990699  0.00430495  0.83017598  1
  Te2-  Te179  1  0.32812383  0.32321972  0.17625614  1
  Te2-  Te180  1  0.33379487  0.33764702  0.49904940  1
  Te2-  Te181  1  0.32294413  0.33127820  0.83397301  1
  Te2-  Te182  1  0.33168256  0.67014306  0.16908199  1
  Te2-  Te183  1  0.32611603  0.66733477  0.50074306  1
  Te2-  Te184  1  0.33036512  0.66256054  0.83126415  1
  Te2-  Te185  1  0.65222768  0.01203107  0.16712010  1
  Te2-  Te186  1  0.67735645  0.00480992  0.49959073  1
  Te2-  Te187  1  0.66181259  0.00796523  0.82826970  1
  Te2-  Te188  1  0.66763114  0.32447543  0.15629935  1
  Te2-  Te189  1  0.67268752  0.33898033  0.49687225  1
  Te2-  Te190  1  0.66646291  0.32620277  0.84239696  1
  Te2-  Te191  1  0.66691669  0.66358696  0.16986285  1
  Te2-  Te192  1  0.67797754  0.66077816  0.48917825  1
  Te2-  Te193  1  0.66680537  0.66496451  0.83671131  1
  Pb2+  Pb194  1  0.33442328  0.16402096  0.49858855  1
  Pb2+  Pb195  1  0.00132174  0.00135000  -0.00138929  1
  Pb2+  Pb196  1  0.67317061  0.84028077  0.17264497  1
  Pb2+  Pb197  1  0.66499472  0.66842241  0.66108224  1
  Pb2+  Pb198  1  0.00129117  0.17005910  0.50804819  1
  Pb2+  Pb199  1  0.83154491  0.49844163  0.00223204  1
  Pb2+  Pb200  1  0.32891490  0.83713302  0.17217275  1
  Pb2+  Pb201  1  0.65794414  0.33386018  0.66731707  1
  Pb2+  Pb202  1  0.01525221  0.33448840  -0.00727695  1
  Pb2+  Pb203  1  0.49790460  0.83884928  0.33382053  1
  Pb2+  Pb204  1  0.49926644  0.17369399  0.00368036  1
  Pb2+  Pb205  1  0.66395658  0.49571292  0.83160626  1
  Pb2+  Pb206  1  0.82928624  0.50141404  0.33664489  1
  Pb2+  Pb207  1  0.83885951  0.67231716  0.83888986  1
  Pb2+  Pb208  1  0.66397321  -0.00001712  -0.00116840  1
  Pb2+  Pb209  1  0.17163592  0.00513665  0.16716044  1
  Pb2+  Pb210  1  0.50108176  0.66323909  0.16506703  1
  Pb2+  Pb211  1  0.49461993  0.33256689  0.83225930  1
  Pb2+  Pb212  1  0.66717291  0.17276879  0.49461875  1
  Pb2+  Pb213  1  0.16723281  0.82924874  0.00099868  1
  Pb2+  Pb214  1  0.83527383  0.83868343  0.65669153  1
  Pb2+  Pb215  1  0.33871779  0.83233872  0.82829215  1
