# generated using pymatgen
data_In22Ag21Sn22Bi21(Te54Pb11)2
_symmetry_space_group_name_H-M   'P 1'
_cell_length_a   19.18050657
_cell_length_b   19.16670171
_cell_length_c   19.18075774
_cell_angle_alpha   89.98191848
_cell_angle_beta   89.99311770
_cell_angle_gamma   90.00042573
_symmetry_Int_Tables_number   1
_chemical_formula_structural   In22Ag21Sn22Bi21(Te54Pb11)2
_chemical_formula_sum   'In22 Ag21 Sn22 Bi21 Te108 Pb22'
_cell_volume   7051.36494686
_cell_formula_units_Z   1
loop_
 _symmetry_equiv_pos_site_id
 _symmetry_equiv_pos_as_xyz
  1  'x, y, z'
loop_
 _atom_type_symbol
 _atom_type_oxidation_number
  In3+  3.0
  Ag+  1.0
  Sn2+  2.0
  Bi3+  3.0
  Te2-  -2.0
  Pb2+  2.0
loop_
 _atom_site_type_symbol
 _atom_site_label
 _atom_site_symmetry_multiplicity
 _atom_site_fract_x
 _atom_site_fract_y
 _atom_site_fract_z
 _atom_site_occupancy
  In3+  In0  1  0.13958612  0.66824763  0.82559772  1
  In3+  In1  1  0.83985097  0.50211073  0.32528539  1
  In3+  In2  1  0.67378435  0.49969967  0.17866020  1
  In3+  In3  1  0.67116701  0.67998950  0.32909600  1
  In3+  In4  1  0.50486821  0.00204223  0.18190486  1
  In3+  In5  1  0.82936392  0.00752138  0.83373946  1
  In3+  In6  1  0.49468648  0.81580883  0.33238559  1
  In3+  In7  1  0.86171863  0.32532090  0.17188318  1
  In3+  In8  1  0.48001628  0.16659719  0.66800612  1
  In3+  In9  1  0.50286477  -0.00598432  0.83733299  1
  In3+  In10  1  0.65713054  0.36153512  0.00418322  1
  In3+  In11  1  0.66899494  0.01232379  0.67677843  1
  In3+  In12  1  0.31050875  0.66394909  0.33494569  1
  In3+  In13  1  0.32152191  0.17747836  0.83242592  1
  In3+  In14  1  0.33806387  0.66453188  -0.01467690  1
  In3+  In15  1  0.33619309  0.52465067  0.50733676  1
  In3+  In16  1  0.67332721  0.83540508  0.51702564  1
  In3+  In17  1  0.66537339  0.66428224  0.67740708  1
  In3+  In18  1  -0.00326552  0.84237931  0.82388800  1
  In3+  In19  1  0.31194443  0.50386593  0.82518174  1
  In3+  In20  1  0.50054171  0.16328104  0.35287465  1
  In3+  In21  1  0.18700809  0.66908233  0.15035833  1
  Ag+  Ag22  1  0.36507350  0.66633446  0.68744276  1
  Ag+  Ag23  1  0.83641425  0.17336610  0.68801134  1
  Ag+  Ag24  1  0.32906338  0.18688010  0.52682686  1
  Ag+  Ag25  1  0.69804764  0.66935490  -0.02424447  1
  Ag+  Ag26  1  0.13657696  0.14160498  0.33650643  1
  Ag+  Ag27  1  -0.03048096  0.80966506  0.48720057  1
  Ag+  Ag28  1  -0.02872529  0.47470078  0.48678152  1
  Ag+  Ag29  1  0.18571383  0.18977793  -0.01752937  1
  Ag+  Ag30  1  0.81564053  0.52408534  0.66711694  1
  Ag+  Ag31  1  0.16644200  0.30706371  0.19690660  1
  Ag+  Ag32  1  0.18042472  0.30520613  0.80956471  1
  Ag+  Ag33  1  0.82906819  0.64039717  0.14561567  1
  Ag+  Ag34  1  0.83456446  0.69290390  0.81444010  1
  Ag+  Ag35  1  0.69472287  0.85473611  0.81177503  1
  Ag+  Ag36  1  0.03684918  0.30454272  0.30599506  1
  Ag+  Ag37  1  0.52301892  0.82844774  -0.02586693  1
  Ag+  Ag38  1  0.02513852  0.14698337  0.80110231  1
  Ag+  Ag39  1  0.86231484  -0.00558052  0.19829239  1
  Ag+  Ag40  1  0.17049056  0.17077947  0.68822806  1
  Ag+  Ag41  1  0.33290980  0.83512674  0.52079627  1
  Ag+  Ag42  1  0.66323055  -0.02054504  0.34800993  1
  Sn2+  Sn43  1  -0.00529233  0.33374822  0.66553555  1
  Sn2+  Sn44  1  0.32057571  0.33499736  0.00423397  1
  Sn2+  Sn45  1  0.33160519  0.49707429  0.16809681  1
  Sn2+  Sn46  1  0.82964984  0.83611838  0.32775005  1
  Sn2+  Sn47  1  0.66757227  0.17165579  0.16419848  1
  Sn2+  Sn48  1  0.66324890  -0.01677544  0.01046847  1
  Sn2+  Sn49  1  0.16111166  0.49295175  0.66430232  1
  Sn2+  Sn50  1  0.49711319  0.49755427  0.33112069  1
  Sn2+  Sn51  1  0.16462554  0.50419614  0.33577678  1
  Sn2+  Sn52  1  0.16814901  0.48753754  0.00442578  1
  Sn2+  Sn53  1  0.50116371  0.49624741  0.67126543  1
  Sn2+  Sn54  1  0.33046642  0.32616246  0.33623822  1
  Sn2+  Sn55  1  -0.00072641  0.66850233  0.00727311  1
  Sn2+  Sn56  1  -0.00709711  0.82757026  0.17329476  1
  Sn2+  Sn57  1  0.83555668  0.65703438  0.50390780  1
  Sn2+  Sn58  1  0.17285319  0.00298348  0.16197958  1
  Sn2+  Sn59  1  0.50557408  0.67276615  0.49884631  1
  Sn2+  Sn60  1  0.33879726  0.00121487  0.33864562  1
  Sn2+  Sn61  1  0.17150047  0.83914813  0.33991271  1
  Sn2+  Sn62  1  0.49849153  -0.00618516  0.49867922  1
  Sn2+  Sn63  1  0.83857111  0.83713826  0.66563384  1
  Sn2+  Sn64  1  0.49152771  0.32922063  0.83848743  1
  Bi3+  Bi65  1  0.16600413  0.33272517  0.50253864  1
  Bi3+  Bi66  1  0.33291574  0.16821316  0.16361754  1
  Bi3+  Bi67  1  0.83261608  0.16860670  0.00252908  1
  Bi3+  Bi68  1  -0.00337716  0.66572018  0.66573471  1
  Bi3+  Bi69  1  0.83817133  0.33241085  0.83514090  1
  Bi3+  Bi70  1  -0.00066912  0.00035930  0.66268175  1
  Bi3+  Bi71  1  0.01050113  0.16927489  0.50192766  1
  Bi3+  Bi72  1  0.66691339  0.83499193  0.16624365  1
  Bi3+  Bi73  1  0.17232260  0.00456587  0.49782019  1
  Bi3+  Bi74  1  0.32919737  0.83510319  0.16667944  1
  Bi3+  Bi75  1  -0.00140506  0.33360676  -0.00282015  1
  Bi3+  Bi76  1  -0.00844310  0.66812517  0.33756112  1
  Bi3+  Bi77  1  0.83274125  0.33246904  0.50090924  1
  Bi3+  Bi78  1  0.66959402  0.16627234  0.83710786  1
  Bi3+  Bi79  1  0.66873216  0.50156103  0.83475715  1
  Bi3+  Bi80  1  0.17032295  -0.00583033  0.83174946  1
  Bi3+  Bi81  1  0.33145686  0.83187876  0.83318307  1
  Bi3+  Bi82  1  0.66608494  0.33277491  0.32894857  1
  Bi3+  Bi83  1  0.82554526  0.17214324  0.33057253  1
  Bi3+  Bi84  1  -0.00274293  0.49620921  0.82549517  1
  Bi3+  Bi85  1  0.16366792  0.83036550  0.00215601  1
  Te2-  Te86  1  0.17257844  0.15918007  0.18403452  1
  Te2-  Te87  1  0.17443461  0.16767389  0.48437110  1
  Te2-  Te88  1  0.16661519  0.16035552  0.83805451  1
  Te2-  Te89  1  0.16979208  0.51818759  0.16808770  1
  Te2-  Te90  1  0.18246215  0.49885586  0.50311211  1
  Te2-  Te91  1  0.16187758  0.50840410  0.83330208  1
  Te2-  Te92  1  0.16498043  0.82798720  0.16685582  1
  Te2-  Te93  1  0.18051748  0.84021193  0.49844797  1
  Te2-  Te94  1  0.16573210  0.82951802  0.83550004  1
  Te2-  Te95  1  0.49755041  0.15988638  0.15751367  1
  Te2-  Te96  1  0.48406922  0.16478572  0.50728911  1
  Te2-  Te97  1  0.50685004  0.16144204  0.82419289  1
  Te2-  Te98  1  0.49903790  0.50111732  0.16586575  1
  Te2-  Te99  1  0.49136849  0.50261440  0.50336701  1
  Te2-  Te100  1  0.50598773  0.49686855  0.82979515  1
  Te2-  Te101  1  0.49623120  0.84149896  0.17555308  1
  Te2-  Te102  1  0.48613288  0.83282964  0.48740673  1
  Te2-  Te103  1  0.49236063  0.83856767  0.82988922  1
  Te2-  Te104  1  0.83070119  0.16570441  0.16654582  1
  Te2-  Te105  1  0.83415809  0.17051780  0.49270528  1
  Te2-  Te106  1  0.83252044  0.16624827  0.83750722  1
  Te2-  Te107  1  0.82963624  0.49324456  0.16967723  1
  Te2-  Te108  1  0.82982635  0.49425520  0.51840999  1
  Te2-  Te109  1  0.83242222  0.49261294  0.81941420  1
  Te2-  Te110  1  0.82770273  0.85171120  0.17185092  1
  Te2-  Te111  1  0.82574100  0.83334783  0.49602405  1
  Te2-  Te112  1  0.83742511  0.83934946  0.83302365  1
  Te2-  Te113  1  0.16518177  -0.00528643  -0.00401846  1
  Te2-  Te114  1  0.16934342  -0.00249919  0.33303127  1
  Te2-  Te115  1  0.16578009  0.01466732  0.66785319  1
  Te2-  Te116  1  0.16115364  0.33157005  -0.00286981  1
  Te2-  Te117  1  0.17125885  0.34608813  0.33933512  1
  Te2-  Te118  1  0.16484427  0.32230340  0.66513691  1
  Te2-  Te119  1  0.16731880  0.66703582  -0.00184304  1
  Te2-  Te120  1  0.15711614  0.67035271  0.33249757  1
  Te2-  Te121  1  0.15889719  0.66677842  0.67228174  1
  Te2-  Te122  1  0.50145572  -0.01766476  -0.01069556  1
  Te2-  Te123  1  0.51053827  0.00935973  0.33341550  1
  Te2-  Te124  1  0.50863438  0.00757350  0.66549586  1
  Te2-  Te125  1  0.49639209  0.33193785  -0.00530169  1
  Te2-  Te126  1  0.50104648  0.33293185  0.33078147  1
  Te2-  Te127  1  0.49971458  0.32616618  0.67100317  1
  Te2-  Te128  1  0.49003170  0.67863264  0.00133842  1
  Te2-  Te129  1  0.51306713  0.66413571  0.33236255  1
  Te2-  Te130  1  0.51027381  0.66530833  0.66619951  1
  Te2-  Te131  1  0.83050223  0.00282662  -0.01035456  1
  Te2-  Te132  1  0.81693075  0.00710281  0.33614670  1
  Te2-  Te133  1  0.83142352  0.00174987  0.67257833  1
  Te2-  Te134  1  0.83012258  0.33169325  0.00359690  1
  Te2-  Te135  1  0.82976139  0.33958281  0.33392316  1
  Te2-  Te136  1  0.83460056  0.32233089  0.66837381  1
  Te2-  Te137  1  0.84308357  0.66559156  0.00142843  1
  Te2-  Te138  1  0.82784445  0.66333404  0.34156912  1
  Te2-  Te139  1  0.83227599  0.67139630  0.66710664  1
  Te2-  Te140  1  -0.00557401  0.17152867  -0.00071743  1
  Te2-  Te141  1  -0.01055121  0.16925736  0.33559151  1
  Te2-  Te142  1  -0.01099373  0.16317068  0.66091891  1
  Te2-  Te143  1  0.00236139  0.49973963  -0.00195459  1
  Te2-  Te144  1  -0.00685377  0.50523535  0.34464003  1
  Te2-  Te145  1  0.00515572  0.50331394  0.66479798  1
  Te2-  Te146  1  0.00259680  0.83135066  -0.00044419  1
  Te2-  Te147  1  -0.00262343  0.83085509  0.34231718  1
  Te2-  Te148  1  0.00012703  0.83494237  0.65983192  1
  Te2-  Te149  1  0.32999754  0.16726651  -0.00222676  1
  Te2-  Te150  1  0.34890022  0.16643062  0.32354984  1
  Te2-  Te151  1  0.32531810  0.16849251  0.67342126  1
  Te2-  Te152  1  0.33026170  0.50526202  -0.00390820  1
  Te2-  Te153  1  0.33693841  0.50753405  0.33141316  1
  Te2-  Te154  1  0.33328715  0.51783681  0.67174232  1
  Te2-  Te155  1  0.32599840  0.82450607  0.00178675  1
  Te2-  Te156  1  0.33867860  0.82886653  0.32475632  1
  Te2-  Te157  1  0.33517758  0.81800837  0.67061565  1
  Te2-  Te158  1  0.66803024  0.15718510  -0.00224577  1
  Te2-  Te159  1  0.65704700  0.17236069  0.33235953  1
  Te2-  Te160  1  0.68146324  0.16163253  0.66958820  1
  Te2-  Te161  1  0.66652649  0.51869665  -0.00288344  1
  Te2-  Te162  1  0.66835438  0.49482356  0.33262147  1
  Te2-  Te163  1  0.66812535  0.50405227  0.66855573  1
  Te2-  Te164  1  0.66489003  0.81625765  0.00847606  1
  Te2-  Te165  1  0.65910151  0.83360399  0.32867327  1
  Te2-  Te166  1  0.66788888  0.82938657  0.67050774  1
  Te2-  Te167  1  0.00424162  -0.00479606  0.16754834  1
  Te2-  Te168  1  0.00694615  0.00395578  0.50138442  1
  Te2-  Te169  1  0.00509059  0.00191772  0.82553935  1
  Te2-  Te170  1  0.01842043  0.33981251  0.16472838  1
  Te2-  Te171  1  0.00091363  0.33115765  0.49972108  1
  Te2-  Te172  1  -0.00135239  0.33572220  0.83394123  1
  Te2-  Te173  1  -0.02306853  0.67137134  0.17532043  1
  Te2-  Te174  1  0.00000603  0.66833950  0.50327957  1
  Te2-  Te175  1  -0.01446199  0.66138643  0.83063512  1
  Te2-  Te176  1  0.33801505  -0.00180697  0.16827956  1
  Te2-  Te177  1  0.33332089  -0.01215270  0.49805697  1
  Te2-  Te178  1  0.33382272  -0.00093669  0.82953520  1
  Te2-  Te179  1  0.31701520  0.33301579  0.16462556  1
  Te2-  Te180  1  0.33037630  0.33069558  0.49799256  1
  Te2-  Te181  1  0.32267884  0.33714550  0.83487008  1
  Te2-  Te182  1  0.33804076  0.67058170  0.17872503  1
  Te2-  Te183  1  0.33534922  0.67459651  0.48668751  1
  Te2-  Te184  1  0.33690716  0.66636799  0.83201680  1
  Te2-  Te185  1  0.65870842  -0.00026333  0.16582167  1
  Te2-  Te186  1  0.65997553  -0.01033379  0.49674914  1
  Te2-  Te187  1  0.66520025  -0.00306641  0.83278884  1
  Te2-  Te188  1  0.65942150  0.34095692  0.16383036  1
  Te2-  Te189  1  0.66752834  0.33187648  0.49754575  1
  Te2-  Te190  1  0.66846524  0.33129236  0.84223945  1
  Te2-  Te191  1  0.68136633  0.66104706  0.17753936  1
  Te2-  Te192  1  0.66656225  0.67974570  0.49721187  1
  Te2-  Te193  1  0.68203683  0.66405806  0.82978475  1
  Pb2+  Pb194  1  0.00178768  0.50725176  0.17374092  1
  Pb2+  Pb195  1  0.83043288  0.83259437  0.00328671  1
  Pb2+  Pb196  1  0.00534776  0.16726608  0.16247699  1
  Pb2+  Pb197  1  0.50131953  0.15642079  -0.00731867  1
  Pb2+  Pb198  1  0.51093861  0.66970021  0.83734284  1
  Pb2+  Pb199  1  0.49755492  0.50660265  -0.00176298  1
  Pb2+  Pb200  1  0.33669177  -0.00456920  0.66318770  1
  Pb2+  Pb201  1  0.66994132  0.33168780  0.67307569  1
  Pb2+  Pb202  1  0.50030991  0.83640228  0.65807160  1
  Pb2+  Pb203  1  0.51318129  0.66951139  0.16400261  1
  Pb2+  Pb204  1  0.66501177  0.50942868  0.49893965  1
  Pb2+  Pb205  1  0.16651201  0.66942493  0.50331974  1
  Pb2+  Pb206  1  0.83517229  0.49918801  -0.00922753  1
  Pb2+  Pb207  1  0.83252022  0.00221356  0.50310035  1
  Pb2+  Pb208  1  0.49768332  0.33439201  0.49823836  1
  Pb2+  Pb209  1  0.48931766  0.33208630  0.16400725  1
  Pb2+  Pb210  1  0.65999367  0.16000147  0.50151477  1
  Pb2+  Pb211  1  0.33150193  0.34582384  0.66483758  1
  Pb2+  Pb212  1  0.33395535  -0.00400744  -0.00106995  1
  Pb2+  Pb213  1  0.16683891  0.83994752  0.66322157  1
  Pb2+  Pb214  1  -0.00294017  0.00383436  -0.00234881  1
  Pb2+  Pb215  1  -0.00846883  -0.00281847  0.33381329  1
