# generated using pymatgen
data_In22Ag21Sn22Bi21(Te54Pb11)2
_symmetry_space_group_name_H-M   'P 1'
_cell_length_a   19.09609878
_cell_length_b   19.10703044
_cell_length_c   19.09341950
_cell_angle_alpha   89.98205917
_cell_angle_beta   89.99065315
_cell_angle_gamma   89.99932359
_symmetry_Int_Tables_number   1
_chemical_formula_structural   In22Ag21Sn22Bi21(Te54Pb11)2
_chemical_formula_sum   'In22 Ag21 Sn22 Bi21 Te108 Pb22'
_cell_volume   6966.61058980
_cell_formula_units_Z   1
loop_
 _symmetry_equiv_pos_site_id
 _symmetry_equiv_pos_as_xyz
  1  'x, y, z'
loop_
 _atom_type_symbol
 _atom_type_oxidation_number
  In3+  3.0
  Ag+  1.0
  Sn2+  2.0
  Bi3+  3.0
  Te2-  -2.0
  Pb2+  2.0
loop_
 _atom_site_type_symbol
 _atom_site_label
 _atom_site_symmetry_multiplicity
 _atom_site_fract_x
 _atom_site_fract_y
 _atom_site_fract_z
 _atom_site_occupancy
  In3+  In0  1  0.33140107  -0.01380708  0.00329429  1
  In3+  In1  1  0.83080472  0.17313525  0.66708510  1
  In3+  In2  1  0.33563215  0.16743145  0.81180905  1
  In3+  In3  1  0.83426412  0.49697268  0.00924361  1
  In3+  In4  1  0.17050071  0.47938272  0.66482934  1
  In3+  In5  1  0.17084635  0.33294897  0.82701499  1
  In3+  In6  1  0.49174462  0.83154016  0.64459164  1
  In3+  In7  1  -0.02436578  0.33272477  0.33272749  1
  In3+  In8  1  0.34369574  0.80739732  0.16623126  1
  In3+  In9  1  0.34781831  0.50088272  0.83184471  1
  In3+  In10  1  0.00510259  0.65529355  0.33043770  1
  In3+  In11  1  0.66665347  0.00046663  0.65285606  1
  In3+  In12  1  0.83493673  0.49270442  0.66453658  1
  In3+  In13  1  0.82460777  0.83948894  0.00865118  1
  In3+  In14  1  0.02156522  0.16923795  0.82820873  1
  In3+  In15  1  0.31323311  0.33244723  -0.00220109  1
  In3+  In16  1  0.50323803  -0.00226767  0.17810790  1
  In3+  In17  1  0.82667560  0.33542018  0.50014850  1
  In3+  In18  1  0.64900341  0.66715022  0.32119566  1
  In3+  In19  1  0.00106466  0.17729039  0.49696232  1
  In3+  In20  1  0.83472272  0.00711665  0.50100534  1
  In3+  In21  1  0.00114156  0.80900955  0.49531515  1
  Ag+  Ag22  1  0.34849270  0.50210084  0.18822432  1
  Ag+  Ag23  1  0.64403337  0.84374734  0.16669649  1
  Ag+  Ag24  1  0.52009642  0.83205860  0.32425218  1
  Ag+  Ag25  1  0.64348400  0.50044129  0.18774149  1
  Ag+  Ag26  1  0.66461425  0.14478830  0.19793835  1
  Ag+  Ag27  1  0.36235772  0.14314105  0.49776512  1
  Ag+  Ag28  1  0.14382192  0.64703387  0.16702346  1
  Ag+  Ag29  1  0.18869191  0.17337560  0.65729930  1
  Ag+  Ag30  1  -0.00621423  0.32776015  0.02318978  1
  Ag+  Ag31  1  0.51913572  0.19128396  0.31375933  1
  Ag+  Ag32  1  0.16236374  -0.02113683  0.82153706  1
  Ag+  Ag33  1  0.66198384  0.31757514  0.35243945  1
  Ag+  Ag34  1  0.49893235  0.66743273  0.47821377  1
  Ag+  Ag35  1  0.01687919  0.49126864  0.48986932  1
  Ag+  Ag36  1  0.65784223  0.14758103  0.49096357  1
  Ag+  Ag37  1  0.34615785  0.33856083  0.64305054  1
  Ag+  Ag38  1  0.35711255  0.50292969  0.48572926  1
  Ag+  Ag39  1  0.63954597  0.02506525  0.32662545  1
  Ag+  Ag40  1  0.16483178  0.81263370  0.00158942  1
  Ag+  Ag41  1  0.64951382  0.49557778  0.85270786  1
  Ag+  Ag42  1  0.50218014  0.64437608  0.17820949  1
  Sn2+  Sn43  1  0.67149878  0.66502970  -0.00081606  1
  Sn2+  Sn44  1  0.32983849  0.65784370  0.65781979  1
  Sn2+  Sn45  1  0.18030251  0.16954092  0.34284932  1
  Sn2+  Sn46  1  0.66247101  0.66678303  0.66119360  1
  Sn2+  Sn47  1  0.01334612  0.83294507  0.16256562  1
  Sn2+  Sn48  1  0.00287950  0.66404871  0.00531058  1
  Sn2+  Sn49  1  0.83616468  0.16817340  -0.00273253  1
  Sn2+  Sn50  1  0.00414876  0.33330485  0.66118659  1
  Sn2+  Sn51  1  0.83201554  0.33619656  0.83536175  1
  Sn2+  Sn52  1  0.82150171  0.33345725  0.16711511  1
  Sn2+  Sn53  1  0.33671657  0.66959498  0.33093110  1
  Sn2+  Sn54  1  0.65997003  0.33168107  0.65962537  1
  Sn2+  Sn55  1  0.82611530  0.83291070  0.33157164  1
  Sn2+  Sn56  1  0.82488684  0.83221636  0.66318035  1
  Sn2+  Sn57  1  0.81250781  0.66855697  0.16878911  1
  Sn2+  Sn58  1  0.49734422  0.16544578  0.65943560  1
  Sn2+  Sn59  1  0.66784248  0.83537454  0.48490321  1
  Sn2+  Sn60  1  0.50496660  0.50179454  0.00638492  1
  Sn2+  Sn61  1  0.50214302  0.50000070  0.33720179  1
  Sn2+  Sn62  1  0.49655894  0.33066710  0.83059554  1
  Sn2+  Sn63  1  0.16476712  0.84559799  0.67908929  1
  Sn2+  Sn64  1  0.01154564  -0.00056884  0.00063995  1
  Bi3+  Bi65  1  0.83230011  0.50295907  0.33046072  1
  Bi3+  Bi66  1  0.16219638  0.83455113  0.32745000  1
  Bi3+  Bi67  1  0.16517270  0.17157321  0.00020397  1
  Bi3+  Bi68  1  0.83221289  0.66541852  0.83630363  1
  Bi3+  Bi69  1  -0.00317663  0.49361116  0.82644660  1
  Bi3+  Bi70  1  0.66876226  0.50290728  0.50051993  1
  Bi3+  Bi71  1  0.16816678  0.33713766  0.16727298  1
  Bi3+  Bi72  1  0.67242564  0.33548738  -0.00368639  1
  Bi3+  Bi73  1  0.16945356  0.00307076  0.16287563  1
  Bi3+  Bi74  1  0.83045780  -0.00259045  0.17192185  1
  Bi3+  Bi75  1  0.66436112  0.17106900  0.82939410  1
  Bi3+  Bi76  1  -0.00138381  0.00189074  0.66811508  1
  Bi3+  Bi77  1  0.00157529  0.66738311  0.66759690  1
  Bi3+  Bi78  1  -0.00165683  0.00345227  0.33621494  1
  Bi3+  Bi79  1  0.49704673  0.00056165  0.83653654  1
  Bi3+  Bi80  1  0.16167543  0.49994513  -0.00323197  1
  Bi3+  Bi81  1  0.50465959  0.33230557  0.16401287  1
  Bi3+  Bi82  1  0.50309097  0.66777863  0.83878173  1
  Bi3+  Bi83  1  0.16599313  0.33341430  0.49981112  1
  Bi3+  Bi84  1  0.33447972  0.00393184  0.33095107  1
  Bi3+  Bi85  1  0.33826798  0.33408584  0.33513387  1
  Te2-  Te86  1  0.16434391  0.17175436  0.16744321  1
  Te2-  Te87  1  0.15818688  0.17238532  0.51050945  1
  Te2-  Te88  1  0.17533660  0.17632683  0.83404380  1
  Te2-  Te89  1  0.17093623  0.50209114  0.16157859  1
  Te2-  Te90  1  0.16299314  0.49717604  0.51078831  1
  Te2-  Te91  1  0.16069977  0.49393578  0.82995460  1
  Te2-  Te92  1  0.17349960  0.84247360  0.16232488  1
  Te2-  Te93  1  0.16114139  0.83305233  0.49462032  1
  Te2-  Te94  1  0.16948020  0.83388839  0.84642765  1
  Te2-  Te95  1  0.51347835  0.16626131  0.16921800  1
  Te2-  Te96  1  0.50822156  0.16571655  0.50698381  1
  Te2-  Te97  1  0.49777662  0.16338192  0.82955429  1
  Te2-  Te98  1  0.49435659  0.49510302  0.16501831  1
  Te2-  Te99  1  0.50571100  0.51156275  0.49928282  1
  Te2-  Te100  1  0.50475816  0.50283925  0.83468066  1
  Te2-  Te101  1  0.49648754  0.84155146  0.17439350  1
  Te2-  Te102  1  0.50213045  0.82197767  0.49293925  1
  Te2-  Te103  1  0.50174029  0.83519434  0.83920620  1
  Te2-  Te104  1  0.81781812  0.16254126  0.16605789  1
  Te2-  Te105  1  0.83621311  0.17546981  0.50766741  1
  Te2-  Te106  1  0.82634479  0.16897182  0.82734099  1
  Te2-  Te107  1  0.83843592  0.50169532  0.16602342  1
  Te2-  Te108  1  0.83280915  0.49566127  0.49882220  1
  Te2-  Te109  1  0.83497211  0.50314334  0.82454147  1
  Te2-  Te110  1  0.84142108  0.83553746  0.16339847  1
  Te2-  Te111  1  0.83561107  0.83563104  0.50030271  1
  Te2-  Te112  1  0.83344388  0.83129441  0.83987990  1
  Te2-  Te113  1  0.17233292  0.01064228  0.00121006  1
  Te2-  Te114  1  0.16436574  0.00293589  0.33045272  1
  Te2-  Te115  1  0.16308243  0.00591031  0.67668926  1
  Te2-  Te116  1  0.15017065  0.33555993  0.00373145  1
  Te2-  Te117  1  0.17119602  0.33138139  0.33190246  1
  Te2-  Te118  1  0.16995787  0.32282275  0.66797508  1
  Te2-  Te119  1  0.16386948  0.66218695  0.01257590  1
  Te2-  Te120  1  0.16199345  0.67114406  0.31943422  1
  Te2-  Te121  1  0.16407563  0.67775836  0.66678888  1
  Te2-  Te122  1  0.49297489  0.00237905  -0.00015401  1
  Te2-  Te123  1  0.49686013  -0.01325418  0.33101048  1
  Te2-  Te124  1  0.50474961  -0.00808558  0.67129121  1
  Te2-  Te125  1  0.50548406  0.33979616  -0.00085278  1
  Te2-  Te126  1  0.50672602  0.33775657  0.33014611  1
  Te2-  Te127  1  0.49246564  0.33595779  0.67040367  1
  Te2-  Te128  1  0.50462429  0.66454975  0.00045890  1
  Te2-  Te129  1  0.49573048  0.67401604  0.32734395  1
  Te2-  Te130  1  0.49953970  0.67650120  0.67664360  1
  Te2-  Te131  1  0.83938108  -0.00269143  0.00483727  1
  Te2-  Te132  1  0.83643893  -0.00162388  0.33723795  1
  Te2-  Te133  1  0.83229383  -0.00032872  0.66296274  1
  Te2-  Te134  1  0.84116554  0.33606645  0.00125108  1
  Te2-  Te135  1  0.81574446  0.33932279  0.33434267  1
  Te2-  Te136  1  0.83167865  0.33383695  0.66193353  1
  Te2-  Te137  1  0.83721308  0.66771512  -0.00033260  1
  Te2-  Te138  1  0.84830088  0.66550506  0.33283280  1
  Te2-  Te139  1  0.83493081  0.67034984  0.66990499  1
  Te2-  Te140  1  -0.00091955  0.17576583  -0.00865519  1
  Te2-  Te141  1  0.00140520  0.16863055  0.33931078  1
  Te2-  Te142  1  -0.01169013  0.16329466  0.67069007  1
  Te2-  Te143  1  -0.00343306  0.49184936  -0.00855078  1
  Te2-  Te144  1  -0.00336292  0.49742769  0.34175199  1
  Te2-  Te145  1  -0.00386570  0.50378226  0.66482626  1
  Te2-  Te146  1  0.01348534  0.83631530  0.00114167  1
  Te2-  Te147  1  0.00025583  0.84090206  0.34008804  1
  Te2-  Te148  1  -0.00078598  0.83590255  0.65961380  1
  Te2-  Te149  1  0.32835464  0.18063418  0.00352303  1
  Te2-  Te150  1  0.34055651  0.16794543  0.34886073  1
  Te2-  Te151  1  0.33619002  0.17705046  0.65852230  1
  Te2-  Te152  1  0.32737945  0.48958548  -0.01183149  1
  Te2-  Te153  1  0.33413847  0.50012505  0.33716448  1
  Te2-  Te154  1  0.32487689  0.48816628  0.67916752  1
  Te2-  Te155  1  0.32225619  0.83067853  0.00940067  1
  Te2-  Te156  1  0.32443813  0.83854828  0.32238776  1
  Te2-  Te157  1  0.33378450  0.83327695  0.66340856  1
  Te2-  Te158  1  0.67050405  0.17183626  -0.00721129  1
  Te2-  Te159  1  0.66223957  0.16970068  0.34423966  1
  Te2-  Te160  1  0.67112129  0.16202587  0.66740268  1
  Te2-  Te161  1  0.67884004  0.49820823  -0.00101554  1
  Te2-  Te162  1  0.67021807  0.51303606  0.33458443  1
  Te2-  Te163  1  0.67455336  0.49917682  0.66225749  1
  Te2-  Te164  1  0.67067751  0.83297929  0.01454966  1
  Te2-  Te165  1  0.66847406  0.81936924  0.32113564  1
  Te2-  Te166  1  0.66629258  0.84053620  0.66184829  1
  Te2-  Te167  1  0.00008637  0.00307171  0.16993991  1
  Te2-  Te168  1  -0.00809332  0.01004460  0.50214734  1
  Te2-  Te169  1  0.01086389  0.00927603  0.83189695  1
  Te2-  Te170  1  0.00091483  0.33288658  0.17335738  1
  Te2-  Te171  1  -0.00001294  0.33868807  0.49643959  1
  Te2-  Te172  1  0.00034547  0.32963376  0.82191294  1
  Te2-  Te173  1  -0.00410994  0.67184125  0.17195154  1
  Te2-  Te174  1  -0.00070586  0.65574434  0.50379587  1
  Te2-  Te175  1  -0.00236366  0.66410112  0.83302548  1
  Te2-  Te176  1  0.33387250  0.00902061  0.16531197  1
  Te2-  Te177  1  0.33193203  -0.00099862  0.49715838  1
  Te2-  Te178  1  0.33138464  0.00952062  0.83854590  1
  Te2-  Te179  1  0.33370372  0.34478572  0.16965217  1
  Te2-  Te180  1  0.32862059  0.35032473  0.49579258  1
  Te2-  Te181  1  0.33045914  0.32850499  0.83938510  1
  Te2-  Te182  1  0.34899446  0.65583646  0.17110779  1
  Te2-  Te183  1  0.34266846  0.65478346  0.50294342  1
  Te2-  Te184  1  0.33711080  0.66168351  0.82977647  1
  Te2-  Te185  1  0.66665662  -0.00548075  0.17914148  1
  Te2-  Te186  1  0.67625186  0.00157164  0.49636968  1
  Te2-  Te187  1  0.66399393  0.00301571  0.83749100  1
  Te2-  Te188  1  0.66550538  0.34945406  0.15792563  1
  Te2-  Te189  1  0.66977744  0.33708238  0.50102893  1
  Te2-  Te190  1  0.66548474  0.33887592  0.83098236  1
  Te2-  Te191  1  0.65589780  0.65095665  0.16769511  1
  Te2-  Te192  1  0.65539839  0.66907668  0.50168431  1
  Te2-  Te193  1  0.66895349  0.65677166  0.83127908  1
  Pb2+  Pb194  1  0.50121576  0.50527155  0.66557456  1
  Pb2+  Pb195  1  0.50359838  -0.00270039  0.49744729  1
  Pb2+  Pb196  1  0.00248760  0.83739177  0.83298732  1
  Pb2+  Pb197  1  0.66574093  0.00404687  0.00806675  1
  Pb2+  Pb198  1  -0.01159284  0.16857842  0.16463601  1
  Pb2+  Pb199  1  0.49854191  0.83242233  0.00802963  1
  Pb2+  Pb200  1  0.83557221  0.00256521  0.83286505  1
  Pb2+  Pb201  1  0.16838881  0.49994272  0.33454605  1
  Pb2+  Pb202  1  0.82438388  0.66756308  0.49885945  1
  Pb2+  Pb203  1  0.49729401  0.33454283  0.50025503  1
  Pb2+  Pb204  1  0.33375646  0.00525458  0.66759395  1
  Pb2+  Pb205  1  0.33386829  0.82476224  0.49103184  1
  Pb2+  Pb206  1  0.49773275  0.17191396  0.00264546  1
  Pb2+  Pb207  1  0.82596613  0.16652638  0.33639251  1
  Pb2+  Pb208  1  0.17254823  0.66487702  0.49570856  1
  Pb2+  Pb209  1  0.33595954  0.65710149  0.00247040  1
  Pb2+  Pb210  1  0.00506149  0.50204418  0.16576796  1
  Pb2+  Pb211  1  0.33489000  0.83668887  0.83262546  1
  Pb2+  Pb212  1  0.16786601  0.66387238  0.83489820  1
  Pb2+  Pb213  1  0.33737237  0.17544965  0.17473804  1
  Pb2+  Pb214  1  0.66741674  0.82773143  0.83301422  1
  Pb2+  Pb215  1  0.16090581  0.00250141  0.50446568  1
