# generated using pymatgen
data_In22Ag21Sn22Bi21(Te54Pb11)2
_symmetry_space_group_name_H-M   'P 1'
_cell_length_a   19.13099206
_cell_length_b   19.09869560
_cell_length_c   19.12594423
_cell_angle_alpha   90.00313004
_cell_angle_beta   90.00476880
_cell_angle_gamma   90.00605663
_symmetry_Int_Tables_number   1
_chemical_formula_structural   In22Ag21Sn22Bi21(Te54Pb11)2
_chemical_formula_sum   'In22 Ag21 Sn22 Bi21 Te108 Pb22'
_cell_volume   6988.17993353
_cell_formula_units_Z   1
loop_
 _symmetry_equiv_pos_site_id
 _symmetry_equiv_pos_as_xyz
  1  'x, y, z'
loop_
 _atom_type_symbol
 _atom_type_oxidation_number
  In3+  3.0
  Ag+  1.0
  Sn2+  2.0
  Bi3+  3.0
  Te2-  -2.0
  Pb2+  2.0
loop_
 _atom_site_type_symbol
 _atom_site_label
 _atom_site_symmetry_multiplicity
 _atom_site_fract_x
 _atom_site_fract_y
 _atom_site_fract_z
 _atom_site_occupancy
  In3+  In0  1  0.17660806  0.16319167  0.66251143  1
  In3+  In1  1  0.66885316  0.33627723  0.64973858  1
  In3+  In2  1  0.83491151  0.83035986  0.66888269  1
  In3+  In3  1  0.16949252  0.84091834  0.33357428  1
  In3+  In4  1  0.50663326  -0.00565843  0.81348905  1
  In3+  In5  1  0.82912508  0.83562365  -0.01556982  1
  In3+  In6  1  0.36100901  -0.00432611  -0.00110030  1
  In3+  In7  1  0.67268686  0.15924082  0.17588664  1
  In3+  In8  1  0.02597042  0.83139008  0.82324734  1
  In3+  In9  1  0.82777366  0.14524287  0.33349919  1
  In3+  In10  1  0.34099859  0.82932941  0.16980930  1
  In3+  In11  1  -0.00017367  0.14422371  0.16863960  1
  In3+  In12  1  -0.00575251  0.83443569  0.51305261  1
  In3+  In13  1  0.00046154  0.67924695  0.34801620  1
  In3+  In14  1  0.00340737  0.83353619  0.16900539  1
  In3+  In15  1  0.16834978  0.16369663  -0.00931292  1
  In3+  In16  1  0.83484668  0.16105945  0.65809721  1
  In3+  In17  1  0.33796056  0.49649961  0.83419553  1
  In3+  In18  1  0.83448351  0.00767072  0.50653627  1
  In3+  In19  1  0.83140215  0.84223014  0.33511256  1
  In3+  In20  1  0.82739886  -0.00480975  0.16434807  1
  In3+  In21  1  0.17781492  0.66568823  0.50217654  1
  Ag+  Ag22  1  0.47581643  0.83457513  0.64136588  1
  Ag+  Ag23  1  0.19157502  0.33529728  0.83437330  1
  Ag+  Ag24  1  0.36178423  0.66644161  0.35266416  1
  Ag+  Ag25  1  0.00400108  -0.01910247  0.34852025  1
  Ag+  Ag26  1  0.66116043  0.00978513  -0.02384416  1
  Ag+  Ag27  1  0.46914041  0.81296126  0.35441846  1
  Ag+  Ag28  1  0.01586637  0.67498548  0.64832141  1
  Ag+  Ag29  1  0.30948448  0.16507961  0.52239221  1
  Ag+  Ag30  1  0.65521721  0.68490600  0.33340796  1
  Ag+  Ag31  1  0.64295775  0.50161703  0.48021238  1
  Ag+  Ag32  1  0.00651308  0.48090765  0.47716006  1
  Ag+  Ag33  1  0.85319686  0.50335371  -0.02388398  1
  Ag+  Ag34  1  0.33499484  0.85064736  0.81458583  1
  Ag+  Ag35  1  0.47783655  0.00537332  0.51375221  1
  Ag+  Ag36  1  0.51749234  0.49267554  -0.03087159  1
  Ag+  Ag37  1  0.47545340  0.53005668  0.35942246  1
  Ag+  Ag38  1  0.18934283  -0.00636666  0.18417703  1
  Ag+  Ag39  1  0.64655663  -0.01897201  0.33974243  1
  Ag+  Ag40  1  0.30965057  0.31375273  0.66582531  1
  Ag+  Ag41  1  0.66850465  0.13774718  0.52093569  1
  Ag+  Ag42  1  -0.00072184  0.02528605  0.64524593  1
  Sn2+  Sn43  1  0.50561292  0.17046200  -0.00155236  1
  Sn2+  Sn44  1  0.33948495  0.66681376  0.00299352  1
  Sn2+  Sn45  1  0.33417891  0.66361063  0.66790198  1
  Sn2+  Sn46  1  0.66228724  0.49883655  0.84157758  1
  Sn2+  Sn47  1  0.65742761  0.49973776  0.17626676  1
  Sn2+  Sn48  1  0.82943567  0.66816563  0.16409869  1
  Sn2+  Sn49  1  0.83539557  0.50173062  0.65975491  1
  Sn2+  Sn50  1  0.00055399  0.16124286  0.83119525  1
  Sn2+  Sn51  1  0.16742000  0.83926938  0.66216793  1
  Sn2+  Sn52  1  0.49823863  0.66432621  0.17227754  1
  Sn2+  Sn53  1  0.82890281  0.34231296  0.49881802  1
  Sn2+  Sn54  1  0.00109846  0.34634420  0.66841391  1
  Sn2+  Sn55  1  0.66578930  0.16927852  0.83520086  1
  Sn2+  Sn56  1  0.83835394  0.33801960  0.16757994  1
  Sn2+  Sn57  1  0.17699008  0.50748163  0.33170935  1
  Sn2+  Sn58  1  0.49339959  0.67549618  0.83004607  1
  Sn2+  Sn59  1  0.50541884  0.67566598  0.49931063  1
  Sn2+  Sn60  1  0.49622200  0.33113243  0.82480151  1
  Sn2+  Sn61  1  -0.00640881  0.50672763  0.17193126  1
  Sn2+  Sn62  1  0.16508766  0.31923351  0.16231210  1
  Sn2+  Sn63  1  0.50487751  0.51079150  0.65989779  1
  Sn2+  Sn64  1  0.66181829  0.82647171  0.49800097  1
  Bi3+  Bi65  1  0.33189978  0.16607689  0.16998065  1
  Bi3+  Bi66  1  0.82818006  0.33242029  0.83197784  1
  Bi3+  Bi67  1  -0.00819137  -0.00087639  -0.00208227  1
  Bi3+  Bi68  1  0.16466414  0.16615700  0.32967052  1
  Bi3+  Bi69  1  0.00081376  0.33440171  0.33145241  1
  Bi3+  Bi70  1  0.66638438  0.66480250  0.65957480  1
  Bi3+  Bi71  1  0.83449871  0.50108874  0.33585810  1
  Bi3+  Bi72  1  -0.00257996  0.67015469  0.00179934  1
  Bi3+  Bi73  1  -0.00010247  0.50070257  0.83465222  1
  Bi3+  Bi74  1  0.33467463  0.50505866  0.16465815  1
  Bi3+  Bi75  1  0.16450687  0.00250565  0.83555266  1
  Bi3+  Bi76  1  0.66835849  0.83389750  0.17014055  1
  Bi3+  Bi77  1  0.50175278  0.82976205  0.00788987  1
  Bi3+  Bi78  1  0.16509255  0.50087337  0.66802707  1
  Bi3+  Bi79  1  0.50336658  -0.00091666  0.17617179  1
  Bi3+  Bi80  1  0.50066123  0.32402526  0.50011730  1
  Bi3+  Bi81  1  0.82994733  0.66819272  0.49601122  1
  Bi3+  Bi82  1  0.50441669  0.16492569  0.33485324  1
  Bi3+  Bi83  1  0.16478302  0.66906695  0.16963266  1
  Bi3+  Bi84  1  0.67014736  0.33598316  0.33193337  1
  Bi3+  Bi85  1  0.66479617  0.33153195  -0.00127939  1
  Te2-  Te86  1  0.16661494  0.15452033  0.16828291  1
  Te2-  Te87  1  0.16228539  0.16640097  0.49921130  1
  Te2-  Te88  1  0.16113208  0.16963867  0.82970813  1
  Te2-  Te89  1  0.17052336  0.50160774  0.16742802  1
  Te2-  Te90  1  0.15559969  0.50945958  0.50326738  1
  Te2-  Te91  1  0.16482751  0.48776166  0.83066885  1
  Te2-  Te92  1  0.16301710  0.84114283  0.17357775  1
  Te2-  Te93  1  0.16078691  0.82704237  0.49349671  1
  Te2-  Te94  1  0.18164582  0.83562011  0.83347367  1
  Te2-  Te95  1  0.49757478  0.16483027  0.16837864  1
  Te2-  Te96  1  0.51739489  0.15866748  0.49603371  1
  Te2-  Te97  1  0.50031978  0.15353460  0.83300853  1
  Te2-  Te98  1  0.49523022  0.50474762  0.17354367  1
  Te2-  Te99  1  0.49693045  0.49733559  0.50230321  1
  Te2-  Te100  1  0.49419710  0.50404101  0.82556812  1
  Te2-  Te101  1  0.50128728  0.83484592  0.17219170  1
  Te2-  Te102  1  0.50499484  0.84557069  0.49327740  1
  Te2-  Te103  1  0.48594844  0.84345643  0.84559255  1
  Te2-  Te104  1  0.83602676  0.16536722  0.17255162  1
  Te2-  Te105  1  0.82116739  0.16606624  0.49979526  1
  Te2-  Te106  1  0.83261467  0.16946032  0.83340933  1
  Te2-  Te107  1  0.82834803  0.49961964  0.17412379  1
  Te2-  Te108  1  0.85489136  0.50505817  0.50025024  1
  Te2-  Te109  1  0.83411949  0.49594846  0.83009179  1
  Te2-  Te110  1  0.83128110  0.83483918  0.17553914  1
  Te2-  Te111  1  0.83939090  0.83177366  0.49521964  1
  Te2-  Te112  1  0.82880814  0.83391279  0.82884362  1
  Te2-  Te113  1  0.15622260  0.00803200  -0.00281813  1
  Te2-  Te114  1  0.15567050  -0.00084340  0.32851871  1
  Te2-  Te115  1  0.15019429  0.00609522  0.67193526  1
  Te2-  Te116  1  0.16846861  0.32175827  -0.01153762  1
  Te2-  Te117  1  0.16603358  0.33222591  0.33415981  1
  Te2-  Te118  1  0.16255774  0.33131899  0.67544005  1
  Te2-  Te119  1  0.16497836  0.67222474  0.00437725  1
  Te2-  Te120  1  0.15562648  0.67069040  0.33146218  1
  Te2-  Te121  1  0.16448758  0.66862655  0.66108622  1
  Te2-  Te122  1  0.51450801  -0.00160113  0.01151774  1
  Te2-  Te123  1  0.50025765  0.00314024  0.33546288  1
  Te2-  Te124  1  0.50090747  -0.01362975  0.65937263  1
  Te2-  Te125  1  0.50301808  0.34204559  -0.00603516  1
  Te2-  Te126  1  0.50522646  0.33075588  0.33649564  1
  Te2-  Te127  1  0.51419482  0.33449753  0.66368997  1
  Te2-  Te128  1  0.49928783  0.66719309  0.00140751  1
  Te2-  Te129  1  0.50790990  0.67140443  0.33792923  1
  Te2-  Te130  1  0.50434534  0.68414556  0.66139303  1
  Te2-  Te131  1  0.82555933  -0.00123482  0.00661224  1
  Te2-  Te132  1  0.85494029  -0.00255365  0.32829363  1
  Te2-  Te133  1  0.84796178  -0.00264195  0.66239900  1
  Te2-  Te134  1  0.82659258  0.34526601  -0.00225435  1
  Te2-  Te135  1  0.83651623  0.33506236  0.33306857  1
  Te2-  Te136  1  0.82574121  0.33281152  0.66679671  1
  Te2-  Te137  1  0.83382715  0.65448900  0.00275739  1
  Te2-  Te138  1  0.84612429  0.66471502  0.33332467  1
  Te2-  Te139  1  0.83008649  0.67200588  0.66119702  1
  Te2-  Te140  1  -0.00053081  0.16319792  0.00662168  1
  Te2-  Te141  1  0.00018123  0.17161426  0.32430954  1
  Te2-  Te142  1  -0.01269067  0.17095730  0.66760762  1
  Te2-  Te143  1  -0.00094260  0.50388269  0.00089703  1
  Te2-  Te144  1  0.00452036  0.49873890  0.33027614  1
  Te2-  Te145  1  0.00329872  0.51192114  0.67561254  1
  Te2-  Te146  1  -0.01086469  0.83290752  0.00689523  1
  Te2-  Te147  1  0.00028844  0.83357797  0.32736390  1
  Te2-  Te148  1  -0.00144126  0.82401032  0.66781943  1
  Te2-  Te149  1  0.33393178  0.15992689  0.00668391  1
  Te2-  Te150  1  0.33024980  0.16900944  0.33131039  1
  Te2-  Te151  1  0.33179302  0.16634080  0.66795819  1
  Te2-  Te152  1  0.33395843  0.50044970  -0.00386433  1
  Te2-  Te153  1  0.33369600  0.51163753  0.33174871  1
  Te2-  Te154  1  0.32895378  0.50530447  0.67422989  1
  Te2-  Te155  1  0.33643042  0.83650440  0.01390443  1
  Te2-  Te156  1  0.32544609  0.82340949  0.32715993  1
  Te2-  Te157  1  0.33026888  0.82931055  0.66762929  1
  Te2-  Te158  1  0.66402386  0.15965803  0.00387106  1
  Te2-  Te159  1  0.67464477  0.17319569  0.33063576  1
  Te2-  Te160  1  0.67655815  0.16730370  0.66641934  1
  Te2-  Te161  1  0.65876249  0.49586645  0.00503765  1
  Te2-  Te162  1  0.67300143  0.49663453  0.33560945  1
  Te2-  Te163  1  0.66830422  0.50281156  0.67170698  1
  Te2-  Te164  1  0.66786763  0.83873506  0.00639127  1
  Te2-  Te165  1  0.67994116  0.83228990  0.33239545  1
  Te2-  Te166  1  0.67878995  0.82813585  0.66447030  1
  Te2-  Te167  1  -0.00966146  -0.00724786  0.16007319  1
  Te2-  Te168  1  -0.00760688  -0.00761997  0.49912139  1
  Te2-  Te169  1  0.00129730  -0.00772927  0.83718176  1
  Te2-  Te170  1  0.00548256  0.33751162  0.16763958  1
  Te2-  Te171  1  -0.00236225  0.33388980  0.49793642  1
  Te2-  Te172  1  -0.01004003  0.33442978  0.83211279  1
  Te2-  Te173  1  0.00215549  0.67284009  0.16512979  1
  Te2-  Te174  1  -0.00402862  0.67901436  0.50229913  1
  Te2-  Te175  1  0.00188390  0.67017526  0.84038665  1
  Te2-  Te176  1  0.33555587  -0.00012185  0.16152298  1
  Te2-  Te177  1  0.33108569  0.01062080  0.50217927  1
  Te2-  Te178  1  0.32830851  -0.00354687  0.84396619  1
  Te2-  Te179  1  0.33058803  0.33486206  0.16657996  1
  Te2-  Te180  1  0.33819811  0.32231238  0.51333919  1
  Te2-  Te181  1  0.33805819  0.33746515  0.81891764  1
  Te2-  Te182  1  0.32657180  0.66877995  0.16910838  1
  Te2-  Te183  1  0.33062246  0.66728818  0.49737465  1
  Te2-  Te184  1  0.33570293  0.66149305  0.83589544  1
  Te2-  Te185  1  0.67104164  0.00106959  0.18696207  1
  Te2-  Te186  1  0.68597485  -0.00602654  0.48555465  1
  Te2-  Te187  1  0.66158717  0.00020037  0.82895608  1
  Te2-  Te188  1  0.67044137  0.32536217  0.16470337  1
  Te2-  Te189  1  0.66569426  0.34770686  0.49744905  1
  Te2-  Te190  1  0.66321259  0.33115353  0.83633159  1
  Te2-  Te191  1  0.66760961  0.67025891  0.18098482  1
  Te2-  Te192  1  0.66883026  0.65540439  0.49397032  1
  Te2-  Te193  1  0.66258872  0.66340644  0.83100523  1
  Pb2+  Pb194  1  0.16481448  -0.00302059  0.49901138  1
  Pb2+  Pb195  1  -0.00074740  0.33214752  -0.00068970  1
  Pb2+  Pb196  1  0.16894331  0.33586650  0.50793147  1
  Pb2+  Pb197  1  0.33363007  -0.00047342  0.33381535  1
  Pb2+  Pb198  1  0.66623363  0.66455156  0.00916898  1
  Pb2+  Pb199  1  0.65488827  0.82988068  0.83472744  1
  Pb2+  Pb200  1  0.83267574  0.00104635  0.83382851  1
  Pb2+  Pb201  1  0.33754923  0.83734458  0.49770285  1
  Pb2+  Pb202  1  -0.00916785  0.16631635  0.49559224  1
  Pb2+  Pb203  1  0.33540333  0.33173517  -0.00641457  1
  Pb2+  Pb204  1  0.17018184  0.65996302  0.83032520  1
  Pb2+  Pb205  1  0.83113852  0.17115302  0.00378390  1
  Pb2+  Pb206  1  0.32777733  -0.00350648  0.66965675  1
  Pb2+  Pb207  1  0.67177365  -0.00440222  0.65224594  1
  Pb2+  Pb208  1  0.83319500  0.66544110  0.83080997  1
  Pb2+  Pb209  1  0.16686479  0.49874696  -0.00017145  1
  Pb2+  Pb210  1  0.32969258  0.49602682  0.50640874  1
  Pb2+  Pb211  1  0.33577071  0.33724166  0.34006975  1
  Pb2+  Pb212  1  0.50265402  0.33742895  0.16599225  1
  Pb2+  Pb213  1  0.16312414  0.84163813  0.00363724  1
  Pb2+  Pb214  1  0.50700835  0.16364983  0.66053989  1
  Pb2+  Pb215  1  0.33142001  0.16361095  0.83670188  1
