# generated using pymatgen
data_In22Ag21Sn22Bi21(Te54Pb11)2
_symmetry_space_group_name_H-M   'P 1'
_cell_length_a   19.09524447
_cell_length_b   19.11947230
_cell_length_c   19.14621156
_cell_angle_alpha   90.01075621
_cell_angle_beta   90.00157965
_cell_angle_gamma   90.01548103
_symmetry_Int_Tables_number   1
_chemical_formula_structural   In22Ag21Sn22Bi21(Te54Pb11)2
_chemical_formula_sum   'In22 Ag21 Sn22 Bi21 Te108 Pb22'
_cell_volume   6990.10910144
_cell_formula_units_Z   1
loop_
 _symmetry_equiv_pos_site_id
 _symmetry_equiv_pos_as_xyz
  1  'x, y, z'
loop_
 _atom_type_symbol
 _atom_type_oxidation_number
  In3+  3.0
  Ag+  1.0
  Sn2+  2.0
  Bi3+  3.0
  Te2-  -2.0
  Pb2+  2.0
loop_
 _atom_site_type_symbol
 _atom_site_label
 _atom_site_symmetry_multiplicity
 _atom_site_fract_x
 _atom_site_fract_y
 _atom_site_fract_z
 _atom_site_occupancy
  In3+  In0  1  0.17114870  0.30558348  0.51954471  1
  In3+  In1  1  0.16380388  0.32631226  0.16595202  1
  In3+  In2  1  0.49492916  0.32781517  0.49935406  1
  In3+  In3  1  0.82451093  0.49962269  0.33216041  1
  In3+  In4  1  0.65360253  0.33868332  0.00062479  1
  In3+  In5  1  0.48791104  0.66185909  0.83180718  1
  In3+  In6  1  0.83500645  0.33486107  0.13343321  1
  In3+  In7  1  0.32645140  0.49528425  0.82778926  1
  In3+  In8  1  0.32581111  0.16875228  0.16482602  1
  In3+  In9  1  0.00739800  0.83463955  0.16162266  1
  In3+  In10  1  0.84548447  0.84161287  -0.02375624  1
  In3+  In11  1  0.31070317  0.66496516  0.00136646  1
  In3+  In12  1  0.16356961  0.15045103  -0.01717779  1
  In3+  In13  1  -0.00664837  0.68212459  -0.00688654  1
  In3+  In14  1  0.67585808  0.66537703  0.67718010  1
  In3+  In15  1  0.32950358  0.16275734  0.84909997  1
  In3+  In16  1  0.00149562  0.85852074  0.51621113  1
  In3+  In17  1  0.49308600  0.16678373  0.30198894  1
  In3+  In18  1  0.14999502  -0.01346879  0.16385197  1
  In3+  In19  1  0.66841490  0.51084919  0.51224911  1
  In3+  In20  1  0.33013234  0.32852525  0.66958011  1
  In3+  In21  1  0.33393600  0.16488515  0.50662969  1
  Ag+  Ag22  1  0.14196337  0.64606066  0.15932505  1
  Ag+  Ag23  1  0.84975972  0.85656266  0.67599914  1
  Ag+  Ag24  1  0.00360412  -0.00314170  -0.01345015  1
  Ag+  Ag25  1  0.86385384  0.00165685  0.84861276  1
  Ag+  Ag26  1  0.01128412  -0.01069646  0.69150594  1
  Ag+  Ag27  1  0.31481673  0.69041965  0.36113263  1
  Ag+  Ag28  1  0.83830455  0.52754958  0.68067253  1
  Ag+  Ag29  1  0.16552709  0.81605827  -0.00511262  1
  Ag+  Ag30  1  0.16712152  0.17164890  0.68360766  1
  Ag+  Ag31  1  0.70562244  0.84829154  0.52924645  1
  Ag+  Ag32  1  0.83917089  0.64431176  0.83570763  1
  Ag+  Ag33  1  0.47577857  0.50450227  -0.02443695  1
  Ag+  Ag34  1  0.80751686  0.34728819  0.83096786  1
  Ag+  Ag35  1  0.16343120  -0.01293201  0.81911403  1
  Ag+  Ag36  1  0.32710908  0.33039446  0.31399491  1
  Ag+  Ag37  1  0.52562104  0.13755109  -0.00578872  1
  Ag+  Ag38  1  0.17082605  0.35418300  0.85585543  1
  Ag+  Ag39  1  0.84153512  0.50373399  -0.02508768  1
  Ag+  Ag40  1  0.00062341  -0.02669311  0.34147022  1
  Ag+  Ag41  1  0.17904349  0.00089091  0.52352432  1
  Ag+  Ag42  1  0.47551851  0.49234486  0.68089144  1
  Sn2+  Sn43  1  0.31315423  0.00757093  0.66927600  1
  Sn2+  Sn44  1  0.32617670  0.83902922  0.83852599  1
  Sn2+  Sn45  1  0.32151888  -0.00415534  -0.00181387  1
  Sn2+  Sn46  1  -0.00582464  0.66796042  0.67440030  1
  Sn2+  Sn47  1  0.33451265  0.83424362  0.16521677  1
  Sn2+  Sn48  1  0.00193509  0.16117916  0.16686121  1
  Sn2+  Sn49  1  0.67303097  0.50340295  0.83558754  1
  Sn2+  Sn50  1  0.83795535  0.66346431  0.16093074  1
  Sn2+  Sn51  1  0.33733086  0.49513871  0.49575360  1
  Sn2+  Sn52  1  0.00478252  0.16320038  0.82903256  1
  Sn2+  Sn53  1  0.15885784  0.67309409  0.49018244  1
  Sn2+  Sn54  1  -0.00294610  0.32596346  0.67469056  1
  Sn2+  Sn55  1  0.49776856  -0.00043343  0.82858026  1
  Sn2+  Sn56  1  0.83034296  0.83056955  0.33599635  1
  Sn2+  Sn57  1  0.83453353  0.66338689  0.51248415  1
  Sn2+  Sn58  1  0.00203536  0.84274623  0.83332809  1
  Sn2+  Sn59  1  0.83759557  -0.00576113  0.16336513  1
  Sn2+  Sn60  1  0.00710878  0.66813411  0.33541209  1
  Sn2+  Sn61  1  0.66900842  0.50165854  0.15792165  1
  Sn2+  Sn62  1  -0.00480122  0.49333662  0.83423632  1
  Sn2+  Sn63  1  0.33257994  0.50477435  0.16812590  1
  Sn2+  Sn64  1  0.15677436  0.49795755  -0.00124406  1
  Bi3+  Bi65  1  0.50025131  0.66296194  0.49997168  1
  Bi3+  Bi66  1  0.67688687  0.66088778  -0.00270697  1
  Bi3+  Bi67  1  0.66781189  -0.00105723  0.66655529  1
  Bi3+  Bi68  1  0.49613346  0.00008778  0.16240050  1
  Bi3+  Bi69  1  0.67501900  0.83241418  0.16632076  1
  Bi3+  Bi70  1  0.67012264  0.83166205  0.83199554  1
  Bi3+  Bi71  1  0.84420198  0.16349267  0.66779783  1
  Bi3+  Bi72  1  0.00040265  0.17097364  0.50142367  1
  Bi3+  Bi73  1  0.49288597  0.34003385  0.83313573  1
  Bi3+  Bi74  1  0.00502174  0.33914475  0.33335706  1
  Bi3+  Bi75  1  0.83844221  0.33577183  0.51070663  1
  Bi3+  Bi76  1  0.66651842  0.66687191  0.33820052  1
  Bi3+  Bi77  1  -0.00026024  0.50331934  0.50150497  1
  Bi3+  Bi78  1  0.83845191  0.00011480  0.49709564  1
  Bi3+  Bi79  1  0.49721871  0.49749864  0.33850596  1
  Bi3+  Bi80  1  0.17204960  0.50396181  0.33393836  1
  Bi3+  Bi81  1  0.00328308  0.33295963  -0.00523505  1
  Bi3+  Bi82  1  0.50170829  0.66279028  0.16147064  1
  Bi3+  Bi83  1  0.49634760  0.83086274  0.33293102  1
  Bi3+  Bi84  1  0.50023501  0.82511448  0.66492295  1
  Bi3+  Bi85  1  0.16339284  0.83358512  0.32578829  1
  Te2-  Te86  1  0.17058671  0.17221440  0.16716365  1
  Te2-  Te87  1  0.16638218  0.15305615  0.50037752  1
  Te2-  Te88  1  0.17653541  0.15636105  0.83283545  1
  Te2-  Te89  1  0.17178861  0.50166360  0.16794771  1
  Te2-  Te90  1  0.16618127  0.50620616  0.49641849  1
  Te2-  Te91  1  0.16910875  0.50196870  0.83200122  1
  Te2-  Te92  1  0.16588039  0.83338728  0.15992813  1
  Te2-  Te93  1  0.15573883  0.84393266  0.49250357  1
  Te2-  Te94  1  0.16780250  0.83887443  0.84542816  1
  Te2-  Te95  1  0.49477391  0.16407571  0.14396621  1
  Te2-  Te96  1  0.49179925  0.17302895  0.50999865  1
  Te2-  Te97  1  0.48928290  0.17459291  0.84976296  1
  Te2-  Te98  1  0.50058063  0.50155994  0.17414732  1
  Te2-  Te99  1  0.50704863  0.49947777  0.50131301  1
  Te2-  Te100  1  0.50229828  0.50364615  0.82659266  1
  Te2-  Te101  1  0.50459708  0.83159115  0.16771686  1
  Te2-  Te102  1  0.49620153  0.82830641  0.49880681  1
  Te2-  Te103  1  0.50215946  0.82326417  0.82986509  1
  Te2-  Te104  1  0.83459640  0.17320232  0.16313235  1
  Te2-  Te105  1  0.83353579  0.17096923  0.50152201  1
  Te2-  Te106  1  0.84057895  0.14641490  0.82699455  1
  Te2-  Te107  1  0.83324828  0.49282240  0.17621470  1
  Te2-  Te108  1  0.83415856  0.49620117  0.49574020  1
  Te2-  Te109  1  0.83720434  0.49226992  0.82514890  1
  Te2-  Te110  1  0.83502757  0.83413466  0.16835503  1
  Te2-  Te111  1  0.84745426  0.83358012  0.50033008  1
  Te2-  Te112  1  0.83324826  0.85012963  0.82641135  1
  Te2-  Te113  1  0.15525775  0.00321978  0.01210783  1
  Te2-  Te114  1  0.15400713  -0.00507689  0.31784404  1
  Te2-  Te115  1  0.15803252  0.00306365  0.66982823  1
  Te2-  Te116  1  0.16525353  0.33666465  0.00369118  1
  Te2-  Te117  1  0.17111100  0.34089210  0.32428235  1
  Te2-  Te118  1  0.17003563  0.32285748  0.66841261  1
  Te2-  Te119  1  0.15482306  0.66721531  0.00940735  1
  Te2-  Te120  1  0.17583782  0.66787282  0.32078174  1
  Te2-  Te121  1  0.16270905  0.66946406  0.66445274  1
  Te2-  Te122  1  0.49714193  -0.00872078  -0.00014519  1
  Te2-  Te123  1  0.49754768  -0.00174330  0.32849194  1
  Te2-  Te124  1  0.50044357  -0.00383664  0.66757475  1
  Te2-  Te125  1  0.50202081  0.35622053  -0.00265136  1
  Te2-  Te126  1  0.49398723  0.33300286  0.34159077  1
  Te2-  Te127  1  0.49362123  0.34310136  0.66914305  1
  Te2-  Te128  1  0.51496116  0.65145287  -0.00382423  1
  Te2-  Te129  1  0.49740542  0.66513290  0.33195498  1
  Te2-  Te130  1  0.50731527  0.65908707  0.66634740  1
  Te2-  Te131  1  0.84897394  -0.00583140  -0.00251223  1
  Te2-  Te132  1  0.84507787  -0.00074352  0.33351796  1
  Te2-  Te133  1  0.83020335  0.00245167  0.65667857  1
  Te2-  Te134  1  0.84189680  0.33888613  -0.01880756  1
  Te2-  Te135  1  0.83891434  0.34025844  0.34407556  1
  Te2-  Te136  1  0.83480683  0.32488885  0.67629606  1
  Te2-  Te137  1  0.83964491  0.66011437  -0.00543949  1
  Te2-  Te138  1  0.83020228  0.66171783  0.33452198  1
  Te2-  Te139  1  0.83232939  0.67459323  0.67063934  1
  Te2-  Te140  1  0.00983372  0.16792337  0.00417290  1
  Te2-  Te141  1  0.00225351  0.17785312  0.33503646  1
  Te2-  Te142  1  0.00989128  0.16256916  0.66200042  1
  Te2-  Te143  1  -0.00717485  0.49708943  -0.00385689  1
  Te2-  Te144  1  0.00581313  0.50244809  0.33572515  1
  Te2-  Te145  1  -0.01038737  0.50051431  0.66380390  1
  Te2-  Te146  1  0.00396731  0.83576998  0.00400891  1
  Te2-  Te147  1  0.00125221  0.82595285  0.32149990  1
  Te2-  Te148  1  -0.00372919  0.84109163  0.66783076  1
  Te2-  Te149  1  0.32042032  0.16721013  0.00295126  1
  Te2-  Te150  1  0.34085691  0.17884241  0.33452665  1
  Te2-  Te151  1  0.32232260  0.16820759  0.66395871  1
  Te2-  Te152  1  0.32755347  0.50990079  -0.00539177  1
  Te2-  Te153  1  0.33540287  0.48386095  0.33533226  1
  Te2-  Te154  1  0.32871983  0.49623290  0.66996428  1
  Te2-  Te155  1  0.32197080  0.82704469  -0.00242285  1
  Te2-  Te156  1  0.33217580  0.83463802  0.33220732  1
  Te2-  Te157  1  0.33621218  0.83684301  0.67169786  1
  Te2-  Te158  1  0.66957509  0.17214060  -0.00193893  1
  Te2-  Te159  1  0.65728946  0.16711927  0.33435026  1
  Te2-  Te160  1  0.66341705  0.16455076  0.66805771  1
  Te2-  Te161  1  0.68771430  0.49769388  -0.00003811  1
  Te2-  Te162  1  0.66428970  0.50441485  0.33327013  1
  Te2-  Te163  1  0.68383666  0.51051202  0.66543588  1
  Te2-  Te164  1  0.67369804  0.82717875  0.00010949  1
  Te2-  Te165  1  0.66196021  0.82973364  0.33065283  1
  Te2-  Te166  1  0.66184441  0.83039298  0.66828109  1
  Te2-  Te167  1  -0.00396840  -0.00080221  0.16865410  1
  Te2-  Te168  1  0.00011051  0.00784126  0.48688249  1
  Te2-  Te169  1  0.01454371  0.00043647  0.83816753  1
  Te2-  Te170  1  -0.00258082  0.33172759  0.16694772  1
  Te2-  Te171  1  0.00755993  0.33715165  0.50030423  1
  Te2-  Te172  1  0.02079736  0.32958497  0.83388414  1
  Te2-  Te173  1  -0.00378979  0.67229787  0.16155136  1
  Te2-  Te174  1  0.00048785  0.66491005  0.50235381  1
  Te2-  Te175  1  -0.01195510  0.66985898  0.83765673  1
  Te2-  Te176  1  0.33530798  0.00586011  0.16317298  1
  Te2-  Te177  1  0.32613866  0.00670788  0.49948043  1
  Te2-  Te178  1  0.33288501  0.00487417  0.83475174  1
  Te2-  Te179  1  0.33042242  0.32903296  0.16543397  1
  Te2-  Te180  1  0.32877714  0.32916471  0.51084443  1
  Te2-  Te181  1  0.32459881  0.33700191  0.82906949  1
  Te2-  Te182  1  0.34227072  0.67050425  0.15327440  1
  Te2-  Te183  1  0.33426710  0.66276477  0.50323637  1
  Te2-  Te184  1  0.33345254  0.66488933  0.84105746  1
  Te2-  Te185  1  0.66474718  -0.00351613  0.16490008  1
  Te2-  Te186  1  0.66935940  -0.00950576  0.50103622  1
  Te2-  Te187  1  0.66029412  -0.00483421  0.83121477  1
  Te2-  Te188  1  0.67366178  0.33545035  0.16178055  1
  Te2-  Te189  1  0.67285610  0.33715468  0.50286564  1
  Te2-  Te190  1  0.65936697  0.33534722  0.84007277  1
  Te2-  Te191  1  0.66776374  0.66867027  0.16788268  1
  Te2-  Te192  1  0.66548354  0.66909605  0.49883889  1
  Te2-  Te193  1  0.68960913  0.67016168  0.83465359  1
  Pb2+  Pb194  1  0.16472579  0.83758442  0.67197755  1
  Pb2+  Pb195  1  0.67583052  -0.00196426  0.33426091  1
  Pb2+  Pb196  1  0.00096598  0.49989824  0.16326209  1
  Pb2+  Pb197  1  0.33424148  0.66555996  0.67145626  1
  Pb2+  Pb198  1  0.15720477  0.49447968  0.66481810  1
  Pb2+  Pb199  1  0.66592492  0.34186785  0.66962704  1
  Pb2+  Pb200  1  0.32387288  0.00852331  0.32958797  1
  Pb2+  Pb201  1  0.48960688  0.16881896  0.68193165  1
  Pb2+  Pb202  1  0.66094343  0.16507104  0.50187589  1
  Pb2+  Pb203  1  0.49565605  -0.00000481  0.49964781  1
  Pb2+  Pb204  1  0.32549787  0.83259975  0.50367386  1
  Pb2+  Pb205  1  0.15591200  0.66954905  0.83452626  1
  Pb2+  Pb206  1  0.66554288  0.16645480  0.16553135  1
  Pb2+  Pb207  1  0.66532571  0.33681399  0.33504294  1
  Pb2+  Pb208  1  0.33430012  0.33868223  -0.00145049  1
  Pb2+  Pb209  1  0.16986677  0.17091049  0.33466618  1
  Pb2+  Pb210  1  0.67601329  -0.00307009  -0.00294644  1
  Pb2+  Pb211  1  0.84165846  0.16949328  -0.00732994  1
  Pb2+  Pb212  1  0.66882127  0.16561439  0.83306898  1
  Pb2+  Pb213  1  0.83530314  0.16946967  0.32899084  1
  Pb2+  Pb214  1  0.49956929  0.33449584  0.16851369  1
  Pb2+  Pb215  1  0.49471834  0.81975976  -0.00294349  1
