# generated using pymatgen
data_In22Ag21Sn22Bi21(Te54Pb11)2
_symmetry_space_group_name_H-M   'P 1'
_cell_length_a   19.06825802
_cell_length_b   19.08670969
_cell_length_c   19.08001168
_cell_angle_alpha   90.00408890
_cell_angle_beta   89.98560881
_cell_angle_gamma   90.01733539
_symmetry_Int_Tables_number   1
_chemical_formula_structural   In22Ag21Sn22Bi21(Te54Pb11)2
_chemical_formula_sum   'In22 Ag21 Sn22 Bi21 Te108 Pb22'
_cell_volume   6944.17551842
_cell_formula_units_Z   1
loop_
 _symmetry_equiv_pos_site_id
 _symmetry_equiv_pos_as_xyz
  1  'x, y, z'
loop_
 _atom_type_symbol
 _atom_type_oxidation_number
  In3+  3.0
  Ag+  1.0
  Sn2+  2.0
  Bi3+  3.0
  Te2-  -2.0
  Pb2+  2.0
loop_
 _atom_site_type_symbol
 _atom_site_label
 _atom_site_symmetry_multiplicity
 _atom_site_fract_x
 _atom_site_fract_y
 _atom_site_fract_z
 _atom_site_occupancy
  In3+  In0  1  0.49939844  0.83564729  -0.00011611  1
  In3+  In1  1  0.66709991  0.68005342  0.66163127  1
  In3+  In2  1  0.50154100  0.48358274  0.00286003  1
  In3+  In3  1  0.50086584  0.64721091  0.16504307  1
  In3+  In4  1  0.16281374  -0.01375446  0.16314487  1
  In3+  In5  1  0.82829692  0.50233776  0.65031562  1
  In3+  In6  1  0.16201184  0.83526845  0.34880957  1
  In3+  In7  1  0.49837135  0.67087917  0.47440166  1
  In3+  In8  1  0.15643719  0.33649122  0.49692418  1
  In3+  In9  1  -0.01316717  0.85352333  0.49311731  1
  In3+  In10  1  0.66350095  0.68489403  -0.00558223  1
  In3+  In11  1  0.83908516  0.83539621  -0.01117914  1
  In3+  In12  1  0.33313525  0.18961146  0.49931009  1
  In3+  In13  1  0.31133602  0.00268606  -0.00141989  1
  In3+  In14  1  0.00383058  0.32247444  0.64556685  1
  In3+  In15  1  0.67317526  0.16913527  0.50399384  1
  In3+  In16  1  0.50737156  0.00639872  0.83989290  1
  In3+  In17  1  -0.00529977  0.30721541  0.02574449  1
  In3+  In18  1  0.32990917  0.67529822  0.00177994  1
  In3+  In19  1  0.00450373  0.16484174  0.18125822  1
  In3+  In20  1  0.16043353  0.32297569  0.16644481  1
  In3+  In21  1  0.33478327  -0.00789115  0.66668102  1
  Ag+  Ag22  1  0.82167336  0.84135676  0.64368812  1
  Ag+  Ag23  1  0.14453985  0.18802055  -0.00337449  1
  Ag+  Ag24  1  0.35168210  0.50298740  0.47885237  1
  Ag+  Ag25  1  0.16805279  0.47853396  0.66479369  1
  Ag+  Ag26  1  0.83241882  0.18879179  0.66666891  1
  Ag+  Ag27  1  0.68543789  0.83283598  0.51047413  1
  Ag+  Ag28  1  0.67503887  0.36220536  0.33599520  1
  Ag+  Ag29  1  0.00776963  -0.00052468  0.01901117  1
  Ag+  Ag30  1  0.66772046  0.18665236  0.81250244  1
  Ag+  Ag31  1  0.67302111  0.32534494  -0.02180075  1
  Ag+  Ag32  1  0.17781544  0.66765711  0.80875852  1
  Ag+  Ag33  1  0.18212379  0.83229811  -0.00133022  1
  Ag+  Ag34  1  0.02294448  0.30570315  0.33512255  1
  Ag+  Ag35  1  0.81597114  0.83861083  0.31673820  1
  Ag+  Ag36  1  0.49850215  0.33609489  0.15894733  1
  Ag+  Ag37  1  0.03006062  0.15120277  0.48885268  1
  Ag+  Ag38  1  0.65884136  0.83325690  0.85809495  1
  Ag+  Ag39  1  -0.00532472  0.00177622  0.31886774  1
  Ag+  Ag40  1  0.52360802  0.19292051  0.33624031  1
  Ag+  Ag41  1  0.82390859  0.47800534  0.33095331  1
  Ag+  Ag42  1  0.31738305  0.66745713  0.35143294  1
  Sn2+  Sn43  1  0.33191190  -0.01270385  0.33362411  1
  Sn2+  Sn44  1  0.67053984  -0.00505028  0.66797115  1
  Sn2+  Sn45  1  0.33638541  0.66018510  0.66333429  1
  Sn2+  Sn46  1  0.66892203  0.48544167  0.16188263  1
  Sn2+  Sn47  1  0.84056968  0.66765454  0.83656695  1
  Sn2+  Sn48  1  0.33029403  0.49777563  0.17547015  1
  Sn2+  Sn49  1  0.67256192  0.01211446  -0.00586163  1
  Sn2+  Sn50  1  0.83509355  0.33190204  0.83747255  1
  Sn2+  Sn51  1  0.67476262  0.66694129  0.33257429  1
  Sn2+  Sn52  1  0.33307647  0.83034250  0.17025100  1
  Sn2+  Sn53  1  0.16611198  0.16226200  0.32598610  1
  Sn2+  Sn54  1  0.15658714  0.83411289  0.67882109  1
  Sn2+  Sn55  1  0.16916068  0.65934785  0.50396799  1
  Sn2+  Sn56  1  0.50449292  0.83517710  0.32844196  1
  Sn2+  Sn57  1  0.82562355  0.66834530  0.17691831  1
  Sn2+  Sn58  1  0.16537105  -0.00275175  0.84041505  1
  Sn2+  Sn59  1  0.67443140  0.32748451  0.66049292  1
  Sn2+  Sn60  1  0.00098836  0.66243077  0.33410669  1
  Sn2+  Sn61  1  0.50148839  0.49573400  0.33369638  1
  Sn2+  Sn62  1  0.82806762  0.00289830  0.50041048  1
  Sn2+  Sn63  1  0.66742560  0.82500030  0.17419790  1
  Sn2+  Sn64  1  0.49150269  0.50213955  0.66913993  1
  Bi3+  Bi65  1  0.33498978  0.33648137  0.66801978  1
  Bi3+  Bi66  1  0.49887851  0.33580758  0.49760424  1
  Bi3+  Bi67  1  0.49769071  0.67003394  0.83799102  1
  Bi3+  Bi68  1  0.82344760  0.33289443  0.17001519  1
  Bi3+  Bi69  1  0.82996864  -0.00277333  0.82940262  1
  Bi3+  Bi70  1  0.66763469  0.16483017  0.16989342  1
  Bi3+  Bi71  1  -0.00103697  0.49868761  0.16850441  1
  Bi3+  Bi72  1  0.17081658  0.66727904  0.16828633  1
  Bi3+  Bi73  1  0.33113240  0.50219135  0.83509302  1
  Bi3+  Bi74  1  0.33269574  0.82585182  0.49908651  1
  Bi3+  Bi75  1  0.83012003  0.33304810  0.49742606  1
  Bi3+  Bi76  1  0.83311375  0.66741884  0.49839487  1
  Bi3+  Bi77  1  -0.00363292  0.83475839  0.83016529  1
  Bi3+  Bi78  1  0.49813637  -0.00241799  0.49848314  1
  Bi3+  Bi79  1  -0.00182919  -0.00080398  0.66618065  1
  Bi3+  Bi80  1  0.67156148  -0.00549411  0.33547970  1
  Bi3+  Bi81  1  -0.00088341  0.50231119  0.50047780  1
  Bi3+  Bi82  1  0.50312890  0.16197727  0.00720211  1
  Bi3+  Bi83  1  0.49515623  0.00204588  0.16813480  1
  Bi3+  Bi84  1  -0.00176301  0.66490285  0.66628153  1
  Bi3+  Bi85  1  0.00019355  0.50009873  0.83342127  1
  Te2-  Te86  1  0.16071724  0.17093100  0.15281619  1
  Te2-  Te87  1  0.17311517  0.17784429  0.49945228  1
  Te2-  Te88  1  0.16547211  0.16407687  0.84592137  1
  Te2-  Te89  1  0.16212357  0.50169277  0.16707004  1
  Te2-  Te90  1  0.16015037  0.49301581  0.51044052  1
  Te2-  Te91  1  0.16556102  0.50910464  0.82793333  1
  Te2-  Te92  1  0.16887726  0.83155951  0.15381034  1
  Te2-  Te93  1  0.17021966  0.83232006  0.50314311  1
  Te2-  Te94  1  0.16142245  0.82762875  0.84181374  1
  Te2-  Te95  1  0.50193315  0.16431145  0.17732962  1
  Te2-  Te96  1  0.49018268  0.16618973  0.48586089  1
  Te2-  Te97  1  0.51668120  0.16017544  0.83488854  1
  Te2-  Te98  1  0.50026364  0.49371608  0.16390013  1
  Te2-  Te99  1  0.49787759  0.50445760  0.50334841  1
  Te2-  Te100  1  0.49805613  0.50335807  0.83965200  1
  Te2-  Te101  1  0.49924343  0.83980161  0.15993114  1
  Te2-  Te102  1  0.49529278  0.82915958  0.49909425  1
  Te2-  Te103  1  0.50733676  0.83351896  0.84031948  1
  Te2-  Te104  1  0.83731747  0.16803075  0.16674025  1
  Te2-  Te105  1  0.82646709  0.17144309  0.51320623  1
  Te2-  Te106  1  0.82027586  0.16193376  0.82086027  1
  Te2-  Te107  1  0.83637636  0.49965110  0.17947089  1
  Te2-  Te108  1  0.83413351  0.50149445  0.48804141  1
  Te2-  Te109  1  0.83788024  0.50509016  0.83688798  1
  Te2-  Te110  1  0.83434455  0.82818859  0.16897342  1
  Te2-  Te111  1  0.83528504  0.82973048  0.49739437  1
  Te2-  Te112  1  0.83235034  0.82959849  0.83395552  1
  Te2-  Te113  1  0.15956905  -0.01236092  0.00560940  1
  Te2-  Te114  1  0.16159001  -0.00854617  0.32301163  1
  Te2-  Te115  1  0.16552001  -0.00282516  0.66869972  1
  Te2-  Te116  1  0.16308596  0.33432228  0.00962900  1
  Te2-  Te117  1  0.16784322  0.33273460  0.32654498  1
  Te2-  Te118  1  0.16457486  0.33059749  0.66254301  1
  Te2-  Te119  1  0.17348871  0.67774057  0.00717940  1
  Te2-  Te120  1  0.16979697  0.67654239  0.33062607  1
  Te2-  Te121  1  0.16378750  0.67309563  0.66278792  1
  Te2-  Te122  1  0.50371318  -0.00312728  0.00069247  1
  Te2-  Te123  1  0.49867553  -0.00247017  0.33371333  1
  Te2-  Te124  1  0.49774441  0.00071333  0.66419735  1
  Te2-  Te125  1  0.51016154  0.32815124  0.00837430  1
  Te2-  Te126  1  0.50202457  0.33832495  0.33764434  1
  Te2-  Te127  1  0.50142460  0.33500816  0.66402191  1
  Te2-  Te128  1  0.50103715  0.67488313  -0.00001377  1
  Te2-  Te129  1  0.50256676  0.66590768  0.32282765  1
  Te2-  Te130  1  0.50677522  0.66269455  0.67545212  1
  Te2-  Te131  1  0.83621090  -0.00575743  -0.00432926  1
  Te2-  Te132  1  0.84078373  -0.01087351  0.33714717  1
  Te2-  Te133  1  0.83522437  -0.01146738  0.66593022  1
  Te2-  Te134  1  0.82519751  0.33429469  0.00648581  1
  Te2-  Te135  1  0.82288637  0.32936334  0.33521794  1
  Te2-  Te136  1  0.83876793  0.34085877  0.66177245  1
  Te2-  Te137  1  0.82453571  0.67385109  0.00369374  1
  Te2-  Te138  1  0.83700182  0.68566175  0.33696384  1
  Te2-  Te139  1  0.83055646  0.66120441  0.66529350  1
  Te2-  Te140  1  -0.00025590  0.15583231  0.00180748  1
  Te2-  Te141  1  0.00545950  0.15658000  0.33845417  1
  Te2-  Te142  1  -0.00927571  0.16806821  0.65798790  1
  Te2-  Te143  1  -0.00107230  0.50202868  0.00016945  1
  Te2-  Te144  1  -0.00689510  0.50397410  0.33399237  1
  Te2-  Te145  1  0.00382567  0.50167230  0.66660229  1
  Te2-  Te146  1  -0.00769348  0.84401881  -0.00321321  1
  Te2-  Te147  1  0.00840623  0.83714369  0.34145766  1
  Te2-  Te148  1  -0.00729907  0.83181083  0.66336740  1
  Te2-  Te149  1  0.34054294  0.15670883  -0.00003803  1
  Te2-  Te150  1  0.32268387  0.15973275  0.34074954  1
  Te2-  Te151  1  0.33450731  0.17243863  0.66079602  1
  Te2-  Te152  1  0.34153172  0.50192677  -0.00000695  1
  Te2-  Te153  1  0.33225414  0.51412828  0.33215144  1
  Te2-  Te154  1  0.32201124  0.49849032  0.67286126  1
  Te2-  Te155  1  0.33439138  0.83850491  0.00019511  1
  Te2-  Te156  1  0.33229327  0.82190696  0.33630179  1
  Te2-  Te157  1  0.33102709  0.82893033  0.66346606  1
  Te2-  Te158  1  0.66418582  0.17474575  0.00623088  1
  Te2-  Te159  1  0.66636215  0.15436252  0.33908820  1
  Te2-  Te160  1  0.67533193  0.16641965  0.66454130  1
  Te2-  Te161  1  0.65719234  0.49212952  0.00267524  1
  Te2-  Te162  1  0.67186102  0.51034981  0.33109723  1
  Te2-  Te163  1  0.67068959  0.49647221  0.66777667  1
  Te2-  Te164  1  0.66766347  0.83755529  0.00767063  1
  Te2-  Te165  1  0.66781380  0.83353264  0.33813078  1
  Te2-  Te166  1  0.67332464  0.83184971  0.65988427  1
  Te2-  Te167  1  0.00597992  0.00696918  0.17007859  1
  Te2-  Te168  1  0.00107123  0.00685944  0.50306721  1
  Te2-  Te169  1  -0.00291076  -0.00195640  0.82805729  1
  Te2-  Te170  1  -0.00395947  0.33221734  0.18357684  1
  Te2-  Te171  1  -0.00296778  0.33601728  0.48694957  1
  Te2-  Te172  1  -0.00541364  0.33708529  0.82951833  1
  Te2-  Te173  1  0.00217379  0.66322311  0.16620186  1
  Te2-  Te174  1  -0.00005786  0.66699346  0.50279064  1
  Te2-  Te175  1  0.00851320  0.66875161  0.82903202  1
  Te2-  Te176  1  0.33022587  -0.00092505  0.16353193  1
  Te2-  Te177  1  0.33594077  -0.00707601  0.50175586  1
  Te2-  Te178  1  0.33761446  -0.00177250  0.83530895  1
  Te2-  Te179  1  0.34682304  0.33682688  0.16886025  1
  Te2-  Te180  1  0.33457714  0.35062028  0.50529967  1
  Te2-  Te181  1  0.33336521  0.33485912  0.83340876  1
  Te2-  Te182  1  0.33935850  0.66480116  0.15632203  1
  Te2-  Te183  1  0.34084127  0.65869675  0.49913261  1
  Te2-  Te184  1  0.32850149  0.66436047  0.83578734  1
  Te2-  Te185  1  0.66173640  -0.00055136  0.16881033  1
  Te2-  Te186  1  0.66032888  -0.01133300  0.49874754  1
  Te2-  Te187  1  0.66594402  -0.01572066  0.83419898  1
  Te2-  Te188  1  0.66182829  0.32646515  0.18628574  1
  Te2-  Te189  1  0.66263696  0.33027126  0.49015558  1
  Te2-  Te190  1  0.67332374  0.33556812  0.83046364  1
  Te2-  Te191  1  0.65719306  0.66355766  0.15855379  1
  Te2-  Te192  1  0.66647313  0.67847445  0.50523899  1
  Te2-  Te193  1  0.66454280  0.68083725  0.83877271  1
  Pb2+  Pb194  1  0.33600233  0.33095907  0.00470973  1
  Pb2+  Pb195  1  -0.00808802  0.16932219  0.82847893  1
  Pb2+  Pb196  1  0.33800946  0.16316696  0.83106631  1
  Pb2+  Pb197  1  0.33515817  0.33522900  0.33535350  1
  Pb2+  Pb198  1  0.16032851  0.33670506  0.83619730  1
  Pb2+  Pb199  1  0.33239848  0.16819998  0.17243130  1
  Pb2+  Pb200  1  0.83026725  0.50261656  0.00853338  1
  Pb2+  Pb201  1  0.50662481  0.16652938  0.65598072  1
  Pb2+  Pb202  1  0.66345716  0.50588698  0.50036595  1
  Pb2+  Pb203  1  0.00170212  0.83310088  0.17017517  1
  Pb2+  Pb204  1  0.16195067  0.16318553  0.67478623  1
  Pb2+  Pb205  1  0.83130938  -0.00330249  0.16687957  1
  Pb2+  Pb206  1  0.16038359  0.50418888  0.33849367  1
  Pb2+  Pb207  1  -0.00120140  0.67479954  -0.00237388  1
  Pb2+  Pb208  1  0.50638311  0.33014430  0.83766473  1
  Pb2+  Pb209  1  0.16908004  0.00300383  0.49514597  1
  Pb2+  Pb210  1  0.50453603  0.83265352  0.66825551  1
  Pb2+  Pb211  1  0.83263819  0.16607451  -0.00884350  1
  Pb2+  Pb212  1  0.33184556  0.83175530  0.83257892  1
  Pb2+  Pb213  1  0.66952674  0.51160928  0.83535531  1
  Pb2+  Pb214  1  0.16787194  0.50824458  -0.00306658  1
  Pb2+  Pb215  1  0.83425302  0.16257163  0.34022036  1
