# generated using pymatgen
data_In22Ag21Sn22Bi21(Te54Pb11)2
_symmetry_space_group_name_H-M   'P 1'
_cell_length_a   19.09199035
_cell_length_b   19.09406247
_cell_length_c   19.09601265
_cell_angle_alpha   89.99899775
_cell_angle_beta   90.00445669
_cell_angle_gamma   90.00866454
_symmetry_Int_Tables_number   1
_chemical_formula_structural   In22Ag21Sn22Bi21(Te54Pb11)2
_chemical_formula_sum   'In22 Ag21 Sn22 Bi21 Te108 Pb22'
_cell_volume   6961.33017204
_cell_formula_units_Z   1
loop_
 _symmetry_equiv_pos_site_id
 _symmetry_equiv_pos_as_xyz
  1  'x, y, z'
loop_
 _atom_type_symbol
 _atom_type_oxidation_number
  In3+  3.0
  Ag+  1.0
  Sn2+  2.0
  Bi3+  3.0
  Te2-  -2.0
  Pb2+  2.0
loop_
 _atom_site_type_symbol
 _atom_site_label
 _atom_site_symmetry_multiplicity
 _atom_site_fract_x
 _atom_site_fract_y
 _atom_site_fract_z
 _atom_site_occupancy
  In3+  In0  1  0.81944292  0.16404320  0.35131709  1
  In3+  In1  1  0.66495478  0.49062804  0.51757849  1
  In3+  In2  1  0.32848682  0.83755174  0.16789316  1
  In3+  In3  1  0.66697456  0.01814358  0.67407737  1
  In3+  In4  1  -0.00317433  0.16914978  0.82642097  1
  In3+  In5  1  0.01282341  0.00623021  0.66702416  1
  In3+  In6  1  -0.00906306  0.65555453  0.00897044  1
  In3+  In7  1  0.50487766  0.33194184  0.15830546  1
  In3+  In8  1  0.66806640  0.84322457  0.84700136  1
  In3+  In9  1  0.50195096  0.16578168  0.68393527  1
  In3+  In10  1  0.50063787  0.84053988  0.00644143  1
  In3+  In11  1  0.32201790  0.00567743  -0.00046648  1
  In3+  In12  1  0.49641772  0.16829019  0.32960028  1
  In3+  In13  1  0.82231863  0.49195849  0.00241442  1
  In3+  In14  1  0.49555686  0.00511464  0.83603128  1
  In3+  In15  1  0.16812803  0.84900474  0.33036705  1
  In3+  In16  1  0.49562159  0.01158749  0.49717241  1
  In3+  In17  1  0.02933823  0.16470470  0.50887926  1
  In3+  In18  1  0.33938417  0.49481337  0.16621540  1
  In3+  In19  1  0.49930447  0.32423311  0.50516091  1
  In3+  In20  1  0.51340439  0.66941289  0.16728098  1
  In3+  In21  1  0.15792969  0.50385979  0.32965078  1
  Ag+  Ag22  1  0.68761200  0.64354198  0.32763793  1
  Ag+  Ag23  1  0.69371282  0.19188204  0.83065848  1
  Ag+  Ag24  1  0.66353153  0.51529627  0.17513860  1
  Ag+  Ag25  1  0.68673563  0.81104180  0.14523853  1
  Ag+  Ag26  1  0.33639726  0.17102130  0.52697848  1
  Ag+  Ag27  1  0.81171381  0.16380258  0.65291638  1
  Ag+  Ag28  1  0.16736097  0.86866969  0.69045531  1
  Ag+  Ag29  1  -0.03171735  0.50321226  0.16255501  1
  Ag+  Ag30  1  0.85601222  0.80363861  -0.00905845  1
  Ag+  Ag31  1  0.17998065  0.17000187  0.01799050  1
  Ag+  Ag32  1  0.81302742  0.69949408  0.16746993  1
  Ag+  Ag33  1  0.34168756  0.30872450  0.00109401  1
  Ag+  Ag34  1  0.18688080  0.02492331  0.16660951  1
  Ag+  Ag35  1  0.65531095  0.32992461  0.69252717  1
  Ag+  Ag36  1  0.33286323  0.00719372  0.34875311  1
  Ag+  Ag37  1  0.80235669  0.81031991  0.28810327  1
  Ag+  Ag38  1  0.16393439  0.51343119  0.64140332  1
  Ag+  Ag39  1  0.68612983  0.33105315  -0.00355003  1
  Ag+  Ag40  1  0.31500260  0.17868374  0.83491357  1
  Ag+  Ag41  1  0.80370169  0.33220869  0.81071931  1
  Ag+  Ag42  1  0.19572486  0.16874352  0.68736136  1
  Sn2+  Sn43  1  0.82870832  0.33192930  0.51034855  1
  Sn2+  Sn44  1  0.33410346  0.16781374  0.16115745  1
  Sn2+  Sn45  1  0.33152923  0.48342308  0.84060184  1
  Sn2+  Sn46  1  0.50952213  0.83438070  0.32932150  1
  Sn2+  Sn47  1  0.00321854  0.49479708  0.83847923  1
  Sn2+  Sn48  1  0.17185304  0.16439138  0.33344167  1
  Sn2+  Sn49  1  0.50076439  0.33097481  0.83745082  1
  Sn2+  Sn50  1  0.66832210  0.01326142  0.00289411  1
  Sn2+  Sn51  1  0.33685330  0.49458952  0.49653210  1
  Sn2+  Sn52  1  0.82776903  0.50320684  0.32275011  1
  Sn2+  Sn53  1  0.33470679  0.67543753  0.32933274  1
  Sn2+  Sn54  1  0.33290276  0.32228215  0.32560353  1
  Sn2+  Sn55  1  0.33333198  0.84197154  0.49124244  1
  Sn2+  Sn56  1  0.16960673  0.66778556  0.82849237  1
  Sn2+  Sn57  1  0.00197546  0.17081294  0.16502510  1
  Sn2+  Sn58  1  0.66501348  0.33899178  0.32224831  1
  Sn2+  Sn59  1  0.50159987  0.66804126  0.84267083  1
  Sn2+  Sn60  1  0.32747103  0.66927821  0.00228548  1
  Sn2+  Sn61  1  0.66898655  0.16570325  0.15506971  1
  Sn2+  Sn62  1  0.49509683  -0.00434778  0.17039798  1
  Sn2+  Sn63  1  0.16969078  0.33167734  0.16108915  1
  Sn2+  Sn64  1  0.50497654  0.49625133  0.00198019  1
  Bi3+  Bi65  1  0.83031022  0.33307794  0.17259122  1
  Bi3+  Bi66  1  0.83681663  0.16862607  0.00060461  1
  Bi3+  Bi67  1  0.00071655  0.32887309  0.66523468  1
  Bi3+  Bi68  1  0.00038457  0.00232552  0.00136064  1
  Bi3+  Bi69  1  0.16988714  0.49525142  0.00317567  1
  Bi3+  Bi70  1  0.66467199  0.83204227  0.49945157  1
  Bi3+  Bi71  1  -0.00205367  0.66471388  0.32868049  1
  Bi3+  Bi72  1  0.17029914  0.66402097  0.49741536  1
  Bi3+  Bi73  1  0.17410206  0.32941745  0.49888038  1
  Bi3+  Bi74  1  0.16765820  0.33338541  0.83254192  1
  Bi3+  Bi75  1  0.33225622  0.66459171  0.66621818  1
  Bi3+  Bi76  1  0.49873424  0.49720920  0.32901766  1
  Bi3+  Bi77  1  0.83202490  0.66685306  0.49253641  1
  Bi3+  Bi78  1  0.00079996  0.83545439  0.50157722  1
  Bi3+  Bi79  1  0.83269734  0.00545467  0.16577779  1
  Bi3+  Bi80  1  0.66427693  0.49748599  0.83793709  1
  Bi3+  Bi81  1  0.66046978  0.00505587  0.33118284  1
  Bi3+  Bi82  1  0.50134945  0.66778147  0.49374113  1
  Bi3+  Bi83  1  0.00098026  0.33022141  0.33165364  1
  Bi3+  Bi84  1  0.16893051  0.66209697  0.16544978  1
  Bi3+  Bi85  1  0.33724995  0.82812175  0.83170452  1
  Te2-  Te86  1  0.16417657  0.17129876  0.16517209  1
  Te2-  Te87  1  0.18518420  0.16768896  0.49638511  1
  Te2-  Te88  1  0.16481491  0.17206516  0.83152163  1
  Te2-  Te89  1  0.17633354  0.49915472  0.16755789  1
  Te2-  Te90  1  0.16861663  0.49647365  0.49222250  1
  Te2-  Te91  1  0.16677774  0.49812835  0.84071674  1
  Te2-  Te92  1  0.17122788  0.82539317  0.17156269  1
  Te2-  Te93  1  0.16602716  0.82730548  0.48957118  1
  Te2-  Te94  1  0.17078144  0.83213027  0.83318954  1
  Te2-  Te95  1  0.50046443  0.17057152  0.16903735  1
  Te2-  Te96  1  0.48804276  0.16859782  0.49336495  1
  Te2-  Te97  1  0.49373859  0.15981935  0.83394538  1
  Te2-  Te98  1  0.50988176  0.50324016  0.16792978  1
  Te2-  Te99  1  0.50447148  0.50241348  0.49541768  1
  Te2-  Te100  1  0.49735258  0.49956081  0.83387700  1
  Te2-  Te101  1  0.49319041  0.82822114  0.16512231  1
  Te2-  Te102  1  0.49858937  0.83017121  0.49785106  1
  Te2-  Te103  1  0.50192841  0.83269209  0.83484275  1
  Te2-  Te104  1  0.83609161  0.16977072  0.16780431  1
  Te2-  Te105  1  0.82666669  0.16810508  0.50480638  1
  Te2-  Te106  1  0.84239714  0.18309642  0.83940875  1
  Te2-  Te107  1  0.81783658  0.49333510  0.16176790  1
  Te2-  Te108  1  0.82505430  0.50360684  0.49642670  1
  Te2-  Te109  1  0.83261230  0.48592789  0.84155701  1
  Te2-  Te110  1  0.83017553  0.84429297  0.14864390  1
  Te2-  Te111  1  0.83542271  0.82858157  0.50226938  1
  Te2-  Te112  1  0.82280688  0.83044894  0.84587358  1
  Te2-  Te113  1  0.16617542  0.00955671  0.01160248  1
  Te2-  Te114  1  0.17946205  0.00180086  0.31975794  1
  Te2-  Te115  1  0.16642773  0.01502622  0.66546391  1
  Te2-  Te116  1  0.17559610  0.32914993  -0.00095766  1
  Te2-  Te117  1  0.16660290  0.33458193  0.33496142  1
  Te2-  Te118  1  0.16533607  0.31689252  0.66345503  1
  Te2-  Te119  1  0.16195081  0.66268461  0.00067120  1
  Te2-  Te120  1  0.16476663  0.66142451  0.33347303  1
  Te2-  Te121  1  0.16852696  0.65928792  0.66067196  1
  Te2-  Te122  1  0.50172583  -0.00371242  0.00091772  1
  Te2-  Te123  1  0.49272328  0.00480292  0.33373834  1
  Te2-  Te124  1  0.50769049  0.00626030  0.66379592  1
  Te2-  Te125  1  0.48838090  0.33553159  0.00554747  1
  Te2-  Te126  1  0.49644396  0.33218036  0.33278200  1
  Te2-  Te127  1  0.50780493  0.32518747  0.66226022  1
  Te2-  Te128  1  0.49763120  0.66757939  0.00851421  1
  Te2-  Te129  1  0.49689872  0.66442290  0.33048594  1
  Te2-  Te130  1  0.49838875  0.66426903  0.66037675  1
  Te2-  Te131  1  0.83410350  0.00456903  0.00166692  1
  Te2-  Te132  1  0.83032832  0.00872123  0.32975227  1
  Te2-  Te133  1  0.82068587  0.01144685  0.66967121  1
  Te2-  Te134  1  0.83546794  0.33457616  0.00869957  1
  Te2-  Te135  1  0.83603811  0.32850626  0.33723936  1
  Te2-  Te136  1  0.83591058  0.32223099  0.66542248  1
  Te2-  Te137  1  0.83485216  0.65953995  0.01568931  1
  Te2-  Te138  1  0.83509791  0.67002125  0.32582234  1
  Te2-  Te139  1  0.83419247  0.66474025  0.66440354  1
  Te2-  Te140  1  0.00221786  0.16371463  -0.00305457  1
  Te2-  Te141  1  0.00561860  0.16916661  0.33895658  1
  Te2-  Te142  1  -0.00459566  0.16302257  0.66150126  1
  Te2-  Te143  1  0.00485402  0.50162261  0.00991198  1
  Te2-  Te144  1  -0.00312047  0.49765046  0.32286596  1
  Te2-  Te145  1  0.01011903  0.49455615  0.66594589  1
  Te2-  Te146  1  0.00043402  0.83654787  -0.00003058  1
  Te2-  Te147  1  0.00755420  0.83092988  0.33764955  1
  Te2-  Te148  1  0.01125484  0.84078846  0.66341169  1
  Te2-  Te149  1  0.32664673  0.16008033  -0.00698083  1
  Te2-  Te150  1  0.33964490  0.15855203  0.31985698  1
  Te2-  Te151  1  0.34621351  0.16477240  0.67694848  1
  Te2-  Te152  1  0.33202168  0.50743667  0.00592236  1
  Te2-  Te153  1  0.33714188  0.49736647  0.32852867  1
  Te2-  Te154  1  0.32102295  0.50064507  0.66682194  1
  Te2-  Te155  1  0.34075138  0.83348353  -0.00273438  1
  Te2-  Te156  1  0.33398331  0.84399063  0.33077764  1
  Te2-  Te157  1  0.31954994  0.82968947  0.66610536  1
  Te2-  Te158  1  0.67107339  0.17542173  -0.01408222  1
  Te2-  Te159  1  0.65961528  0.16767471  0.33441091  1
  Te2-  Te160  1  0.66319081  0.17466711  0.68057471  1
  Te2-  Te161  1  0.66757371  0.48735402  -0.00074224  1
  Te2-  Te162  1  0.66275807  0.49734317  0.32487877  1
  Te2-  Te163  1  0.66713932  0.48618746  0.67182005  1
  Te2-  Te164  1  0.65448985  0.83582808  0.00118170  1
  Te2-  Te165  1  0.66821595  0.84472690  0.33811011  1
  Te2-  Te166  1  0.66657036  0.83458649  0.66252634  1
  Te2-  Te167  1  -0.00141274  0.00125081  0.16488801  1
  Te2-  Te168  1  -0.00108711  0.00204938  0.50311040  1
  Te2-  Te169  1  -0.00200719  0.00314174  0.83017889  1
  Te2-  Te170  1  -0.00224958  0.34299181  0.17112270  1
  Te2-  Te171  1  0.00424499  0.32644126  0.49849422  1
  Te2-  Te172  1  0.00378138  0.33135109  0.82896242  1
  Te2-  Te173  1  0.00324731  0.65314434  0.16700627  1
  Te2-  Te174  1  0.00076735  0.66592125  0.49510054  1
  Te2-  Te175  1  -0.00091116  0.66274296  0.83954609  1
  Te2-  Te176  1  0.33218288  -0.00682426  0.15419937  1
  Te2-  Te177  1  0.34014274  0.00756682  0.49748888  1
  Te2-  Te178  1  0.33921964  -0.00856228  0.84018597  1
  Te2-  Te179  1  0.34183953  0.33798724  0.15882126  1
  Te2-  Te180  1  0.33747753  0.32614427  0.49894130  1
  Te2-  Te181  1  0.33347838  0.32605102  0.84420558  1
  Te2-  Te182  1  0.33078311  0.66993021  0.16923435  1
  Te2-  Te183  1  0.33428305  0.66546433  0.49924446  1
  Te2-  Te184  1  0.33560923  0.66494545  0.83058622  1
  Te2-  Te185  1  0.66439178  0.00434313  0.16892166  1
  Te2-  Te186  1  0.65603208  -0.00015635  0.49793648  1
  Te2-  Te187  1  0.65626319  -0.00341127  0.83288031  1
  Te2-  Te188  1  0.66203875  0.32531871  0.15725529  1
  Te2-  Te189  1  0.65978020  0.33751534  0.49391920  1
  Te2-  Te190  1  0.65787878  0.33532607  0.84252375  1
  Te2-  Te191  1  0.66594908  0.66832429  0.17665359  1
  Te2-  Te192  1  0.66706813  0.66695630  0.48481766  1
  Te2-  Te193  1  0.66363344  0.66085663  0.83192162  1
  Pb2+  Pb194  1  0.65713429  0.17045912  0.50888329  1
  Pb2+  Pb195  1  0.50049421  0.16625280  0.00055474  1
  Pb2+  Pb196  1  0.00454804  0.00284470  0.33057041  1
  Pb2+  Pb197  1  0.82682852  -0.00321086  0.49944396  1
  Pb2+  Pb198  1  0.66504823  0.66264944  0.00410201  1
  Pb2+  Pb199  1  0.49612090  0.83605039  0.66655263  1
  Pb2+  Pb200  1  0.00586303  0.33192284  0.00032299  1
  Pb2+  Pb201  1  0.33452615  -0.00213394  0.66703404  1
  Pb2+  Pb202  1  0.49176564  0.49407963  0.66619917  1
  Pb2+  Pb203  1  0.83197623  0.65718758  0.84277615  1
  Pb2+  Pb204  1  0.00235400  0.66636674  0.66957756  1
  Pb2+  Pb205  1  0.84022551  0.49048293  0.67089382  1
  Pb2+  Pb206  1  0.17028537  0.83747948  0.00276452  1
  Pb2+  Pb207  1  0.33257109  0.33130946  0.67105906  1
  Pb2+  Pb208  1  -0.00437139  0.82695525  0.16794296  1
  Pb2+  Pb209  1  0.66725561  0.66655044  0.65743141  1
  Pb2+  Pb210  1  0.82714367  0.01087267  0.83476394  1
  Pb2+  Pb211  1  0.83346661  0.84026019  0.67265999  1
  Pb2+  Pb212  1  0.16946450  -0.00251296  0.49387757  1
  Pb2+  Pb213  1  -0.00516689  0.49428000  0.49376525  1
  Pb2+  Pb214  1  0.16743851  0.00798014  0.84002420  1
  Pb2+  Pb215  1  -0.00313317  0.83291961  0.83350650  1
