# generated using pymatgen
data_In22Ag21Sn22Bi21(Te54Pb11)2
_symmetry_space_group_name_H-M   'P 1'
_cell_length_a   19.12065978
_cell_length_b   19.11561749
_cell_length_c   19.10572376
_cell_angle_alpha   89.97511573
_cell_angle_beta   90.01351881
_cell_angle_gamma   89.98590536
_symmetry_Int_Tables_number   1
_chemical_formula_structural   In22Ag21Sn22Bi21(Te54Pb11)2
_chemical_formula_sum   'In22 Ag21 Sn22 Bi21 Te108 Pb22'
_cell_volume   6983.20246280
_cell_formula_units_Z   1
loop_
 _symmetry_equiv_pos_site_id
 _symmetry_equiv_pos_as_xyz
  1  'x, y, z'
loop_
 _atom_type_symbol
 _atom_type_oxidation_number
  In3+  3.0
  Ag+  1.0
  Sn2+  2.0
  Bi3+  3.0
  Te2-  -2.0
  Pb2+  2.0
loop_
 _atom_site_type_symbol
 _atom_site_label
 _atom_site_symmetry_multiplicity
 _atom_site_fract_x
 _atom_site_fract_y
 _atom_site_fract_z
 _atom_site_occupancy
  In3+  In0  1  0.00344533  0.35129945  -0.00083857  1
  In3+  In1  1  0.49678127  0.81383863  0.66566773  1
  In3+  In2  1  0.49977987  0.16160002  0.32333911  1
  In3+  In3  1  0.66088972  0.83401589  0.84304354  1
  In3+  In4  1  0.02636792  0.33468815  0.66471369  1
  In3+  In5  1  0.83329048  0.36019439  0.50400336  1
  In3+  In6  1  0.49834476  0.66368542  0.16287363  1
  In3+  In7  1  0.83083157  0.33761122  0.16879141  1
  In3+  In8  1  0.31370388  0.16281899  0.16290776  1
  In3+  In9  1  0.00485419  0.14939907  0.83689186  1
  In3+  In10  1  0.81707608  0.00780663  0.16654573  1
  In3+  In11  1  0.34075688  0.00087719  0.68121508  1
  In3+  In12  1  -0.01255662  0.69516468  0.34609693  1
  In3+  In13  1  0.34124146  0.50221364  0.51206634  1
  In3+  In14  1  0.33250822  0.33768149  -0.00947500  1
  In3+  In15  1  0.16899268  0.34630612  0.50040232  1
  In3+  In16  1  0.65971210  0.50368999  0.15828732  1
  In3+  In17  1  0.01012534  0.00962404  0.00003509  1
  In3+  In18  1  0.83315498  0.18127453  0.00643052  1
  In3+  In19  1  0.17444497  0.16844553  0.66469837  1
  In3+  In20  1  0.49361183  0.33539745  0.16347719  1
  In3+  In21  1  0.49636715  0.84401759  -0.00483000  1
  Ag+  Ag22  1  0.51756506  -0.02695052  0.16678470  1
  Ag+  Ag23  1  0.00697983  0.49942034  0.81149806  1
  Ag+  Ag24  1  0.47103384  0.47704270  0.69129518  1
  Ag+  Ag25  1  0.30740592  0.64695370  0.67084162  1
  Ag+  Ag26  1  0.80877125  0.67646467  0.52528960  1
  Ag+  Ag27  1  0.14907935  0.67971996  0.51306058  1
  Ag+  Ag28  1  0.64089479  0.34259182  0.00092697  1
  Ag+  Ag29  1  0.64590871  0.47283485  0.80812302  1
  Ag+  Ag30  1  0.64318683  -0.01138136  0.34596221  1
  Ag+  Ag31  1  0.00307402  0.14325874  0.16277523  1
  Ag+  Ag32  1  0.51616998  0.46755911  -0.02340325  1
  Ag+  Ag33  1  0.19234285  0.67089244  0.80628303  1
  Ag+  Ag34  1  0.51744241  0.02105268  0.80746692  1
  Ag+  Ag35  1  0.33319686  0.35332320  0.68665572  1
  Ag+  Ag36  1  -0.02188480  0.00114176  0.35600649  1
  Ag+  Ag37  1  -0.00219284  0.84535408  0.52335048  1
  Ag+  Ag38  1  0.79868391  0.47349494  -0.03003205  1
  Ag+  Ag39  1  0.18152256  0.52088804  0.66900756  1
  Ag+  Ag40  1  0.14400996  0.83175973  0.33717363  1
  Ag+  Ag41  1  0.65113105  0.64077756  0.33299994  1
  Ag+  Ag42  1  0.34459589  -0.01975595  -0.01677104  1
  Sn2+  Sn43  1  0.51008420  0.83195809  0.33636377  1
  Sn2+  Sn44  1  0.33222591  0.66953564  0.34276618  1
  Sn2+  Sn45  1  0.17055126  -0.01529939  0.49306159  1
  Sn2+  Sn46  1  0.67468504  0.83323941  0.49405046  1
  Sn2+  Sn47  1  0.66587050  0.83364616  0.17111610  1
  Sn2+  Sn48  1  0.17226928  -0.00664169  0.82743087  1
  Sn2+  Sn49  1  0.00287177  0.81221372  0.82857527  1
  Sn2+  Sn50  1  0.16045742  0.35624690  0.83101777  1
  Sn2+  Sn51  1  0.66693041  0.33193062  0.32642496  1
  Sn2+  Sn52  1  0.82491829  0.00207487  0.83720514  1
  Sn2+  Sn53  1  0.16541530  0.51723246  0.34518050  1
  Sn2+  Sn54  1  0.31931239  0.82602431  0.49783371  1
  Sn2+  Sn55  1  0.33141856  0.83293809  0.83182316  1
  Sn2+  Sn56  1  0.00431333  0.66158181  0.66405016  1
  Sn2+  Sn57  1  0.50293888  0.15522900  0.00468101  1
  Sn2+  Sn58  1  0.00360375  0.31453261  0.32973760  1
  Sn2+  Sn59  1  0.83260764  0.83282800  0.34068615  1
  Sn2+  Sn60  1  0.33755809  0.66804327  -0.00742426  1
  Sn2+  Sn61  1  0.49861844  0.17748086  0.66636447  1
  Sn2+  Sn62  1  0.65813986  -0.00493674  0.66064843  1
  Sn2+  Sn63  1  0.66255211  0.66650360  0.66087029  1
  Sn2+  Sn64  1  0.83850473  -0.00949386  0.48828774  1
  Bi3+  Bi65  1  0.50272958  0.66751230  0.49752716  1
  Bi3+  Bi66  1  0.33416654  0.49846037  0.16718633  1
  Bi3+  Bi67  1  0.00119182  0.66739373  0.00325881  1
  Bi3+  Bi68  1  0.83088489  0.83640825  0.00005472  1
  Bi3+  Bi69  1  0.33320231  -0.00232407  0.33310256  1
  Bi3+  Bi70  1  0.83396418  0.66686536  0.83542205  1
  Bi3+  Bi71  1  0.16473125  0.33392450  0.16966343  1
  Bi3+  Bi72  1  0.49843486  0.33395478  0.49933548  1
  Bi3+  Bi73  1  0.50238171  0.67191322  0.83497209  1
  Bi3+  Bi74  1  0.83403606  0.16654180  0.33341274  1
  Bi3+  Bi75  1  0.83706093  0.50202943  0.67028413  1
  Bi3+  Bi76  1  0.83249574  0.66868129  0.16482878  1
  Bi3+  Bi77  1  0.16991362  0.66493154  0.17000505  1
  Bi3+  Bi78  1  0.17075114  -0.00301906  0.16448974  1
  Bi3+  Bi79  1  0.83566538  0.16693551  0.66813131  1
  Bi3+  Bi80  1  0.67107724  0.17638536  0.16745770  1
  Bi3+  Bi81  1  -0.00018581  0.83356053  0.16241001  1
  Bi3+  Bi82  1  0.83742222  0.49755162  0.33132269  1
  Bi3+  Bi83  1  0.83890695  0.33740309  0.83119166  1
  Bi3+  Bi84  1  -0.00211144  0.49892599  0.17095788  1
  Bi3+  Bi85  1  0.00368733  0.50225180  0.49904864  1
  Te2-  Te86  1  0.15499354  0.16897058  0.16728271  1
  Te2-  Te87  1  0.16539290  0.16350466  0.50825808  1
  Te2-  Te88  1  0.15708869  0.16596816  0.82555118  1
  Te2-  Te89  1  0.16761368  0.49868355  0.17157488  1
  Te2-  Te90  1  0.16843119  0.49861842  0.50842026  1
  Te2-  Te91  1  0.16062756  0.51097991  0.82129895  1
  Te2-  Te92  1  0.16568856  0.83018709  0.17524754  1
  Te2-  Te93  1  0.15904246  0.82592757  0.48973584  1
  Te2-  Te94  1  0.16872169  0.82166533  0.83135187  1
  Te2-  Te95  1  0.50796373  0.18055759  0.16979777  1
  Te2-  Te96  1  0.49988907  0.16959603  0.49747924  1
  Te2-  Te97  1  0.50097096  0.16423472  0.83611774  1
  Te2-  Te98  1  0.49901685  0.49964535  0.16475390  1
  Te2-  Te99  1  0.49841578  0.50038979  0.50204689  1
  Te2-  Te100  1  0.50479153  0.50763986  0.83342714  1
  Te2-  Te101  1  0.50593854  0.82509107  0.16385897  1
  Te2-  Te102  1  0.50009161  0.82918666  0.50544965  1
  Te2-  Te103  1  0.50308383  0.83432758  0.83445599  1
  Te2-  Te104  1  0.83951996  0.16914770  0.16647097  1
  Te2-  Te105  1  0.83604057  0.15826680  0.50076805  1
  Te2-  Te106  1  0.84464096  0.16985400  0.83484708  1
  Te2-  Te107  1  0.83438910  0.50258523  0.16739631  1
  Te2-  Te108  1  0.83799957  0.52105311  0.49843675  1
  Te2-  Te109  1  0.84186989  0.50196002  0.83237606  1
  Te2-  Te110  1  0.83470775  0.83409191  0.16324105  1
  Te2-  Te111  1  0.84623324  0.82438722  0.49905006  1
  Te2-  Te112  1  0.82980350  0.83406889  0.83615169  1
  Te2-  Te113  1  0.17803416  0.00061834  -0.00244040  1
  Te2-  Te114  1  0.17242506  -0.01174288  0.32987799  1
  Te2-  Te115  1  0.17194544  0.00328573  0.66956640  1
  Te2-  Te116  1  0.16836634  0.33368602  0.00290834  1
  Te2-  Te117  1  0.16356523  0.32900490  0.33603291  1
  Te2-  Te118  1  0.17858580  0.32711409  0.66586733  1
  Te2-  Te119  1  0.16782811  0.66745168  0.00463209  1
  Te2-  Te120  1  0.17054132  0.67647999  0.33063468  1
  Te2-  Te121  1  0.16165307  0.66753131  0.66128340  1
  Te2-  Te122  1  0.49069885  -0.00255963  0.01647997  1
  Te2-  Te123  1  0.49769497  0.00466315  0.31974165  1
  Te2-  Te124  1  0.49693015  0.00983989  0.66325460  1
  Te2-  Te125  1  0.49239938  0.32710539  0.00646972  1
  Te2-  Te126  1  0.50411391  0.33022707  0.33585005  1
  Te2-  Te127  1  0.48962247  0.33411869  0.66346890  1
  Te2-  Te128  1  0.49776552  0.67466023  0.00151001  1
  Te2-  Te129  1  0.50538165  0.66938488  0.33147492  1
  Te2-  Te130  1  0.50604618  0.66175917  0.66444310  1
  Te2-  Te131  1  0.83199664  -0.00105602  0.00340717  1
  Te2-  Te132  1  0.83490002  0.00465045  0.32361339  1
  Te2-  Te133  1  0.83038405  0.00497396  0.66924336  1
  Te2-  Te134  1  0.84626015  0.33637199  -0.00230567  1
  Te2-  Te135  1  0.83598318  0.33095368  0.34021265  1
  Te2-  Te136  1  0.83269405  0.33304041  0.66558626  1
  Te2-  Te137  1  0.83424392  0.66937660  0.00110497  1
  Te2-  Te138  1  0.84013411  0.66193903  0.32578362  1
  Te2-  Te139  1  0.83483187  0.66620184  0.67078740  1
  Te2-  Te140  1  -0.00831146  0.16042855  0.00646996  1
  Te2-  Te141  1  -0.00396900  0.15216038  0.32389399  1
  Te2-  Te142  1  -0.00221559  0.17543367  0.67356702  1
  Te2-  Te143  1  -0.00016303  0.50518342  0.00898520  1
  Te2-  Te144  1  0.00009565  0.48824697  0.33402196  1
  Te2-  Te145  1  -0.00106980  0.49091961  0.66159900  1
  Te2-  Te146  1  -0.00368646  0.83176195  -0.00298936  1
  Te2-  Te147  1  -0.00371296  0.84743012  0.32423797  1
  Te2-  Te148  1  0.00029693  0.83158408  0.66953698  1
  Te2-  Te149  1  0.33524947  0.17980277  0.00885341  1
  Te2-  Te150  1  0.33907226  0.16515378  0.32681273  1
  Te2-  Te151  1  0.33043301  0.15785644  0.66953589  1
  Te2-  Te152  1  0.34091903  0.49738537  0.00516857  1
  Te2-  Te153  1  0.33018542  0.50601382  0.33029313  1
  Te2-  Te154  1  0.32900471  0.50030305  0.66319950  1
  Te2-  Te155  1  0.34002734  0.83371120  0.00162642  1
  Te2-  Te156  1  0.34557265  0.83252880  0.33781603  1
  Te2-  Te157  1  0.34432383  0.84580901  0.66424622  1
  Te2-  Te158  1  0.67605251  0.17760641  0.00521719  1
  Te2-  Te159  1  0.66981193  0.16719616  0.32922037  1
  Te2-  Te160  1  0.67028868  0.16528355  0.66893827  1
  Te2-  Te161  1  0.65976251  0.49396512  0.00772259  1
  Te2-  Te162  1  0.67386545  0.49421282  0.32779272  1
  Te2-  Te163  1  0.67463351  0.50373696  0.66820643  1
  Te2-  Te164  1  0.66622807  0.83418922  0.00100382  1
  Te2-  Te165  1  0.66940409  0.84493121  0.33042768  1
  Te2-  Te166  1  0.65644695  0.83646574  0.66434109  1
  Te2-  Te167  1  0.00872056  -0.00451984  0.15369229  1
  Te2-  Te168  1  0.00381846  -0.00790497  0.50160071  1
  Te2-  Te169  1  0.00097508  -0.00385952  0.84052350  1
  Te2-  Te170  1  0.00281383  0.33649491  0.16129653  1
  Te2-  Te171  1  0.00626950  0.33557634  0.50392156  1
  Te2-  Te172  1  0.00156128  0.34720811  0.83661630  1
  Te2-  Te173  1  0.00338315  0.66653060  0.17169944  1
  Te2-  Te174  1  0.00515870  0.66272797  0.49420572  1
  Te2-  Te175  1  -0.00473708  0.65440262  0.83967980  1
  Te2-  Te176  1  0.33087202  0.00891562  0.16830896  1
  Te2-  Te177  1  0.33083376  -0.00253755  0.49649785  1
  Te2-  Te178  1  0.33659890  -0.00359310  0.83669380  1
  Te2-  Te179  1  0.33087615  0.33285093  0.16702243  1
  Te2-  Te180  1  0.33164751  0.34154614  0.50220120  1
  Te2-  Te181  1  0.32882556  0.33256459  0.83352800  1
  Te2-  Te182  1  0.33629829  0.66395868  0.16635506  1
  Te2-  Te183  1  0.34108957  0.66082558  0.50977208  1
  Te2-  Te184  1  0.33962242  0.67130143  0.82105005  1
  Te2-  Te185  1  0.66337629  0.00842710  0.17093200  1
  Te2-  Te186  1  0.66896679  -0.00597062  0.49122745  1
  Te2-  Te187  1  0.65960000  -0.00684937  0.83372943  1
  Te2-  Te188  1  0.66774011  0.33932877  0.15624266  1
  Te2-  Te189  1  0.66489785  0.33429379  0.50108350  1
  Te2-  Te190  1  0.67330004  0.33437498  0.84602192  1
  Te2-  Te191  1  0.66888310  0.66183367  0.17860323  1
  Te2-  Te192  1  0.66559201  0.67345785  0.48539976  1
  Te2-  Te193  1  0.66778611  0.67598006  0.83255607  1
  Pb2+  Pb194  1  0.33119794  0.16376185  0.83890975  1
  Pb2+  Pb195  1  0.16420913  0.16550825  -0.00367783  1
  Pb2+  Pb196  1  0.00020886  0.16485775  0.49808752  1
  Pb2+  Pb197  1  0.16703250  0.83473356  -0.00012130  1
  Pb2+  Pb198  1  0.33288727  0.33678353  0.33540840  1
  Pb2+  Pb199  1  0.49905559  -0.00430231  0.49362336  1
  Pb2+  Pb200  1  0.66075609  0.00620694  0.00390467  1
  Pb2+  Pb201  1  0.82614727  0.83603795  0.66485650  1
  Pb2+  Pb202  1  0.67252531  0.16650439  0.83727273  1
  Pb2+  Pb203  1  0.00017264  0.00288100  0.66882063  1
  Pb2+  Pb204  1  0.66404471  0.65973583  0.00250507  1
  Pb2+  Pb205  1  0.17270098  0.83479320  0.66117127  1
  Pb2+  Pb206  1  0.66513918  0.33540314  0.67086565  1
  Pb2+  Pb207  1  0.50155046  0.33356346  0.83591182  1
  Pb2+  Pb208  1  0.33198526  0.16909751  0.50142640  1
  Pb2+  Pb209  1  0.66865053  0.50414012  0.50090830  1
  Pb2+  Pb210  1  0.33668692  0.83656827  0.17093235  1
  Pb2+  Pb211  1  0.16717369  0.15520830  0.33796509  1
  Pb2+  Pb212  1  0.49888353  0.50063482  0.33286173  1
  Pb2+  Pb213  1  0.33100031  0.50378225  0.83591915  1
  Pb2+  Pb214  1  0.16869984  0.50204511  -0.00672701  1
  Pb2+  Pb215  1  0.66908888  0.16447369  0.49918222  1
