# generated using pymatgen
data_In22Ag21Sn22Bi21(Te54Pb11)2
_symmetry_space_group_name_H-M   'P 1'
_cell_length_a   19.12084984
_cell_length_b   19.12346533
_cell_length_c   19.10693976
_cell_angle_alpha   90.00859860
_cell_angle_beta   89.97786208
_cell_angle_gamma   89.98766958
_symmetry_Int_Tables_number   1
_chemical_formula_structural   In22Ag21Sn22Bi21(Te54Pb11)2
_chemical_formula_sum   'In22 Ag21 Sn22 Bi21 Te108 Pb22'
_cell_volume   6986.58377080
_cell_formula_units_Z   1
loop_
 _symmetry_equiv_pos_site_id
 _symmetry_equiv_pos_as_xyz
  1  'x, y, z'
loop_
 _atom_type_symbol
 _atom_type_oxidation_number
  In3+  3.0
  Ag+  1.0
  Sn2+  2.0
  Bi3+  3.0
  Te2-  -2.0
  Pb2+  2.0
loop_
 _atom_site_type_symbol
 _atom_site_label
 _atom_site_symmetry_multiplicity
 _atom_site_fract_x
 _atom_site_fract_y
 _atom_site_fract_z
 _atom_site_occupancy
  In3+  In0  1  -0.01143089  0.00321229  0.67546592  1
  In3+  In1  1  0.66543014  0.17636395  0.49135906  1
  In3+  In2  1  0.17286174  0.19583588  0.33627698  1
  In3+  In3  1  0.33287542  0.51769961  0.49474496  1
  In3+  In4  1  0.50184645  0.82723299  0.65316646  1
  In3+  In5  1  -0.00773029  0.52221074  0.81990486  1
  In3+  In6  1  0.00896864  0.50456323  0.49769139  1
  In3+  In7  1  0.82992039  0.49721574  0.34543049  1
  In3+  In8  1  0.65710877  0.65734610  0.00590011  1
  In3+  In9  1  0.66092278  -0.01511551  0.33511269  1
  In3+  In10  1  0.35692431  0.16756277  0.50048261  1
  In3+  In11  1  0.82449504  0.33512985  0.16350472  1
  In3+  In12  1  0.82793224  0.82152264  0.33134017  1
  In3+  In13  1  -0.01868957  0.18222547  0.83411116  1
  In3+  In14  1  0.19113153  0.00167375  0.49219511  1
  In3+  In15  1  0.67041287  0.33291456  0.68337902  1
  In3+  In16  1  0.49271792  0.82918939  0.33752618  1
  In3+  In17  1  0.82009460  0.66206258  0.50658895  1
  In3+  In18  1  0.33823990  -0.00991562  0.33763660  1
  In3+  In19  1  0.49751574  0.34277262  0.48778902  1
  In3+  In20  1  0.01597276  0.33458352  0.00443368  1
  In3+  In21  1  0.50463642  -0.01130212  0.81178112  1
  Ag+  Ag22  1  0.66256531  0.18219847  0.81461190  1
  Ag+  Ag23  1  0.65965605  0.80816481  0.80589783  1
  Ag+  Ag24  1  0.81189678  0.19393947  0.67069870  1
  Ag+  Ag25  1  0.35813725  0.32521938  0.02313563  1
  Ag+  Ag26  1  0.67346233  0.47662670  0.18473895  1
  Ag+  Ag27  1  0.65141846  0.81993707  0.15525957  1
  Ag+  Ag28  1  0.48520732  0.35124353  0.17345200  1
  Ag+  Ag29  1  0.66656386  0.69360462  0.70024551  1
  Ag+  Ag30  1  0.19038316  0.50520815  0.30870215  1
  Ag+  Ag31  1  0.30770171  0.64706045  0.32619403  1
  Ag+  Ag32  1  0.67371037  0.52290573  0.79885599  1
  Ag+  Ag33  1  0.19020950  0.35076128  0.16068719  1
  Ag+  Ag34  1  0.80910994  0.49468867  0.66502987  1
  Ag+  Ag35  1  0.50262087  0.00370879  0.50129686  1
  Ag+  Ag36  1  0.31716129  0.81500274  0.51690422  1
  Ag+  Ag37  1  0.03181541  0.83555763  0.80778005  1
  Ag+  Ag38  1  0.64754559  0.31050170  0.32793561  1
  Ag+  Ag39  1  0.30580525  0.49277400  0.85760070  1
  Ag+  Ag40  1  0.37129659  0.36351941  0.68526915  1
  Ag+  Ag41  1  0.19429208  0.80697825  0.00247660  1
  Ag+  Ag42  1  0.65111451  0.64883267  0.30389038  1
  Sn2+  Sn43  1  0.66371005  0.17294382  0.16137403  1
  Sn2+  Sn44  1  0.82521591  0.16961996  -0.00831712  1
  Sn2+  Sn45  1  -0.00038645  0.33107983  0.67147432  1
  Sn2+  Sn46  1  0.83550431  0.17051360  0.34545127  1
  Sn2+  Sn47  1  -0.00015956  0.66434962  0.33818570  1
  Sn2+  Sn48  1  -0.01775582  0.66509279  0.66672281  1
  Sn2+  Sn49  1  0.82649664  0.33845583  0.83543503  1
  Sn2+  Sn50  1  0.16609205  0.67032276  0.49765723  1
  Sn2+  Sn51  1  0.49936888  0.49875854  0.67764070  1
  Sn2+  Sn52  1  0.82962619  0.83205898  -0.00371126  1
  Sn2+  Sn53  1  0.50562052  0.65790480  0.16976691  1
  Sn2+  Sn54  1  0.66199789  0.33856184  0.00903959  1
  Sn2+  Sn55  1  0.17353407  0.83236412  0.67652488  1
  Sn2+  Sn56  1  0.33307159  0.65556557  0.00889966  1
  Sn2+  Sn57  1  0.16834045  0.49759349  0.00468896  1
  Sn2+  Sn58  1  0.00527155  -0.00856333  -0.00933290  1
  Sn2+  Sn59  1  0.49529129  0.17078601  0.67434106  1
  Sn2+  Sn60  1  0.50785778  0.84047647  0.00592604  1
  Sn2+  Sn61  1  0.50342715  0.17052393  -0.00466088  1
  Sn2+  Sn62  1  0.16170072  0.00451303  0.16857404  1
  Sn2+  Sn63  1  0.01032292  0.83225649  0.50189701  1
  Sn2+  Sn64  1  0.34239628  0.49830298  0.16539025  1
  Bi3+  Bi65  1  -0.00408119  0.33285396  0.33353035  1
  Bi3+  Bi66  1  0.66433860  0.49957124  0.49430754  1
  Bi3+  Bi67  1  0.33306584  0.00200348  0.66512790  1
  Bi3+  Bi68  1  0.50525187  0.66980058  0.49919361  1
  Bi3+  Bi69  1  -0.00105102  0.83487790  0.16721809  1
  Bi3+  Bi70  1  0.16429187  0.49876206  0.66503316  1
  Bi3+  Bi71  1  0.83564127  0.66820873  0.83267558  1
  Bi3+  Bi72  1  -0.00346375  0.66521383  -0.00183834  1
  Bi3+  Bi73  1  0.16326258  0.16553634  0.66460031  1
  Bi3+  Bi74  1  0.00059545  -0.00051748  0.33686716  1
  Bi3+  Bi75  1  0.50260780  0.49965992  -0.00130577  1
  Bi3+  Bi76  1  0.33847179  0.83012613  0.16781324  1
  Bi3+  Bi77  1  0.66923332  0.83259936  0.49281559  1
  Bi3+  Bi78  1  0.16919205  0.66648198  0.82891082  1
  Bi3+  Bi79  1  0.49896157  -0.00046853  0.17204769  1
  Bi3+  Bi80  1  0.16475656  0.16745456  0.00136522  1
  Bi3+  Bi81  1  0.66630311  -0.00072345  0.00313622  1
  Bi3+  Bi82  1  -0.00475998  0.16412349  0.50223213  1
  Bi3+  Bi83  1  -0.00063194  0.16956329  0.16313919  1
  Bi3+  Bi84  1  -0.00911564  0.49783245  0.16702925  1
  Bi3+  Bi85  1  0.82801783  -0.00114358  0.49886351  1
  Te2-  Te86  1  0.16097792  0.17069847  0.16944791  1
  Te2-  Te87  1  0.15776186  0.16011927  0.49854287  1
  Te2-  Te88  1  0.16067929  0.16637479  0.83084479  1
  Te2-  Te89  1  0.15944416  0.49542081  0.16441978  1
  Te2-  Te90  1  0.16435529  0.50015707  0.50315585  1
  Te2-  Te91  1  0.16046443  0.50299789  0.83019698  1
  Te2-  Te92  1  0.16806194  0.83451866  0.15507686  1
  Te2-  Te93  1  0.17293708  0.83717297  0.50038076  1
  Te2-  Te94  1  0.17560260  0.82986763  0.84643981  1
  Te2-  Te95  1  0.49744516  0.16229103  0.16438495  1
  Te2-  Te96  1  0.51027379  0.15605677  0.50036648  1
  Te2-  Te97  1  0.50896225  0.16601003  0.83326235  1
  Te2-  Te98  1  0.51053856  0.49700958  0.16435941  1
  Te2-  Te99  1  0.49659967  0.50009942  0.50289299  1
  Te2-  Te100  1  0.52278098  0.49970092  0.83357864  1
  Te2-  Te101  1  0.50484935  0.83500551  0.17613505  1
  Te2-  Te102  1  0.50487981  0.83707481  0.49555295  1
  Te2-  Te103  1  0.51008596  0.83648671  0.83193499  1
  Te2-  Te104  1  0.83805182  0.17506313  0.16879605  1
  Te2-  Te105  1  0.83055100  0.16396049  0.51648564  1
  Te2-  Te106  1  0.83184823  0.16681637  0.82180251  1
  Te2-  Te107  1  0.82699149  0.49429500  0.16732289  1
  Te2-  Te108  1  0.83055037  0.50478102  0.50866351  1
  Te2-  Te109  1  0.82803652  0.50613590  0.81807283  1
  Te2-  Te110  1  0.83561369  0.83363484  0.17353852  1
  Te2-  Te111  1  0.83507396  0.83262385  0.49426262  1
  Te2-  Te112  1  0.81281019  0.82809596  0.83357446  1
  Te2-  Te113  1  0.16666256  0.00691377  -0.00060880  1
  Te2-  Te114  1  0.16373240  -0.00346385  0.33813668  1
  Te2-  Te115  1  0.17099285  -0.00120824  0.65734549  1
  Te2-  Te116  1  0.16789125  0.33025398  0.01104643  1
  Te2-  Te117  1  0.16013910  0.34951715  0.32776562  1
  Te2-  Te118  1  0.16270525  0.33165185  0.66643721  1
  Te2-  Te119  1  0.16259488  0.66251522  -0.00556064  1
  Te2-  Te120  1  0.16077244  0.65438983  0.33841744  1
  Te2-  Te121  1  0.16551448  0.66674315  0.66597220  1
  Te2-  Te122  1  0.50124484  0.00284407  0.00842599  1
  Te2-  Te123  1  0.50064544  -0.00398483  0.33873165  1
  Te2-  Te124  1  0.49597807  0.00154652  0.65681899  1
  Te2-  Te125  1  0.50353483  0.33445575  0.01107554  1
  Te2-  Te126  1  0.50030155  0.33259812  0.32860822  1
  Te2-  Te127  1  0.50925177  0.32879551  0.65516019  1
  Te2-  Te128  1  0.49761549  0.66714358  0.00269987  1
  Te2-  Te129  1  0.50898818  0.67439924  0.33766679  1
  Te2-  Te130  1  0.51226680  0.66948096  0.66380542  1
  Te2-  Te131  1  0.83203305  0.00140743  0.00221421  1
  Te2-  Te132  1  0.83567260  0.00364237  0.33782817  1
  Te2-  Te133  1  0.83425385  -0.00383089  0.66388309  1
  Te2-  Te134  1  0.82777172  0.32865294  0.00503815  1
  Te2-  Te135  1  0.83528885  0.33743990  0.33126581  1
  Te2-  Te136  1  0.83252843  0.34110057  0.66953881  1
  Te2-  Te137  1  0.83524553  0.66496395  -0.00120587  1
  Te2-  Te138  1  0.83732000  0.66520234  0.34418600  1
  Te2-  Te139  1  0.81785366  0.66130263  0.66614087  1
  Te2-  Te140  1  -0.00132307  0.16570904  -0.00207204  1
  Te2-  Te141  1  0.00406687  0.16579220  0.33270950  1
  Te2-  Te142  1  0.00188933  0.16217194  0.66915046  1
  Te2-  Te143  1  -0.00160931  0.49835954  0.00353679  1
  Te2-  Te144  1  -0.00992545  0.49759519  0.33405148  1
  Te2-  Te145  1  0.00283579  0.50032257  0.66052423  1
  Te2-  Te146  1  -0.00751141  0.83025654  0.00767811  1
  Te2-  Te147  1  -0.00033262  0.83531964  0.33095196  1
  Te2-  Te148  1  0.00814205  0.83417725  0.66091366  1
  Te2-  Te149  1  0.33006778  0.17827078  -0.00354132  1
  Te2-  Te150  1  0.32556661  0.15838556  0.34067366  1
  Te2-  Te151  1  0.32621750  0.16417811  0.65799913  1
  Te2-  Te152  1  0.33982122  0.49382413  0.00350304  1
  Te2-  Te153  1  0.33482012  0.50301925  0.33807224  1
  Te2-  Te154  1  0.32918290  0.49906735  0.64976035  1
  Te2-  Te155  1  0.33979142  0.82956038  0.00514838  1
  Te2-  Te156  1  0.33574827  0.83556555  0.33116850  1
  Te2-  Te157  1  0.34110883  0.83587186  0.66132916  1
  Te2-  Te158  1  0.66691383  0.16271465  0.00074357  1
  Te2-  Te159  1  0.67575455  0.16517613  0.33728246  1
  Te2-  Te160  1  0.66507386  0.17790108  0.66686523  1
  Te2-  Te161  1  0.66376656  0.50312500  0.01139632  1
  Te2-  Te162  1  0.67703376  0.50617098  0.33234887  1
  Te2-  Te163  1  0.66084503  0.48552441  0.65623686  1
  Te2-  Te164  1  0.66654120  0.83824005  0.01032364  1
  Te2-  Te165  1  0.67490812  0.83165076  0.33092836  1
  Te2-  Te166  1  0.65928308  0.83757744  0.65866201  1
  Te2-  Te167  1  -0.00107129  0.00170961  0.16935150  1
  Te2-  Te168  1  -0.00680787  0.00163829  0.49930433  1
  Te2-  Te169  1  -0.00274278  -0.01856837  0.82883808  1
  Te2-  Te170  1  -0.00529996  0.33385479  0.16663878  1
  Te2-  Te171  1  -0.00199711  0.32855553  0.49823066  1
  Te2-  Te172  1  -0.00332369  0.33082089  0.84256982  1
  Te2-  Te173  1  -0.00058929  0.66459954  0.16482425  1
  Te2-  Te174  1  -0.00205729  0.66236811  0.50433584  1
  Te2-  Te175  1  0.00136022  0.68412865  0.83467010  1
  Te2-  Te176  1  0.33224789  -0.00429305  0.17446856  1
  Te2-  Te177  1  0.34538672  0.00241328  0.49698711  1
  Te2-  Te178  1  0.34307224  0.00073809  0.83038229  1
  Te2-  Te179  1  0.33652289  0.33912288  0.16846328  1
  Te2-  Te180  1  0.34317744  0.32037165  0.50310123  1
  Te2-  Te181  1  0.33544340  0.34587296  0.82646568  1
  Te2-  Te182  1  0.33660107  0.66733978  0.17771186  1
  Te2-  Te183  1  0.33951282  0.67237433  0.48870916  1
  Te2-  Te184  1  0.33075817  0.65012667  0.83548074  1
  Te2-  Te185  1  0.66094036  0.00317914  0.17449285  1
  Te2-  Te186  1  0.66408359  -0.00064940  0.49410081  1
  Te2-  Te187  1  0.65587046  0.00287603  0.83936511  1
  Te2-  Te188  1  0.67014727  0.33006721  0.17876413  1
  Te2-  Te189  1  0.65713095  0.33364162  0.48106561  1
  Te2-  Te190  1  0.66973788  0.32866138  0.83775812  1
  Te2-  Te191  1  0.66566327  0.67228801  0.15974773  1
  Te2-  Te192  1  0.66727679  0.66620476  0.50051882  1
  Te2-  Te193  1  0.67144240  0.66356468  0.84792381  1
  Pb2+  Pb194  1  0.83074062  0.66429667  0.17280513  1
  Pb2+  Pb195  1  0.33403939  0.00431949  0.00181851  1
  Pb2+  Pb196  1  0.33667314  0.17759295  0.82741730  1
  Pb2+  Pb197  1  0.16956397  0.66405935  0.16524444  1
  Pb2+  Pb198  1  0.17111509  0.33442380  0.83767623  1
  Pb2+  Pb199  1  0.16829754  0.82727143  0.32815419  1
  Pb2+  Pb200  1  0.66485970  0.00942230  0.66810444  1
  Pb2+  Pb201  1  0.49976533  0.33535996  0.83442560  1
  Pb2+  Pb202  1  0.82912934  0.49571464  -0.01042192  1
  Pb2+  Pb203  1  0.82611745  0.33497561  0.50058712  1
  Pb2+  Pb204  1  0.33646518  0.66387228  0.66325558  1
  Pb2+  Pb205  1  0.82677151  0.00340308  0.16963889  1
  Pb2+  Pb206  1  0.49917670  0.66437535  0.83372616  1
  Pb2+  Pb207  1  0.16532325  0.00056806  0.82742250  1
  Pb2+  Pb208  1  0.82585359  -0.00205465  0.83590070  1
  Pb2+  Pb209  1  0.32986798  0.16910252  0.16571844  1
  Pb2+  Pb210  1  0.34228892  0.82648417  0.83262332  1
  Pb2+  Pb211  1  0.17121264  0.33133387  0.50027545  1
  Pb2+  Pb212  1  0.50192492  0.16531976  0.33130568  1
  Pb2+  Pb213  1  0.50543844  0.50415345  0.33205210  1
  Pb2+  Pb214  1  0.33202207  0.33404564  0.33794934  1
  Pb2+  Pb215  1  0.83589972  0.82776853  0.66716607  1
