# generated using pymatgen
data_In22Ag21Sn22Bi21(Te54Pb11)2
_symmetry_space_group_name_H-M   'P 1'
_cell_length_a   19.09561017
_cell_length_b   19.09943344
_cell_length_c   19.10143380
_cell_angle_alpha   89.99659447
_cell_angle_beta   90.00397885
_cell_angle_gamma   90.00028350
_symmetry_Int_Tables_number   1
_chemical_formula_structural   In22Ag21Sn22Bi21(Te54Pb11)2
_chemical_formula_sum   'In22 Ag21 Sn22 Bi21 Te108 Pb22'
_cell_volume   6966.58580811
_cell_formula_units_Z   1
loop_
 _symmetry_equiv_pos_site_id
 _symmetry_equiv_pos_as_xyz
  1  'x, y, z'
loop_
 _atom_type_symbol
 _atom_type_oxidation_number
  In3+  3.0
  Ag+  1.0
  Sn2+  2.0
  Bi3+  3.0
  Te2-  -2.0
  Pb2+  2.0
loop_
 _atom_site_type_symbol
 _atom_site_label
 _atom_site_symmetry_multiplicity
 _atom_site_fract_x
 _atom_site_fract_y
 _atom_site_fract_z
 _atom_site_occupancy
  In3+  In0  1  -0.00241978  -0.02512980  0.66599800  1
  In3+  In1  1  0.00311462  0.33467786  0.00361455  1
  In3+  In2  1  0.49445802  0.33334744  0.16484568  1
  In3+  In3  1  0.50506486  0.50044506  0.30448446  1
  In3+  In4  1  0.00684364  -0.01505587  -0.00383576  1
  In3+  In5  1  0.16195503  0.66567081  0.85810730  1
  In3+  In6  1  0.49917412  -0.00465286  0.52331870  1
  In3+  In7  1  0.00840267  0.17232544  0.16387627  1
  In3+  In8  1  0.16748126  0.82645654  0.00234277  1
  In3+  In9  1  0.83926359  -0.00002205  0.15335505  1
  In3+  In10  1  0.00442261  0.17190481  0.84484348  1
  In3+  In11  1  0.66186568  0.48229376  0.50419329  1
  In3+  In12  1  0.31940736  0.33360843  0.32105187  1
  In3+  In13  1  0.67579567  0.50175558  0.14546636  1
  In3+  In14  1  0.50005829  0.66851285  0.51106114  1
  In3+  In15  1  0.33335596  -0.00676520  0.00827733  1
  In3+  In16  1  0.65332091  -0.00033788  -0.00044725  1
  In3+  In17  1  0.00634970  0.65866074  0.69332881  1
  In3+  In18  1  0.49653572  0.16397656  0.66843593  1
  In3+  In19  1  0.66042809  0.50364537  0.83846088  1
  In3+  In20  1  0.15157723  0.50299356  0.67386628  1
  In3+  In21  1  0.66545949  0.66338297  0.66218095  1
  Ag+  Ag22  1  0.47643715  0.52054021  -0.00200985  1
  Ag+  Ag23  1  0.33865125  0.68915767  0.30690938  1
  Ag+  Ag24  1  0.47332440  0.84305376  0.70450681  1
  Ag+  Ag25  1  0.33301506  0.81398922  0.16163726  1
  Ag+  Ag26  1  0.02395162  0.83804565  0.47263850  1
  Ag+  Ag27  1  0.85375109  0.14071535  -0.00020697  1
  Ag+  Ag28  1  0.48944851  0.85344366  0.00155267  1
  Ag+  Ag29  1  0.30616352  0.16742536  0.18052270  1
  Ag+  Ag30  1  0.14797659  0.15695728  -0.00208786  1
  Ag+  Ag31  1  0.65025117  0.17354882  0.52518116  1
  Ag+  Ag32  1  -0.00487660  0.50620238  0.86167729  1
  Ag+  Ag33  1  0.00303964  0.32453954  0.30893705  1
  Ag+  Ag34  1  0.02282230  0.52202470  0.15398796  1
  Ag+  Ag35  1  0.00000030  0.80992014  0.83468611  1
  Ag+  Ag36  1  0.47508834  -0.02519816  0.82458953  1
  Ag+  Ag37  1  0.18795167  0.68906705  0.16885689  1
  Ag+  Ag38  1  0.00067523  0.68515327  0.01175289  1
  Ag+  Ag39  1  0.31287446  0.31254243  0.66539443  1
  Ag+  Ag40  1  0.18558342  0.16148191  0.36025440  1
  Ag+  Ag41  1  0.85781333  0.50340387  -0.00328791  1
  Ag+  Ag42  1  0.85615428  0.50493372  0.69587418  1
  Sn2+  Sn43  1  0.67234089  0.66666639  -0.00248837  1
  Sn2+  Sn44  1  0.33761360  0.82781743  0.49080081  1
  Sn2+  Sn45  1  -0.00643752  0.50854700  0.48580914  1
  Sn2+  Sn46  1  0.64867791  0.83164382  0.16054987  1
  Sn2+  Sn47  1  0.83473329  0.66148437  0.83430303  1
  Sn2+  Sn48  1  0.83571322  0.18482322  0.67328076  1
  Sn2+  Sn49  1  0.50005791  0.50438994  0.67733447  1
  Sn2+  Sn50  1  0.00124432  0.01139239  0.33169910  1
  Sn2+  Sn51  1  0.49439120  0.33800048  0.50058053  1
  Sn2+  Sn52  1  0.82780962  0.82338555  -0.00004350  1
  Sn2+  Sn53  1  0.33965240  0.49778182  0.50369851  1
  Sn2+  Sn54  1  -0.00133682  0.33358895  0.66481782  1
  Sn2+  Sn55  1  0.49611029  0.67203249  0.16227565  1
  Sn2+  Sn56  1  0.67079645  -0.00737552  0.66917076  1
  Sn2+  Sn57  1  0.83988424  0.34323834  0.84168905  1
  Sn2+  Sn58  1  0.83153221  0.32972056  0.16269918  1
  Sn2+  Sn59  1  0.66088276  0.00258347  0.33343983  1
  Sn2+  Sn60  1  0.49633737  0.67244396  0.83963557  1
  Sn2+  Sn61  1  0.16952686  0.00318296  0.16459336  1
  Sn2+  Sn62  1  0.33824337  0.67151185  0.00288759  1
  Sn2+  Sn63  1  0.33448568  0.32546717  -0.00964125  1
  Sn2+  Sn64  1  0.33894493  0.17220395  0.49373021  1
  Bi3+  Bi65  1  0.16619927  0.49537177  0.33438921  1
  Bi3+  Bi66  1  0.16436686  -0.00179204  0.83496651  1
  Bi3+  Bi67  1  0.50464742  0.16994785  -0.00201861  1
  Bi3+  Bi68  1  0.67114227  0.16790473  0.16236379  1
  Bi3+  Bi69  1  0.16715515  0.49544827  0.00251068  1
  Bi3+  Bi70  1  0.16638921  0.33479791  0.49894716  1
  Bi3+  Bi71  1  0.33608685  0.66801191  0.66670828  1
  Bi3+  Bi72  1  0.83460070  0.82393355  0.67082518  1
  Bi3+  Bi73  1  0.33839121  0.16874166  0.83525552  1
  Bi3+  Bi74  1  0.16535551  0.82842300  0.67157190  1
  Bi3+  Bi75  1  0.83106125  -0.00017016  0.50122759  1
  Bi3+  Bi76  1  0.83116939  0.66764915  0.16301181  1
  Bi3+  Bi77  1  0.83442888  0.16724344  0.32611160  1
  Bi3+  Bi78  1  0.67173820  0.33148291  -0.00020532  1
  Bi3+  Bi79  1  0.67152226  0.16723851  0.83206748  1
  Bi3+  Bi80  1  0.83400776  0.66436643  0.50168847  1
  Bi3+  Bi81  1  0.66609764  0.83860704  0.49825306  1
  Bi3+  Bi82  1  0.66801082  0.33743518  0.66721758  1
  Bi3+  Bi83  1  0.83800405  0.00206376  0.83120463  1
  Bi3+  Bi84  1  0.00592597  0.66242956  0.32540976  1
  Bi3+  Bi85  1  0.83657077  0.33487470  0.50228039  1
  Te2-  Te86  1  0.16129470  0.16228212  0.14814481  1
  Te2-  Te87  1  0.16495355  0.16907292  0.50631471  1
  Te2-  Te88  1  0.16783277  0.16450530  0.84440179  1
  Te2-  Te89  1  0.16631183  0.49520405  0.16874844  1
  Te2-  Te90  1  0.16620868  0.49698007  0.49956113  1
  Te2-  Te91  1  0.15207968  0.50769698  0.83291361  1
  Te2-  Te92  1  0.17816958  0.83531777  0.15501122  1
  Te2-  Te93  1  0.16781623  0.83345024  0.50552036  1
  Te2-  Te94  1  0.15482578  0.83221130  0.83702019  1
  Te2-  Te95  1  0.50888695  0.17368651  0.16375603  1
  Te2-  Te96  1  0.50458443  0.15880035  0.50865186  1
  Te2-  Te97  1  0.50554827  0.16113539  0.82962937  1
  Te2-  Te98  1  0.50341672  0.49595980  0.15197914  1
  Te2-  Te99  1  0.50754341  0.50787788  0.50843925  1
  Te2-  Te100  1  0.50468187  0.50336159  0.84567060  1
  Te2-  Te101  1  0.49028458  0.83415596  0.15606847  1
  Te2-  Te102  1  0.50395895  0.83483045  0.49955151  1
  Te2-  Te103  1  0.50259763  0.83150632  0.84679063  1
  Te2-  Te104  1  0.83347373  0.16016902  0.15668774  1
  Te2-  Te105  1  0.83066585  0.16564623  0.49882895  1
  Te2-  Te106  1  0.83426117  0.16628413  0.84362878  1
  Te2-  Te107  1  0.82729944  0.50237951  0.15811039  1
  Te2-  Te108  1  0.82363123  0.50111198  0.49567478  1
  Te2-  Te109  1  0.84419950  0.50460507  0.84187027  1
  Te2-  Te110  1  0.82659408  0.83484281  0.16182225  1
  Te2-  Te111  1  0.83069055  0.83343118  0.50844405  1
  Te2-  Te112  1  0.84666415  0.83591801  0.83133016  1
  Te2-  Te113  1  0.16102357  0.00643764  -0.00412450  1
  Te2-  Te114  1  0.16008892  0.01437713  0.33193560  1
  Te2-  Te115  1  0.16036673  -0.00269873  0.67128373  1
  Te2-  Te116  1  0.16538652  0.33125967  -0.00019398  1
  Te2-  Te117  1  0.15947837  0.32343432  0.33744946  1
  Te2-  Te118  1  0.16791528  0.34458513  0.66359983  1
  Te2-  Te119  1  0.16141359  0.66703434  0.01155901  1
  Te2-  Te120  1  0.17136069  0.66248422  0.32040771  1
  Te2-  Te121  1  0.16627759  0.66477728  0.66459478  1
  Te2-  Te122  1  0.49986474  0.00288743  -0.01034661  1
  Te2-  Te123  1  0.50177179  0.00258341  0.33028988  1
  Te2-  Te124  1  0.50469453  -0.01327266  0.67676742  1
  Te2-  Te125  1  0.50463750  0.33222758  0.00387572  1
  Te2-  Te126  1  0.49670675  0.34357388  0.33519477  1
  Te2-  Te127  1  0.50861310  0.33525562  0.66109772  1
  Te2-  Te128  1  0.50426915  0.66443045  -0.00058281  1
  Te2-  Te129  1  0.48378879  0.65298673  0.32891827  1
  Te2-  Te130  1  0.49974939  0.67663432  0.66838328  1
  Te2-  Te131  1  0.84568599  -0.00652252  -0.00415803  1
  Te2-  Te132  1  0.83380279  0.00501687  0.33720873  1
  Te2-  Te133  1  0.83662227  0.00048144  0.66626954  1
  Te2-  Te134  1  0.83214256  0.34922829  0.00222132  1
  Te2-  Te135  1  0.84610690  0.32883435  0.33613016  1
  Te2-  Te136  1  0.82983358  0.35110953  0.66394962  1
  Te2-  Te137  1  0.84032181  0.66190669  0.00107351  1
  Te2-  Te138  1  0.83286924  0.66618404  0.33251009  1
  Te2-  Te139  1  0.83756477  0.65788437  0.66418669  1
  Te2-  Te140  1  -0.00434426  0.17937259  0.00184464  1
  Te2-  Te141  1  -0.00368293  0.17272292  0.32043592  1
  Te2-  Te142  1  -0.00595613  0.17342221  0.67046476  1
  Te2-  Te143  1  0.00657418  0.48691265  0.00829579  1
  Te2-  Te144  1  0.00425139  0.49801803  0.32687826  1
  Te2-  Te145  1  -0.00227027  0.50793460  0.65690593  1
  Te2-  Te146  1  0.00456066  0.83054285  -0.01143617  1
  Te2-  Te147  1  0.00135704  0.83416451  0.32721742  1
  Te2-  Te148  1  0.00117106  0.81720617  0.67755096  1
  Te2-  Te149  1  0.34300496  0.16837275  -0.00560922  1
  Te2-  Te150  1  0.32977542  0.17648368  0.32880900  1
  Te2-  Te151  1  0.33945490  0.16647175  0.66942400  1
  Te2-  Te152  1  0.32921338  0.49531808  -0.00202230  1
  Te2-  Te153  1  0.32982295  0.48575309  0.33827329  1
  Te2-  Te154  1  0.33837556  0.50777078  0.66483702  1
  Te2-  Te155  1  0.33745324  0.83624928  0.00899076  1
  Te2-  Te156  1  0.33116655  0.83517455  0.32742667  1
  Te2-  Te157  1  0.32970262  0.83095935  0.66524105  1
  Te2-  Te158  1  0.67038769  0.16669151  -0.00265555  1
  Te2-  Te159  1  0.67014156  0.16566914  0.32541899  1
  Te2-  Te160  1  0.66668903  0.16718826  0.67144158  1
  Te2-  Te161  1  0.66826428  0.49587680  -0.00697602  1
  Te2-  Te162  1  0.65550967  0.49943323  0.34366005  1
  Te2-  Te163  1  0.66333891  0.50351717  0.66714234  1
  Te2-  Te164  1  0.66117881  0.83787504  0.00262850  1
  Te2-  Te165  1  0.66483926  0.83474568  0.33150375  1
  Te2-  Te166  1  0.67250007  0.82436894  0.66528699  1
  Te2-  Te167  1  -0.00482011  0.00064972  0.15901378  1
  Te2-  Te168  1  -0.00567750  -0.01198591  0.50143223  1
  Te2-  Te169  1  0.00124339  0.01421549  0.83530561  1
  Te2-  Te170  1  -0.00763972  0.32895372  0.16158715  1
  Te2-  Te171  1  -0.00086991  0.33612783  0.50380249  1
  Te2-  Te172  1  -0.00205505  0.32938817  0.83221294  1
  Te2-  Te173  1  -0.00645221  0.66555157  0.16218897  1
  Te2-  Te174  1  -0.00501624  0.67841798  0.48584664  1
  Te2-  Te175  1  0.00513330  0.65828283  0.84622540  1
  Te2-  Te176  1  0.33132840  0.01814888  0.15881859  1
  Te2-  Te177  1  0.34241334  0.00166708  0.49986333  1
  Te2-  Te178  1  0.32954109  0.00264213  0.84180814  1
  Te2-  Te179  1  0.33828415  0.31879681  0.16487357  1
  Te2-  Te180  1  0.33161203  0.32807462  0.51378494  1
  Te2-  Te181  1  0.33483991  0.33097085  0.81876747  1
  Te2-  Te182  1  0.33495384  0.66416167  0.16134260  1
  Te2-  Te183  1  0.33969929  0.66831569  0.50268286  1
  Te2-  Te184  1  0.32446913  0.66696802  0.83398621  1
  Te2-  Te185  1  0.67595368  0.00091561  0.15938697  1
  Te2-  Te186  1  0.66439674  0.00134854  0.50173384  1
  Te2-  Te187  1  0.67581273  0.00268900  0.83845480  1
  Te2-  Te188  1  0.66422120  0.33761535  0.16460046  1
  Te2-  Te189  1  0.67009236  0.32167512  0.50241829  1
  Te2-  Te190  1  0.67120668  0.33487616  0.83239443  1
  Te2-  Te191  1  0.66642329  0.66158434  0.16547497  1
  Te2-  Te192  1  0.66638195  0.67358431  0.50297419  1
  Te2-  Te193  1  0.66774536  0.66055925  0.83074168  1
  Pb2+  Pb194  1  0.32825357  0.83302564  0.83953760  1
  Pb2+  Pb195  1  0.67177281  0.33352655  0.33281296  1
  Pb2+  Pb196  1  0.67264405  0.83051828  0.83426707  1
  Pb2+  Pb197  1  0.16141814  0.16989217  0.67684540  1
  Pb2+  Pb198  1  0.83254433  0.49791459  0.32460384  1
  Pb2+  Pb199  1  0.49818026  0.17314428  0.33767138  1
  Pb2+  Pb200  1  0.32970011  0.49976863  0.83069299  1
  Pb2+  Pb201  1  0.33211402  0.00329404  0.32842624  1
  Pb2+  Pb202  1  0.65429810  0.66554384  0.33401473  1
  Pb2+  Pb203  1  0.33286242  0.49386914  0.16913224  1
  Pb2+  Pb204  1  0.16496288  0.33692516  0.83447356  1
  Pb2+  Pb205  1  0.16484670  0.32951852  0.16823823  1
  Pb2+  Pb206  1  0.16629720  0.83469266  0.32663438  1
  Pb2+  Pb207  1  0.16669019  -0.00018890  0.49868220  1
  Pb2+  Pb208  1  0.50209204  0.33163945  0.83270510  1
  Pb2+  Pb209  1  0.49671964  0.82897421  0.32991984  1
  Pb2+  Pb210  1  0.00169952  0.83164635  0.15871160  1
  Pb2+  Pb211  1  0.33396196  -0.00050962  0.66928319  1
  Pb2+  Pb212  1  -0.00473201  0.16340298  0.49642717  1
  Pb2+  Pb213  1  0.50139213  0.00342010  0.16162061  1
  Pb2+  Pb214  1  0.16545147  0.66467181  0.49177770  1
  Pb2+  Pb215  1  0.83421045  0.83617429  0.33394815  1
