# generated using pymatgen
data_In22Ag21Sn22Bi21(Te54Pb11)2
_symmetry_space_group_name_H-M   'P 1'
_cell_length_a   19.13215709
_cell_length_b   19.13530396
_cell_length_c   19.15447578
_cell_angle_alpha   89.98744258
_cell_angle_beta   90.00908431
_cell_angle_gamma   89.99416438
_symmetry_Int_Tables_number   1
_chemical_formula_structural   In22Ag21Sn22Bi21(Te54Pb11)2
_chemical_formula_sum   'In22 Ag21 Sn22 Bi21 Te108 Pb22'
_cell_volume   7012.44642185
_cell_formula_units_Z   1
loop_
 _symmetry_equiv_pos_site_id
 _symmetry_equiv_pos_as_xyz
  1  'x, y, z'
loop_
 _atom_type_symbol
 _atom_type_oxidation_number
  In3+  3.0
  Ag+  1.0
  Sn2+  2.0
  Bi3+  3.0
  Te2-  -2.0
  Pb2+  2.0
loop_
 _atom_site_type_symbol
 _atom_site_label
 _atom_site_symmetry_multiplicity
 _atom_site_fract_x
 _atom_site_fract_y
 _atom_site_fract_z
 _atom_site_occupancy
  In3+  In0  1  0.51838910  0.67022729  0.49890382  1
  In3+  In1  1  -0.00599542  0.00060824  0.00417217  1
  In3+  In2  1  0.00076523  0.33318497  -0.01861858  1
  In3+  In3  1  0.82516911  0.16739835  0.00195574  1
  In3+  In4  1  0.83457600  0.67571396  0.83227582  1
  In3+  In5  1  0.84389420  0.01195629  0.82997869  1
  In3+  In6  1  0.33410968  0.47048742  0.49942646  1
  In3+  In7  1  -0.00217435  -0.00706611  0.34528268  1
  In3+  In8  1  0.83576545  0.35846056  0.16867956  1
  In3+  In9  1  0.13621555  0.16748840  0.66058569  1
  In3+  In10  1  -0.01559191  0.16013041  0.16306230  1
  In3+  In11  1  0.34745446  0.33085164  0.00205162  1
  In3+  In12  1  0.34674382  0.66660227  -0.00853243  1
  In3+  In13  1  0.83403391  0.51917171  0.35573370  1
  In3+  In14  1  0.50420395  0.83372091  -0.00956666  1
  In3+  In15  1  0.68027715  0.34517711  -0.00005558  1
  In3+  In16  1  0.33289448  0.01013610  0.00168351  1
  In3+  In17  1  0.34949625  -0.00278917  0.66011554  1
  In3+  In18  1  0.50113599  0.01012237  0.49222099  1
  In3+  In19  1  0.16833035  0.17682327  0.34326316  1
  In3+  In20  1  0.82955849  0.49701325  -0.00219409  1
  In3+  In21  1  0.66872983  0.82711245  0.83176703  1
  Ag+  Ag22  1  0.82287618  0.35199610  0.82377354  1
  Ag+  Ag23  1  0.81863492  0.66371093  0.18572924  1
  Ag+  Ag24  1  0.83028133  0.19361220  0.64010457  1
  Ag+  Ag25  1  0.52709889  0.84490057  0.64065570  1
  Ag+  Ag26  1  0.52836712  0.19152998  0.01921339  1
  Ag+  Ag27  1  0.69387409  0.30945105  0.64158751  1
  Ag+  Ag28  1  0.19127229  0.33212992  0.83345528  1
  Ag+  Ag29  1  -0.02991581  0.51797625  0.48491949  1
  Ag+  Ag30  1  0.83284693  0.01315231  0.18788500  1
  Ag+  Ag31  1  0.68835790  0.65077953  -0.00055450  1
  Ag+  Ag32  1  0.83790656  0.68962117  0.47884114  1
  Ag+  Ag33  1  0.35762994  0.16368734  0.52618911  1
  Ag+  Ag34  1  0.52184604  0.16889571  0.35602343  1
  Ag+  Ag35  1  0.14502548  0.86801345  0.65908269  1
  Ag+  Ag36  1  0.83033801  0.83055654  0.35637794  1
  Ag+  Ag37  1  0.13438468  0.82898797  0.30707918  1
  Ag+  Ag38  1  0.69001612  0.18845442  0.18876270  1
  Ag+  Ag39  1  -0.00281856  -0.02976157  0.64573055  1
  Ag+  Ag40  1  0.68269486  0.52458926  0.49432897  1
  Ag+  Ag41  1  -0.02124218  0.69719819  0.36598335  1
  Ag+  Ag42  1  0.81277153  0.34392312  0.52498235  1
  Sn2+  Sn43  1  0.32930986  0.82933513  0.17362545  1
  Sn2+  Sn44  1  -0.01414790  0.83007082  0.16636001  1
  Sn2+  Sn45  1  0.00001073  0.16946211  0.83058268  1
  Sn2+  Sn46  1  0.50854401  0.84289115  0.33519983  1
  Sn2+  Sn47  1  0.51272693  0.67431247  0.16787170  1
  Sn2+  Sn48  1  0.67252316  0.17109467  0.50004284  1
  Sn2+  Sn49  1  -0.00640902  0.49521810  0.82012414  1
  Sn2+  Sn50  1  0.32786630  0.83630154  0.50305962  1
  Sn2+  Sn51  1  -0.00622347  0.66492379  0.01244937  1
  Sn2+  Sn52  1  0.66306042  0.82919952  0.50105903  1
  Sn2+  Sn53  1  0.16466085  0.00692813  0.82997081  1
  Sn2+  Sn54  1  0.50945579  0.66831975  0.82641793  1
  Sn2+  Sn55  1  0.51262255  0.00370359  0.16697732  1
  Sn2+  Sn56  1  0.33626118  0.32238057  0.32884117  1
  Sn2+  Sn57  1  0.83470010  0.83158024  0.66296629  1
  Sn2+  Sn58  1  0.34076967  0.50563240  0.17256932  1
  Sn2+  Sn59  1  0.67028189  0.49615480  0.81633928  1
  Sn2+  Sn60  1  0.33322884  0.68104409  0.65809561  1
  Sn2+  Sn61  1  0.66665191  0.65861185  0.67175899  1
  Sn2+  Sn62  1  0.83681435  0.16258463  0.33090084  1
  Sn2+  Sn63  1  0.16370990  0.66053306  0.83318805  1
  Sn2+  Sn64  1  0.83260516  0.49938853  0.66367065  1
  Bi3+  Bi65  1  0.33188232  0.16451807  0.16336929  1
  Bi3+  Bi66  1  0.50750111  0.33143055  0.83217571  1
  Bi3+  Bi67  1  0.16022517  0.49959516  -0.00104950  1
  Bi3+  Bi68  1  0.32777464  -0.00321885  0.33002886  1
  Bi3+  Bi69  1  0.16130612  0.16646182  -0.00510931  1
  Bi3+  Bi70  1  0.16691905  0.49538057  0.66923354  1
  Bi3+  Bi71  1  0.66805180  0.83285007  0.16249001  1
  Bi3+  Bi72  1  0.00106048  0.49788906  0.16845446  1
  Bi3+  Bi73  1  0.49560005  -0.00132471  0.83509137  1
  Bi3+  Bi74  1  0.83072948  0.83059674  -0.00059144  1
  Bi3+  Bi75  1  0.33123037  0.16323667  0.83228645  1
  Bi3+  Bi76  1  -0.00005889  0.32940497  0.33361323  1
  Bi3+  Bi77  1  -0.00196660  0.65807422  0.67094692  1
  Bi3+  Bi78  1  0.33394192  0.83175111  0.83360609  1
  Bi3+  Bi79  1  0.66810786  0.16378051  0.83595855  1
  Bi3+  Bi80  1  0.33000126  0.66759799  0.33598747  1
  Bi3+  Bi81  1  -0.00446204  0.16989444  0.49273172  1
  Bi3+  Bi82  1  0.50387479  0.33390045  0.50404512  1
  Bi3+  Bi83  1  0.49973401  0.50429245  0.66557569  1
  Bi3+  Bi84  1  -0.00300939  0.33422700  0.66403690  1
  Bi3+  Bi85  1  0.16449160  0.66797542  0.16748460  1
  Te2-  Te86  1  0.16646094  0.16590956  0.15759034  1
  Te2-  Te87  1  0.16051872  0.16592593  0.50203087  1
  Te2-  Te88  1  0.16789428  0.17768059  0.83362931  1
  Te2-  Te89  1  0.16656166  0.50115524  0.16503236  1
  Te2-  Te90  1  0.17737018  0.49771431  0.50383810  1
  Te2-  Te91  1  0.16078940  0.48886585  0.83529409  1
  Te2-  Te92  1  0.16118364  0.83001479  0.16126715  1
  Te2-  Te93  1  0.17046692  0.83374415  0.51683726  1
  Te2-  Te94  1  0.17154234  0.83228481  0.82737164  1
  Te2-  Te95  1  0.49261460  0.15801460  0.15658864  1
  Te2-  Te96  1  0.50401649  0.16695927  0.50361401  1
  Te2-  Te97  1  0.49732315  0.16420888  0.83970818  1
  Te2-  Te98  1  0.50021332  0.49889115  0.16962444  1
  Te2-  Te99  1  0.49374653  0.49706937  0.50364801  1
  Te2-  Te100  1  0.50070025  0.49790477  0.83023562  1
  Te2-  Te101  1  0.50400904  0.83418091  0.17107701  1
  Te2-  Te102  1  0.50167470  0.82782986  0.49787318  1
  Te2-  Te103  1  0.49658932  0.83299641  0.83429187  1
  Te2-  Te104  1  0.83015541  0.15721112  0.15767371  1
  Te2-  Te105  1  0.83181383  0.16807875  0.49397638  1
  Te2-  Te106  1  0.83017196  0.16322938  0.84562051  1
  Te2-  Te107  1  0.83850668  0.51297189  0.15778585  1
  Te2-  Te108  1  0.82588244  0.48940565  0.50273854  1
  Te2-  Te109  1  0.82805216  0.49777012  0.84274817  1
  Te2-  Te110  1  0.82917738  0.81373862  0.15664807  1
  Te2-  Te111  1  0.82949957  0.83376453  0.50489434  1
  Te2-  Te112  1  0.82833794  0.83099792  0.83447535  1
  Te2-  Te113  1  0.16254720  0.00376306  -0.00190776  1
  Te2-  Te114  1  0.16325422  -0.02279838  0.33352033  1
  Te2-  Te115  1  0.14312961  0.01312657  0.67430507  1
  Te2-  Te116  1  0.15683997  0.33444368  -0.01391023  1
  Te2-  Te117  1  0.16561897  0.33502175  0.33062736  1
  Te2-  Te118  1  0.16276881  0.32963213  0.67722320  1
  Te2-  Te119  1  0.16197258  0.66146197  0.00074644  1
  Te2-  Te120  1  0.16768594  0.68033893  0.33191079  1
  Te2-  Te121  1  0.16565959  0.65717406  0.67350138  1
  Te2-  Te122  1  0.49441562  -0.01033916  -0.00233596  1
  Te2-  Te123  1  0.49289490  0.01331140  0.33718892  1
  Te2-  Te124  1  0.50250315  -0.01066259  0.66813470  1
  Te2-  Te125  1  0.50577771  0.33533647  -0.00381738  1
  Te2-  Te126  1  0.49783840  0.32061473  0.33973929  1
  Te2-  Te127  1  0.50066105  0.33544546  0.66870868  1
  Te2-  Te128  1  0.49869026  0.66992130  0.00195069  1
  Te2-  Te129  1  0.49643039  0.66675312  0.33840969  1
  Te2-  Te130  1  0.49802838  0.66761687  0.65835341  1
  Te2-  Te131  1  0.83835757  -0.00541229  -0.01234375  1
  Te2-  Te132  1  0.84311772  -0.00754074  0.33387694  1
  Te2-  Te133  1  0.84884599  -0.00893543  0.67779988  1
  Te2-  Te134  1  0.83528763  0.33136385  0.00909485  1
  Te2-  Te135  1  0.83942561  0.32390440  0.31886225  1
  Te2-  Te136  1  0.83445273  0.33867684  0.67505470  1
  Te2-  Te137  1  0.83541314  0.66513254  -0.01231228  1
  Te2-  Te138  1  0.83767312  0.66810243  0.33324100  1
  Te2-  Te139  1  0.83445250  0.66207817  0.67734988  1
  Te2-  Te140  1  -0.00190353  0.17268836  0.00265752  1
  Te2-  Te141  1  0.00660747  0.16075316  0.32676328  1
  Te2-  Te142  1  -0.01720416  0.17190196  0.66257100  1
  Te2-  Te143  1  -0.00348626  0.49313181  0.00176389  1
  Te2-  Te144  1  -0.01052515  0.49469097  0.33699855  1
  Te2-  Te145  1  0.00438557  0.49638689  0.65309670  1
  Te2-  Te146  1  -0.00327596  0.83492209  -0.00005559  1
  Te2-  Te147  1  -0.01335309  0.83875217  0.32896543  1
  Te2-  Te148  1  0.00311817  0.82227496  0.66926555  1
  Te2-  Te149  1  0.32764804  0.16898501  -0.00319062  1
  Te2-  Te150  1  0.32181192  0.15948479  0.32449322  1
  Te2-  Te151  1  0.33437307  0.15415935  0.67184802  1
  Te2-  Te152  1  0.32562808  0.50527638  0.00294747  1
  Te2-  Te153  1  0.33009310  0.49964711  0.33950839  1
  Te2-  Te154  1  0.33278204  0.50290130  0.66229425  1
  Te2-  Te155  1  0.34010807  0.82122194  0.00081077  1
  Te2-  Te156  1  0.34052217  0.83566816  0.33414266  1
  Te2-  Te157  1  0.33118569  0.84258234  0.67095864  1
  Te2-  Te158  1  0.67057465  0.16617677  -0.00291764  1
  Te2-  Te159  1  0.66765708  0.16381028  0.33110557  1
  Te2-  Te160  1  0.68207253  0.16532020  0.67215039  1
  Te2-  Te161  1  0.67230114  0.50218471  -0.00215826  1
  Te2-  Te162  1  0.67639583  0.50090972  0.34343629  1
  Te2-  Te163  1  0.66095444  0.50144021  0.65671513  1
  Te2-  Te164  1  0.66349373  0.82655255  -0.00613488  1
  Te2-  Te165  1  0.67799200  0.83234438  0.32975357  1
  Te2-  Te166  1  0.66780527  0.82617208  0.67545746  1
  Te2-  Te167  1  -0.01465406  0.00490242  0.15766213  1
  Te2-  Te168  1  0.00057165  0.00449777  0.50003373  1
  Te2-  Te169  1  -0.00118531  0.00468498  0.84501878  1
  Te2-  Te170  1  -0.00726534  0.33196838  0.17006832  1
  Te2-  Te171  1  -0.01026095  0.32885667  0.49732779  1
  Te2-  Te172  1  -0.02316245  0.33407881  0.82920294  1
  Te2-  Te173  1  0.00406758  0.65909494  0.16983439  1
  Te2-  Te174  1  -0.01161877  0.66155787  0.50739319  1
  Te2-  Te175  1  -0.00476295  0.66018823  0.83561469  1
  Te2-  Te176  1  0.33395990  -0.00266126  0.16521366  1
  Te2-  Te177  1  0.34286385  0.01205867  0.49867596  1
  Te2-  Te178  1  0.33166954  -0.00185645  0.83378614  1
  Te2-  Te179  1  0.33234222  0.33269542  0.16416691  1
  Te2-  Te180  1  0.33493192  0.31444885  0.49868964  1
  Te2-  Te181  1  0.34172360  0.32927720  0.83772230  1
  Te2-  Te182  1  0.33260731  0.66625212  0.17149464  1
  Te2-  Te183  1  0.33466923  0.67427323  0.49701444  1
  Te2-  Te184  1  0.33503320  0.66858409  0.83510060  1
  Te2-  Te185  1  0.67951686  -0.00650227  0.16471689  1
  Te2-  Te186  1  0.65688103  -0.00254760  0.50096889  1
  Te2-  Te187  1  0.65845952  -0.00534220  0.83317701  1
  Te2-  Te188  1  0.67253508  0.33007882  0.15753577  1
  Te2-  Te189  1  0.66634918  0.32857107  0.49999082  1
  Te2-  Te190  1  0.67035129  0.33014509  0.84310866  1
  Te2-  Te191  1  0.67133155  0.66718559  0.15373218  1
  Te2-  Te192  1  0.67372878  0.67105945  0.50123649  1
  Te2-  Te193  1  0.66531295  0.66630897  0.84346923  1
  Pb2+  Pb194  1  0.50905105  0.16204631  0.67307064  1
  Pb2+  Pb195  1  0.49962490  0.49620755  0.33776474  1
  Pb2+  Pb196  1  0.00211372  0.83356633  0.83416060  1
  Pb2+  Pb197  1  0.32931693  0.50057496  0.83303748  1
  Pb2+  Pb198  1  0.83009386  0.00126859  0.50326246  1
  Pb2+  Pb199  1  0.67015000  0.49941562  0.16991679  1
  Pb2+  Pb200  1  0.15971207  -0.00029552  0.17067547  1
  Pb2+  Pb201  1  0.17055362  0.83264448  -0.00709882  1
  Pb2+  Pb202  1  0.67337651  0.33255222  0.33441848  1
  Pb2+  Pb203  1  0.67955873  -0.00112261  0.66816299  1
  Pb2+  Pb204  1  0.33247152  0.33056383  0.66590956  1
  Pb2+  Pb205  1  0.49872025  0.50285017  -0.00005756  1
  Pb2+  Pb206  1  0.16151322  0.33134293  0.15563841  1
  Pb2+  Pb207  1  0.17387562  -0.00180861  0.50204169  1
  Pb2+  Pb208  1  0.15686127  0.33301892  0.50343941  1
  Pb2+  Pb209  1  0.15656527  0.51098119  0.33608190  1
  Pb2+  Pb210  1  0.00239881  0.82980873  0.49934014  1
  Pb2+  Pb211  1  0.66682196  0.66836821  0.32682591  1
  Pb2+  Pb212  1  0.66922206  -0.00178877  0.33032428  1
  Pb2+  Pb213  1  0.16471141  0.66735057  0.50334724  1
  Pb2+  Pb214  1  0.66683430  -0.00199697  0.00065616  1
  Pb2+  Pb215  1  0.50149305  0.32228300  0.17001550  1
