# generated using pymatgen
data_In22Ag21Sn22Bi21(Te54Pb11)2
_symmetry_space_group_name_H-M   'P 1'
_cell_length_a   19.17250810
_cell_length_b   19.16603841
_cell_length_c   19.15613834
_cell_angle_alpha   90.00464278
_cell_angle_beta   90.00830248
_cell_angle_gamma   89.98850281
_symmetry_Int_Tables_number   1
_chemical_formula_structural   In22Ag21Sn22Bi21(Te54Pb11)2
_chemical_formula_sum   'In22 Ag21 Sn22 Bi21 Te108 Pb22'
_cell_volume   7039.13402610
_cell_formula_units_Z   1
loop_
 _symmetry_equiv_pos_site_id
 _symmetry_equiv_pos_as_xyz
  1  'x, y, z'
loop_
 _atom_type_symbol
 _atom_type_oxidation_number
  In3+  3.0
  Ag+  1.0
  Sn2+  2.0
  Bi3+  3.0
  Te2-  -2.0
  Pb2+  2.0
loop_
 _atom_site_type_symbol
 _atom_site_label
 _atom_site_symmetry_multiplicity
 _atom_site_fract_x
 _atom_site_fract_y
 _atom_site_fract_z
 _atom_site_occupancy
  In3+  In0  1  0.16918458  0.63317975  0.83208556  1
  In3+  In1  1  0.68515709  0.50428255  0.17615692  1
  In3+  In2  1  0.15915959  0.33765250  0.17376793  1
  In3+  In3  1  -0.00999796  0.16114901  0.48569006  1
  In3+  In4  1  -0.01709585  0.16489319  0.83446885  1
  In3+  In5  1  0.51364253  -0.00193745  0.82033587  1
  In3+  In6  1  0.00440728  0.64738499  0.33559138  1
  In3+  In7  1  0.67927338  0.34276105  0.00070738  1
  In3+  In8  1  0.66765236  0.51620678  0.83001430  1
  In3+  In9  1  0.67199604  0.83018795  0.18164089  1
  In3+  In10  1  0.33146682  0.17930702  0.16614991  1
  In3+  In11  1  0.33031713  0.49915226  0.49315310  1
  In3+  In12  1  0.00005643  -0.00261861  0.00750744  1
  In3+  In13  1  0.31501935  0.00052427  -0.00153344  1
  In3+  In14  1  0.17004416  0.83714780  0.32164402  1
  In3+  In15  1  0.17277272  0.17238754  -0.00258912  1
  In3+  In16  1  0.33174929  0.36193467  -0.00044529  1
  In3+  In17  1  0.82028691  0.50215605  0.66286860  1
  In3+  In18  1  0.51298019  0.33681323  0.49120366  1
  In3+  In19  1  0.17464769  0.82779058  -0.00023396  1
  In3+  In20  1  0.47909628  -0.01152195  0.48259345  1
  In3+  In21  1  0.49128340  0.68339840  0.83583769  1
  Ag+  Ag22  1  0.36002342  0.67252740  0.01404189  1
  Ag+  Ag23  1  0.80938995  -0.01614915  0.47257671  1
  Ag+  Ag24  1  0.81132091  0.85848897  0.66419019  1
  Ag+  Ag25  1  0.70124883  0.66484191  0.35850439  1
  Ag+  Ag26  1  0.80135434  0.63739654  0.47036793  1
  Ag+  Ag27  1  0.80533609  0.69395596  0.19200356  1
  Ag+  Ag28  1  0.80990510  0.17651573  0.33178532  1
  Ag+  Ag29  1  0.85858207  0.33127860  0.19037985  1
  Ag+  Ag30  1  0.35809822  0.00331331  0.64098932  1
  Ag+  Ag31  1  0.16550799  0.02283188  0.14190182  1
  Ag+  Ag32  1  -0.01754163  0.34756234  0.34089356  1
  Ag+  Ag33  1  0.18616141  0.31573953  0.51910745  1
  Ag+  Ag34  1  0.68844852  0.18765915  0.80317381  1
  Ag+  Ag35  1  0.33441885  0.52893011  0.19284314  1
  Ag+  Ag36  1  0.69840553  0.47594300  0.46602475  1
  Ag+  Ag37  1  -0.02946378  0.52418993  0.83391280  1
  Ag+  Ag38  1  0.52528288  0.80818335  0.33721033  1
  Ag+  Ag39  1  0.14012135  0.32696239  0.86339471  1
  Ag+  Ag40  1  0.68616540  0.81798842  0.83433853  1
  Ag+  Ag41  1  0.35410848  0.68677788  0.35986933  1
  Ag+  Ag42  1  0.16589431  0.02526366  0.47463787  1
  Sn2+  Sn43  1  0.48945807  -0.00435457  0.16437579  1
  Sn2+  Sn44  1  -0.00161466  0.66612235  0.00227162  1
  Sn2+  Sn45  1  0.50092112  0.66090902  0.49933363  1
  Sn2+  Sn46  1  0.49937256  0.16132305  -0.00213245  1
  Sn2+  Sn47  1  0.17284278  0.00613762  0.82862669  1
  Sn2+  Sn48  1  0.66823166  0.16719633  0.16457121  1
  Sn2+  Sn49  1  0.15854735  0.49427639  0.66676944  1
  Sn2+  Sn50  1  0.67755240  0.67010152  0.66375363  1
  Sn2+  Sn51  1  0.83606005  0.67180557  0.82864254  1
  Sn2+  Sn52  1  0.50481881  0.83478409  0.01131154  1
  Sn2+  Sn53  1  0.50044483  0.17296163  0.33260325  1
  Sn2+  Sn54  1  0.16884077  0.16392412  0.33575576  1
  Sn2+  Sn55  1  0.33337533  0.16487512  0.83121271  1
  Sn2+  Sn56  1  -0.00043098  0.83392507  0.17203883  1
  Sn2+  Sn57  1  0.00447829  0.33228122  0.65643127  1
  Sn2+  Sn58  1  0.32510885  0.33790285  0.33151582  1
  Sn2+  Sn59  1  0.67049392  0.16342319  0.49915071  1
  Sn2+  Sn60  1  0.49764862  0.50770039  0.33192108  1
  Sn2+  Sn61  1  0.00290221  0.49595540  0.51317099  1
  Sn2+  Sn62  1  0.83177016  0.16822122  0.01581156  1
  Sn2+  Sn63  1  0.83597087  0.50349705  0.00364667  1
  Sn2+  Sn64  1  0.67433895  -0.00396236  0.66914080  1
  Bi3+  Bi65  1  0.66527395  -0.00070866  0.00241103  1
  Bi3+  Bi66  1  0.16245131  0.66604974  0.16416730  1
  Bi3+  Bi67  1  0.49673964  0.50128717  0.66721243  1
  Bi3+  Bi68  1  0.82962147  -0.00246045  0.83548786  1
  Bi3+  Bi69  1  0.00339501  -0.00167961  0.66900634  1
  Bi3+  Bi70  1  0.16789263  0.49903019  0.33140393  1
  Bi3+  Bi71  1  0.33825597  0.83036197  0.16413090  1
  Bi3+  Bi72  1  0.33357132  0.17154045  0.49423995  1
  Bi3+  Bi73  1  0.32891466  0.83495830  0.83360789  1
  Bi3+  Bi74  1  0.49454695  0.33372369  0.16748230  1
  Bi3+  Bi75  1  0.66822053  0.66740160  -0.00262334  1
  Bi3+  Bi76  1  0.16696856  0.83267340  0.67303269  1
  Bi3+  Bi77  1  0.33617186  0.49910641  0.83071023  1
  Bi3+  Bi78  1  0.67021775  0.83674719  0.50736073  1
  Bi3+  Bi79  1  0.16308989  0.50205024  -0.00284610  1
  Bi3+  Bi80  1  0.49667555  0.32551414  0.83626757  1
  Bi3+  Bi81  1  0.00147508  0.66172633  0.66729733  1
  Bi3+  Bi82  1  0.00294172  -0.00137174  0.33486943  1
  Bi3+  Bi83  1  0.83938926  0.32987335  0.49870521  1
  Bi3+  Bi84  1  0.16052178  0.66248524  0.49932405  1
  Bi3+  Bi85  1  -0.00084393  0.83793610  0.50394508  1
  Te2-  Te86  1  0.17546391  0.16801387  0.16212807  1
  Te2-  Te87  1  0.16993085  0.17127990  0.49675720  1
  Te2-  Te88  1  0.17580566  0.17670470  0.84436781  1
  Te2-  Te89  1  0.17698940  0.50072409  0.16303332  1
  Te2-  Te90  1  0.16536207  0.50020962  0.49676364  1
  Te2-  Te91  1  0.17276984  0.47730236  0.83666490  1
  Te2-  Te92  1  0.16715465  0.82675394  0.16108104  1
  Te2-  Te93  1  0.16189995  0.82434312  0.50777907  1
  Te2-  Te94  1  0.16871977  0.83513531  0.83962680  1
  Te2-  Te95  1  0.49076421  0.16712360  0.16754283  1
  Te2-  Te96  1  0.49688189  0.17856065  0.49641534  1
  Te2-  Te97  1  0.49736311  0.16010945  0.83622007  1
  Te2-  Te98  1  0.47994497  0.49599475  0.16690992  1
  Te2-  Te99  1  0.49195161  0.49357792  0.50531524  1
  Te2-  Te100  1  0.50255007  0.49139899  0.83089138  1
  Te2-  Te101  1  0.50483802  0.83243321  0.18216794  1
  Te2-  Te102  1  0.50152728  0.83588053  0.48776525  1
  Te2-  Te103  1  0.49015514  0.83802119  0.83550925  1
  Te2-  Te104  1  0.82934305  0.17906550  0.17601033  1
  Te2-  Te105  1  0.83643997  0.16738435  0.49003091  1
  Te2-  Te106  1  0.82847200  0.16246634  0.84053987  1
  Te2-  Te107  1  0.83528897  0.48206405  0.16282386  1
  Te2-  Te108  1  0.83692262  0.50080402  0.50648270  1
  Te2-  Te109  1  0.82430051  0.50273716  0.83076687  1
  Te2-  Te110  1  0.82728345  0.83575252  0.16643657  1
  Te2-  Te111  1  0.83469142  0.84267983  0.51321723  1
  Te2-  Te112  1  0.83136464  0.83490251  0.81971773  1
  Te2-  Te113  1  0.15986140  -0.00558736  -0.00318964  1
  Te2-  Te114  1  0.16481232  -0.00800563  0.33155210  1
  Te2-  Te115  1  0.16392039  -0.00578174  0.67209337  1
  Te2-  Te116  1  0.17378191  0.33419980  0.00874217  1
  Te2-  Te117  1  0.16683763  0.33627885  0.32621560  1
  Te2-  Te118  1  0.16304640  0.33419468  0.66218035  1
  Te2-  Te119  1  0.15785097  0.66685677  -0.00309708  1
  Te2-  Te120  1  0.16122633  0.66454308  0.33279050  1
  Te2-  Te121  1  0.16501233  0.66649819  0.66860629  1
  Te2-  Te122  1  0.50411520  -0.00495889  0.00709727  1
  Te2-  Te123  1  0.49935600  0.00375348  0.33391641  1
  Te2-  Te124  1  0.50272705  -0.00135418  0.66886599  1
  Te2-  Te125  1  0.48898674  0.32693182  0.00199536  1
  Te2-  Te126  1  0.49761883  0.33999085  0.33330136  1
  Te2-  Te127  1  0.49841346  0.33604657  0.66962492  1
  Te2-  Te128  1  0.50567283  0.66693137  -0.00437885  1
  Te2-  Te129  1  0.49563761  0.66373457  0.33909893  1
  Te2-  Te130  1  0.50092298  0.66245133  0.66942570  1
  Te2-  Te131  1  0.83488151  0.00119021  -0.00043872  1
  Te2-  Te132  1  0.83836503  0.00783276  0.33219110  1
  Te2-  Te133  1  0.83938228  0.00397059  0.67361933  1
  Te2-  Te134  1  0.83070493  0.32966219  0.00043310  1
  Te2-  Te135  1  0.83608166  0.32480414  0.33723144  1
  Te2-  Te136  1  0.83385842  0.34162547  0.66229694  1
  Te2-  Te137  1  0.83245955  0.66339830  -0.00546813  1
  Te2-  Te138  1  0.84927006  0.66382624  0.32887114  1
  Te2-  Te139  1  0.83974533  0.65555131  0.66848103  1
  Te2-  Te140  1  0.00570482  0.15783890  -0.00284376  1
  Te2-  Te141  1  0.00897863  0.15954432  0.33379305  1
  Te2-  Te142  1  0.00178816  0.16341076  0.67619396  1
  Te2-  Te143  1  0.00180673  0.49666015  -0.01685367  1
  Te2-  Te144  1  0.00503733  0.49323901  0.33321393  1
  Te2-  Te145  1  0.00186575  0.50033503  0.68362409  1
  Te2-  Te146  1  -0.00048549  0.83960823  0.00421128  1
  Te2-  Te147  1  0.00617841  0.83785893  0.33955138  1
  Te2-  Te148  1  0.00306659  0.83045855  0.66598070  1
  Te2-  Te149  1  0.32683673  0.15496537  0.00591164  1
  Te2-  Te150  1  0.33377142  0.16783976  0.32817082  1
  Te2-  Te151  1  0.33262275  0.15402574  0.66071316  1
  Te2-  Te152  1  0.32721803  0.51611727  -0.00852097  1
  Te2-  Te153  1  0.32815459  0.50094619  0.33697137  1
  Te2-  Te154  1  0.33130156  0.50000549  0.66907126  1
  Te2-  Te155  1  0.33404297  0.82450345  -0.00059378  1
  Te2-  Te156  1  0.32547583  0.82760340  0.32918967  1
  Te2-  Te157  1  0.33148992  0.84889126  0.66822691  1
  Te2-  Te158  1  0.66663092  0.16019216  0.00914336  1
  Te2-  Te159  1  0.66293601  0.16737784  0.33201542  1
  Te2-  Te160  1  0.66813360  0.16652055  0.66020397  1
  Te2-  Te161  1  0.66768713  0.50096393  -0.00793410  1
  Te2-  Te162  1  0.66574975  0.51451673  0.32991644  1
  Te2-  Te163  1  0.66325640  0.50403514  0.66834511  1
  Te2-  Te164  1  0.66327447  0.83229336  -0.01561111  1
  Te2-  Te165  1  0.67181225  0.81873739  0.33679665  1
  Te2-  Te166  1  0.66582548  0.83500669  0.67411777  1
  Te2-  Te167  1  0.01399252  -0.00445033  0.16371253  1
  Te2-  Te168  1  0.01514472  0.00544259  0.50368975  1
  Te2-  Te169  1  -0.00132631  0.00657216  0.83494537  1
  Te2-  Te170  1  0.00473417  0.33266369  0.17128975  1
  Te2-  Te171  1  -0.00191100  0.32834199  0.49128037  1
  Te2-  Te172  1  -0.00137247  0.31710544  0.82859194  1
  Te2-  Te173  1  0.00164032  0.66744633  0.16654343  1
  Te2-  Te174  1  -0.00108421  0.66662935  0.50196341  1
  Te2-  Te175  1  0.00592317  0.66712731  0.83203021  1
  Te2-  Te176  1  0.31861407  -0.01015243  0.15351583  1
  Te2-  Te177  1  0.32527803  0.00592610  0.49634359  1
  Te2-  Te178  1  0.33530429  -0.00185182  0.84620824  1
  Te2-  Te179  1  0.33335448  0.33129386  0.15996966  1
  Te2-  Te180  1  0.33025424  0.33487737  0.49847006  1
  Te2-  Te181  1  0.33759822  0.33293269  0.84089844  1
  Te2-  Te182  1  0.32693452  0.67153913  0.15819098  1
  Te2-  Te183  1  0.32724359  0.65952386  0.50208453  1
  Te2-  Te184  1  0.33179182  0.66676672  0.83646480  1
  Te2-  Te185  1  0.66424395  -0.00715691  0.16562992  1
  Te2-  Te186  1  0.66518140  -0.00138483  0.50274724  1
  Te2-  Te187  1  0.66509669  0.00528137  0.83840990  1
  Te2-  Te188  1  0.65568122  0.34279501  0.15615781  1
  Te2-  Te189  1  0.66778990  0.33602060  0.49809492  1
  Te2-  Te190  1  0.65943686  0.32450163  0.84692328  1
  Te2-  Te191  1  0.66825409  0.65960180  0.15919920  1
  Te2-  Te192  1  0.66335403  0.67578294  0.50487809  1
  Te2-  Te193  1  0.66131238  0.67063569  0.83426792  1
  Pb2+  Pb194  1  0.00477969  0.50060662  0.15722325  1
  Pb2+  Pb195  1  0.33363151  0.67281504  0.67106140  1
  Pb2+  Pb196  1  0.49889876  0.66427852  0.17096893  1
  Pb2+  Pb197  1  0.33214428  -0.00286715  0.32199963  1
  Pb2+  Pb198  1  0.83638108  0.16950332  0.66159714  1
  Pb2+  Pb199  1  0.83351073  0.33615621  0.83305005  1
  Pb2+  Pb200  1  0.32773867  0.83264002  0.49718429  1
  Pb2+  Pb201  1  0.83494558  0.49396886  0.33187968  1
  Pb2+  Pb202  1  0.49914641  0.16650870  0.66712016  1
  Pb2+  Pb203  1  0.66495187  0.33842392  0.67407702  1
  Pb2+  Pb204  1  0.00021429  0.83620904  0.83613508  1
  Pb2+  Pb205  1  0.83011233  0.83016502  -0.00536005  1
  Pb2+  Pb206  1  0.00450273  0.16499078  0.16674264  1
  Pb2+  Pb207  1  0.50004490  0.83053683  0.66125668  1
  Pb2+  Pb208  1  0.00068868  0.32789324  -0.00247850  1
  Pb2+  Pb209  1  0.66698301  -0.00521572  0.33535617  1
  Pb2+  Pb210  1  0.66649461  0.33687940  0.32471355  1
  Pb2+  Pb211  1  0.49976567  0.49476339  0.00189133  1
  Pb2+  Pb212  1  0.83688035  0.00785743  0.16824906  1
  Pb2+  Pb213  1  0.32898949  0.32937943  0.66931511  1
  Pb2+  Pb214  1  0.16732468  0.16360338  0.66883168  1
  Pb2+  Pb215  1  0.83802650  0.83590475  0.34477856  1
