# generated using pymatgen
data_In22Ag21Sn22Bi21(Te54Pb11)2
_symmetry_space_group_name_H-M   'P 1'
_cell_length_a   19.14230402
_cell_length_b   19.14478036
_cell_length_c   19.13957734
_cell_angle_alpha   90.00744748
_cell_angle_beta   89.99136633
_cell_angle_gamma   90.00066560
_symmetry_Int_Tables_number   1
_chemical_formula_structural   In22Ag21Sn22Bi21(Te54Pb11)2
_chemical_formula_sum   'In22 Ag21 Sn22 Bi21 Te108 Pb22'
_cell_volume   7014.18040929
_cell_formula_units_Z   1
loop_
 _symmetry_equiv_pos_site_id
 _symmetry_equiv_pos_as_xyz
  1  'x, y, z'
loop_
 _atom_type_symbol
 _atom_type_oxidation_number
  In3+  3.0
  Ag+  1.0
  Sn2+  2.0
  Bi3+  3.0
  Te2-  -2.0
  Pb2+  2.0
loop_
 _atom_site_type_symbol
 _atom_site_label
 _atom_site_symmetry_multiplicity
 _atom_site_fract_x
 _atom_site_fract_y
 _atom_site_fract_z
 _atom_site_occupancy
  In3+  In0  1  0.50822070  -0.01437265  0.50932742  1
  In3+  In1  1  0.67483043  0.15713127  0.16968748  1
  In3+  In2  1  -0.01583031  0.47878634  0.16242821  1
  In3+  In3  1  0.52502609  0.50063548  0.66931182  1
  In3+  In4  1  -0.01063523  0.66338255  0.31261999  1
  In3+  In5  1  0.15171681  0.83386136  0.66936164  1
  In3+  In6  1  0.81710797  0.32529513  0.16670420  1
  In3+  In7  1  0.68028375  0.66900702  0.32948009  1
  In3+  In8  1  -0.02970888  0.51656445  0.83176766  1
  In3+  In9  1  0.52528406  0.16581404  -0.00421344  1
  In3+  In10  1  0.50801002  0.66853269  0.17820939  1
  In3+  In11  1  0.34289019  0.82810905  0.50188120  1
  In3+  In12  1  0.16849649  0.50669295  0.67768513  1
  In3+  In13  1  0.33739204  0.67734320  -0.00522729  1
  In3+  In14  1  -0.00378516  0.65909919  0.65289623  1
  In3+  In15  1  -0.00900679  -0.00203344  0.30362720  1
  In3+  In16  1  0.17073001  0.68556527  0.16411402  1
  In3+  In17  1  0.66449414  -0.01823280  0.33275572  1
  In3+  In18  1  0.50867262  0.67567380  0.84067382  1
  In3+  In19  1  0.32898018  -0.02698693  0.66886060  1
  In3+  In20  1  0.34848900  -0.00184940  0.33347831  1
  In3+  In21  1  -0.01499379  0.67388866  0.00122481  1
  Ag+  Ag22  1  0.52778536  0.37740286  0.20270689  1
  Ag+  Ag23  1  0.35352771  0.81107307  0.80438219  1
  Ag+  Ag24  1  0.52113640  -0.02906781  0.80591327  1
  Ag+  Ag25  1  0.13859643  -0.01611038  0.18187477  1
  Ag+  Ag26  1  0.69177959  0.84618933  0.52554704  1
  Ag+  Ag27  1  0.83419923  0.16379614  0.02026265  1
  Ag+  Ag28  1  0.68592477  0.47591510  0.16564379  1
  Ag+  Ag29  1  0.35955086  0.66825524  0.69246703  1
  Ag+  Ag30  1  -0.00267481  0.35924065  0.68948028  1
  Ag+  Ag31  1  0.52054617  0.82070866  0.33813008  1
  Ag+  Ag32  1  -0.02226104  0.81457195  0.16770480  1
  Ag+  Ag33  1  0.85375424  0.32960782  0.52816749  1
  Ag+  Ag34  1  0.81889388  0.68708444  0.48948501  1
  Ag+  Ag35  1  0.68882501  0.13055456  0.80314587  1
  Ag+  Ag36  1  0.66825285  0.01627507  0.69879020  1
  Ag+  Ag37  1  0.50562023  0.52387822  0.30882389  1
  Ag+  Ag38  1  0.82403015  0.16614813  0.34966742  1
  Ag+  Ag39  1  0.82917301  0.51773018  0.64134162  1
  Ag+  Ag40  1  0.68389863  0.81812507  0.17297448  1
  Ag+  Ag41  1  0.66951635  0.52243951  0.80827941  1
  Ag+  Ag42  1  -0.02802310  -0.02619866  0.00019162  1
  Sn2+  Sn43  1  -0.01186310  -0.00106819  0.68050949  1
  Sn2+  Sn44  1  0.82751683  0.48869149  0.34328542  1
  Sn2+  Sn45  1  0.32327586  0.34852579  0.66233244  1
  Sn2+  Sn46  1  0.82851571  0.33226016  0.83426373  1
  Sn2+  Sn47  1  0.17500609  0.33940134  0.16817924  1
  Sn2+  Sn48  1  -0.00379382  0.16400778  0.16402725  1
  Sn2+  Sn49  1  0.66491034  0.66040776  0.00372530  1
  Sn2+  Sn50  1  0.15182090  0.16172964  0.00173037  1
  Sn2+  Sn51  1  0.82397310  0.84149055  0.00136114  1
  Sn2+  Sn52  1  0.66711310  0.83480711  0.83802494  1
  Sn2+  Sn53  1  0.67066642  0.67299246  0.65637685  1
  Sn2+  Sn54  1  0.83265098  0.00035417  0.16431184  1
  Sn2+  Sn55  1  0.50374173  0.83635775  0.01275253  1
  Sn2+  Sn56  1  0.15525154  0.33462132  0.50596285  1
  Sn2+  Sn57  1  0.82458682  0.67118338  0.81873387  1
  Sn2+  Sn58  1  0.83401988  0.00077960  0.83130571  1
  Sn2+  Sn59  1  0.00138696  0.83644224  0.84098416  1
  Sn2+  Sn60  1  0.67104289  -0.00221436  0.00578679  1
  Sn2+  Sn61  1  -0.00088894  0.33542143  -0.00709651  1
  Sn2+  Sn62  1  0.50509031  0.49467509  -0.00208968  1
  Sn2+  Sn63  1  0.82958604  0.82886810  0.66673962  1
  Sn2+  Sn64  1  0.15270927  0.16409204  0.32475137  1
  Bi3+  Bi65  1  0.66750888  0.50477509  0.49353500  1
  Bi3+  Bi66  1  0.33420118  0.16498686  0.50160899  1
  Bi3+  Bi67  1  0.33632896  0.00289016  -0.00365574  1
  Bi3+  Bi68  1  0.33683067  0.83606708  0.17113388  1
  Bi3+  Bi69  1  0.66753024  0.33530257  -0.00212495  1
  Bi3+  Bi70  1  0.16318664  0.66593311  0.49799637  1
  Bi3+  Bi71  1  0.33363189  0.16522293  0.16551188  1
  Bi3+  Bi72  1  0.32703174  0.66894473  0.33120922  1
  Bi3+  Bi73  1  0.16266978  0.83453489  0.33628867  1
  Bi3+  Bi74  1  0.50375792  0.33457369  0.83679311  1
  Bi3+  Bi75  1  0.33521509  0.33471032  -0.00282189  1
  Bi3+  Bi76  1  -0.00634915  0.16377812  0.83375895  1
  Bi3+  Bi77  1  0.33540795  0.16404554  0.83390238  1
  Bi3+  Bi78  1  0.50141667  0.16606927  0.32706652  1
  Bi3+  Bi79  1  0.49699644  0.00156732  0.16478071  1
  Bi3+  Bi80  1  0.17406459  0.00062486  0.83518138  1
  Bi3+  Bi81  1  0.16590168  0.49943051  0.00131973  1
  Bi3+  Bi82  1  0.49609922  0.33297167  0.50400592  1
  Bi3+  Bi83  1  0.33162111  0.50373354  0.50093511  1
  Bi3+  Bi84  1  -0.00020772  0.16326476  0.49965732  1
  Bi3+  Bi85  1  0.83401800  0.16428123  0.66471969  1
  Te2-  Te86  1  0.17150656  0.17136713  0.16738521  1
  Te2-  Te87  1  0.16925911  0.16758786  0.49515867  1
  Te2-  Te88  1  0.16481611  0.16545162  0.83138447  1
  Te2-  Te89  1  0.16041042  0.49868775  0.16336352  1
  Te2-  Te90  1  0.16580141  0.50357029  0.50067109  1
  Te2-  Te91  1  0.17013098  0.50280722  0.83231351  1
  Te2-  Te92  1  0.17115914  0.84054870  0.16993589  1
  Te2-  Te93  1  0.17058437  0.83094918  0.50341770  1
  Te2-  Te94  1  0.16946383  0.83673163  0.82546072  1
  Te2-  Te95  1  0.49637710  0.16512197  0.16574431  1
  Te2-  Te96  1  0.49512716  0.16765482  0.49499773  1
  Te2-  Te97  1  0.49710912  0.17047533  0.84209707  1
  Te2-  Te98  1  0.49866658  0.51414057  0.16179619  1
  Te2-  Te99  1  0.49703462  0.49766358  0.50999616  1
  Te2-  Te100  1  0.51771408  0.49956023  0.82887254  1
  Te2-  Te101  1  0.49618990  0.83675483  0.17811470  1
  Te2-  Te102  1  0.49719300  0.83398496  0.48650136  1
  Te2-  Te103  1  0.49590745  0.82966809  0.83781911  1
  Te2-  Te104  1  0.83141003  0.17024439  0.16715145  1
  Te2-  Te105  1  0.83498949  0.17738826  0.49879632  1
  Te2-  Te106  1  0.83180582  0.16313785  0.82900360  1
  Te2-  Te107  1  0.83154369  0.49635638  0.17345054  1
  Te2-  Te108  1  0.82854125  0.48100242  0.49937994  1
  Te2-  Te109  1  0.82083433  0.50302513  0.83275216  1
  Te2-  Te110  1  0.83151217  0.83530135  0.16083563  1
  Te2-  Te111  1  0.83528141  0.83279048  0.49881676  1
  Te2-  Te112  1  0.83702105  0.83550774  0.83632162  1
  Te2-  Te113  1  0.17447545  0.00254290  -0.00317559  1
  Te2-  Te114  1  0.14816312  -0.00210815  0.32839627  1
  Te2-  Te115  1  0.16936376  -0.00788279  0.66920477  1
  Te2-  Te116  1  0.17066530  0.33617770  0.00073786  1
  Te2-  Te117  1  0.16666624  0.33440786  0.33335029  1
  Te2-  Te118  1  0.15229151  0.34313550  0.66460959  1
  Te2-  Te119  1  0.17549777  0.66225383  0.00415764  1
  Te2-  Te120  1  0.16124786  0.67036549  0.33162258  1
  Te2-  Te121  1  0.15407899  0.66987670  0.66235463  1
  Te2-  Te122  1  0.49766873  0.00637599  0.00331057  1
  Te2-  Te123  1  0.50712272  0.00443933  0.33089460  1
  Te2-  Te124  1  0.51262281  -0.00166507  0.66316920  1
  Te2-  Te125  1  0.49838904  0.32834531  -0.00035335  1
  Te2-  Te126  1  0.50092129  0.32860960  0.33906960  1
  Te2-  Te127  1  0.49716713  0.34066361  0.66907301  1
  Te2-  Te128  1  0.49393305  0.66519100  -0.00667313  1
  Te2-  Te129  1  0.48945810  0.67161511  0.32971055  1
  Te2-  Te130  1  0.50540813  0.66027127  0.67308640  1
  Te2-  Te131  1  0.82956781  0.01058405  -0.00000833  1
  Te2-  Te132  1  0.83708990  0.01213625  0.32888824  1
  Te2-  Te133  1  0.82103322  -0.00083388  0.66963592  1
  Te2-  Te134  1  0.83083282  0.32891393  0.00896059  1
  Te2-  Te135  1  0.83186972  0.32445568  0.31978322  1
  Te2-  Te136  1  0.84364662  0.32572125  0.67533916  1
  Te2-  Te137  1  0.83263684  0.66726339  -0.00266692  1
  Te2-  Te138  1  0.83587248  0.66335344  0.34147772  1
  Te2-  Te139  1  0.84006083  0.66322032  0.65847090  1
  Te2-  Te140  1  -0.01085330  0.17543753  -0.00601594  1
  Te2-  Te141  1  -0.00680708  0.15726417  0.33709770  1
  Te2-  Te142  1  -0.00097146  0.16104067  0.66635446  1
  Te2-  Te143  1  0.00328319  0.50347334  -0.00277811  1
  Te2-  Te144  1  -0.00339641  0.50797917  0.32536929  1
  Te2-  Te145  1  -0.00611542  0.50465123  0.67636741  1
  Te2-  Te146  1  -0.00080522  0.82845760  0.01083946  1
  Te2-  Te147  1  0.00114833  0.83409333  0.31797361  1
  Te2-  Te148  1  -0.00165753  0.83493315  0.67125327  1
  Te2-  Te149  1  0.32490870  0.16868002  -0.00097171  1
  Te2-  Te150  1  0.33064133  0.15998117  0.33549227  1
  Te2-  Te151  1  0.33222551  0.17663350  0.66559849  1
  Te2-  Te152  1  0.33192071  0.49807593  -0.00324851  1
  Te2-  Te153  1  0.34370484  0.50398296  0.33668076  1
  Te2-  Te154  1  0.32246799  0.51571230  0.66263216  1
  Te2-  Te155  1  0.33563271  0.83473814  0.00621352  1
  Te2-  Te156  1  0.32442941  0.83545014  0.33726457  1
  Te2-  Te157  1  0.33645619  0.81749867  0.65910158  1
  Te2-  Te158  1  0.67870021  0.17124248  0.01114985  1
  Te2-  Te159  1  0.66966728  0.16545125  0.32556143  1
  Te2-  Te160  1  0.66777976  0.15978120  0.66080184  1
  Te2-  Te161  1  0.66472352  0.49908404  0.01789514  1
  Te2-  Te162  1  0.65700916  0.51378641  0.33158494  1
  Te2-  Te163  1  0.67990129  0.50354061  0.66062715  1
  Te2-  Te164  1  0.66303973  0.82539775  0.00604210  1
  Te2-  Te165  1  0.66671006  0.82728656  0.32267153  1
  Te2-  Te166  1  0.67117278  0.83000117  0.66954452  1
  Te2-  Te167  1  -0.00165475  0.00710779  0.14880250  1
  Te2-  Te168  1  0.00267598  0.00173790  0.51239681  1
  Te2-  Te169  1  0.00668585  0.00100471  0.84790866  1
  Te2-  Te170  1  0.00585276  0.33040354  0.16173533  1
  Te2-  Te171  1  -0.00185938  0.32860036  0.49613901  1
  Te2-  Te172  1  -0.00533520  0.32967306  0.83430292  1
  Te2-  Te173  1  0.00340211  0.66906695  0.15919139  1
  Te2-  Te174  1  -0.00020763  0.66541921  0.50106125  1
  Te2-  Te175  1  -0.00540139  0.66670635  0.84194791  1
  Te2-  Te176  1  0.33130216  0.00197374  0.16449992  1
  Te2-  Te177  1  0.34311738  0.00242143  0.50650745  1
  Te2-  Te178  1  0.33659946  0.00351402  0.83015308  1
  Te2-  Te179  1  0.34008114  0.32958128  0.16039841  1
  Te2-  Te180  1  0.32962485  0.33547687  0.50249155  1
  Te2-  Te181  1  0.33645874  0.33209454  0.83113299  1
  Te2-  Te182  1  0.33240398  0.67173355  0.16661319  1
  Te2-  Te183  1  0.32840469  0.66766129  0.49552875  1
  Te2-  Te184  1  0.33524070  0.66916326  0.83866933  1
  Te2-  Te185  1  0.66079961  0.00176492  0.17198669  1
  Te2-  Te186  1  0.66350021  -0.01327370  0.48806547  1
  Te2-  Te187  1  0.66026011  -0.00499088  0.84626025  1
  Te2-  Te188  1  0.66148631  0.33032070  0.16334872  1
  Te2-  Te189  1  0.65846275  0.33842441  0.50381101  1
  Te2-  Te190  1  0.66475536  0.32934833  0.83854977  1
  Te2-  Te191  1  0.66162171  0.67294619  0.17242251  1
  Te2-  Te192  1  0.67191251  0.66799084  0.49450979  1
  Te2-  Te193  1  0.66325828  0.66838085  0.83277933  1
  Pb2+  Pb194  1  0.33248638  0.50016767  0.16494378  1
  Pb2+  Pb195  1  0.16274500  0.66905726  0.83378929  1
  Pb2+  Pb196  1  0.50500098  0.83104454  0.66468691  1
  Pb2+  Pb197  1  0.00107036  0.83381882  0.49640394  1
  Pb2+  Pb198  1  0.16683586  0.16576685  0.66312274  1
  Pb2+  Pb199  1  0.83187263  0.49672008  -0.00167047  1
  Pb2+  Pb200  1  0.16631709  0.83445824  -0.00244076  1
  Pb2+  Pb201  1  0.83192082  0.84001362  0.32953110  1
  Pb2+  Pb202  1  0.16280207  0.33593937  0.83332820  1
  Pb2+  Pb203  1  0.83091970  0.66312201  0.16617881  1
  Pb2+  Pb204  1  0.17278880  -0.00029262  0.49450239  1
  Pb2+  Pb205  1  0.66770445  0.33932700  0.33778430  1
  Pb2+  Pb206  1  0.67424637  0.33062941  0.67162545  1
  Pb2+  Pb207  1  0.83596529  0.00487238  0.49954186  1
  Pb2+  Pb208  1  0.49899880  0.16509953  0.67294122  1
  Pb2+  Pb209  1  0.33467712  0.32896200  0.33015471  1
  Pb2+  Pb210  1  -0.00329656  0.33077505  0.32857479  1
  Pb2+  Pb211  1  0.50353342  0.66476152  0.49939824  1
  Pb2+  Pb212  1  0.34829209  0.50344896  0.82866920  1
  Pb2+  Pb213  1  0.66482539  0.16022166  0.49182400  1
  Pb2+  Pb214  1  -0.00549318  0.49685654  0.50124025  1
  Pb2+  Pb215  1  0.17038413  0.50135338  0.33119439  1
