# generated using pymatgen
data_In22Ag21Sn22Bi21(Te54Pb11)2
_symmetry_space_group_name_H-M   'P 1'
_cell_length_a   19.12793046
_cell_length_b   19.13254765
_cell_length_c   19.13190594
_cell_angle_alpha   89.98961353
_cell_angle_beta   89.99549386
_cell_angle_gamma   90.00674121
_symmetry_Int_Tables_number   1
_chemical_formula_structural   In22Ag21Sn22Bi21(Te54Pb11)2
_chemical_formula_sum   'In22 Ag21 Sn22 Bi21 Te108 Pb22'
_cell_volume   7001.62768719
_cell_formula_units_Z   1
loop_
 _symmetry_equiv_pos_site_id
 _symmetry_equiv_pos_as_xyz
  1  'x, y, z'
loop_
 _atom_type_symbol
 _atom_type_oxidation_number
  In3+  3.0
  Ag+  1.0
  Sn2+  2.0
  Bi3+  3.0
  Te2-  -2.0
  Pb2+  2.0
loop_
 _atom_site_type_symbol
 _atom_site_label
 _atom_site_symmetry_multiplicity
 _atom_site_fract_x
 _atom_site_fract_y
 _atom_site_fract_z
 _atom_site_occupancy
  In3+  In0  1  0.17018657  0.35308074  0.50619998  1
  In3+  In1  1  -0.00888972  0.49966674  0.14881678  1
  In3+  In2  1  0.33332241  0.66915349  0.00450637  1
  In3+  In3  1  0.48591265  -0.00116670  0.16358774  1
  In3+  In4  1  0.00545934  0.15622910  0.82760268  1
  In3+  In5  1  0.50656430  0.83026738  -0.00422071  1
  In3+  In6  1  0.66858556  0.35921982  0.01555276  1
  In3+  In7  1  0.82888229  0.66255842  0.85048009  1
  In3+  In8  1  -0.00132161  0.33365270  0.67890021  1
  In3+  In9  1  0.00279950  0.65209696  0.66710031  1
  In3+  In10  1  0.32434005  0.01438707  -0.00386787  1
  In3+  In11  1  0.64287943  0.18867068  0.83845933  1
  In3+  In12  1  0.83085809  -0.00711002  0.15912116  1
  In3+  In13  1  0.31291521  0.83325131  0.85639135  1
  In3+  In14  1  0.16277411  0.82798773  0.02020219  1
  In3+  In15  1  0.17485800  0.15852194  0.65773257  1
  In3+  In16  1  0.84034615  -0.00141841  0.51404205  1
  In3+  In17  1  -0.00232599  0.50530816  0.83582274  1
  In3+  In18  1  0.83355625  0.32789697  0.84373105  1
  In3+  In19  1  0.50838048  0.50320222  0.33605716  1
  In3+  In20  1  0.83630246  0.83242341  0.69449069  1
  In3+  In21  1  0.17408148  0.81779115  0.65317699  1
  Ag+  Ag22  1  0.68781346  0.66678671  -0.00118102  1
  Ag+  Ag23  1  0.66585049  0.66954378  0.35527663  1
  Ag+  Ag24  1  0.52267928  0.13627765  0.30351876  1
  Ag+  Ag25  1  0.35432030  0.66015547  0.64553955  1
  Ag+  Ag26  1  0.46312057  0.53092852  0.63584220  1
  Ag+  Ag27  1  0.33355894  0.84810485  0.15496515  1
  Ag+  Ag28  1  -0.03158915  0.79447922  0.13426674  1
  Ag+  Ag29  1  0.86334184  0.82219364  0.00801416  1
  Ag+  Ag30  1  0.36012084  0.50018048  0.52502825  1
  Ag+  Ag31  1  0.18765957  0.65281284  0.50607411  1
  Ag+  Ag32  1  0.02248299  0.19285913  0.48331604  1
  Ag+  Ag33  1  0.83198300  0.02738632  0.86090076  1
  Ag+  Ag34  1  0.69303743  0.50731432  0.13488054  1
  Ag+  Ag35  1  0.65166063  0.50230804  0.83121786  1
  Ag+  Ag36  1  0.34075312  0.14206982  0.19447916  1
  Ag+  Ag37  1  0.34282892  0.19489341  0.82311422  1
  Ag+  Ag38  1  0.17873100  0.47223687  0.68942107  1
  Ag+  Ag39  1  0.19313003  0.02760071  0.51386113  1
  Ag+  Ag40  1  0.01294442  0.34296664  -0.01589315  1
  Ag+  Ag41  1  0.84362870  0.32313463  0.14327479  1
  Ag+  Ag42  1  0.83512750  0.48137422  -0.01094731  1
  Sn2+  Sn43  1  0.66358488  0.82091834  0.16374633  1
  Sn2+  Sn44  1  -0.00197285  0.83173792  0.83457514  1
  Sn2+  Sn45  1  0.82444220  0.66345794  0.16647584  1
  Sn2+  Sn46  1  0.32676815  0.82438546  0.49758099  1
  Sn2+  Sn47  1  0.82745085  0.50647037  0.67553140  1
  Sn2+  Sn48  1  0.15875744  -0.00005406  0.17707605  1
  Sn2+  Sn49  1  0.82916132  0.16462722  0.00497706  1
  Sn2+  Sn50  1  0.66853051  0.49724300  0.50741162  1
  Sn2+  Sn51  1  -0.00278011  0.33383775  0.32247169  1
  Sn2+  Sn52  1  0.16738613  0.50319416  0.34324023  1
  Sn2+  Sn53  1  0.66697513  0.83023983  0.49783846  1
  Sn2+  Sn54  1  0.51050060  0.66589854  0.16552419  1
  Sn2+  Sn55  1  0.66965556  -0.01080165  -0.00402194  1
  Sn2+  Sn56  1  0.82906582  0.50015620  0.31579092  1
  Sn2+  Sn57  1  0.49989210  0.82213474  0.32036786  1
  Sn2+  Sn58  1  0.48983898  0.67387339  0.49972517  1
  Sn2+  Sn59  1  0.50230691  0.34122737  0.83404616  1
  Sn2+  Sn60  1  0.49004611  0.82637905  0.66794334  1
  Sn2+  Sn61  1  0.16815228  0.66509657  0.82119154  1
  Sn2+  Sn62  1  0.50474581  0.66263398  0.83661491  1
  Sn2+  Sn63  1  -0.00103971  0.01167201  0.00136442  1
  Sn2+  Sn64  1  -0.00601397  0.66652420  -0.00541536  1
  Bi3+  Bi65  1  0.83299505  0.82998331  0.32366276  1
  Bi3+  Bi66  1  0.16233190  0.16451024  -0.00222290  1
  Bi3+  Bi67  1  0.83650991  0.33398393  0.50203183  1
  Bi3+  Bi68  1  0.16231694  0.33388590  0.16860777  1
  Bi3+  Bi69  1  0.33025721  0.33891674  0.33124740  1
  Bi3+  Bi70  1  0.16499807  0.83191601  0.33712469  1
  Bi3+  Bi71  1  0.82889009  0.66750442  0.50019620  1
  Bi3+  Bi72  1  0.33090046  0.50095724  0.16865397  1
  Bi3+  Bi73  1  0.50496477  0.50491145  0.00149429  1
  Bi3+  Bi74  1  0.16728610  0.16725401  0.33124309  1
  Bi3+  Bi75  1  0.67004550  0.33405700  0.67205270  1
  Bi3+  Bi76  1  -0.00333632  0.83448177  0.50026998  1
  Bi3+  Bi77  1  0.83880636  0.16549844  0.66771486  1
  Bi3+  Bi78  1  0.67025683  -0.00164636  0.66942645  1
  Bi3+  Bi79  1  0.49986528  0.16642932  0.66732032  1
  Bi3+  Bi80  1  0.66987451  0.82760782  0.83578042  1
  Bi3+  Bi81  1  -0.00502701  0.50048776  0.49957565  1
  Bi3+  Bi82  1  0.66555286  0.34193727  0.33134633  1
  Bi3+  Bi83  1  -0.00086027  -0.00308747  0.33533567  1
  Bi3+  Bi84  1  -0.00220548  -0.00075799  0.66734300  1
  Bi3+  Bi85  1  0.66652999  0.16356118  0.50343346  1
  Te2-  Te86  1  0.17568154  0.16920526  0.16529486  1
  Te2-  Te87  1  0.16589755  0.17103723  0.50184694  1
  Te2-  Te88  1  0.15970547  0.16292088  0.83143125  1
  Te2-  Te89  1  0.16353509  0.49618741  0.16911897  1
  Te2-  Te90  1  0.15622170  0.50546080  0.50090265  1
  Te2-  Te91  1  0.15522411  0.50346827  0.83165639  1
  Te2-  Te92  1  0.17746599  0.83657722  0.17280460  1
  Te2-  Te93  1  0.15997788  0.82934085  0.49914397  1
  Te2-  Te94  1  0.16384487  0.83034392  0.82140323  1
  Te2-  Te95  1  0.48843994  0.15896174  0.16403321  1
  Te2-  Te96  1  0.50280940  0.16763684  0.50513091  1
  Te2-  Te97  1  0.48914713  0.16568273  0.82958165  1
  Te2-  Te98  1  0.49578497  0.50172851  0.16245038  1
  Te2-  Te99  1  0.50859489  0.50513569  0.49748859  1
  Te2-  Te100  1  0.50284190  0.50052128  0.83916261  1
  Te2-  Te101  1  0.49062766  0.83832309  0.16370892  1
  Te2-  Te102  1  0.50183459  0.83011514  0.49793144  1
  Te2-  Te103  1  0.50625665  0.82934820  0.83634316  1
  Te2-  Te104  1  0.83432916  0.17652662  0.16509910  1
  Te2-  Te105  1  0.82967011  0.16687277  0.50437427  1
  Te2-  Te106  1  0.84464889  0.17244693  0.82898409  1
  Te2-  Te107  1  0.83638577  0.49766980  0.15891088  1
  Te2-  Te108  1  0.83188774  0.50083404  0.50153084  1
  Te2-  Te109  1  0.84253459  0.50777258  0.84086062  1
  Te2-  Te110  1  0.83020322  0.83637537  0.15944257  1
  Te2-  Te111  1  0.83264642  0.83313003  0.48890795  1
  Te2-  Te112  1  0.83266160  0.81985913  0.85119070  1
  Te2-  Te113  1  0.16729899  -0.00146523  0.00199755  1
  Te2-  Te114  1  0.16277777  0.00268094  0.34333228  1
  Te2-  Te115  1  0.16297418  0.00446607  0.65896360  1
  Te2-  Te116  1  0.15962461  0.33299663  0.00367589  1
  Te2-  Te117  1  0.16432206  0.33098997  0.33253825  1
  Te2-  Te118  1  0.15743587  0.32893135  0.66257474  1
  Te2-  Te119  1  0.16173226  0.67526993  -0.00225137  1
  Te2-  Te120  1  0.16454870  0.66851711  0.34382708  1
  Te2-  Te121  1  0.15516238  0.66842211  0.65645187  1
  Te2-  Te122  1  0.49932149  -0.00953897  0.00534066  1
  Te2-  Te123  1  0.49925119  -0.00632888  0.32235682  1
  Te2-  Te124  1  0.50411952  0.00065288  0.67042594  1
  Te2-  Te125  1  0.50921521  0.33570686  -0.00263802  1
  Te2-  Te126  1  0.49951560  0.34134998  0.33438401  1
  Te2-  Te127  1  0.50510388  0.32921599  0.67225940  1
  Te2-  Te128  1  0.48989658  0.66926701  -0.00002911  1
  Te2-  Te129  1  0.51557544  0.66363750  0.33130725  1
  Te2-  Te130  1  0.50141680  0.66721056  0.67141956  1
  Te2-  Te131  1  0.83904212  -0.00166183  0.00403168  1
  Te2-  Te132  1  0.83449704  -0.00422089  0.31741932  1
  Te2-  Te133  1  0.83279304  -0.00070792  0.67378860  1
  Te2-  Te134  1  0.82101891  0.33430080  -0.00152112  1
  Te2-  Te135  1  0.82947916  0.33569259  0.34012605  1
  Te2-  Te136  1  0.83585552  0.33264469  0.66674322  1
  Te2-  Te137  1  0.83762850  0.67403973  0.00364131  1
  Te2-  Te138  1  0.81917561  0.66771211  0.33537129  1
  Te2-  Te139  1  0.84007543  0.67156582  0.66228745  1
  Te2-  Te140  1  0.00175042  0.17452483  -0.00775881  1
  Te2-  Te141  1  0.00348264  0.16204189  0.34002034  1
  Te2-  Te142  1  0.00033863  0.16574344  0.66696477  1
  Te2-  Te143  1  -0.01151086  0.49335291  -0.00487795  1
  Te2-  Te144  1  -0.00191529  0.49664183  0.33672562  1
  Te2-  Te145  1  -0.00345992  0.49646024  0.66681179  1
  Te2-  Te146  1  0.00888540  0.83852615  0.00131473  1
  Te2-  Te147  1  -0.00203332  0.83409297  0.32978236  1
  Te2-  Te148  1  -0.00328472  0.83878423  0.66405526  1
  Te2-  Te149  1  0.32601081  0.16522930  -0.02001901  1
  Te2-  Te150  1  0.33041311  0.17373515  0.33816797  1
  Te2-  Te151  1  0.33136705  0.16560623  0.67437803  1
  Te2-  Te152  1  0.33413450  0.50389523  0.00282076  1
  Te2-  Te153  1  0.33524664  0.49920144  0.33034006  1
  Te2-  Te154  1  0.32045087  0.51185657  0.66917666  1
  Te2-  Te155  1  0.32727560  0.82858866  0.00896284  1
  Te2-  Te156  1  0.33008211  0.83390158  0.33673522  1
  Te2-  Te157  1  0.32952280  0.81542685  0.65956960  1
  Te2-  Te158  1  0.66848550  0.15985483  -0.01082756  1
  Te2-  Te159  1  0.66104812  0.17169019  0.33586822  1
  Te2-  Te160  1  0.66892546  0.16452423  0.67256971  1
  Te2-  Te161  1  0.66971367  0.50776975  -0.01148143  1
  Te2-  Te162  1  0.66334354  0.50119173  0.33600768  1
  Te2-  Te163  1  0.66733603  0.49416170  0.67859299  1
  Te2-  Te164  1  0.65891293  0.82212035  -0.00060475  1
  Te2-  Te165  1  0.66924266  0.82368783  0.32784141  1
  Te2-  Te166  1  0.66930959  0.83676789  0.66872981  1
  Te2-  Te167  1  -0.00026756  0.00311065  0.16989656  1
  Te2-  Te168  1  -0.00364151  -0.00376239  0.50136773  1
  Te2-  Te169  1  -0.01383137  -0.00019706  0.83099564  1
  Te2-  Te170  1  -0.00519798  0.34154204  0.16223155  1
  Te2-  Te171  1  -0.00136731  0.33640033  0.49806469  1
  Te2-  Te172  1  -0.00938742  0.34129253  0.83838548  1
  Te2-  Te173  1  -0.00045590  0.65657566  0.16562259  1
  Te2-  Te174  1  -0.00822656  0.66797439  0.50643928  1
  Te2-  Te175  1  -0.00216648  0.66476152  0.82760029  1
  Te2-  Te176  1  0.33020111  -0.00019517  0.15507485  1
  Te2-  Te177  1  0.33571969  -0.00478044  0.50345359  1
  Te2-  Te178  1  0.33500152  -0.01621436  0.84098630  1
  Te2-  Te179  1  0.32953277  0.33525304  0.16777173  1
  Te2-  Te180  1  0.32592616  0.35251173  0.49775112  1
  Te2-  Te181  1  0.33052969  0.34087575  0.83344587  1
  Te2-  Te182  1  0.33575906  0.66389001  0.16300414  1
  Te2-  Te183  1  0.33427809  0.65497250  0.49855783  1
  Te2-  Te184  1  0.33163293  0.68167368  0.84488446  1
  Te2-  Te185  1  0.67392151  0.00120972  0.15872281  1
  Te2-  Te186  1  0.67180331  0.00122149  0.50047108  1
  Te2-  Te187  1  0.68504545  -0.00937717  0.83221053  1
  Te2-  Te188  1  0.67418911  0.34230400  0.16796875  1
  Te2-  Te189  1  0.67047558  0.32860393  0.50349208  1
  Te2-  Te190  1  0.67599164  0.34289698  0.83303433  1
  Te2-  Te191  1  0.66773938  0.65587068  0.15133614  1
  Te2-  Te192  1  0.66705177  0.66783694  0.50413778  1
  Te2-  Te193  1  0.67433555  0.66184386  0.84329603  1
  Pb2+  Pb194  1  0.16102183  0.50710596  0.00015334  1
  Pb2+  Pb195  1  -0.00784456  0.66379337  0.33565012  1
  Pb2+  Pb196  1  0.50120934  -0.00336219  0.49788927  1
  Pb2+  Pb197  1  0.16047770  0.33079185  0.83446499  1
  Pb2+  Pb198  1  0.33030875  0.00198100  0.32998471  1
  Pb2+  Pb199  1  0.33412573  0.17338867  0.50539066  1
  Pb2+  Pb200  1  0.50368023  0.33509966  0.16824942  1
  Pb2+  Pb201  1  0.66671668  -0.00691657  0.32617949  1
  Pb2+  Pb202  1  0.34002979  0.66706970  0.33078139  1
  Pb2+  Pb203  1  0.51360192  -0.00430384  0.83836658  1
  Pb2+  Pb204  1  0.33404482  0.51328969  0.83267729  1
  Pb2+  Pb205  1  0.83046131  0.16678752  0.33319023  1
  Pb2+  Pb206  1  0.33420316  0.34304723  0.66766623  1
  Pb2+  Pb207  1  0.49858134  0.16255127  -0.00024188  1
  Pb2+  Pb208  1  0.33100876  -0.01306739  0.67065286  1
  Pb2+  Pb209  1  0.16951404  0.66688936  0.17274124  1
  Pb2+  Pb210  1  0.33278484  0.33189472  0.00150360  1
  Pb2+  Pb211  1  0.66681886  0.16951514  0.16017267  1
  Pb2+  Pb212  1  0.16042060  -0.00427502  0.83249645  1
  Pb2+  Pb213  1  0.67007664  0.66365446  0.67440242  1
  Pb2+  Pb214  1  0.49824477  0.33739515  0.50075049  1
  Pb2+  Pb215  1  0.00507269  0.17084567  0.16570068  1
