# generated using pymatgen
data_In22Ag21Sn22Bi21(Te54Pb11)2
_symmetry_space_group_name_H-M   'P 1'
_cell_length_a   19.11375519
_cell_length_b   19.14071033
_cell_length_c   19.12720544
_cell_angle_alpha   90.00903890
_cell_angle_beta   89.98724745
_cell_angle_gamma   89.99262261
_symmetry_Int_Tables_number   1
_chemical_formula_structural   In22Ag21Sn22Bi21(Te54Pb11)2
_chemical_formula_sum   'In22 Ag21 Sn22 Bi21 Te108 Pb22'
_cell_volume   6997.70407718
_cell_formula_units_Z   1
loop_
 _symmetry_equiv_pos_site_id
 _symmetry_equiv_pos_as_xyz
  1  'x, y, z'
loop_
 _atom_type_symbol
 _atom_type_oxidation_number
  In3+  3.0
  Ag+  1.0
  Sn2+  2.0
  Bi3+  3.0
  Te2-  -2.0
  Pb2+  2.0
loop_
 _atom_site_type_symbol
 _atom_site_label
 _atom_site_symmetry_multiplicity
 _atom_site_fract_x
 _atom_site_fract_y
 _atom_site_fract_z
 _atom_site_occupancy
  In3+  In0  1  0.83653917  0.01445353  0.50567967  1
  In3+  In1  1  0.66351605  0.51995551  0.14986059  1
  In3+  In2  1  -0.00135974  0.00346440  0.65370667  1
  In3+  In3  1  0.16967537  0.51459926  0.66438508  1
  In3+  In4  1  0.84206616  0.83171985  0.33540898  1
  In3+  In5  1  -0.00934008  0.00297687  0.02704389  1
  In3+  In6  1  0.16051595  0.82840441  0.65773548  1
  In3+  In7  1  0.50247712  0.50433111  0.33391949  1
  In3+  In8  1  0.32898062  0.16984454  0.82791429  1
  In3+  In9  1  0.65137337  0.33482619  0.67181041  1
  In3+  In10  1  0.33773400  0.84382764  0.49325901  1
  In3+  In11  1  0.15843005  0.84020576  0.34233382  1
  In3+  In12  1  0.16571368  -0.00032645  0.80722110  1
  In3+  In13  1  0.66717650  0.33749422  0.33185633  1
  In3+  In14  1  0.34354273  0.00036399  0.66138827  1
  In3+  In15  1  0.66914332  0.17983414  0.15944437  1
  In3+  In16  1  0.00116496  0.31641946  0.63941062  1
  In3+  In17  1  0.67949864  0.82995291  0.50082288  1
  In3+  In18  1  0.16343847  0.48089642  0.33820091  1
  In3+  In19  1  0.51023344  0.66800697  0.49452725  1
  In3+  In20  1  0.34820994  0.67613860  0.66305980  1
  In3+  In21  1  0.82455623  0.67557648  0.16762172  1
  Ag+  Ag22  1  0.14742883  0.18440158  0.35504253  1
  Ag+  Ag23  1  0.64789105  0.34325062  0.02937789  1
  Ag+  Ag24  1  0.17481987  0.16416245  0.65267962  1
  Ag+  Ag25  1  0.65788602  0.70134587  0.01819902  1
  Ag+  Ag26  1  0.01461103  0.14315824  0.49414072  1
  Ag+  Ag27  1  0.49183190  0.64961930  0.19453589  1
  Ag+  Ag28  1  0.02534317  0.68282333  0.30991764  1
  Ag+  Ag29  1  0.63979712  0.03357731  0.69556014  1
  Ag+  Ag30  1  0.47412837  0.48187580  0.66033306  1
  Ag+  Ag31  1  0.81420996  0.32713896  0.85420419  1
  Ag+  Ag32  1  0.64852306  0.69342434  0.66729470  1
  Ag+  Ag33  1  0.66652885  0.68828284  0.31326877  1
  Ag+  Ag34  1  0.50416052  0.35255317  0.17271081  1
  Ag+  Ag35  1  0.31156217  0.00026527  0.31963247  1
  Ag+  Ag36  1  0.80263265  0.30991074  0.52621749  1
  Ag+  Ag37  1  0.53935166  0.80391231  0.00814671  1
  Ag+  Ag38  1  0.82271461  0.79894418  -0.02621614  1
  Ag+  Ag39  1  0.01907650  0.64699575  0.69370779  1
  Ag+  Ag40  1  0.17570120  0.33111466  0.52839711  1
  Ag+  Ag41  1  0.82099051  0.16670294  0.00972194  1
  Ag+  Ag42  1  0.02625093  0.03110018  0.34966416  1
  Sn2+  Sn43  1  0.51069246  0.00049239  0.49285838  1
  Sn2+  Sn44  1  0.18023994  0.32893872  0.16291247  1
  Sn2+  Sn45  1  0.00071314  0.82659138  0.50238577  1
  Sn2+  Sn46  1  0.32648284  -0.00347848  0.00271384  1
  Sn2+  Sn47  1  0.83080603  0.82152156  0.66610780  1
  Sn2+  Sn48  1  0.50454803  0.16676480  0.00337754  1
  Sn2+  Sn49  1  0.50512739  0.33575609  0.83942415  1
  Sn2+  Sn50  1  0.67112623  -0.00062495  0.33575813  1
  Sn2+  Sn51  1  0.17071990  0.66491339  0.17159022  1
  Sn2+  Sn52  1  0.66249552  0.83614280  0.17104690  1
  Sn2+  Sn53  1  0.83110547  0.33356643  0.16054491  1
  Sn2+  Sn54  1  0.34095528  0.49632351  0.83313141  1
  Sn2+  Sn55  1  0.15749107  0.32583934  0.83096204  1
  Sn2+  Sn56  1  -0.00371420  0.84012127  0.82684898  1
  Sn2+  Sn57  1  0.16465840  0.01400614  0.49540006  1
  Sn2+  Sn58  1  0.34098102  0.83082681  0.16780036  1
  Sn2+  Sn59  1  0.15637373  0.83365356  0.00074511  1
  Sn2+  Sn60  1  0.49916072  0.33815597  0.48933981  1
  Sn2+  Sn61  1  0.32037802  0.16544710  0.49434462  1
  Sn2+  Sn62  1  -0.00090970  0.16795690  0.82690499  1
  Sn2+  Sn63  1  0.66704068  0.15822685  0.49538540  1
  Sn2+  Sn64  1  0.00046880  0.49329731  0.82758806  1
  Bi3+  Bi65  1  0.34018160  0.33015586  -0.00002434  1
  Bi3+  Bi66  1  0.33095125  0.83567977  0.83292903  1
  Bi3+  Bi67  1  0.16452532  -0.00451270  0.16688617  1
  Bi3+  Bi68  1  0.50130719  -0.00255536  0.16525779  1
  Bi3+  Bi69  1  0.82910525  0.50212421  0.33371672  1
  Bi3+  Bi70  1  0.50213229  0.66595242  0.83107106  1
  Bi3+  Bi71  1  -0.00051073  0.32966256  -0.00008447  1
  Bi3+  Bi72  1  -0.00015902  0.50253111  0.49876613  1
  Bi3+  Bi73  1  0.00016446  0.83357885  0.16660397  1
  Bi3+  Bi74  1  0.66808549  0.00823446  0.00029991  1
  Bi3+  Bi75  1  0.83020498  -0.00178802  0.17120435  1
  Bi3+  Bi76  1  0.33350657  0.49878669  0.49967604  1
  Bi3+  Bi77  1  0.83298126  0.49167556  -0.00071422  1
  Bi3+  Bi78  1  0.84144166  0.49771174  0.66360291  1
  Bi3+  Bi79  1  0.50086643  0.16606404  0.33677003  1
  Bi3+  Bi80  1  0.83089092  0.65953662  0.49764421  1
  Bi3+  Bi81  1  0.16372921  0.16263650  0.00117139  1
  Bi3+  Bi82  1  0.83824490  0.16564973  0.66676964  1
  Bi3+  Bi83  1  0.66762642  0.49839655  0.82772804  1
  Bi3+  Bi84  1  -0.00575168  0.34000891  0.33232171  1
  Bi3+  Bi85  1  0.66470779  0.49881787  0.50003277  1
  Te2-  Te86  1  0.16955452  0.15928377  0.16513139  1
  Te2-  Te87  1  0.16259541  0.17444529  0.50011014  1
  Te2-  Te88  1  0.16947458  0.15644628  0.83921439  1
  Te2-  Te89  1  0.16737722  0.50348078  0.17297280  1
  Te2-  Te90  1  0.16870935  0.49070984  0.50447209  1
  Te2-  Te91  1  0.17042559  0.49948821  0.82334952  1
  Te2-  Te92  1  0.16499615  0.83344946  0.16756412  1
  Te2-  Te93  1  0.17109077  0.83621644  0.50221495  1
  Te2-  Te94  1  0.16660643  0.84198101  0.82992843  1
  Te2-  Te95  1  0.51070913  0.16000869  0.17075836  1
  Te2-  Te96  1  0.49729393  0.16760283  0.49778263  1
  Te2-  Te97  1  0.49392559  0.16925626  0.83290065  1
  Te2-  Te98  1  0.51069800  0.50269023  0.17375707  1
  Te2-  Te99  1  0.49917316  0.50372435  0.50983978  1
  Te2-  Te100  1  0.50246714  0.49871900  0.81572925  1
  Te2-  Te101  1  0.50152142  0.83598192  0.15184948  1
  Te2-  Te102  1  0.49037048  0.82879553  0.50011433  1
  Te2-  Te103  1  0.49531157  0.83144591  0.84050600  1
  Te2-  Te104  1  0.82809795  0.16249175  0.16341579  1
  Te2-  Te105  1  0.83821679  0.16924341  0.50192477  1
  Te2-  Te106  1  0.83778636  0.17572578  0.82610235  1
  Te2-  Te107  1  0.82099257  0.50002180  0.16768250  1
  Te2-  Te108  1  0.83240338  0.49370017  0.49791282  1
  Te2-  Te109  1  0.83298930  0.48589049  0.83198101  1
  Te2-  Te110  1  0.83304355  0.83306484  0.17500500  1
  Te2-  Te111  1  0.83306096  0.82279696  0.49630125  1
  Te2-  Te112  1  0.83693922  0.83334353  0.83232311  1
  Te2-  Te113  1  0.15700921  0.00007796  0.00570699  1
  Te2-  Te114  1  0.16605249  -0.00637762  0.33137541  1
  Te2-  Te115  1  0.15884503  0.01284002  0.65581715  1
  Te2-  Te116  1  0.17076299  0.32962825  0.00024334  1
  Te2-  Te117  1  0.16670298  0.32685205  0.32115239  1
  Te2-  Te118  1  0.15416233  0.31565251  0.67380875  1
  Te2-  Te119  1  0.16891646  0.66534276  0.00503424  1
  Te2-  Te120  1  0.17086690  0.67919879  0.32871588  1
  Te2-  Te121  1  0.16169904  0.67244436  0.66427821  1
  Te2-  Te122  1  0.49966423  0.00550750  0.00364349  1
  Te2-  Te123  1  0.50446597  0.00148906  0.33049088  1
  Te2-  Te124  1  0.50009424  0.00000519  0.66330607  1
  Te2-  Te125  1  0.50206115  0.32822555  0.00540866  1
  Te2-  Te126  1  0.50455014  0.33122267  0.32435079  1
  Te2-  Te127  1  0.49730981  0.33641562  0.66597980  1
  Te2-  Te128  1  0.51241854  0.66157796  -0.00837206  1
  Te2-  Te129  1  0.51398037  0.66331262  0.33903892  1
  Te2-  Te130  1  0.50120064  0.66539965  0.66586513  1
  Te2-  Te131  1  0.83614416  0.01385804  0.00578000  1
  Te2-  Te132  1  0.83105464  -0.00973073  0.33635217  1
  Te2-  Te133  1  0.84158554  -0.00117944  0.66012562  1
  Te2-  Te134  1  0.83849724  0.32362142  0.00171009  1
  Te2-  Te135  1  0.82968647  0.33838770  0.32851348  1
  Te2-  Te136  1  0.85098597  0.33301934  0.66131487  1
  Te2-  Te137  1  0.81943396  0.65688986  0.01031150  1
  Te2-  Te138  1  0.81647519  0.66321218  0.32800614  1
  Te2-  Te139  1  0.84238578  0.66060972  0.66175792  1
  Te2-  Te140  1  0.00184162  0.16481862  -0.00232077  1
  Te2-  Te141  1  0.00073716  0.17554401  0.34310156  1
  Te2-  Te142  1  0.00182946  0.16050861  0.65293857  1
  Te2-  Te143  1  -0.00406090  0.49712757  -0.00069285  1
  Te2-  Te144  1  -0.00279947  0.50535231  0.33586094  1
  Te2-  Te145  1  0.00761868  0.50165450  0.66506262  1
  Te2-  Te146  1  -0.00830982  0.84282362  0.00354327  1
  Te2-  Te147  1  -0.00186967  0.82628160  0.33163082  1
  Te2-  Te148  1  0.00574089  0.84079373  0.66486933  1
  Te2-  Te149  1  0.33091846  0.16631571  -0.00588824  1
  Te2-  Te150  1  0.33831472  0.15328857  0.33697428  1
  Te2-  Te151  1  0.32402564  0.15871954  0.67030860  1
  Te2-  Te152  1  0.33447503  0.49647162  -0.00066908  1
  Te2-  Te153  1  0.34279700  0.50088442  0.33852132  1
  Te2-  Te154  1  0.32610610  0.50238708  0.66440144  1
  Te2-  Te155  1  0.32668803  0.83802652  -0.00474118  1
  Te2-  Te156  1  0.33077503  0.84464231  0.34010880  1
  Te2-  Te157  1  0.32248519  0.83814873  0.66850065  1
  Te2-  Te158  1  0.67256762  0.17299003  0.00269449  1
  Te2-  Te159  1  0.66588148  0.16839771  0.33575297  1
  Te2-  Te160  1  0.67223675  0.17091176  0.65981044  1
  Te2-  Te161  1  0.67177411  0.48629447  -0.00326141  1
  Te2-  Te162  1  0.66248642  0.49596094  0.33884869  1
  Te2-  Te163  1  0.67858902  0.48759545  0.66312483  1
  Te2-  Te164  1  0.68117738  0.84606895  -0.00001442  1
  Te2-  Te165  1  0.66597406  0.83261303  0.34407979  1
  Te2-  Te166  1  0.67147417  0.83913873  0.65603416  1
  Te2-  Te167  1  -0.00393769  -0.00381285  0.18717268  1
  Te2-  Te168  1  -0.00746185  -0.00470081  0.49054901  1
  Te2-  Te169  1  0.00912158  0.00182101  0.82157952  1
  Te2-  Te170  1  0.00234304  0.33386509  0.16645347  1
  Te2-  Te171  1  0.01668147  0.34268162  0.49142412  1
  Te2-  Te172  1  0.00118417  0.33386988  0.83899926  1
  Te2-  Te173  1  -0.00461299  0.67047424  0.16706826  1
  Te2-  Te174  1  -0.00623709  0.66386781  0.49488384  1
  Te2-  Te175  1  -0.00107192  0.66817964  0.83633872  1
  Te2-  Te176  1  0.33282942  -0.00627880  0.16997572  1
  Te2-  Te177  1  0.33763409  -0.00247521  0.50920489  1
  Te2-  Te178  1  0.32402656  -0.00081806  0.83068045  1
  Te2-  Te179  1  0.34808406  0.33292159  0.16263114  1
  Te2-  Te180  1  0.32692519  0.33447784  0.50176612  1
  Te2-  Te181  1  0.33520528  0.33179103  0.83654972  1
  Te2-  Te182  1  0.34765562  0.67106180  0.16809582  1
  Te2-  Te183  1  0.33371223  0.66377784  0.50770328  1
  Te2-  Te184  1  0.33535979  0.66799578  0.82537613  1
  Te2-  Te185  1  0.66776679  -0.00035102  0.16502077  1
  Te2-  Te186  1  0.67595047  -0.00588999  0.49925741  1
  Te2-  Te187  1  0.66932519  0.00004118  0.83493564  1
  Te2-  Te188  1  0.65874603  0.33131310  0.17422694  1
  Te2-  Te189  1  0.66080721  0.33381365  0.49606892  1
  Te2-  Te190  1  0.66962777  0.33523050  0.82681946  1
  Te2-  Te191  1  0.65809302  0.66986543  0.16565184  1
  Te2-  Te192  1  0.66530809  0.66463831  0.51469600  1
  Te2-  Te193  1  0.66656759  0.66145965  0.81701560  1
  Pb2+  Pb194  1  -0.00823212  0.67440054  0.00129518  1
  Pb2+  Pb195  1  0.49326275  0.00033653  0.83777477  1
  Pb2+  Pb196  1  0.83183277  0.65681727  0.83152482  1
  Pb2+  Pb197  1  0.33867061  0.67367437  0.33703829  1
  Pb2+  Pb198  1  0.33993871  0.16307345  0.16666627  1
  Pb2+  Pb199  1  0.50389018  0.49795057  -0.00720398  1
  Pb2+  Pb200  1  0.49614522  0.16982443  0.66452683  1
  Pb2+  Pb201  1  -0.00625718  0.50157933  0.16917067  1
  Pb2+  Pb202  1  0.34435186  0.67327533  -0.00141760  1
  Pb2+  Pb203  1  0.16095181  0.66402763  0.49471182  1
  Pb2+  Pb204  1  0.66674067  0.16714299  0.83356482  1
  Pb2+  Pb205  1  0.32223687  0.33103268  0.66806526  1
  Pb2+  Pb206  1  0.50051320  0.83484641  0.32655036  1
  Pb2+  Pb207  1  0.16511701  0.49805661  -0.00393844  1
  Pb2+  Pb208  1  0.00132940  0.16644487  0.17094519  1
  Pb2+  Pb209  1  0.33447979  0.32420144  0.33513362  1
  Pb2+  Pb210  1  0.84146193  0.00634397  0.83521379  1
  Pb2+  Pb211  1  0.49866246  0.83147980  0.66872303  1
  Pb2+  Pb212  1  0.83533267  0.16335079  0.33421592  1
  Pb2+  Pb213  1  0.66597617  0.82828182  0.82956604  1
  Pb2+  Pb214  1  0.16600208  0.67236153  0.83684706  1
  Pb2+  Pb215  1  0.33574560  0.50109786  0.16979516  1
