# generated using pymatgen
data_In22Ag21Sn22Bi21(Te54Pb11)2
_symmetry_space_group_name_H-M   'P 1'
_cell_length_a   19.13238452
_cell_length_b   19.13851084
_cell_length_c   19.11024445
_cell_angle_alpha   90.01782643
_cell_angle_beta   89.98782772
_cell_angle_gamma   89.98720484
_symmetry_Int_Tables_number   1
_chemical_formula_structural   In22Ag21Sn22Bi21(Te54Pb11)2
_chemical_formula_sum   'In22 Ag21 Sn22 Bi21 Te108 Pb22'
_cell_volume   6997.50864680
_cell_formula_units_Z   1
loop_
 _symmetry_equiv_pos_site_id
 _symmetry_equiv_pos_as_xyz
  1  'x, y, z'
loop_
 _atom_type_symbol
 _atom_type_oxidation_number
  In3+  3.0
  Ag+  1.0
  Sn2+  2.0
  Bi3+  3.0
  Te2-  -2.0
  Pb2+  2.0
loop_
 _atom_site_type_symbol
 _atom_site_label
 _atom_site_symmetry_multiplicity
 _atom_site_fract_x
 _atom_site_fract_y
 _atom_site_fract_z
 _atom_site_occupancy
  In3+  In0  1  0.83508902  0.00790943  0.16937153  1
  In3+  In1  1  0.64604326  0.32018406  0.00312770  1
  In3+  In2  1  0.33402773  0.67456672  0.68124418  1
  In3+  In3  1  0.66092912  0.83183570  0.13480972  1
  In3+  In4  1  0.67106403  0.52228506  0.84297034  1
  In3+  In5  1  0.50108835  0.49753657  0.64154888  1
  In3+  In6  1  0.48328102  0.16436065  0.30739196  1
  In3+  In7  1  0.49847843  0.17050136  0.64707098  1
  In3+  In8  1  0.83523164  0.34475900  0.50657415  1
  In3+  In9  1  0.18416759  0.83381588  0.66463352  1
  In3+  In10  1  0.84615258  -0.00976493  0.49684937  1
  In3+  In11  1  0.16982968  0.16559755  0.34757220  1
  In3+  In12  1  0.66025449  -0.00688553  0.00452001  1
  In3+  In13  1  0.19384770  -0.00751353  0.16614230  1
  In3+  In14  1  0.83068633  0.52103810  -0.00795737  1
  In3+  In15  1  0.33784595  0.50799178  0.49983729  1
  In3+  In16  1  0.35854951  0.50203333  0.83158107  1
  In3+  In17  1  -0.01052116  0.17221850  0.83455750  1
  In3+  In18  1  0.18691013  0.66664807  0.49521496  1
  In3+  In19  1  0.67217166  0.16897050  0.49329895  1
  In3+  In20  1  0.02527962  0.16951798  0.17078119  1
  In3+  In21  1  0.83247526  0.19361953  0.33479101  1
  Ag+  Ag22  1  0.33418438  0.80873144  0.47464002  1
  Ag+  Ag23  1  0.51766592  0.52848428  0.33298169  1
  Ag+  Ag24  1  0.50544899  0.01631775  0.17977988  1
  Ag+  Ag25  1  -0.00741439  0.66105708  0.00145124  1
  Ag+  Ag26  1  0.19385794  0.36281454  0.47552315  1
  Ag+  Ag27  1  0.65539620  0.82334243  0.83159346  1
  Ag+  Ag28  1  0.48629382  0.68739943  0.52700477  1
  Ag+  Ag29  1  0.82891951  0.81349609  0.65031556  1
  Ag+  Ag30  1  0.36022466  0.02087254  -0.00130903  1
  Ag+  Ag31  1  0.66459194  0.65948767  0.35556015  1
  Ag+  Ag32  1  -0.02716853  0.16639098  0.47832540  1
  Ag+  Ag33  1  0.50898627  0.31294328  0.16661743  1
  Ag+  Ag34  1  0.35704280  0.83600659  0.83733006  1
  Ag+  Ag35  1  0.83091760  0.67087518  0.81445389  1
  Ag+  Ag36  1  0.80209922  0.52047412  0.65224799  1
  Ag+  Ag37  1  0.66445815  0.64488548  0.01139696  1
  Ag+  Ag38  1  0.47090038  0.13800674  0.00176989  1
  Ag+  Ag39  1  0.85633642  0.49350616  0.30547568  1
  Ag+  Ag40  1  0.34947175  0.31180947  0.02923623  1
  Ag+  Ag41  1  0.33212314  0.14239066  0.16091381  1
  Ag+  Ag42  1  0.47757636  0.84500508  -0.00074368  1
  Sn2+  Sn43  1  -0.00709013  0.49886181  0.16440753  1
  Sn2+  Sn44  1  0.34487564  0.83571178  0.15454974  1
  Sn2+  Sn45  1  0.65532205  0.16199663  0.83491865  1
  Sn2+  Sn46  1  0.67225019  0.33299816  0.67626411  1
  Sn2+  Sn47  1  0.65872078  0.83242903  0.50778931  1
  Sn2+  Sn48  1  -0.00072646  0.66944672  0.67493979  1
  Sn2+  Sn49  1  0.82795164  0.33621154  0.83967117  1
  Sn2+  Sn50  1  0.82404753  0.81800482  0.33652691  1
  Sn2+  Sn51  1  0.15599223  0.67259904  0.16776004  1
  Sn2+  Sn52  1  0.17230201  0.00349659  0.50090174  1
  Sn2+  Sn53  1  0.17467703  -0.00446707  0.84460517  1
  Sn2+  Sn54  1  0.00390769  0.33244939  0.65753728  1
  Sn2+  Sn55  1  0.66981479  -0.01270482  0.33174082  1
  Sn2+  Sn56  1  0.50760964  0.67627100  0.83788277  1
  Sn2+  Sn57  1  0.50654995  0.83514477  0.32932508  1
  Sn2+  Sn58  1  0.33979641  0.34052954  0.32781802  1
  Sn2+  Sn59  1  0.49887475  -0.00315058  0.84282136  1
  Sn2+  Sn60  1  0.16615541  0.49968333  0.00084867  1
  Sn2+  Sn61  1  0.34924987  0.66718816  0.32994664  1
  Sn2+  Sn62  1  0.17360159  0.83015082  -0.00654037  1
  Sn2+  Sn63  1  0.00299100  0.33402903  0.33426298  1
  Sn2+  Sn64  1  0.83104237  -0.01636404  0.82998361  1
  Bi3+  Bi65  1  -0.00348597  -0.00475669  -0.00086561  1
  Bi3+  Bi66  1  0.83042929  0.67184908  0.16890375  1
  Bi3+  Bi67  1  0.33194153  0.50544105  0.16611109  1
  Bi3+  Bi68  1  0.83284836  0.16911378  0.66616098  1
  Bi3+  Bi69  1  0.66580902  0.00220492  0.66922409  1
  Bi3+  Bi70  1  -0.00639580  0.50232271  0.83519223  1
  Bi3+  Bi71  1  0.33602800  0.16419739  0.49665861  1
  Bi3+  Bi72  1  0.33579200  0.33872342  0.66621296  1
  Bi3+  Bi73  1  -0.00396904  0.83147996  0.83376375  1
  Bi3+  Bi74  1  0.16642567  0.33218017  0.82845767  1
  Bi3+  Bi75  1  0.82641662  0.66760638  0.49906279  1
  Bi3+  Bi76  1  0.50017180  0.50316597  0.00780913  1
  Bi3+  Bi77  1  0.33899793  0.66536940  -0.00223562  1
  Bi3+  Bi78  1  0.49811469  0.66940783  0.16206192  1
  Bi3+  Bi79  1  0.66255300  0.50000281  0.49941051  1
  Bi3+  Bi80  1  0.83574789  0.16688482  0.00233581  1
  Bi3+  Bi81  1  0.16641856  0.16420362  0.66547764  1
  Bi3+  Bi82  1  0.83688472  0.83408699  0.00124995  1
  Bi3+  Bi83  1  0.16667991  0.49944996  0.66947916  1
  Bi3+  Bi84  1  0.16486970  0.16578153  0.00029430  1
  Bi3+  Bi85  1  0.50111693  -0.00669896  0.49695872  1
  Te2-  Te86  1  0.17949371  0.15853339  0.16571893  1
  Te2-  Te87  1  0.17025240  0.16347439  0.50243369  1
  Te2-  Te88  1  0.16381913  0.16600567  0.83059497  1
  Te2-  Te89  1  0.16561163  0.50293163  0.16375059  1
  Te2-  Te90  1  0.16801897  0.50342013  0.50629178  1
  Te2-  Te91  1  0.15973926  0.49696417  0.83192867  1
  Te2-  Te92  1  0.16670969  0.83949463  0.16562600  1
  Te2-  Te93  1  0.18339382  0.83136110  0.50811225  1
  Te2-  Te94  1  0.15833439  0.83325475  0.82020798  1
  Te2-  Te95  1  0.48698558  0.16290407  0.15529360  1
  Te2-  Te96  1  0.50125355  0.16094214  0.49069151  1
  Te2-  Te97  1  0.49798060  0.16506771  0.85530502  1
  Te2-  Te98  1  0.49414577  0.50709741  0.17572563  1
  Te2-  Te99  1  0.49734741  0.50330380  0.48427527  1
  Te2-  Te100  1  0.51449551  0.50316615  0.84257162  1
  Te2-  Te101  1  0.50530774  0.82969909  0.15111950  1
  Te2-  Te102  1  0.48816566  0.83190982  0.50190444  1
  Te2-  Te103  1  0.50564933  0.83401459  0.84367624  1
  Te2-  Te104  1  0.82709748  0.16134324  0.17149966  1
  Te2-  Te105  1  0.82679682  0.16236733  0.49976597  1
  Te2-  Te106  1  0.83466878  0.16297403  0.83329913  1
  Te2-  Te107  1  0.83269949  0.50460128  0.16011578  1
  Te2-  Te108  1  0.82725185  0.49854371  0.50850177  1
  Te2-  Te109  1  0.82831045  0.50880277  0.83649239  1
  Te2-  Te110  1  0.82391664  0.83788435  0.16876563  1
  Te2-  Te111  1  0.83133054  0.83430348  0.50350587  1
  Te2-  Te112  1  0.83610860  0.82483415  0.83990990  1
  Te2-  Te113  1  0.15882990  0.00076118  0.00831108  1
  Te2-  Te114  1  0.16616503  0.00784800  0.32808462  1
  Te2-  Te115  1  0.16813686  -0.00204327  0.66688828  1
  Te2-  Te116  1  0.17222206  0.33065880  -0.00630891  1
  Te2-  Te117  1  0.16622712  0.32140739  0.33758435  1
  Te2-  Te118  1  0.17017957  0.33094874  0.66458687  1
  Te2-  Te119  1  0.17282882  0.66638890  0.00108247  1
  Te2-  Te120  1  0.16705455  0.66756726  0.34130073  1
  Te2-  Te121  1  0.17111047  0.66597587  0.65764295  1
  Te2-  Te122  1  0.50672835  -0.00821341  -0.00177505  1
  Te2-  Te123  1  0.50444581  0.00708796  0.32919392  1
  Te2-  Te124  1  0.50308397  0.00691563  0.66635448  1
  Te2-  Te125  1  0.49363965  0.34202176  0.01128793  1
  Te2-  Te126  1  0.49901588  0.31700767  0.32106761  1
  Te2-  Te127  1  0.49815390  0.33487539  0.66755834  1
  Te2-  Te128  1  0.50852585  0.66514459  -0.00166870  1
  Te2-  Te129  1  0.50811681  0.67567184  0.32453072  1
  Te2-  Te130  1  0.49082506  0.65936738  0.67187522  1
  Te2-  Te131  1  0.83155252  0.00240821  0.00320644  1
  Te2-  Te132  1  0.82698406  -0.01075196  0.33881602  1
  Te2-  Te133  1  0.82868113  0.00815210  0.66030656  1
  Te2-  Te134  1  0.83899713  0.32778282  -0.00109019  1
  Te2-  Te135  1  0.83287332  0.34730323  0.33552879  1
  Te2-  Te136  1  0.83466856  0.32875536  0.66606022  1
  Te2-  Te137  1  0.81828808  0.67072171  0.00862083  1
  Te2-  Te138  1  0.82302101  0.65641220  0.33336025  1
  Te2-  Te139  1  0.83513007  0.66354395  0.66460194  1
  Te2-  Te140  1  0.00009675  0.16263187  0.00195041  1
  Te2-  Te141  1  -0.01212648  0.17084604  0.33103656  1
  Te2-  Te142  1  0.00091184  0.16709920  0.67416230  1
  Te2-  Te143  1  -0.00477198  0.51094252  -0.00165043  1
  Te2-  Te144  1  -0.00003009  0.49918354  0.33447830  1
  Te2-  Te145  1  0.00385436  0.50095772  0.67293139  1
  Te2-  Te146  1  0.00265346  0.83022001  -0.00094301  1
  Te2-  Te147  1  -0.00133329  0.83332989  0.33676958  1
  Te2-  Te148  1  -0.01787058  0.82934838  0.67046797  1
  Te2-  Te149  1  0.32431723  0.16758928  0.00901749  1
  Te2-  Te150  1  0.32901056  0.16623690  0.33045348  1
  Te2-  Te151  1  0.33262849  0.17048567  0.66474660  1
  Te2-  Te152  1  0.33490676  0.50371691  -0.00333940  1
  Te2-  Te153  1  0.33347346  0.50289160  0.33761320  1
  Te2-  Te154  1  0.33217098  0.50179163  0.66249980  1
  Te2-  Te155  1  0.33042708  0.82591489  -0.01230656  1
  Te2-  Te156  1  0.33703617  0.82998103  0.32785633  1
  Te2-  Te157  1  0.33641422  0.82913298  0.68508782  1
  Te2-  Te158  1  0.67472905  0.16676802  0.00215312  1
  Te2-  Te159  1  0.68063972  0.16402306  0.33849348  1
  Te2-  Te160  1  0.66625224  0.16797028  0.66494456  1
  Te2-  Te161  1  0.66918682  0.49592703  -0.00244526  1
  Te2-  Te162  1  0.66271500  0.50624048  0.33934023  1
  Te2-  Te163  1  0.65929461  0.49424706  0.66962715  1
  Te2-  Te164  1  0.67593246  0.84228194  -0.01752733  1
  Te2-  Te165  1  0.66440109  0.82186042  0.34505447  1
  Te2-  Te166  1  0.67626324  0.83849601  0.67729132  1
  Te2-  Te167  1  -0.00976779  0.00680413  0.16257933  1
  Te2-  Te168  1  -0.00033242  0.01017016  0.49866667  1
  Te2-  Te169  1  -0.00001580  -0.00138515  0.83779932  1
  Te2-  Te170  1  0.00205004  0.33246563  0.16872211  1
  Te2-  Te171  1  -0.01095418  0.31991958  0.49833027  1
  Te2-  Te172  1  0.00054592  0.33567127  0.83056825  1
  Te2-  Te173  1  -0.00389847  0.66611575  0.15664084  1
  Te2-  Te174  1  -0.01063339  0.66584891  0.50323017  1
  Te2-  Te175  1  -0.01110895  0.66544787  0.84627103  1
  Te2-  Te176  1  0.34647178  -0.00599905  0.15365965  1
  Te2-  Te177  1  0.33767403  0.00276919  0.50248572  1
  Te2-  Te178  1  0.33152420  -0.00731660  0.84878121  1
  Te2-  Te179  1  0.33740028  0.34581619  0.17135706  1
  Te2-  Te180  1  0.33462711  0.32866421  0.50055762  1
  Te2-  Te181  1  0.33026516  0.33954478  0.82834308  1
  Te2-  Te182  1  0.32775336  0.66854890  0.16372371  1
  Te2-  Te183  1  0.34212011  0.66378633  0.50084325  1
  Te2-  Te184  1  0.33226133  0.66558803  0.83426951  1
  Te2-  Te185  1  0.65437838  -0.01048512  0.16208163  1
  Te2-  Te186  1  0.65935815  -0.00153953  0.50347082  1
  Te2-  Te187  1  0.67032180  0.00345586  0.83200428  1
  Te2-  Te188  1  0.65824232  0.33292836  0.16002387  1
  Te2-  Te189  1  0.66861268  0.33183766  0.50429602  1
  Te2-  Te190  1  0.66918277  0.32921062  0.84347455  1
  Te2-  Te191  1  0.66575989  0.67667790  0.15757871  1
  Te2-  Te192  1  0.66206053  0.66509934  0.50478139  1
  Te2-  Te193  1  0.67796651  0.67126920  0.83727241  1
  Pb2+  Pb194  1  -0.00564820  0.83621332  0.16728104  1
  Pb2+  Pb195  1  -0.00213809  -0.00253491  0.66875520  1
  Pb2+  Pb196  1  0.15863276  0.66617606  0.83147305  1
  Pb2+  Pb197  1  -0.00316383  0.49491079  0.50462783  1
  Pb2+  Pb198  1  0.50805180  0.83526584  0.67248920  1
  Pb2+  Pb199  1  0.66143392  0.50742437  0.17141036  1
  Pb2+  Pb200  1  0.49968295  0.33546997  0.49213392  1
  Pb2+  Pb201  1  0.16928032  0.83480283  0.33468815  1
  Pb2+  Pb202  1  0.50035663  0.33203861  0.84041951  1
  Pb2+  Pb203  1  0.82978874  0.33154792  0.16401214  1
  Pb2+  Pb204  1  0.65674196  0.16047992  0.16935862  1
  Pb2+  Pb205  1  0.66418718  0.66804489  0.67162818  1
  Pb2+  Pb206  1  -0.00570933  0.00320508  0.33086207  1
  Pb2+  Pb207  1  0.33738717  -0.00399682  0.33120418  1
  Pb2+  Pb208  1  0.33608227  -0.00056357  0.67703991  1
  Pb2+  Pb209  1  0.00534321  0.33916108  -0.00132115  1
  Pb2+  Pb210  1  0.16805197  0.49741606  0.33258799  1
  Pb2+  Pb211  1  0.66337436  0.33893926  0.33280206  1
  Pb2+  Pb212  1  -0.00771503  0.66614694  0.33316830  1
  Pb2+  Pb213  1  0.17415637  0.33020113  0.16597948  1
  Pb2+  Pb214  1  0.33395327  0.16633938  0.83914349  1
  Pb2+  Pb215  1  0.00834541  0.83131018  0.50640806  1
