# generated using pymatgen
data_In22Ag21Sn22Bi21(Te54Pb11)2
_symmetry_space_group_name_H-M   'P 1'
_cell_length_a   19.13278754
_cell_length_b   19.16419168
_cell_length_c   19.14411176
_cell_angle_alpha   89.99790220
_cell_angle_beta   90.01890312
_cell_angle_gamma   89.98094885
_symmetry_Int_Tables_number   1
_chemical_formula_structural   In22Ag21Sn22Bi21(Te54Pb11)2
_chemical_formula_sum   'In22 Ag21 Sn22 Bi21 Te108 Pb22'
_cell_volume   7019.46362387
_cell_formula_units_Z   1
loop_
 _symmetry_equiv_pos_site_id
 _symmetry_equiv_pos_as_xyz
  1  'x, y, z'
loop_
 _atom_type_symbol
 _atom_type_oxidation_number
  In3+  3.0
  Ag+  1.0
  Sn2+  2.0
  Bi3+  3.0
  Te2-  -2.0
  Pb2+  2.0
loop_
 _atom_site_type_symbol
 _atom_site_label
 _atom_site_symmetry_multiplicity
 _atom_site_fract_x
 _atom_site_fract_y
 _atom_site_fract_z
 _atom_site_occupancy
  In3+  In0  1  0.50489653  0.17824741  0.00408572  1
  In3+  In1  1  0.67208506  0.17371367  0.82936992  1
  In3+  In2  1  0.33157508  0.18382490  0.83155388  1
  In3+  In3  1  0.50630546  0.67230278  0.17172516  1
  In3+  In4  1  0.52079427  0.32877636  0.82878037  1
  In3+  In5  1  0.33803048  0.48878213  0.17183347  1
  In3+  In6  1  0.83230215  0.64477598  0.50698493  1
  In3+  In7  1  0.16566326  0.67528525  0.83565380  1
  In3+  In8  1  0.50366523  0.83859312  0.34931706  1
  In3+  In9  1  0.15642521  0.65947529  0.50877563  1
  In3+  In10  1  0.50491693  0.00775530  0.50223431  1
  In3+  In11  1  0.14302821  0.00231295  0.50013010  1
  In3+  In12  1  -0.00292014  0.17571941  0.49819516  1
  In3+  In13  1  -0.00881603  0.17110417  0.15632998  1
  In3+  In14  1  0.16841932  -0.00001830  0.15343542  1
  In3+  In15  1  0.68072942  0.83317674  0.50613765  1
  In3+  In16  1  0.30063761  0.33367817  -0.00652340  1
  In3+  In17  1  0.16234478  0.33743971  0.81104787  1
  In3+  In18  1  0.66619222  0.00689285  0.66879378  1
  In3+  In19  1  0.49373218  0.00556161  0.83759984  1
  In3+  In20  1  0.00215922  0.83528410  0.48305633  1
  In3+  In21  1  0.33296086  0.50875558  0.82565703  1
  Ag+  Ag22  1  0.17517544  0.18820682  0.68197515  1
  Ag+  Ag23  1  0.52660743  0.02320707  0.19702434  1
  Ag+  Ag24  1  0.66054229  0.35631336  0.64518858  1
  Ag+  Ag25  1  0.14599657  0.35743038  0.50432031  1
  Ag+  Ag26  1  -0.01524941  0.68468239  -0.02088070  1
  Ag+  Ag27  1  0.64722813  0.17387494  0.19129046  1
  Ag+  Ag28  1  -0.02411897  0.81030999  0.83746813  1
  Ag+  Ag29  1  0.80152666  0.35468473  0.52875782  1
  Ag+  Ag30  1  0.14374691  0.84141656  -0.01449089  1
  Ag+  Ag31  1  0.52445750  0.52911562  0.65018614  1
  Ag+  Ag32  1  0.84065335  -0.01734243  0.49856443  1
  Ag+  Ag33  1  0.69390347  0.32230575  0.35529278  1
  Ag+  Ag34  1  0.00034133  0.47596383  0.47793513  1
  Ag+  Ag35  1  -0.02049533  0.01755267  0.30886792  1
  Ag+  Ag36  1  -0.02759139  0.52236314  0.84996136  1
  Ag+  Ag37  1  0.64268085  0.48419735  0.50610423  1
  Ag+  Ag38  1  0.81781483  0.34856457  0.86055869  1
  Ag+  Ag39  1  0.50393084  0.47509889  0.36186096  1
  Ag+  Ag40  1  0.87099071  0.63074684  0.79833324  1
  Ag+  Ag41  1  0.00463414  0.35714586  -0.03154077  1
  Ag+  Ag42  1  0.33301088  0.64952889  0.64096829  1
  Sn2+  Sn43  1  0.49992405  0.66474653  0.83654888  1
  Sn2+  Sn44  1  0.16060471  0.50965291  -0.00490310  1
  Sn2+  Sn45  1  0.50263918  0.33395846  0.50314785  1
  Sn2+  Sn46  1  0.50614113  0.17624194  0.33270969  1
  Sn2+  Sn47  1  -0.00017599  0.33145173  0.33743270  1
  Sn2+  Sn48  1  0.00069503  0.16799744  0.82807765  1
  Sn2+  Sn49  1  0.67188484  0.83287584  0.83038167  1
  Sn2+  Sn50  1  0.32696767  0.16775940  0.50133098  1
  Sn2+  Sn51  1  0.33615697  0.66181940  0.33713487  1
  Sn2+  Sn52  1  0.83481437  0.00166513  0.82496458  1
  Sn2+  Sn53  1  -0.00278585  -0.00768566  0.00378784  1
  Sn2+  Sn54  1  0.00139609  0.83076496  0.15517895  1
  Sn2+  Sn55  1  0.16677080  -0.00206951  0.82833154  1
  Sn2+  Sn56  1  0.32319699  0.65795510  0.00717413  1
  Sn2+  Sn57  1  0.49814203  0.82588848  0.66102488  1
  Sn2+  Sn58  1  0.83123465  0.83533596  0.33668601  1
  Sn2+  Sn59  1  0.83696357  0.17240509  -0.00387775  1
  Sn2+  Sn60  1  0.50457935  0.66102228  0.49785331  1
  Sn2+  Sn61  1  0.33280437  -0.00361309  0.00151281  1
  Sn2+  Sn62  1  0.32706463  0.83569603  0.50331707  1
  Sn2+  Sn63  1  0.65878095  0.84866920  0.17121589  1
  Sn2+  Sn64  1  0.82349462  0.50136813  0.34104454  1
  Bi3+  Bi65  1  0.33440489  0.32968333  0.33456686  1
  Bi3+  Bi66  1  0.83758756  0.17030999  0.33532158  1
  Bi3+  Bi67  1  0.83262521  0.83405229  0.00180103  1
  Bi3+  Bi68  1  0.16865831  0.66872732  0.16294891  1
  Bi3+  Bi69  1  0.49579542  0.49956003  -0.00578498  1
  Bi3+  Bi70  1  0.33857528  0.83042548  0.83480976  1
  Bi3+  Bi71  1  0.83138899  0.33195426  0.16855031  1
  Bi3+  Bi72  1  0.16824891  0.16438772  0.33750917  1
  Bi3+  Bi73  1  0.83734438  0.50186129  0.00211185  1
  Bi3+  Bi74  1  0.84293259  0.16575259  0.66429005  1
  Bi3+  Bi75  1  0.33392177  0.82936241  0.16430879  1
  Bi3+  Bi76  1  0.33280861  -0.00175086  0.33625030  1
  Bi3+  Bi77  1  0.66914286  0.66405978  -0.00126946  1
  Bi3+  Bi78  1  0.16671981  0.83213454  0.67212984  1
  Bi3+  Bi79  1  -0.00053572  -0.00135947  0.67354534  1
  Bi3+  Bi80  1  -0.00006121  0.67030262  0.33327748  1
  Bi3+  Bi81  1  0.49418131  0.16477072  0.66764811  1
  Bi3+  Bi82  1  0.16519037  0.50060234  0.67137185  1
  Bi3+  Bi83  1  0.49993697  0.83349071  -0.00352610  1
  Bi3+  Bi84  1  -0.00215442  0.33264153  0.66529771  1
  Bi3+  Bi85  1  0.66615831  0.66158169  0.33395029  1
  Te2-  Te86  1  0.16459555  0.15816483  0.17051561  1
  Te2-  Te87  1  0.16709411  0.15495812  0.49793177  1
  Te2-  Te88  1  0.17471719  0.16778637  0.82741149  1
  Te2-  Te89  1  0.17658485  0.50256357  0.16549424  1
  Te2-  Te90  1  0.15586707  0.50492114  0.50445815  1
  Te2-  Te91  1  0.17541487  0.49186719  0.83453184  1
  Te2-  Te92  1  0.16992495  0.83381907  0.16227715  1
  Te2-  Te93  1  0.16149214  0.83677056  0.50679029  1
  Te2-  Te94  1  0.17477773  0.83026458  0.83968732  1
  Te2-  Te95  1  0.50450414  0.16321313  0.15718468  1
  Te2-  Te96  1  0.50029509  0.16309094  0.50521630  1
  Te2-  Te97  1  0.49300816  0.16455271  0.82994491  1
  Te2-  Te98  1  0.49383391  0.50631254  0.15719806  1
  Te2-  Te99  1  0.49525377  0.50400881  0.50645988  1
  Te2-  Te100  1  0.49119727  0.49381740  0.83289105  1
  Te2-  Te101  1  0.49820712  0.83231267  0.15881199  1
  Te2-  Te102  1  0.49715226  0.82783942  0.50118542  1
  Te2-  Te103  1  0.50189023  0.83467442  0.83265587  1
  Te2-  Te104  1  0.83713105  0.16772798  0.16849130  1
  Te2-  Te105  1  0.84101926  0.17572335  0.49829868  1
  Te2-  Te106  1  0.83095051  0.16196509  0.82830095  1
  Te2-  Te107  1  0.83185397  0.49699610  0.16713762  1
  Te2-  Te108  1  0.84958451  0.49265858  0.49659224  1
  Te2-  Te109  1  0.82840437  0.49464903  0.83975659  1
  Te2-  Te110  1  0.83236899  0.83555424  0.16661628  1
  Te2-  Te111  1  0.83306894  0.83548520  0.49693497  1
  Te2-  Te112  1  0.83075304  0.83613824  0.83958260  1
  Te2-  Te113  1  0.16843116  -0.01019291  -0.00106678  1
  Te2-  Te114  1  0.17028976  0.00052715  0.34637897  1
  Te2-  Te115  1  0.16433705  -0.00545315  0.66161600  1
  Te2-  Te116  1  0.15238227  0.32923580  0.00511609  1
  Te2-  Te117  1  0.17027989  0.32951549  0.34797581  1
  Te2-  Te118  1  0.16930438  0.33326575  0.65452723  1
  Te2-  Te119  1  0.15912468  0.67093732  0.00181583  1
  Te2-  Te120  1  0.16605019  0.66648111  0.33288323  1
  Te2-  Te121  1  0.18041962  0.66637275  0.66910873  1
  Te2-  Te122  1  0.49627839  -0.00269687  -0.00684740  1
  Te2-  Te123  1  0.49839257  0.00087226  0.33780795  1
  Te2-  Te124  1  0.50472411  0.00069851  0.66637063  1
  Te2-  Te125  1  0.50149714  0.33252669  -0.01326130  1
  Te2-  Te126  1  0.49546702  0.33161799  0.33141611  1
  Te2-  Te127  1  0.51369829  0.32597384  0.67405411  1
  Te2-  Te128  1  0.50249800  0.66507018  0.00124739  1
  Te2-  Te129  1  0.50403774  0.67603646  0.32830147  1
  Te2-  Te130  1  0.48502048  0.66784316  0.66830225  1
  Te2-  Te131  1  0.83259974  -0.00114603  -0.00329542  1
  Te2-  Te132  1  0.83798319  0.00509353  0.34622185  1
  Te2-  Te133  1  0.83112905  0.00528997  0.65380606  1
  Te2-  Te134  1  0.85039240  0.33336634  0.00287695  1
  Te2-  Te135  1  0.83810577  0.33368510  0.33100168  1
  Te2-  Te136  1  0.83503755  0.32284806  0.66723678  1
  Te2-  Te137  1  0.83468146  0.66816341  -0.00279128  1
  Te2-  Te138  1  0.83346717  0.66802580  0.33846903  1
  Te2-  Te139  1  0.83413809  0.66710808  0.66140181  1
  Te2-  Te140  1  -0.00279321  0.15854038  0.00295436  1
  Te2-  Te141  1  0.00379208  0.16014314  0.33833549  1
  Te2-  Te142  1  0.01149375  0.16292835  0.65983931  1
  Te2-  Te143  1  -0.00163107  0.50225578  -0.00350124  1
  Te2-  Te144  1  0.00027143  0.50474104  0.33271074  1
  Te2-  Te145  1  0.00544274  0.49531059  0.67593600  1
  Te2-  Te146  1  -0.00342290  0.83144910  -0.00775723  1
  Te2-  Te147  1  0.00024774  0.83506121  0.32904122  1
  Te2-  Te148  1  0.00559715  0.83451577  0.68889053  1
  Te2-  Te149  1  0.33887378  0.17116588  -0.00954658  1
  Te2-  Te150  1  0.33550733  0.16365041  0.33204986  1
  Te2-  Te151  1  0.32785405  0.16703508  0.67178225  1
  Te2-  Te152  1  0.33439166  0.49059693  0.00175022  1
  Te2-  Te153  1  0.34823330  0.49401544  0.32894809  1
  Te2-  Te154  1  0.32971857  0.50441003  0.67220129  1
  Te2-  Te155  1  0.33824737  0.82815683  0.00097841  1
  Te2-  Te156  1  0.34239740  0.83439270  0.33056632  1
  Te2-  Te157  1  0.32958389  0.82937108  0.67177937  1
  Te2-  Te158  1  0.66157869  0.16580795  -0.01583923  1
  Te2-  Te159  1  0.66943652  0.17719959  0.33641811  1
  Te2-  Te160  1  0.66497867  0.16221688  0.67218221  1
  Te2-  Te161  1  0.66525834  0.50245865  0.00304561  1
  Te2-  Te162  1  0.65601369  0.50366930  0.34690837  1
  Te2-  Te163  1  0.66713137  0.50173022  0.65702264  1
  Te2-  Te164  1  0.66604016  0.82826006  0.00345436  1
  Te2-  Te165  1  0.66184649  0.83160245  0.33353496  1
  Te2-  Te166  1  0.66685905  0.83744894  0.66046796  1
  Te2-  Te167  1  0.00996214  -0.00215619  0.16846228  1
  Te2-  Te168  1  -0.00960162  -0.01302726  0.51102136  1
  Te2-  Te169  1  0.00380705  0.00555691  0.83440503  1
  Te2-  Te170  1  -0.00245170  0.32508649  0.17237808  1
  Te2-  Te171  1  0.00191703  0.32978696  0.50123819  1
  Te2-  Te172  1  0.00957693  0.32537214  0.82597663  1
  Te2-  Te173  1  0.00604075  0.66800334  0.17105841  1
  Te2-  Te174  1  -0.00462489  0.67752981  0.49629448  1
  Te2-  Te175  1  0.01084562  0.66459658  0.83536751  1
  Te2-  Te176  1  0.32809949  -0.00697367  0.17044083  1
  Te2-  Te177  1  0.34566691  -0.00296813  0.49750796  1
  Te2-  Te178  1  0.33635487  -0.00591660  0.83553305  1
  Te2-  Te179  1  0.33271290  0.33155178  0.16417735  1
  Te2-  Te180  1  0.33899376  0.32972354  0.49795863  1
  Te2-  Te181  1  0.32366061  0.33674204  0.83672375  1
  Te2-  Te182  1  0.33205832  0.66705058  0.17085460  1
  Te2-  Te183  1  0.33043483  0.67045854  0.49407055  1
  Te2-  Te184  1  0.32982946  0.66545259  0.84421674  1
  Te2-  Te185  1  0.66805216  0.00892389  0.16627575  1
  Te2-  Te186  1  0.65903807  -0.00844200  0.50316428  1
  Te2-  Te187  1  0.66462395  -0.00065705  0.82410708  1
  Te2-  Te188  1  0.66859878  0.32362985  0.16599669  1
  Te2-  Te189  1  0.65964535  0.33716709  0.49738378  1
  Te2-  Te190  1  0.67607686  0.32849395  0.82909757  1
  Te2-  Te191  1  0.66459869  0.66784817  0.16737961  1
  Te2-  Te192  1  0.67436500  0.67616822  0.49510729  1
  Te2-  Te193  1  0.66493227  0.67027948  0.83488713  1
  Pb2+  Pb194  1  0.66263739  0.49279800  0.18222503  1
  Pb2+  Pb195  1  0.67267567  0.00323243  0.33443502  1
  Pb2+  Pb196  1  0.17143715  0.49856067  0.33378767  1
  Pb2+  Pb197  1  0.50221454  0.33614253  0.16114503  1
  Pb2+  Pb198  1  0.83890063  0.83508539  0.66929473  1
  Pb2+  Pb199  1  0.00361268  0.49588089  0.16446480  1
  Pb2+  Pb200  1  0.32705861  0.49918675  0.50113962  1
  Pb2+  Pb201  1  0.66400249  -0.00084136  -0.00575952  1
  Pb2+  Pb202  1  0.33519457  0.16070406  0.16056889  1
  Pb2+  Pb203  1  0.65743316  0.66756314  0.66505911  1
  Pb2+  Pb204  1  0.65901425  0.50242948  0.82769709  1
  Pb2+  Pb205  1  0.83809810  0.00099692  0.16954767  1
  Pb2+  Pb206  1  0.16497535  0.16139890  -0.00682944  1
  Pb2+  Pb207  1  0.67525620  0.33226127  0.00078894  1
  Pb2+  Pb208  1  0.16476460  0.32892008  0.17481101  1
  Pb2+  Pb209  1  0.67350405  0.16656855  0.50498959  1
  Pb2+  Pb210  1  0.83602139  0.66843923  0.16577747  1
  Pb2+  Pb211  1  0.00677220  0.66346834  0.66488607  1
  Pb2+  Pb212  1  0.34421796  0.33720544  0.66745636  1
  Pb2+  Pb213  1  0.33408622  -0.00403882  0.66636024  1
  Pb2+  Pb214  1  0.83628455  0.49063077  0.66706453  1
  Pb2+  Pb215  1  0.16988652  0.83382902  0.33171781  1
