# generated using pymatgen
data_In22Ag21Sn22Bi21(Te54Pb11)2
_symmetry_space_group_name_H-M   'P 1'
_cell_length_a   19.14298209
_cell_length_b   19.14482805
_cell_length_c   19.15091493
_cell_angle_alpha   89.98377360
_cell_angle_beta   90.01242395
_cell_angle_gamma   89.99602059
_symmetry_Int_Tables_number   1
_chemical_formula_structural   In22Ag21Sn22Bi21(Te54Pb11)2
_chemical_formula_sum   'In22 Ag21 Sn22 Bi21 Te108 Pb22'
_cell_volume   7018.60112262
_cell_formula_units_Z   1
loop_
 _symmetry_equiv_pos_site_id
 _symmetry_equiv_pos_as_xyz
  1  'x, y, z'
loop_
 _atom_type_symbol
 _atom_type_oxidation_number
  In3+  3.0
  Ag+  1.0
  Sn2+  2.0
  Bi3+  3.0
  Te2-  -2.0
  Pb2+  2.0
loop_
 _atom_site_type_symbol
 _atom_site_label
 _atom_site_symmetry_multiplicity
 _atom_site_fract_x
 _atom_site_fract_y
 _atom_site_fract_z
 _atom_site_occupancy
  In3+  In0  1  0.66172045  0.49288335  0.48635184  1
  In3+  In1  1  0.19108913  0.00184070  0.48705770  1
  In3+  In2  1  0.65932750  0.33707324  0.00422175  1
  In3+  In3  1  0.85273963  0.51274378  0.00511343  1
  In3+  In4  1  0.83294608  0.33657045  0.84295863  1
  In3+  In5  1  0.16958180  0.50972917  0.31434291  1
  In3+  In6  1  0.15846697  0.67812327  0.86073041  1
  In3+  In7  1  0.67998020  0.50073914  0.83135072  1
  In3+  In8  1  0.84526682  -0.01069043  0.17116331  1
  In3+  In9  1  0.01947407  -0.00526176  0.66388139  1
  In3+  In10  1  0.83277407  0.67170756  0.48953757  1
  In3+  In11  1  0.66503948  0.15289756  0.82617629  1
  In3+  In12  1  0.48623563  0.66933304  0.17534383  1
  In3+  In13  1  0.66730922  -0.01579360  0.00822307  1
  In3+  In14  1  0.66344470  0.00593976  0.65597598  1
  In3+  In15  1  -0.00188326  0.49482023  0.48958763  1
  In3+  In16  1  0.18546617  0.83504340  0.00282698  1
  In3+  In17  1  0.48747561  0.31992608  0.49378745  1
  In3+  In18  1  0.83602769  0.68528888  0.17644073  1
  In3+  In19  1  0.30209396  0.50007710  0.16190889  1
  In3+  In20  1  0.16730811  0.32296733  0.18074542  1
  In3+  In21  1  0.82820500  0.82562550  -0.00240613  1
  Ag+  Ag22  1  0.02253954  0.52320242  0.83645806  1
  Ag+  Ag23  1  0.64450862  0.19255587  0.48922198  1
  Ag+  Ag24  1  0.66625670  0.81363077  0.18818137  1
  Ag+  Ag25  1  0.19027120  0.68470298  0.17127163  1
  Ag+  Ag26  1  0.47490798  0.83131070  0.35726262  1
  Ag+  Ag27  1  0.19969159  -0.02323040  0.86342964  1
  Ag+  Ag28  1  -0.01206800  0.35013087  0.30868122  1
  Ag+  Ag29  1  -0.00071510  0.68846918  0.02459004  1
  Ag+  Ag30  1  0.66467024  0.85333774  0.80794823  1
  Ag+  Ag31  1  0.31087814  -0.00261487  0.03033566  1
  Ag+  Ag32  1  0.19186322  0.36474760  0.47688801  1
  Ag+  Ag33  1  0.31360475  -0.02317341  0.32592623  1
  Ag+  Ag34  1  0.33790218  0.14510983  0.19178512  1
  Ag+  Ag35  1  -0.00466545  0.52067392  0.18666291  1
  Ag+  Ag36  1  0.83675509  0.83142793  0.35108781  1
  Ag+  Ag37  1  0.33133695  0.68301009  0.35840939  1
  Ag+  Ag38  1  0.20225173  -0.02538148  0.15323389  1
  Ag+  Ag39  1  0.30630597  0.81651821  0.48078611  1
  Ag+  Ag40  1  0.47398869  0.64908878  0.47117831  1
  Ag+  Ag41  1  0.30259951  0.14128265  0.85765125  1
  Ag+  Ag42  1  0.31963001  -0.00223242  0.68272035  1
  Sn2+  Sn43  1  0.15930547  0.50125552  -0.00019284  1
  Sn2+  Sn44  1  0.32738688  0.66362009  -0.00662554  1
  Sn2+  Sn45  1  0.49498123  0.00098214  0.83211133  1
  Sn2+  Sn46  1  0.67997722  0.50781439  0.15706217  1
  Sn2+  Sn47  1  0.00600489  0.66110787  0.66924114  1
  Sn2+  Sn48  1  0.00077363  0.83063553  0.49141741  1
  Sn2+  Sn49  1  -0.00205899  0.83372348  0.16418144  1
  Sn2+  Sn50  1  0.50008700  0.33532040  0.82651808  1
  Sn2+  Sn51  1  0.33465862  0.67761725  0.66420898  1
  Sn2+  Sn52  1  0.50053472  0.50228672  0.00210143  1
  Sn2+  Sn53  1  0.83216811  0.16246374  0.33692186  1
  Sn2+  Sn54  1  0.32957770  0.31535566  -0.00326451  1
  Sn2+  Sn55  1  0.67104197  0.66774056  0.00022972  1
  Sn2+  Sn56  1  0.66430186  0.82805552  0.49280697  1
  Sn2+  Sn57  1  0.32990056  0.49843681  0.84200975  1
  Sn2+  Sn58  1  0.32956813  0.15520037  0.50219509  1
  Sn2+  Sn59  1  0.83882260  0.32974320  0.16683664  1
  Sn2+  Sn60  1  0.17706559  0.16430316  0.00199213  1
  Sn2+  Sn61  1  0.00745294  0.66681991  0.32769150  1
  Sn2+  Sn62  1  0.49698491  0.50611608  0.66456484  1
  Sn2+  Sn63  1  0.83009769  -0.00116214  0.49542909  1
  Sn2+  Sn64  1  0.49436467  0.83350146  0.66111065  1
  Bi3+  Bi65  1  0.33176635  0.33966024  0.32938956  1
  Bi3+  Bi66  1  -0.00285687  0.16891517  0.49921600  1
  Bi3+  Bi67  1  0.00116034  0.33283992  0.66837809  1
  Bi3+  Bi68  1  0.50580939  -0.00633781  0.16510201  1
  Bi3+  Bi69  1  0.49991287  0.16578984  -0.00300207  1
  Bi3+  Bi70  1  0.66743601  -0.00242109  0.33311484  1
  Bi3+  Bi71  1  0.49763967  0.16646695  0.66728198  1
  Bi3+  Bi72  1  0.17068371  0.83324821  0.66724872  1
  Bi3+  Bi73  1  0.83929163  0.33399797  0.49958689  1
  Bi3+  Bi74  1  0.66741095  0.66700833  0.66826812  1
  Bi3+  Bi75  1  0.16654366  0.50130450  0.66960091  1
  Bi3+  Bi76  1  0.17150474  0.16460993  0.66624736  1
  Bi3+  Bi77  1  0.50322365  -0.00901822  0.49631594  1
  Bi3+  Bi78  1  0.00643559  0.16550716  0.16838718  1
  Bi3+  Bi79  1  0.83070041  0.16936074  0.00443967  1
  Bi3+  Bi80  1  0.00119374  0.33070383  0.00017846  1
  Bi3+  Bi81  1  0.50418569  0.83241779  -0.00186368  1
  Bi3+  Bi82  1  -0.00198055  0.16350578  0.83256900  1
  Bi3+  Bi83  1  0.49455097  0.66427248  0.83615254  1
  Bi3+  Bi84  1  0.82878293  0.00131483  0.83598377  1
  Bi3+  Bi85  1  0.16675723  0.17005551  0.33415860  1
  Te2-  Te86  1  0.17209311  0.16811122  0.16861532  1
  Te2-  Te87  1  0.16091689  0.16074369  0.50045040  1
  Te2-  Te88  1  0.16049872  0.15941334  0.82971897  1
  Te2-  Te89  1  0.14650862  0.49874891  0.16418346  1
  Te2-  Te90  1  0.15673146  0.50307919  0.50753625  1
  Te2-  Te91  1  0.17132802  0.50878259  0.83193638  1
  Te2-  Te92  1  0.16447570  0.83149608  0.15687002  1
  Te2-  Te93  1  0.16196676  0.84321883  0.50103414  1
  Te2-  Te94  1  0.16704845  0.83487928  0.83455745  1
  Te2-  Te95  1  0.48917410  0.16582159  0.16181801  1
  Te2-  Te96  1  0.50086736  0.16247241  0.50128188  1
  Te2-  Te97  1  0.50553312  0.17146045  0.83092737  1
  Te2-  Te98  1  0.51058569  0.51393636  0.16363464  1
  Te2-  Te99  1  0.50796906  0.50844458  0.50044283  1
  Te2-  Te100  1  0.49181584  0.50120334  0.83554977  1
  Te2-  Te101  1  0.51645727  0.82410145  0.15909031  1
  Te2-  Te102  1  0.50693918  0.83198940  0.50184174  1
  Te2-  Te103  1  0.51341976  0.82967818  0.83518276  1
  Te2-  Te104  1  0.83557983  0.16576376  0.16738083  1
  Te2-  Te105  1  0.83534585  0.16829044  0.49809235  1
  Te2-  Te106  1  0.83095926  0.16657938  0.83871212  1
  Te2-  Te107  1  0.84747509  0.49154840  0.15845063  1
  Te2-  Te108  1  0.83634762  0.49809634  0.49692031  1
  Te2-  Te109  1  0.83183419  0.49830457  0.84241456  1
  Te2-  Te110  1  0.82339583  0.83709647  0.15541714  1
  Te2-  Te111  1  0.83616235  0.82933933  0.49976439  1
  Te2-  Te112  1  0.81640343  0.83781868  0.84005204  1
  Te2-  Te113  1  0.16566023  -0.00774513  0.00559777  1
  Te2-  Te114  1  0.16888723  0.00595509  0.33104714  1
  Te2-  Te115  1  0.17353304  -0.00056466  0.65820502  1
  Te2-  Te116  1  0.16656584  0.32985541  0.00088808  1
  Te2-  Te117  1  0.16632367  0.33628783  0.33499325  1
  Te2-  Te118  1  0.16493836  0.33063151  0.66523531  1
  Te2-  Te119  1  0.15372638  0.67265101  0.01064478  1
  Te2-  Te120  1  0.17429112  0.66321708  0.32059458  1
  Te2-  Te121  1  0.16725806  0.67001093  0.66250211  1
  Te2-  Te122  1  0.51067222  0.00129682  0.00037202  1
  Te2-  Te123  1  0.50706886  -0.01701939  0.32939508  1
  Te2-  Te124  1  0.50811696  0.00289880  0.66265456  1
  Te2-  Te125  1  0.49942341  0.33047096  -0.00195376  1
  Te2-  Te126  1  0.49949226  0.33428624  0.33746489  1
  Te2-  Te127  1  0.49942847  0.33207064  0.65512516  1
  Te2-  Te128  1  0.49967706  0.66910305  -0.00201866  1
  Te2-  Te129  1  0.49009301  0.68036869  0.32927956  1
  Te2-  Te130  1  0.50149562  0.66560117  0.67386833  1
  Te2-  Te131  1  0.82610727  0.00806978  0.00174654  1
  Te2-  Te132  1  0.83070337  -0.00646658  0.32673719  1
  Te2-  Te133  1  0.81792984  0.00053223  0.67031720  1
  Te2-  Te134  1  0.83377726  0.33023879  0.00194929  1
  Te2-  Te135  1  0.84289995  0.33372898  0.33497578  1
  Te2-  Te136  1  0.83556493  0.33353271  0.66758668  1
  Te2-  Te137  1  0.84675293  0.66457434  0.00343615  1
  Te2-  Te138  1  0.83565209  0.67584956  0.33224204  1
  Te2-  Te139  1  0.83419031  0.66732493  0.66912542  1
  Te2-  Te140  1  -0.00028363  0.16687727  0.00134409  1
  Te2-  Te141  1  0.00151412  0.17367746  0.33326638  1
  Te2-  Te142  1  0.00415504  0.16296854  0.66632977  1
  Te2-  Te143  1  0.00007822  0.48910551  -0.01894399  1
  Te2-  Te144  1  0.00910370  0.49489981  0.33375670  1
  Te2-  Te145  1  0.00454392  0.49675569  0.68500569  1
  Te2-  Te146  1  -0.01640935  0.83305853  0.00210625  1
  Te2-  Te147  1  -0.01002248  0.83232525  0.33214349  1
  Te2-  Te148  1  0.00543849  0.83349028  0.66155304  1
  Te2-  Te149  1  0.33744561  0.15484326  -0.00131897  1
  Te2-  Te150  1  0.32906378  0.17802111  0.33456271  1
  Te2-  Te151  1  0.33460948  0.15555077  0.66348639  1
  Te2-  Te152  1  0.32903019  0.49996273  0.00877017  1
  Te2-  Te153  1  0.32565534  0.50176057  0.32739539  1
  Te2-  Te154  1  0.32964275  0.50148526  0.66660610  1
  Te2-  Te155  1  0.33844692  0.84132043  0.00123484  1
  Te2-  Te156  1  0.32826100  0.82875079  0.33484090  1
  Te2-  Te157  1  0.33067782  0.84658970  0.65992078  1
  Te2-  Te158  1  0.66544345  0.17995810  -0.00573464  1
  Te2-  Te159  1  0.66547877  0.16346801  0.34170495  1
  Te2-  Te160  1  0.66141590  0.16419654  0.66044412  1
  Te2-  Te161  1  0.66870435  0.49710945  -0.00067630  1
  Te2-  Te162  1  0.66828533  0.50353389  0.33171638  1
  Te2-  Te163  1  0.66556416  0.50252984  0.67523415  1
  Te2-  Te164  1  0.66931159  0.83006805  -0.00101697  1
  Te2-  Te165  1  0.68372140  0.83614056  0.33391418  1
  Te2-  Te166  1  0.66339865  0.82848679  0.66288048  1
  Te2-  Te167  1  -0.00017027  0.00373687  0.16835621  1
  Te2-  Te168  1  -0.01070019  0.00414054  0.50710789  1
  Te2-  Te169  1  -0.00769583  0.00183786  0.82553050  1
  Te2-  Te170  1  0.00803485  0.32714499  0.16352451  1
  Te2-  Te171  1  0.00039946  0.33376343  0.50740373  1
  Te2-  Te172  1  -0.00384261  0.32524566  0.83319088  1
  Te2-  Te173  1  -0.01121200  0.66730592  0.17039046  1
  Te2-  Te174  1  -0.01047194  0.65935811  0.49800529  1
  Te2-  Te175  1  0.00702742  0.67033313  0.83054121  1
  Te2-  Te176  1  0.34435250  -0.00075869  0.17427660  1
  Te2-  Te177  1  0.34276020  -0.00263186  0.47921058  1
  Te2-  Te178  1  0.33928146  0.00213733  0.82885380  1
  Te2-  Te179  1  0.32793061  0.34688808  0.16538294  1
  Te2-  Te180  1  0.33390489  0.33358044  0.49632217  1
  Te2-  Te181  1  0.33505906  0.33217743  0.83758948  1
  Te2-  Te182  1  0.33312571  0.65587805  0.15652704  1
  Te2-  Te183  1  0.33269432  0.67289635  0.50483227  1
  Te2-  Te184  1  0.32950901  0.66882591  0.83419227  1
  Te2-  Te185  1  0.66700205  0.00149766  0.16556208  1
  Te2-  Te186  1  0.66855554  -0.00111104  0.49949744  1
  Te2-  Te187  1  0.66645674  -0.00135075  0.83748323  1
  Te2-  Te188  1  0.66625385  0.33538979  0.16294411  1
  Te2-  Te189  1  0.67349591  0.33741273  0.50146070  1
  Te2-  Te190  1  0.66613407  0.34588786  0.84186131  1
  Te2-  Te191  1  0.68324353  0.66712217  0.16501248  1
  Te2-  Te192  1  0.67858585  0.65776122  0.50614957  1
  Te2-  Te193  1  0.66070225  0.65625834  0.83374139  1
  Pb2+  Pb194  1  0.83704393  0.50162024  0.66554932  1
  Pb2+  Pb195  1  0.83776896  0.50595449  0.32685310  1
  Pb2+  Pb196  1  0.34217475  0.83747216  0.82684289  1
  Pb2+  Pb197  1  0.00112429  0.00381020  0.33927009  1
  Pb2+  Pb198  1  0.49586648  0.34310164  0.16464907  1
  Pb2+  Pb199  1  0.49518967  0.15542137  0.32993659  1
  Pb2+  Pb200  1  -0.00463053  0.83561730  0.83259965  1
  Pb2+  Pb201  1  0.66209007  0.16669867  0.16332156  1
  Pb2+  Pb202  1  0.34244037  0.82862003  0.17025835  1
  Pb2+  Pb203  1  0.15868468  0.66917691  0.49205967  1
  Pb2+  Pb204  1  0.33330633  0.50413657  0.49987253  1
  Pb2+  Pb205  1  -0.00123699  -0.00231938  -0.00192631  1
  Pb2+  Pb206  1  0.83264540  0.66736144  0.83633134  1
  Pb2+  Pb207  1  0.65914476  0.67322398  0.33765657  1
  Pb2+  Pb208  1  0.16660427  0.33213002  0.83382969  1
  Pb2+  Pb209  1  0.33226730  0.32806867  0.67048697  1
  Pb2+  Pb210  1  0.83370904  0.16564486  0.66764263  1
  Pb2+  Pb211  1  0.67501699  0.33130228  0.33259388  1
  Pb2+  Pb212  1  0.49474428  0.50696474  0.32982911  1
  Pb2+  Pb213  1  0.66624962  0.33287880  0.67452869  1
  Pb2+  Pb214  1  0.83174096  0.83509757  0.66754099  1
  Pb2+  Pb215  1  0.16155000  0.83488621  0.32657902  1
