# generated using pymatgen
data_In22Ag21Sn22Bi21(Te54Pb11)2
_symmetry_space_group_name_H-M   'P 1'
_cell_length_a   19.13493428
_cell_length_b   19.14196581
_cell_length_c   19.13745901
_cell_angle_alpha   90.01300174
_cell_angle_beta   89.99169782
_cell_angle_gamma   89.98828383
_symmetry_Int_Tables_number   1
_chemical_formula_structural   In22Ag21Sn22Bi21(Te54Pb11)2
_chemical_formula_sum   'In22 Ag21 Sn22 Bi21 Te108 Pb22'
_cell_volume   7009.67301879
_cell_formula_units_Z   1
loop_
 _symmetry_equiv_pos_site_id
 _symmetry_equiv_pos_as_xyz
  1  'x, y, z'
loop_
 _atom_type_symbol
 _atom_type_oxidation_number
  In3+  3.0
  Ag+  1.0
  Sn2+  2.0
  Bi3+  3.0
  Te2-  -2.0
  Pb2+  2.0
loop_
 _atom_site_type_symbol
 _atom_site_label
 _atom_site_symmetry_multiplicity
 _atom_site_fract_x
 _atom_site_fract_y
 _atom_site_fract_z
 _atom_site_occupancy
  In3+  In0  1  -0.01854694  -0.00051560  0.66692606  1
  In3+  In1  1  0.67885552  0.83296066  0.48535182  1
  In3+  In2  1  0.50664206  -0.00374049  0.83783942  1
  In3+  In3  1  -0.01050129  0.83440109  0.84552699  1
  In3+  In4  1  0.81993809  0.33599395  0.16736229  1
  In3+  In5  1  0.81801062  0.32556852  0.81922556  1
  In3+  In6  1  0.01498825  0.33395137  0.33458100  1
  In3+  In7  1  0.83678017  0.67603042  0.16528850  1
  In3+  In8  1  0.82418626  0.01169112  0.82930405  1
  In3+  In9  1  0.65089430  0.32139382  0.66964789  1
  In3+  In10  1  0.66689671  0.49283558  0.50812885  1
  In3+  In11  1  0.83045213  0.50926965  0.33440931  1
  In3+  In12  1  0.16816338  0.34866910  0.84215788  1
  In3+  In13  1  0.66431239  0.68593267  0.32818332  1
  In3+  In14  1  0.18597681  -0.00242803  0.82248481  1
  In3+  In15  1  0.83310831  -0.00248144  0.19038561  1
  In3+  In16  1  0.49781736  0.18427085  0.33442117  1
  In3+  In17  1  0.33430747  0.47824156  0.16693926  1
  In3+  In18  1  0.66385815  0.16959140  0.14512845  1
  In3+  In19  1  0.17474630  0.31884581  0.51567321  1
  In3+  In20  1  0.34653759  0.16738058  0.16744372  1
  In3+  In21  1  0.47970540  0.32537891  0.49268687  1
  Ag+  Ag22  1  0.64553958  0.16577712  0.83009902  1
  Ag+  Ag23  1  0.66707053  0.50313295  0.81350842  1
  Ag+  Ag24  1  0.47827819  0.82947236  0.34475751  1
  Ag+  Ag25  1  0.53226049  0.69399103  0.83598741  1
  Ag+  Ag26  1  0.34069802  0.31628917  -0.01856614  1
  Ag+  Ag27  1  0.84080927  0.80949604  0.35147146  1
  Ag+  Ag28  1  0.51727791  0.32985740  0.80634257  1
  Ag+  Ag29  1  -0.00330891  0.18969726  0.47818465  1
  Ag+  Ag30  1  0.34096661  0.02914769  0.63832855  1
  Ag+  Ag31  1  0.35514938  0.15460196  0.52278768  1
  Ag+  Ag32  1  0.35481813  0.31869169  0.69331623  1
  Ag+  Ag33  1  0.35085910  0.02522441  -0.01933759  1
  Ag+  Ag34  1  0.86270349  0.00776107  0.48845708  1
  Ag+  Ag35  1  0.68356806  0.67760345  -0.02632824  1
  Ag+  Ag36  1  0.81370491  0.16803137  0.64312056  1
  Ag+  Ag37  1  0.64144977  0.80147545  0.83787850  1
  Ag+  Ag38  1  -0.03458990  0.34323594  -0.02833700  1
  Ag+  Ag39  1  0.02127125  0.69451303  0.32978238  1
  Ag+  Ag40  1  0.47865192  0.32185376  0.15035077  1
  Ag+  Ag41  1  -0.02031113  0.84716068  0.50838617  1
  Ag+  Ag42  1  0.31957941  0.32335252  0.33566852  1
  Sn2+  Sn43  1  0.16698687  0.49259395  -0.00289411  1
  Sn2+  Sn44  1  0.16713335  0.16796204  0.00421622  1
  Sn2+  Sn45  1  0.00460208  0.01403275  -0.00713787  1
  Sn2+  Sn46  1  0.50071060  0.67023849  0.51028197  1
  Sn2+  Sn47  1  0.50434548  0.66131356  0.15644717  1
  Sn2+  Sn48  1  0.66416827  0.83357625  0.15813036  1
  Sn2+  Sn49  1  0.50079232  -0.00379221  0.49697626  1
  Sn2+  Sn50  1  0.16925952  0.83913014  -0.00654434  1
  Sn2+  Sn51  1  0.50053374  0.17258768  -0.00643022  1
  Sn2+  Sn52  1  0.33608180  0.84135400  0.16985457  1
  Sn2+  Sn53  1  0.50264111  0.50776296  0.33562416  1
  Sn2+  Sn54  1  0.82246046  0.49589709  -0.00040053  1
  Sn2+  Sn55  1  0.00148433  0.32166514  0.66710350  1
  Sn2+  Sn56  1  0.83218132  0.66490732  0.83452230  1
  Sn2+  Sn57  1  0.84094333  0.67580634  0.49818431  1
  Sn2+  Sn58  1  0.65268057  0.34386375  -0.00361084  1
  Sn2+  Sn59  1  -0.01318679  0.49558314  0.83783337  1
  Sn2+  Sn60  1  0.35949818  0.49612588  0.83499791  1
  Sn2+  Sn61  1  0.16431568  0.83962486  0.66118556  1
  Sn2+  Sn62  1  0.00150302  -0.00373618  0.33993392  1
  Sn2+  Sn63  1  0.34451807  0.00534141  0.33486327  1
  Sn2+  Sn64  1  0.16049799  -0.00046554  0.50395549  1
  Bi3+  Bi65  1  0.66825749  0.67033056  0.66471652  1
  Bi3+  Bi66  1  -0.00462323  0.16576016  0.16652555  1
  Bi3+  Bi67  1  0.16519962  0.66597965  0.50021264  1
  Bi3+  Bi68  1  0.66432495  0.00184122  0.33606061  1
  Bi3+  Bi69  1  0.83037212  0.16732882  0.33467226  1
  Bi3+  Bi70  1  0.00379660  0.16050340  0.83747174  1
  Bi3+  Bi71  1  0.17031470  0.33021462  0.16317884  1
  Bi3+  Bi72  1  0.16370384  0.66891015  0.83538402  1
  Bi3+  Bi73  1  0.33887990  0.49725422  0.49562988  1
  Bi3+  Bi74  1  0.49972768  0.83140014  0.00600398  1
  Bi3+  Bi75  1  0.83074531  0.83548806  -0.00111401  1
  Bi3+  Bi76  1  0.33749907  0.66581111  0.00070318  1
  Bi3+  Bi77  1  0.67098042  0.33297666  0.33806430  1
  Bi3+  Bi78  1  0.65777279  -0.00154089  0.66908759  1
  Bi3+  Bi79  1  0.16096399  0.83453076  0.33343405  1
  Bi3+  Bi80  1  0.16467437  0.00025825  0.16390223  1
  Bi3+  Bi81  1  0.66214460  0.49832950  0.17156072  1
  Bi3+  Bi82  1  0.33520254  0.66227633  0.66945184  1
  Bi3+  Bi83  1  0.83530520  0.16569218  0.00050031  1
  Bi3+  Bi84  1  0.16496284  0.16158516  0.66812946  1
  Bi3+  Bi85  1  0.49939000  0.49878206  0.00206897  1
  Te2-  Te86  1  0.16139948  0.16395914  0.16934023  1
  Te2-  Te87  1  0.14780452  0.16750327  0.50357619  1
  Te2-  Te88  1  0.16553042  0.15371310  0.83692624  1
  Te2-  Te89  1  0.17237007  0.49676703  0.16492057  1
  Te2-  Te90  1  0.17210855  0.50194407  0.49852829  1
  Te2-  Te91  1  0.16220091  0.50489492  0.83758591  1
  Te2-  Te92  1  0.16501663  0.83566324  0.16750210  1
  Te2-  Te93  1  0.16617965  0.82897021  0.49502663  1
  Te2-  Te94  1  0.15627438  0.83469678  0.83147580  1
  Te2-  Te95  1  0.50473289  0.17481783  0.16848864  1
  Te2-  Te96  1  0.49890452  0.16857759  0.49274170  1
  Te2-  Te97  1  0.49708598  0.18188089  0.83814295  1
  Te2-  Te98  1  0.49680065  0.49505401  0.16871368  1
  Te2-  Te99  1  0.50423736  0.50471318  0.49931866  1
  Te2-  Te100  1  0.51548439  0.47827288  0.84158611  1
  Te2-  Te101  1  0.50565612  0.83055576  0.16654833  1
  Te2-  Te102  1  0.50233385  0.82827141  0.49234469  1
  Te2-  Te103  1  0.49873664  0.84155605  0.84184729  1
  Te2-  Te104  1  0.83021786  0.16516327  0.16690490  1
  Te2-  Te105  1  0.84586832  0.15872545  0.49762039  1
  Te2-  Te106  1  0.84304550  0.17236877  0.83891037  1
  Te2-  Te107  1  0.82624631  0.49558064  0.17065482  1
  Te2-  Te108  1  0.82448957  0.50267619  0.49596919  1
  Te2-  Te109  1  0.82034844  0.48566056  0.83951365  1
  Te2-  Te110  1  0.82746782  0.83613625  0.16059946  1
  Te2-  Te111  1  0.83347087  0.83642089  0.49714009  1
  Te2-  Te112  1  0.83759207  0.83403351  0.83740906  1
  Te2-  Te113  1  0.16780992  -0.00179504  0.00284152  1
  Te2-  Te114  1  0.16704613  -0.00357623  0.33025318  1
  Te2-  Te115  1  0.19050830  -0.00134242  0.66825322  1
  Te2-  Te116  1  0.18548465  0.33208778  0.00145477  1
  Te2-  Te117  1  0.16958745  0.33051337  0.32891499  1
  Te2-  Te118  1  0.16615389  0.32759046  0.66890594  1
  Te2-  Te119  1  0.16368112  0.66759507  -0.00212794  1
  Te2-  Te120  1  0.16738661  0.66878620  0.33454853  1
  Te2-  Te121  1  0.16684524  0.66992645  0.66667954  1
  Te2-  Te122  1  0.49568201  -0.00066167  -0.00171897  1
  Te2-  Te123  1  0.50462893  -0.01909976  0.33501243  1
  Te2-  Te124  1  0.49058905  -0.00074786  0.66777545  1
  Te2-  Te125  1  0.49118144  0.33390368  0.00570228  1
  Te2-  Te126  1  0.51014370  0.33727546  0.34203856  1
  Te2-  Te127  1  0.49726427  0.33273643  0.65660351  1
  Te2-  Te128  1  0.49901401  0.66695055  -0.01147026  1
  Te2-  Te129  1  0.51036368  0.67734524  0.33298849  1
  Te2-  Te130  1  0.50209855  0.66714662  0.68471798  1
  Te2-  Te131  1  0.83503480  0.00154009  -0.01119868  1
  Te2-  Te132  1  0.82838350  0.00541702  0.34549122  1
  Te2-  Te133  1  0.82496307  0.01370229  0.67284557  1
  Te2-  Te134  1  0.82358792  0.32931814  0.01048363  1
  Te2-  Te135  1  0.83123891  0.32933311  0.32911804  1
  Te2-  Te136  1  0.84213277  0.31749254  0.66871874  1
  Te2-  Te137  1  0.82844221  0.66926368  0.00467777  1
  Te2-  Te138  1  0.82164552  0.66364392  0.33214396  1
  Te2-  Te139  1  0.83106066  0.66742359  0.66585553  1
  Te2-  Te140  1  -0.00156712  0.18334543  0.00312556  1
  Te2-  Te141  1  -0.00459531  0.16339246  0.33063736  1
  Te2-  Te142  1  0.00519570  0.15307401  0.67600323  1
  Te2-  Te143  1  -0.00515870  0.48762616  -0.00399961  1
  Te2-  Te144  1  -0.01212603  0.48779065  0.33265571  1
  Te2-  Te145  1  -0.00167175  0.49857019  0.67175922  1
  Te2-  Te146  1  -0.00364431  0.83296758  -0.00011389  1
  Te2-  Te147  1  -0.00781119  0.83892380  0.34212493  1
  Te2-  Te148  1  -0.00041212  0.84338003  0.65730976  1
  Te2-  Te149  1  0.33462651  0.16828005  0.01145120  1
  Te2-  Te150  1  0.34434523  0.17298258  0.32717600  1
  Te2-  Te151  1  0.32681765  0.17587595  0.66441509  1
  Te2-  Te152  1  0.33578524  0.50425307  0.00722333  1
  Te2-  Te153  1  0.33821310  0.49506748  0.33164208  1
  Te2-  Te154  1  0.33379982  0.49990158  0.66235299  1
  Te2-  Te155  1  0.33543514  0.82970667  0.00646638  1
  Te2-  Te156  1  0.32917287  0.83472753  0.33065503  1
  Te2-  Te157  1  0.33315370  0.82357395  0.66736970  1
  Te2-  Te158  1  0.67105823  0.16932011  -0.00667363  1
  Te2-  Te159  1  0.66331487  0.16607304  0.33446341  1
  Te2-  Te160  1  0.66775998  0.16637504  0.67172021  1
  Te2-  Te161  1  0.66262402  0.50728671  0.01141158  1
  Te2-  Te162  1  0.67054562  0.49484898  0.33685077  1
  Te2-  Te163  1  0.66810729  0.50009345  0.66427407  1
  Te2-  Te164  1  0.66560510  0.82558087  -0.01014968  1
  Te2-  Te165  1  0.68541649  0.83916641  0.33103630  1
  Te2-  Te166  1  0.66643041  0.83462719  0.68803058  1
  Te2-  Te167  1  -0.00184082  0.00310908  0.16225370  1
  Te2-  Te168  1  0.00520011  -0.00620147  0.51190755  1
  Te2-  Te169  1  -0.00170911  -0.00567953  0.83213240  1
  Te2-  Te170  1  0.00843691  0.32744534  0.17503772  1
  Te2-  Te171  1  0.00852676  0.33501217  0.49811438  1
  Te2-  Te172  1  0.01580858  0.32743678  0.83509850  1
  Te2-  Te173  1  -0.00850615  0.66427645  0.18081529  1
  Te2-  Te174  1  0.00226213  0.66772481  0.48681980  1
  Te2-  Te175  1  -0.00141131  0.66754859  0.83230688  1
  Te2-  Te176  1  0.32863354  0.00925974  0.16939433  1
  Te2-  Te177  1  0.33200191  0.01113728  0.49191709  1
  Te2-  Te178  1  0.33703724  -0.00140600  0.83834013  1
  Te2-  Te179  1  0.33451359  0.32587439  0.18219472  1
  Te2-  Te180  1  0.32777047  0.33424172  0.48771822  1
  Te2-  Te181  1  0.32072959  0.34175247  0.83361694  1
  Te2-  Te182  1  0.33846550  0.67152909  0.16339473  1
  Te2-  Te183  1  0.33275962  0.66312229  0.50323303  1
  Te2-  Te184  1  0.32595709  0.65955584  0.83451624  1
  Te2-  Te185  1  0.67008319  0.00600270  0.17082779  1
  Te2-  Te186  1  0.66157679  -0.00767921  0.50604853  1
  Te2-  Te187  1  0.66251653  0.01464941  0.83050844  1
  Te2-  Te188  1  0.66465580  0.33157694  0.16986987  1
  Te2-  Te189  1  0.66914401  0.33605483  0.50713127  1
  Te2-  Te190  1  0.66655352  0.31735498  0.82543058  1
  Te2-  Te191  1  0.66960367  0.66253921  0.17576955  1
  Te2-  Te192  1  0.66676515  0.67523327  0.50476767  1
  Te2-  Te193  1  0.67471251  0.65220314  0.82856698  1
  Pb2+  Pb194  1  0.67442033  0.16408870  0.50220852  1
  Pb2+  Pb195  1  0.16721504  0.49687530  0.66844225  1
  Pb2+  Pb196  1  0.17402173  0.16325392  0.33915361  1
  Pb2+  Pb197  1  0.34374877  0.66250023  0.33107635  1
  Pb2+  Pb198  1  0.33249446  0.16944454  0.83633429  1
  Pb2+  Pb199  1  0.16414701  0.49818343  0.33307786  1
  Pb2+  Pb200  1  0.32937871  0.82899431  0.83569718  1
  Pb2+  Pb201  1  -0.00147085  0.67389337  0.65917245  1
  Pb2+  Pb202  1  0.49852937  0.16275595  0.66917676  1
  Pb2+  Pb203  1  0.49977904  0.50121851  0.67324858  1
  Pb2+  Pb204  1  -0.00538591  0.66029156  0.00187050  1
  Pb2+  Pb205  1  0.50262947  0.83299999  0.66106337  1
  Pb2+  Pb206  1  0.83818399  0.32927323  0.49885067  1
  Pb2+  Pb207  1  -0.00253148  0.50382052  0.50078882  1
  Pb2+  Pb208  1  0.83396060  0.49173404  0.67034743  1
  Pb2+  Pb209  1  -0.00397017  0.49500641  0.16396416  1
  Pb2+  Pb210  1  0.66589177  -0.00370836  -0.00121908  1
  Pb2+  Pb211  1  0.83009399  0.84220982  0.66657506  1
  Pb2+  Pb212  1  -0.00422382  0.83372151  0.17313333  1
  Pb2+  Pb213  1  0.49866705  0.00385097  0.16746424  1
  Pb2+  Pb214  1  0.17017151  0.66686217  0.16438159  1
  Pb2+  Pb215  1  0.33269885  0.84320622  0.50170551  1
