# generated using pymatgen
data_In22Ag21Sn22Bi21(Te54Pb11)2
_symmetry_space_group_name_H-M   'P 1'
_cell_length_a   19.15955210
_cell_length_b   19.13992102
_cell_length_c   19.15487287
_cell_angle_alpha   90.01777962
_cell_angle_beta   89.99926177
_cell_angle_gamma   90.01385912
_symmetry_Int_Tables_number   1
_chemical_formula_structural   In22Ag21Sn22Bi21(Te54Pb11)2
_chemical_formula_sum   'In22 Ag21 Sn22 Bi21 Te108 Pb22'
_cell_volume   7024.32720740
_cell_formula_units_Z   1
loop_
 _symmetry_equiv_pos_site_id
 _symmetry_equiv_pos_as_xyz
  1  'x, y, z'
loop_
 _atom_type_symbol
 _atom_type_oxidation_number
  In3+  3.0
  Ag+  1.0
  Sn2+  2.0
  Bi3+  3.0
  Te2-  -2.0
  Pb2+  2.0
loop_
 _atom_site_type_symbol
 _atom_site_label
 _atom_site_symmetry_multiplicity
 _atom_site_fract_x
 _atom_site_fract_y
 _atom_site_fract_z
 _atom_site_occupancy
  In3+  In0  1  0.33313755  0.68773053  0.33519661  1
  In3+  In1  1  -0.00989834  0.03036694  0.33739341  1
  In3+  In2  1  0.67510536  0.15565228  0.81356325  1
  In3+  In3  1  0.33768452  0.48998637  0.17687782  1
  In3+  In4  1  0.67415087  0.32804347  0.34094311  1
  In3+  In5  1  0.66100339  0.85652940  0.80073941  1
  In3+  In6  1  0.49805631  0.32642881  0.81222347  1
  In3+  In7  1  0.18324914  -0.00514124  0.16834268  1
  In3+  In8  1  0.84391329  0.16922725  0.64670539  1
  In3+  In9  1  0.50643309  0.67250482  0.17703719  1
  In3+  In10  1  0.49445768  0.48413448  0.66126291  1
  In3+  In11  1  0.33857104  0.63472528  0.01067804  1
  In3+  In12  1  0.66323206  0.48883952  0.48694016  1
  In3+  In13  1  0.82966034  0.16234011  0.00293671  1
  In3+  In14  1  0.84012983  0.33137030  0.49866918  1
  In3+  In15  1  0.49638071  0.32409461  0.48904344  1
  In3+  In16  1  0.83752556  0.48586799  0.00390461  1
  In3+  In17  1  0.50272568  0.69156962  0.51095461  1
  In3+  In18  1  -0.00248522  0.83141901  0.18749200  1
  In3+  In19  1  0.48523910  0.31444694  0.17324086  1
  In3+  In20  1  0.83464640  0.33849765  0.17866386  1
  In3+  In21  1  0.13743274  0.01846109  0.82911493  1
  Ag+  Ag22  1  0.67840100  0.16775009  0.50243011  1
  Ag+  Ag23  1  0.02436308  0.14685852  0.51573846  1
  Ag+  Ag24  1  0.02823957  0.33312807  0.34977853  1
  Ag+  Ag25  1  0.66799535  0.18253034  0.14616707  1
  Ag+  Ag26  1  0.47906360  0.84705745  0.66843559  1
  Ag+  Ag27  1  0.13565301  0.31193219  0.81667449  1
  Ag+  Ag28  1  0.85650628  0.49454631  0.35187310  1
  Ag+  Ag29  1  0.19510598  0.16130712  0.64099163  1
  Ag+  Ag30  1  0.83199049  0.02920706  0.50234579  1
  Ag+  Ag31  1  0.52490132  0.81849801  0.30943781  1
  Ag+  Ag32  1  0.35699673  0.32754554  -0.02080411  1
  Ag+  Ag33  1  0.02309177  0.32934591  0.64131678  1
  Ag+  Ag34  1  0.48186295  0.02923258  0.84144103  1
  Ag+  Ag35  1  0.30965503  0.15975911  0.16125475  1
  Ag+  Ag36  1  0.13612608  0.33337941  0.52416274  1
  Ag+  Ag37  1  0.83294227  0.02511241  0.80305157  1
  Ag+  Ag38  1  0.79982865  0.62919783  0.19726662  1
  Ag+  Ag39  1  0.03410747  0.46676611  0.80972921  1
  Ag+  Ag40  1  0.14180483  0.86224072  0.36406913  1
  Ag+  Ag41  1  0.68186516  0.80850405  0.49931884  1
  Ag+  Ag42  1  0.36555671  0.50244416  0.47525966  1
  Sn2+  Sn43  1  0.33960978  0.82932482  0.49772232  1
  Sn2+  Sn44  1  0.66638203  0.00066126  0.00284619  1
  Sn2+  Sn45  1  0.82925553  0.16999464  0.32807436  1
  Sn2+  Sn46  1  0.49892848  0.15429447  0.66849206  1
  Sn2+  Sn47  1  0.33431037  0.16616922  0.84318354  1
  Sn2+  Sn48  1  0.50606778  0.15743083  0.33398058  1
  Sn2+  Sn49  1  0.00157925  0.66922391  -0.00010613  1
  Sn2+  Sn50  1  0.66354316  0.32592554  0.00733926  1
  Sn2+  Sn51  1  0.66033216  0.48398539  0.16795140  1
  Sn2+  Sn52  1  0.49294627  0.50608130  0.34040985  1
  Sn2+  Sn53  1  -0.00360470  0.17461383  0.81815359  1
  Sn2+  Sn54  1  0.83509637  0.84295141  0.66441878  1
  Sn2+  Sn55  1  0.16156855  0.49935881  0.33958781  1
  Sn2+  Sn56  1  0.33850218  0.00624606  0.66779257  1
  Sn2+  Sn57  1  0.66297385  0.00606383  0.65719274  1
  Sn2+  Sn58  1  0.16482772  0.48662010  0.66147326  1
  Sn2+  Sn59  1  -0.00898156  0.84284774  0.50076707  1
  Sn2+  Sn60  1  0.32786870  0.17782625  0.49614231  1
  Sn2+  Sn61  1  0.16182471  0.32995979  0.16418349  1
  Sn2+  Sn62  1  0.66844242  0.33480808  0.67036950  1
  Sn2+  Sn63  1  0.32115540  0.33314039  0.66519723  1
  Sn2+  Sn64  1  0.49836783  0.16961239  0.00145395  1
  Bi3+  Bi65  1  0.83415823  0.66733983  0.83932414  1
  Bi3+  Bi66  1  0.50393597  0.00239879  0.50394966  1
  Bi3+  Bi67  1  0.66525511  0.49921936  0.83464400  1
  Bi3+  Bi68  1  0.33486614  0.00265444  0.33669522  1
  Bi3+  Bi69  1  -0.00050322  0.33258749  0.00420098  1
  Bi3+  Bi70  1  0.83301795  0.66194787  0.49929221  1
  Bi3+  Bi71  1  0.83411967  0.83213144  -0.00104388  1
  Bi3+  Bi72  1  0.16824420  0.83668179  0.00087153  1
  Bi3+  Bi73  1  0.33546443  0.49618253  0.83105793  1
  Bi3+  Bi74  1  0.16462537  0.16835322  0.00242138  1
  Bi3+  Bi75  1  0.66678892  0.00346683  0.33894031  1
  Bi3+  Bi76  1  -0.00695102  0.83270097  0.83113669  1
  Bi3+  Bi77  1  0.16892490  0.66605927  0.83367322  1
  Bi3+  Bi78  1  0.16992346  0.66645045  0.16676893  1
  Bi3+  Bi79  1  0.33574242  0.32850852  0.33869787  1
  Bi3+  Bi80  1  0.49974347  0.66630796  0.82960522  1
  Bi3+  Bi81  1  0.83251780  0.00064838  0.17306564  1
  Bi3+  Bi82  1  0.16821940  0.16873696  0.33356298  1
  Bi3+  Bi83  1  0.00039914  0.49964368  0.50306667  1
  Bi3+  Bi84  1  0.17065835  0.66058899  0.49745801  1
  Bi3+  Bi85  1  0.66868522  0.66608234  0.00046951  1
  Te2-  Te86  1  0.16135110  0.16124404  0.16842043  1
  Te2-  Te87  1  0.16632498  0.18060264  0.49686122  1
  Te2-  Te88  1  0.16695180  0.16989438  0.84160356  1
  Te2-  Te89  1  0.17704351  0.50340031  0.16750333  1
  Te2-  Te90  1  0.16256596  0.49363489  0.50310158  1
  Te2-  Te91  1  0.17275864  0.50514678  0.82991256  1
  Te2-  Te92  1  0.15863648  0.83236997  0.16206856  1
  Te2-  Te93  1  0.16639302  0.82623914  0.50259833  1
  Te2-  Te94  1  0.16106470  0.83056424  0.83648001  1
  Te2-  Te95  1  0.51748913  0.16740212  0.16853311  1
  Te2-  Te96  1  0.49013660  0.16526175  0.49925346  1
  Te2-  Te97  1  0.50940825  0.17290683  0.83561068  1
  Te2-  Te98  1  0.49187663  0.51808765  0.17014378  1
  Te2-  Te99  1  0.50883960  0.49829844  0.50586594  1
  Te2-  Te100  1  0.49896185  0.50099672  0.82971260  1
  Te2-  Te101  1  0.49916659  0.82910667  0.16490647  1
  Te2-  Te102  1  0.49919235  0.84082973  0.51566273  1
  Te2-  Te103  1  0.50997871  0.82773039  0.81887281  1
  Te2-  Te104  1  0.82135042  0.16540795  0.16462668  1
  Te2-  Te105  1  0.82772923  0.17735575  0.49429834  1
  Te2-  Te106  1  0.82488206  0.16750091  0.84234965  1
  Te2-  Te107  1  0.82991249  0.49307767  0.16028896  1
  Te2-  Te108  1  0.82680186  0.49788407  0.49705227  1
  Te2-  Te109  1  0.82802382  0.50528150  0.83573093  1
  Te2-  Te110  1  0.84149770  0.83248763  0.16411767  1
  Te2-  Te111  1  0.83050783  0.82286863  0.50245376  1
  Te2-  Te112  1  0.82950497  0.82846338  0.83347701  1
  Te2-  Te113  1  0.16554021  0.00208097  -0.01009994  1
  Te2-  Te114  1  0.16731297  0.00361113  0.33328984  1
  Te2-  Te115  1  0.16638692  0.01657329  0.67193288  1
  Te2-  Te116  1  0.16076796  0.32996012  0.00592503  1
  Te2-  Te117  1  0.17360173  0.33031443  0.32505921  1
  Te2-  Te118  1  0.16694357  0.31952088  0.67244450  1
  Te2-  Te119  1  0.17396710  0.67077760  -0.00084998  1
  Te2-  Te120  1  0.17577611  0.66715259  0.33321910  1
  Te2-  Te121  1  0.16828318  0.66281806  0.66664288  1
  Te2-  Te122  1  0.50775842  0.00246855  -0.01420869  1
  Te2-  Te123  1  0.50052269  -0.00739897  0.33905814  1
  Te2-  Te124  1  0.50402701  -0.00516169  0.67231531  1
  Te2-  Te125  1  0.49989203  0.33073245  0.02104898  1
  Te2-  Te126  1  0.49950725  0.33348774  0.32904674  1
  Te2-  Te127  1  0.49980565  0.32983163  0.65936167  1
  Te2-  Te128  1  0.50018964  0.66584974  -0.00621317  1
  Te2-  Te129  1  0.49095351  0.67699060  0.33797973  1
  Te2-  Te130  1  0.50055745  0.67290338  0.66351395  1
  Te2-  Te131  1  0.83042405  -0.00225337  0.00956429  1
  Te2-  Te132  1  0.83272322  0.00179708  0.33922093  1
  Te2-  Te133  1  0.83156723  0.01401694  0.65410947  1
  Te2-  Te134  1  0.83292763  0.32868655  0.00638462  1
  Te2-  Te135  1  0.82443321  0.34442615  0.33358226  1
  Te2-  Te136  1  0.82737537  0.32411537  0.66150847  1
  Te2-  Te137  1  0.83268349  0.66960781  0.00118707  1
  Te2-  Te138  1  0.83334282  0.65082168  0.33742653  1
  Te2-  Te139  1  0.83569911  0.66520019  0.66696488  1
  Te2-  Te140  1  -0.00242762  0.16803684  -0.00252440  1
  Te2-  Te141  1  0.00144225  0.18124443  0.34110069  1
  Te2-  Te142  1  -0.00585749  0.17881321  0.65736335  1
  Te2-  Te143  1  -0.00692612  0.49892115  -0.00262146  1
  Te2-  Te144  1  0.00252531  0.48403425  0.33492444  1
  Te2-  Te145  1  -0.00018860  0.48197213  0.66712775  1
  Te2-  Te146  1  0.00054395  0.83468726  -0.00688688  1
  Te2-  Te147  1  0.00159183  0.82850358  0.34001309  1
  Te2-  Te148  1  -0.00102234  0.83477106  0.66855012  1
  Te2-  Te149  1  0.32996661  0.17876049  0.01159247  1
  Te2-  Te150  1  0.33483247  0.16380024  0.32379618  1
  Te2-  Te151  1  0.33855411  0.16696236  0.66845883  1
  Te2-  Te152  1  0.33506731  0.47960851  -0.00355898  1
  Te2-  Te153  1  0.33201331  0.49404333  0.33154465  1
  Te2-  Te154  1  0.33938153  0.49708562  0.67013033  1
  Te2-  Te155  1  0.33173279  0.84372736  0.00033731  1
  Te2-  Te156  1  0.32851463  0.84082814  0.33743892  1
  Te2-  Te157  1  0.33114824  0.83633229  0.66491372  1
  Te2-  Te158  1  0.67038875  0.16756025  -0.00102728  1
  Te2-  Te159  1  0.66530856  0.17152511  0.34831733  1
  Te2-  Te160  1  0.66553071  0.17295625  0.66232348  1
  Te2-  Te161  1  0.67346265  0.50045148  0.00068703  1
  Te2-  Te162  1  0.65744859  0.49056649  0.33319217  1
  Te2-  Te163  1  0.65756287  0.49680531  0.67171711  1
  Te2-  Te164  1  0.67122922  0.83038822  0.00325705  1
  Te2-  Te165  1  0.66474811  0.83602132  0.34626041  1
  Te2-  Te166  1  0.67650338  0.83680724  0.65163497  1
  Te2-  Te167  1  -0.00642165  -0.00396478  0.18155726  1
  Te2-  Te168  1  -0.01004971  0.00378377  0.49184054  1
  Te2-  Te169  1  -0.01708036  -0.00024321  0.83327366  1
  Te2-  Te170  1  -0.00919106  0.33340040  0.16794791  1
  Te2-  Te171  1  -0.00807219  0.33922374  0.49528299  1
  Te2-  Te172  1  -0.00759378  0.33049025  0.84051428  1
  Te2-  Te173  1  0.00688554  0.67052656  0.16507667  1
  Te2-  Te174  1  0.00134388  0.66303725  0.50035706  1
  Te2-  Te175  1  0.00113050  0.66646432  0.83533680  1
  Te2-  Te176  1  0.33868878  0.01212852  0.17055793  1
  Te2-  Te177  1  0.33524302  0.00299727  0.49962473  1
  Te2-  Te178  1  0.33838711  0.00626920  0.82802353  1
  Te2-  Te179  1  0.33512038  0.33529917  0.17401953  1
  Te2-  Te180  1  0.34433299  0.34716009  0.49762596  1
  Te2-  Te181  1  0.34483200  0.33286743  0.83302416  1
  Te2-  Te182  1  0.33195242  0.66720083  0.17011563  1
  Te2-  Te183  1  0.33128721  0.65400468  0.49004901  1
  Te2-  Te184  1  0.33441121  0.66561167  0.83662000  1
  Te2-  Te185  1  0.67063350  0.00429678  0.17438569  1
  Te2-  Te186  1  0.66799013  0.01628638  0.49789965  1
  Te2-  Te187  1  0.68405516  0.00292675  0.83180407  1
  Te2-  Te188  1  0.67239793  0.32887902  0.17321021  1
  Te2-  Te189  1  0.65203354  0.33316420  0.49700632  1
  Te2-  Te190  1  0.65478683  0.33839498  0.83953042  1
  Te2-  Te191  1  0.66189087  0.66458593  0.16417216  1
  Te2-  Te192  1  0.66366734  0.65895100  0.50027922  1
  Te2-  Te193  1  0.66524392  0.66435200  0.83842838  1
  Pb2+  Pb194  1  -0.00972762  0.16695923  0.16919387  1
  Pb2+  Pb195  1  0.50550483  0.00201321  0.16254669  1
  Pb2+  Pb196  1  0.33450804  0.01279265  -0.00323642  1
  Pb2+  Pb197  1  0.50443284  0.49636334  0.00148500  1
  Pb2+  Pb198  1  0.16458373  0.49841586  -0.00209439  1
  Pb2+  Pb199  1  0.00433627  0.65612423  0.33147754  1
  Pb2+  Pb200  1  0.32942690  0.83581365  0.16736169  1
  Pb2+  Pb201  1  0.16724521  0.00478006  0.50105865  1
  Pb2+  Pb202  1  0.66808420  0.66806993  0.66882230  1
  Pb2+  Pb203  1  0.83122091  0.82862625  0.33494831  1
  Pb2+  Pb204  1  0.33544959  0.83841862  0.83361278  1
  Pb2+  Pb205  1  0.00262755  0.65407172  0.66909531  1
  Pb2+  Pb206  1  0.50335758  0.83377532  -0.01044912  1
  Pb2+  Pb207  1  0.67199892  0.83776797  0.17207992  1
  Pb2+  Pb208  1  0.33525821  0.66447299  0.66145074  1
  Pb2+  Pb209  1  -0.00174729  0.00764169  0.66486921  1
  Pb2+  Pb210  1  0.16599283  0.84349577  0.66758942  1
  Pb2+  Pb211  1  -0.00231551  0.00180783  0.00917039  1
  Pb2+  Pb212  1  0.00357383  0.50051130  0.16344563  1
  Pb2+  Pb213  1  0.66352783  0.66303790  0.33522164  1
  Pb2+  Pb214  1  0.82950329  0.49416744  0.66479756  1
  Pb2+  Pb215  1  0.82561694  0.33532051  0.83465962  1
