# generated using pymatgen
data_In22Ag21Sn22Bi21(Te54Pb11)2
_symmetry_space_group_name_H-M   'P 1'
_cell_length_a   19.15086688
_cell_length_b   19.16865620
_cell_length_c   19.13946937
_cell_angle_alpha   89.98152044
_cell_angle_beta   89.99844491
_cell_angle_gamma   90.00103538
_symmetry_Int_Tables_number   1
_chemical_formula_structural   In22Ag21Sn22Bi21(Te54Pb11)2
_chemical_formula_sum   'In22 Ag21 Sn22 Bi21 Te108 Pb22'
_cell_volume   7026.02961131
_cell_formula_units_Z   1
loop_
 _symmetry_equiv_pos_site_id
 _symmetry_equiv_pos_as_xyz
  1  'x, y, z'
loop_
 _atom_type_symbol
 _atom_type_oxidation_number
  In3+  3.0
  Ag+  1.0
  Sn2+  2.0
  Bi3+  3.0
  Te2-  -2.0
  Pb2+  2.0
loop_
 _atom_site_type_symbol
 _atom_site_label
 _atom_site_symmetry_multiplicity
 _atom_site_fract_x
 _atom_site_fract_y
 _atom_site_fract_z
 _atom_site_occupancy
  In3+  In0  1  0.85348990  0.49302937  0.01569935  1
  In3+  In1  1  0.68188019  0.49153370  0.49770124  1
  In3+  In2  1  0.65671031  0.65520082  0.00285113  1
  In3+  In3  1  0.84065295  0.19361775  0.33214784  1
  In3+  In4  1  0.16838348  0.85290037  0.32995345  1
  In3+  In5  1  0.17063131  0.17415859  0.01137071  1
  In3+  In6  1  0.16473296  0.65617101  0.49651747  1
  In3+  In7  1  0.51842907  0.84448030  0.66274378  1
  In3+  In8  1  -0.00206782  0.49008678  0.48352094  1
  In3+  In9  1  0.17872842  0.33760889  0.50302704  1
  In3+  In10  1  0.32025254  0.85071459  0.17163138  1
  In3+  In11  1  0.67355125  0.83319294  0.48770132  1
  In3+  In12  1  -0.01749365  -0.00233293  0.33048421  1
  In3+  In13  1  0.16994369  0.49267286  0.31434725  1
  In3+  In14  1  0.32522263  0.31790696  0.66860563  1
  In3+  In15  1  0.52182080  0.33880916  0.49546335  1
  In3+  In16  1  0.82554743  0.48759756  0.67661430  1
  In3+  In17  1  0.16752032  0.63367248  0.84094893  1
  In3+  In18  1  0.00142752  0.48489661  0.15680560  1
  In3+  In19  1  0.85304216  0.01355184  0.15987280  1
  In3+  In20  1  0.83695717  0.16996821  -0.01078592  1
  In3+  In21  1  0.67940132  0.03014606  0.33104091  1
  Ag+  Ag22  1  0.64665173  0.19356837  0.85366188  1
  Ag+  Ag23  1  0.14881581  0.47265389  -0.01654361  1
  Ag+  Ag24  1  0.46740027  0.17051548  -0.01232599  1
  Ag+  Ag25  1  0.64143324  0.01936263  0.69977964  1
  Ag+  Ag26  1  0.19484009  0.32414018  0.85941560  1
  Ag+  Ag27  1  0.67313431  0.33506312  0.31365275  1
  Ag+  Ag28  1  0.86132998  0.49615613  0.31603528  1
  Ag+  Ag29  1  0.00383077  0.02046630  0.02920053  1
  Ag+  Ag30  1  0.30234783  0.33392372  0.30623157  1
  Ag+  Ag31  1  -0.00401494  0.18565544  0.16506969  1
  Ag+  Ag32  1  -0.00114040  0.31586681  0.02648556  1
  Ag+  Ag33  1  0.83218936  0.31467152  0.16416207  1
  Ag+  Ag34  1  0.64032831  0.30959520  0.66894353  1
  Ag+  Ag35  1  -0.01763624  0.83038588  0.14758686  1
  Ag+  Ag36  1  0.35971180  0.18879587  0.16555438  1
  Ag+  Ag37  1  0.31354713  0.47560469  0.81187896  1
  Ag+  Ag38  1  0.80423301  0.02450265  0.47029669  1
  Ag+  Ag39  1  0.33522575  0.03443249  0.31917698  1
  Ag+  Ag40  1  0.18158293  0.33118920  0.14757300  1
  Ag+  Ag41  1  0.82536132  0.02478095  0.86351045  1
  Ag+  Ag42  1  0.46754840  0.69760541  0.19252907  1
  Sn2+  Sn43  1  -0.00113577  0.33346596  0.67137658  1
  Sn2+  Sn44  1  0.83460800  0.82735650  -0.00055770  1
  Sn2+  Sn45  1  0.16112374  0.17155869  0.67203356  1
  Sn2+  Sn46  1  0.49972250  0.66535945  0.49513677  1
  Sn2+  Sn47  1  -0.00370295  0.67365525  0.00533710  1
  Sn2+  Sn48  1  -0.00570079  0.32767615  0.32841963  1
  Sn2+  Sn49  1  0.33301734  0.65052889  0.33278020  1
  Sn2+  Sn50  1  0.83453024  0.33671110  0.49018126  1
  Sn2+  Sn51  1  0.83159572  0.81768082  0.32937205  1
  Sn2+  Sn52  1  0.66776303  0.49451789  0.17557655  1
  Sn2+  Sn53  1  0.67096199  0.82946903  0.17186170  1
  Sn2+  Sn54  1  0.50447817  0.00160087  0.49087056  1
  Sn2+  Sn55  1  0.33634101  0.83929467  0.48820185  1
  Sn2+  Sn56  1  0.33388911  -0.00279804  0.66277792  1
  Sn2+  Sn57  1  0.16513213  0.50179738  0.67289238  1
  Sn2+  Sn58  1  0.49472331  0.83977453  0.33477040  1
  Sn2+  Sn59  1  0.50574514  0.33233942  0.83902339  1
  Sn2+  Sn60  1  0.00098330  0.16830985  0.84951837  1
  Sn2+  Sn61  1  0.50074501  0.49759398  0.66905007  1
  Sn2+  Sn62  1  0.32353419  0.33849444  -0.00233664  1
  Sn2+  Sn63  1  0.00185416  0.49020555  0.83114169  1
  Sn2+  Sn64  1  0.32951540  0.83106278  0.83422254  1
  Bi3+  Bi65  1  0.17260120  0.83672702  0.66251703  1
  Bi3+  Bi66  1  0.83223933  0.66597966  0.49831764  1
  Bi3+  Bi67  1  0.16243513  0.01015157  0.83594605  1
  Bi3+  Bi68  1  0.50026492  -0.00038633  0.16794249  1
  Bi3+  Bi69  1  0.83732778  0.33299333  0.83460539  1
  Bi3+  Bi70  1  0.00226759  0.66056123  0.66973903  1
  Bi3+  Bi71  1  0.50121131  0.16702959  0.33233177  1
  Bi3+  Bi72  1  0.33208099  0.66995638  0.66703851  1
  Bi3+  Bi73  1  0.33373034  0.49588771  0.16327260  1
  Bi3+  Bi74  1  0.83807139  0.66513660  0.83377858  1
  Bi3+  Bi75  1  0.83559516  0.83652396  0.66401134  1
  Bi3+  Bi76  1  0.17131656  -0.00116795  0.49801259  1
  Bi3+  Bi77  1  -0.00204052  0.00024069  0.66292624  1
  Bi3+  Bi78  1  0.83441255  0.66798952  0.16446485  1
  Bi3+  Bi79  1  0.66858545  0.83552457  0.83422780  1
  Bi3+  Bi80  1  0.49638407  0.66491440  0.83116692  1
  Bi3+  Bi81  1  0.16488447  0.00892706  0.16660558  1
  Bi3+  Bi82  1  0.33393243  0.66366883  -0.00092380  1
  Bi3+  Bi83  1  0.00091484  0.83381394  0.50017739  1
  Bi3+  Bi84  1  0.49932067  0.49548018  0.33352885  1
  Bi3+  Bi85  1  0.49436608  0.48975150  0.00128212  1
  Te2-  Te86  1  0.14892224  0.17118835  0.16274143  1
  Te2-  Te87  1  0.16809060  0.16391235  0.49949350  1
  Te2-  Te88  1  0.16589678  0.17321287  0.83869458  1
  Te2-  Te89  1  0.16425298  0.48300368  0.16317019  1
  Te2-  Te90  1  0.15737130  0.49582880  0.50978775  1
  Te2-  Te91  1  0.16956269  0.47993947  0.83839067  1
  Te2-  Te92  1  0.16766206  0.83488983  0.17360706  1
  Te2-  Te93  1  0.16596352  0.83289172  0.49758779  1
  Te2-  Te94  1  0.16920782  0.84580705  0.82793605  1
  Te2-  Te95  1  0.50579369  0.16353766  0.16962122  1
  Te2-  Te96  1  0.50144592  0.17173226  0.49768045  1
  Te2-  Te97  1  0.50299109  0.16817392  0.84393506  1
  Te2-  Te98  1  0.49928633  0.49828556  0.16718430  1
  Te2-  Te99  1  0.50032335  0.49874527  0.49842255  1
  Te2-  Te100  1  0.49589223  0.50272320  0.83843532  1
  Te2-  Te101  1  0.50246188  0.83585757  0.16887596  1
  Te2-  Te102  1  0.50355399  0.83065154  0.50393978  1
  Te2-  Te103  1  0.50267863  0.83122345  0.82824147  1
  Te2-  Te104  1  0.84234735  0.16419382  0.17875731  1
  Te2-  Te105  1  0.83406957  0.16665607  0.48669226  1
  Te2-  Te106  1  0.83559909  0.16907605  0.83608046  1
  Te2-  Te107  1  0.84028672  0.50708268  0.16840380  1
  Te2-  Te108  1  0.83700293  0.50549137  0.49685646  1
  Te2-  Te109  1  0.83237162  0.50323049  0.83468109  1
  Te2-  Te110  1  0.83693694  0.82904924  0.17104553  1
  Te2-  Te111  1  0.83492263  0.82806357  0.49829972  1
  Te2-  Te112  1  0.83204099  0.82670847  0.82947212  1
  Te2-  Te113  1  0.15391371  0.00393204  0.00177118  1
  Te2-  Te114  1  0.18499352  0.00423927  0.33267382  1
  Te2-  Te115  1  0.16700250  0.00072334  0.66580468  1
  Te2-  Te116  1  0.15047027  0.32616383  0.00310249  1
  Te2-  Te117  1  0.16063514  0.34017813  0.34950977  1
  Te2-  Te118  1  0.16665372  0.33098315  0.66087496  1
  Te2-  Te119  1  0.16948073  0.66626983  -0.00667409  1
  Te2-  Te120  1  0.17132875  0.64888461  0.33563640  1
  Te2-  Te121  1  0.16657178  0.67284275  0.67800256  1
  Te2-  Te122  1  0.49775125  0.01127336  0.00524907  1
  Te2-  Te123  1  0.48394626  0.00231687  0.33112694  1
  Te2-  Te124  1  0.50044961  -0.00228926  0.66388119  1
  Te2-  Te125  1  0.49830027  0.32460569  -0.00156453  1
  Te2-  Te126  1  0.51170808  0.33254114  0.34076514  1
  Te2-  Te127  1  0.49512346  0.34201669  0.66509719  1
  Te2-  Te128  1  0.49900595  0.66199645  -0.00508470  1
  Te2-  Te129  1  0.49619166  0.66107486  0.33151221  1
  Te2-  Te130  1  0.49563868  0.66671784  0.66826478  1
  Te2-  Te131  1  0.85037839  -0.00334777  0.00757688  1
  Te2-  Te132  1  0.82838768  -0.01146919  0.32917174  1
  Te2-  Te133  1  0.84017993  -0.00632798  0.65182327  1
  Te2-  Te134  1  0.84733180  0.34002431  0.00097703  1
  Te2-  Te135  1  0.82793793  0.34591193  0.32925974  1
  Te2-  Te136  1  0.83832281  0.33629978  0.66940596  1
  Te2-  Te137  1  0.83115675  0.65631034  -0.00280810  1
  Te2-  Te138  1  0.83456705  0.65044837  0.33288730  1
  Te2-  Te139  1  0.83790695  0.66661832  0.66742870  1
  Te2-  Te140  1  -0.01288137  0.16591509  0.00935244  1
  Te2-  Te141  1  -0.00677083  0.15595722  0.32279712  1
  Te2-  Te142  1  0.00074870  0.16357114  0.66441630  1
  Te2-  Te143  1  0.00711825  0.50640787  0.00443595  1
  Te2-  Te144  1  0.00801912  0.49938573  0.33214884  1
  Te2-  Te145  1  -0.00254553  0.50229244  0.66785062  1
  Te2-  Te146  1  -0.00323930  0.83089592  0.00018992  1
  Te2-  Te147  1  0.00708139  0.83962212  0.34023874  1
  Te2-  Te148  1  0.00552005  0.82840924  0.66389578  1
  Te2-  Te149  1  0.32401207  0.17278993  0.01546663  1
  Te2-  Te150  1  0.33845271  0.18547210  0.32021581  1
  Te2-  Te151  1  0.33313511  0.16584809  0.66607679  1
  Te2-  Te152  1  0.33323701  0.50025641  0.00117753  1
  Te2-  Te153  1  0.33350649  0.48242838  0.33111283  1
  Te2-  Te154  1  0.32883311  0.50921348  0.66956203  1
  Te2-  Te155  1  0.33493724  0.82970328  0.00813773  1
  Te2-  Te156  1  0.32732554  0.82063461  0.32771945  1
  Te2-  Te157  1  0.33359836  0.83263554  0.66425447  1
  Te2-  Te158  1  0.68333292  0.16640001  -0.00555682  1
  Te2-  Te159  1  0.66879218  0.18251369  0.33534931  1
  Te2-  Te160  1  0.66748811  0.16080765  0.67216222  1
  Te2-  Te161  1  0.65780531  0.50002671  0.00340100  1
  Te2-  Te162  1  0.66049930  0.48518982  0.34347341  1
  Te2-  Te163  1  0.67210424  0.50395657  0.65693328  1
  Te2-  Te164  1  0.66999954  0.83132879  0.00028972  1
  Te2-  Te165  1  0.66264899  0.82490867  0.33480133  1
  Te2-  Te166  1  0.67151562  0.84165895  0.66471724  1
  Te2-  Te167  1  0.00332242  -0.01704059  0.17470437  1
  Te2-  Te168  1  0.00849492  -0.00355219  0.49215841  1
  Te2-  Te169  1  0.00211355  0.00462248  0.82462743  1
  Te2-  Te170  1  -0.01837149  0.33784031  0.17281238  1
  Te2-  Te171  1  -0.00706919  0.33774198  0.49849012  1
  Te2-  Te172  1  -0.00350983  0.33266024  0.83157951  1
  Te2-  Te173  1  -0.00107507  0.67833037  0.16692108  1
  Te2-  Te174  1  -0.00046775  0.66603352  0.50505287  1
  Te2-  Te175  1  0.00324870  0.66208505  0.83310608  1
  Te2-  Te176  1  0.32836897  0.00306484  0.17349055  1
  Te2-  Te177  1  0.33325504  -0.00137801  0.49738417  1
  Te2-  Te178  1  0.33124962  -0.00155645  0.83493343  1
  Te2-  Te179  1  0.32866535  0.33352758  0.16019223  1
  Te2-  Te180  1  0.33039686  0.33515605  0.51366896  1
  Te2-  Te181  1  0.33799763  0.33214518  0.82462041  1
  Te2-  Te182  1  0.33042291  0.65780152  0.16392533  1
  Te2-  Te183  1  0.33187519  0.66970726  0.50305885  1
  Te2-  Te184  1  0.33110992  0.66824394  0.83384414  1
  Te2-  Te185  1  0.66454159  -0.00337265  0.17775237  1
  Te2-  Te186  1  0.66279861  -0.00945677  0.48567826  1
  Te2-  Te187  1  0.68279729  -0.00605709  0.83803824  1
  Te2-  Te188  1  0.68142240  0.33720578  0.16326435  1
  Te2-  Te189  1  0.67135911  0.33718425  0.52254357  1
  Te2-  Te190  1  0.67238103  0.33388123  0.81880655  1
  Te2-  Te191  1  0.67148005  0.66329337  0.15901009  1
  Te2-  Te192  1  0.66912995  0.66833165  0.49799254  1
  Te2-  Te193  1  0.66739559  0.66987004  0.83646942  1
  Pb2+  Pb194  1  0.00273358  0.67049573  0.33504795  1
  Pb2+  Pb195  1  0.67273239  0.33330586  -0.00642160  1
  Pb2+  Pb196  1  0.33016300  0.50209926  0.50261240  1
  Pb2+  Pb197  1  0.16538529  0.83316244  0.00036268  1
  Pb2+  Pb198  1  0.16376144  0.65668249  0.16416903  1
  Pb2+  Pb199  1  0.32733175  0.00258401  0.00485008  1
  Pb2+  Pb200  1  0.50382677  0.83539152  0.00152552  1
  Pb2+  Pb201  1  0.67302768  0.16771278  0.16221014  1
  Pb2+  Pb202  1  0.51213103  0.00190856  0.83653642  1
  Pb2+  Pb203  1  0.00009269  0.83755361  0.83540330  1
  Pb2+  Pb204  1  0.66591383  0.65433497  0.32878093  1
  Pb2+  Pb205  1  0.66174535  0.49894436  0.83080674  1
  Pb2+  Pb206  1  0.33491433  0.16922076  0.48734886  1
  Pb2+  Pb207  1  0.16777385  0.17290546  0.32729444  1
  Pb2+  Pb208  1  0.33290291  0.16607822  0.84054048  1
  Pb2+  Pb209  1  0.00110935  0.16823454  0.49576365  1
  Pb2+  Pb210  1  0.83200660  0.15828600  0.66642444  1
  Pb2+  Pb211  1  0.66757058  0.16412770  0.50763370  1
  Pb2+  Pb212  1  0.67547395  -0.00038907  0.00598191  1
  Pb2+  Pb213  1  0.66603754  0.67242420  0.66505718  1
  Pb2+  Pb214  1  0.50504192  0.33153642  0.16999164  1
  Pb2+  Pb215  1  0.50333671  0.17488431  0.67287248  1
