# generated using pymatgen
data_In22Ag21Sn22Bi21(Te54Pb11)2
_symmetry_space_group_name_H-M   'P 1'
_cell_length_a   19.11541853
_cell_length_b   19.12875906
_cell_length_c   19.12867679
_cell_angle_alpha   89.99319184
_cell_angle_beta   89.99917160
_cell_angle_gamma   90.01365289
_symmetry_Int_Tables_number   1
_chemical_formula_structural   In22Ag21Sn22Bi21(Te54Pb11)2
_chemical_formula_sum   'In22 Ag21 Sn22 Bi21 Te108 Pb22'
_cell_volume   6994.48143826
_cell_formula_units_Z   1
loop_
 _symmetry_equiv_pos_site_id
 _symmetry_equiv_pos_as_xyz
  1  'x, y, z'
loop_
 _atom_type_symbol
 _atom_type_oxidation_number
  In3+  3.0
  Ag+  1.0
  Sn2+  2.0
  Bi3+  3.0
  Te2-  -2.0
  Pb2+  2.0
loop_
 _atom_site_type_symbol
 _atom_site_label
 _atom_site_symmetry_multiplicity
 _atom_site_fract_x
 _atom_site_fract_y
 _atom_site_fract_z
 _atom_site_occupancy
  In3+  In0  1  0.83600190  0.65350649  0.83403127  1
  In3+  In1  1  0.66988977  0.50850357  0.48970409  1
  In3+  In2  1  0.01165863  0.65892757  0.01195231  1
  In3+  In3  1  -0.02016406  0.00147671  0.66177053  1
  In3+  In4  1  0.17812069  0.67429320  0.83676683  1
  In3+  In5  1  0.33585859  0.01169119  0.01032613  1
  In3+  In6  1  0.83322630  0.32255515  0.82529172  1
  In3+  In7  1  0.18712497  0.67388555  0.17882101  1
  In3+  In8  1  0.18518382  0.16042407  0.65576421  1
  In3+  In9  1  0.01428633  0.49685656  0.49411821  1
  In3+  In10  1  0.51030206  0.18546853  0.66626521  1
  In3+  In11  1  0.49807448  0.33181461  0.49827261  1
  In3+  In12  1  0.32512856  0.33614491  0.32642183  1
  In3+  In13  1  0.66906895  0.00564152  0.66727232  1
  In3+  In14  1  0.83431723  0.00259636  0.82695129  1
  In3+  In15  1  0.32471827  0.18040239  0.83498296  1
  In3+  In16  1  0.52607329  0.83300784  0.65744315  1
  In3+  In17  1  0.83656421  0.16863242  0.00517678  1
  In3+  In18  1  0.50178178  0.50324881  0.33565832  1
  In3+  In19  1  -0.02014236  0.83132616  0.17012842  1
  In3+  In20  1  0.33391585  0.49275305  0.83669924  1
  In3+  In21  1  0.66175704  -0.00593544  0.01103003  1
  Ag+  Ag22  1  0.16660389  0.50539830  0.30826345  1
  Ag+  Ag23  1  0.36356537  0.16815323  0.18505265  1
  Ag+  Ag24  1  0.83220088  0.83838675  0.67820409  1
  Ag+  Ag25  1  0.02600391  0.36414285  0.02607858  1
  Ag+  Ag26  1  0.19270075  -0.02465124  0.50857798  1
  Ag+  Ag27  1  0.69240669  0.35558112  0.64012403  1
  Ag+  Ag28  1  -0.02532136  0.36310808  0.35518528  1
  Ag+  Ag29  1  0.64991388  0.81696370  0.19053116  1
  Ag+  Ag30  1  0.81166601  0.47735648  0.33346239  1
  Ag+  Ag31  1  0.34097731  0.30453982  0.64269831  1
  Ag+  Ag32  1  0.35503058  0.16492761  0.47975689  1
  Ag+  Ag33  1  0.35702432  0.66409204  0.02339778  1
  Ag+  Ag34  1  0.19092825  0.86122133  0.32630402  1
  Ag+  Ag35  1  0.49707127  0.34652060  0.19328987  1
  Ag+  Ag36  1  0.66117575  0.85961651  0.48257287  1
  Ag+  Ag37  1  0.49975217  0.68862752  0.51909323  1
  Ag+  Ag38  1  0.49760079  0.64533647  0.17080428  1
  Ag+  Ag39  1  0.48473436  -0.00160261  0.19041660  1
  Ag+  Ag40  1  0.68025095  0.52457263  0.18890011  1
  Ag+  Ag41  1  0.85135140  0.18892681  0.66461401  1
  Ag+  Ag42  1  0.64131729  0.01076308  0.30846249  1
  Sn2+  Sn43  1  0.17231914  0.50333025  0.00466253  1
  Sn2+  Sn44  1  0.34259451  0.49120005  0.17061136  1
  Sn2+  Sn45  1  -0.00782932  0.82573384  0.83625757  1
  Sn2+  Sn46  1  0.82554538  0.00032308  0.16557012  1
  Sn2+  Sn47  1  0.82961633  -0.00286718  0.49512994  1
  Sn2+  Sn48  1  0.33673104  -0.00433737  0.66734773  1
  Sn2+  Sn49  1  0.00008697  0.49711383  0.82502897  1
  Sn2+  Sn50  1  0.16867096  0.83492533  0.01594639  1
  Sn2+  Sn51  1  0.66808671  0.66181184  0.65889037  1
  Sn2+  Sn52  1  0.49612761  0.00110399  0.82979457  1
  Sn2+  Sn53  1  0.82454018  0.66877917  0.49954152  1
  Sn2+  Sn54  1  0.49646625  -0.00061539  0.49974395  1
  Sn2+  Sn55  1  0.83626366  0.83874801  -0.00366648  1
  Sn2+  Sn56  1  0.82250313  0.33847486  0.16193701  1
  Sn2+  Sn57  1  0.15984349  0.16295028  -0.00219817  1
  Sn2+  Sn58  1  0.16912146  -0.00190467  0.81981059  1
  Sn2+  Sn59  1  0.00133384  0.16566041  0.49658393  1
  Sn2+  Sn60  1  0.50248333  0.16772626  0.00528152  1
  Sn2+  Sn61  1  -0.00538199  0.67570589  0.66920078  1
  Sn2+  Sn62  1  0.00465655  0.00188238  0.33463262  1
  Sn2+  Sn63  1  0.82626501  0.32992747  0.49638306  1
  Sn2+  Sn64  1  0.49729804  0.50503441  0.66092533  1
  Bi3+  Bi65  1  0.66567211  0.32812928  -0.00158084  1
  Bi3+  Bi66  1  0.66728350  0.83327576  0.83110486  1
  Bi3+  Bi67  1  0.49760987  0.83793815  -0.00197465  1
  Bi3+  Bi68  1  -0.00147063  0.66544525  0.33398354  1
  Bi3+  Bi69  1  0.83250451  0.83204755  0.33709128  1
  Bi3+  Bi70  1  0.33078094  0.66532473  0.66336343  1
  Bi3+  Bi71  1  0.66844939  0.16460686  0.50213437  1
  Bi3+  Bi72  1  0.16904553  0.33164229  0.50128377  1
  Bi3+  Bi73  1  0.66681888  0.66941803  -0.00125664  1
  Bi3+  Bi74  1  0.16514523  0.17135101  0.33569434  1
  Bi3+  Bi75  1  0.66834573  0.16848212  0.16466782  1
  Bi3+  Bi76  1  0.33026469  0.83452547  0.83332944  1
  Bi3+  Bi77  1  0.66439765  0.49879530  0.83214843  1
  Bi3+  Bi78  1  0.16664077  0.49805353  0.67354746  1
  Bi3+  Bi79  1  -0.00283338  0.16273285  0.82933448  1
  Bi3+  Bi80  1  0.66715157  0.67206292  0.33401326  1
  Bi3+  Bi81  1  0.33588967  0.65912289  0.33457707  1
  Bi3+  Bi82  1  0.00123916  0.16438400  0.16515817  1
  Bi3+  Bi83  1  0.66460081  0.16572082  0.83121632  1
  Bi3+  Bi84  1  -0.00727457  0.83408297  0.49691002  1
  Bi3+  Bi85  1  0.15925652  0.33311824  0.83273535  1
  Te2-  Te86  1  0.16271594  0.16624125  0.16524796  1
  Te2-  Te87  1  0.16165716  0.17148772  0.50260774  1
  Te2-  Te88  1  0.16251784  0.16758676  0.82958935  1
  Te2-  Te89  1  0.16942846  0.50222838  0.16055764  1
  Te2-  Te90  1  0.16898331  0.49775691  0.50914351  1
  Te2-  Te91  1  0.16409510  0.49892714  0.83526795  1
  Te2-  Te92  1  0.17117147  0.82770887  0.18016409  1
  Te2-  Te93  1  0.15956689  0.83376539  0.49103747  1
  Te2-  Te94  1  0.16329044  0.83120080  0.83613676  1
  Te2-  Te95  1  0.50822287  0.14760346  0.16225783  1
  Te2-  Te96  1  0.50106071  0.16971280  0.50766334  1
  Te2-  Te97  1  0.50197999  0.16327156  0.82727674  1
  Te2-  Te98  1  0.49868677  0.49478991  0.17665269  1
  Te2-  Te99  1  0.50589464  0.49083172  0.49566530  1
  Te2-  Te100  1  0.49839348  0.49941438  0.83200680  1
  Te2-  Te101  1  0.50963969  0.85139118  0.15879547  1
  Te2-  Te102  1  0.51335024  0.83435448  0.50357905  1
  Te2-  Te103  1  0.49973845  0.83435153  0.82945813  1
  Te2-  Te104  1  0.83398668  0.16727838  0.16418935  1
  Te2-  Te105  1  0.83115083  0.16943341  0.51335555  1
  Te2-  Te106  1  0.83065227  0.16102587  0.81445664  1
  Te2-  Te107  1  0.82428499  0.49467291  0.17851082  1
  Te2-  Te108  1  0.82220179  0.49712541  0.48690107  1
  Te2-  Te109  1  0.82951058  0.49922524  0.83030779  1
  Te2-  Te110  1  0.82772269  0.83639897  0.16667251  1
  Te2-  Te111  1  0.82732030  0.82899189  0.49968047  1
  Te2-  Te112  1  0.83147376  0.84217500  0.82943118  1
  Te2-  Te113  1  0.17377075  -0.00333853  -0.00192261  1
  Te2-  Te114  1  0.16476053  0.00585365  0.34395499  1
  Te2-  Te115  1  0.16892448  0.00651009  0.65443970  1
  Te2-  Te116  1  0.16553489  0.33077360  -0.00496069  1
  Te2-  Te117  1  0.16942316  0.33656613  0.33775368  1
  Te2-  Te118  1  0.17707858  0.33203631  0.66882328  1
  Te2-  Te119  1  0.16043400  0.67055477  -0.00454370  1
  Te2-  Te120  1  0.16593356  0.65622681  0.33034908  1
  Te2-  Te121  1  0.16361364  0.66460502  0.67159099  1
  Te2-  Te122  1  0.49720140  -0.00022793  -0.00740269  1
  Te2-  Te123  1  0.49902577  -0.00172642  0.33943644  1
  Te2-  Te124  1  0.50486686  -0.01316096  0.66531669  1
  Te2-  Te125  1  0.50024919  0.32875520  -0.00260691  1
  Te2-  Te126  1  0.49502457  0.33697543  0.33995859  1
  Te2-  Te127  1  0.48707814  0.33567071  0.66078693  1
  Te2-  Te128  1  0.50532122  0.67204756  0.00864972  1
  Te2-  Te129  1  0.50132695  0.65746667  0.32286429  1
  Te2-  Te130  1  0.49603885  0.67125032  0.66588719  1
  Te2-  Te131  1  0.82723815  0.00188952  -0.00544852  1
  Te2-  Te132  1  0.83835523  -0.00531707  0.33382800  1
  Te2-  Te133  1  0.82732345  -0.00969732  0.66750455  1
  Te2-  Te134  1  0.82752802  0.32514958  -0.00722428  1
  Te2-  Te135  1  0.83389332  0.33114460  0.33301205  1
  Te2-  Te136  1  0.83456756  0.33591257  0.66749902  1
  Te2-  Te137  1  0.82776171  0.66976467  -0.00582925  1
  Te2-  Te138  1  0.83187537  0.66646144  0.33362040  1
  Te2-  Te139  1  0.83570859  0.67088929  0.67134404  1
  Te2-  Te140  1  -0.00731070  0.16254845  -0.00520935  1
  Te2-  Te141  1  0.00366839  0.16872740  0.32873552  1
  Te2-  Te142  1  -0.00301676  0.15737095  0.66720503  1
  Te2-  Te143  1  -0.00339331  0.50483509  -0.00306777  1
  Te2-  Te144  1  0.01257656  0.50459078  0.33886871  1
  Te2-  Te145  1  0.00196378  0.50356597  0.66212593  1
  Te2-  Te146  1  -0.00023904  0.82587736  0.00869882  1
  Te2-  Te147  1  -0.00355304  0.82935561  0.33036110  1
  Te2-  Te148  1  -0.01205939  0.83921930  0.66268130  1
  Te2-  Te149  1  0.33188028  0.16492564  -0.01175071  1
  Te2-  Te150  1  0.32850445  0.17421557  0.33163386  1
  Te2-  Te151  1  0.33686400  0.16294821  0.68119414  1
  Te2-  Te152  1  0.33248069  0.51522550  -0.00394665  1
  Te2-  Te153  1  0.32171849  0.49643227  0.33160057  1
  Te2-  Te154  1  0.32966157  0.50424703  0.67460545  1
  Te2-  Te155  1  0.33376637  0.81640590  -0.00534384  1
  Te2-  Te156  1  0.33345144  0.82636275  0.33435924  1
  Te2-  Te157  1  0.32574958  0.82851420  0.66853329  1
  Te2-  Te158  1  0.67246819  0.16191463  -0.00621022  1
  Te2-  Te159  1  0.66798802  0.15552208  0.33604822  1
  Te2-  Te160  1  0.66283981  0.16452254  0.66902370  1
  Te2-  Te161  1  0.66530157  0.49738993  -0.00485185  1
  Te2-  Te162  1  0.66347669  0.50204706  0.33343325  1
  Te2-  Te163  1  0.66075842  0.49604221  0.67062762  1
  Te2-  Te164  1  0.66610836  0.83610657  -0.00732264  1
  Te2-  Te165  1  0.67023786  0.83475322  0.33568496  1
  Te2-  Te166  1  0.67806138  0.82459799  0.67078328  1
  Te2-  Te167  1  -0.00175417  -0.00304565  0.16567053  1
  Te2-  Te168  1  -0.00589135  -0.00355253  0.50396526  1
  Te2-  Te169  1  -0.00084908  -0.00114877  0.82714810  1
  Te2-  Te170  1  -0.00627912  0.32649314  0.16281473  1
  Te2-  Te171  1  0.00091516  0.33702611  0.49832333  1
  Te2-  Te172  1  -0.00527614  0.32730597  0.83572592  1
  Te2-  Te173  1  -0.00169984  0.66838005  0.16633209  1
  Te2-  Te174  1  -0.00466726  0.66764304  0.49853899  1
  Te2-  Te175  1  -0.00836154  0.66754094  0.83784561  1
  Te2-  Te176  1  0.33782194  0.01376653  0.16217264  1
  Te2-  Te177  1  0.33547662  0.01331217  0.50483279  1
  Te2-  Te178  1  0.32751490  -0.00617537  0.83495123  1
  Te2-  Te179  1  0.34580318  0.32129168  0.17159485  1
  Te2-  Te180  1  0.33357214  0.32004575  0.49707040  1
  Te2-  Te181  1  0.32574879  0.33480275  0.83462729  1
  Te2-  Te182  1  0.34057946  0.66315468  0.17129287  1
  Te2-  Te183  1  0.34654227  0.66452191  0.49841225  1
  Te2-  Te184  1  0.33007339  0.66839669  0.82885149  1
  Te2-  Te185  1  0.66973894  0.00578452  0.16490026  1
  Te2-  Te186  1  0.66841312  0.00314312  0.51180753  1
  Te2-  Te187  1  0.66871137  -0.00117645  0.82680443  1
  Te2-  Te188  1  0.65182728  0.32820891  0.16179805  1
  Te2-  Te189  1  0.65848921  0.32682101  0.50143923  1
  Te2-  Te190  1  0.67226460  0.33153834  0.83274141  1
  Te2-  Te191  1  0.65642412  0.66868491  0.16442530  1
  Te2-  Te192  1  0.65264319  0.66075067  0.49738324  1
  Te2-  Te193  1  0.67107591  0.66568742  0.83191798  1
  Pb2+  Pb194  1  0.83055191  0.50470383  0.65390859  1
  Pb2+  Pb195  1  0.50188043  0.82638067  0.32587464  1
  Pb2+  Pb196  1  0.49890833  0.49927977  0.00769975  1
  Pb2+  Pb197  1  0.15672901  0.83817818  0.66363411  1
  Pb2+  Pb198  1  0.16727392  -0.00102239  0.17142164  1
  Pb2+  Pb199  1  0.83600145  0.16234839  0.34058638  1
  Pb2+  Pb200  1  0.83050658  0.49675558  0.00512431  1
  Pb2+  Pb201  1  0.66542880  0.32884853  0.32995133  1
  Pb2+  Pb202  1  0.82626196  0.66800572  0.16425426  1
  Pb2+  Pb203  1  0.33760533  0.83784834  0.50174202  1
  Pb2+  Pb204  1  0.49925488  0.16870397  0.33110034  1
  Pb2+  Pb205  1  0.33255526  0.33900332  0.00598820  1
  Pb2+  Pb206  1  0.50221308  0.33149369  0.82950162  1
  Pb2+  Pb207  1  0.00019254  -0.00553925  -0.00302495  1
  Pb2+  Pb208  1  0.16662958  0.33321575  0.17082181  1
  Pb2+  Pb209  1  -0.00546366  0.49372089  0.17259714  1
  Pb2+  Pb210  1  0.33162607  0.00266925  0.33469855  1
  Pb2+  Pb211  1  0.33826147  0.49115964  0.50123454  1
  Pb2+  Pb212  1  0.16941647  0.66930359  0.49798735  1
  Pb2+  Pb213  1  0.49973673  0.66709608  0.83662193  1
  Pb2+  Pb214  1  0.34308400  0.83882740  0.16108864  1
  Pb2+  Pb215  1  0.00741878  0.32939719  0.66646989  1
