# generated using pymatgen
data_In22Ag21Sn22Bi21(Te54Pb11)2
_symmetry_space_group_name_H-M   'P 1'
_cell_length_a   19.15749541
_cell_length_b   19.11766920
_cell_length_c   19.12103946
_cell_angle_alpha   90.00921405
_cell_angle_beta   89.99419908
_cell_angle_gamma   90.00501662
_symmetry_Int_Tables_number   1
_chemical_formula_structural   In22Ag21Sn22Bi21(Te54Pb11)2
_chemical_formula_sum   'In22 Ag21 Sn22 Bi21 Te108 Pb22'
_cell_volume   7003.01668240
_cell_formula_units_Z   1
loop_
 _symmetry_equiv_pos_site_id
 _symmetry_equiv_pos_as_xyz
  1  'x, y, z'
loop_
 _atom_type_symbol
 _atom_type_oxidation_number
  In3+  3.0
  Ag+  1.0
  Sn2+  2.0
  Bi3+  3.0
  Te2-  -2.0
  Pb2+  2.0
loop_
 _atom_site_type_symbol
 _atom_site_label
 _atom_site_symmetry_multiplicity
 _atom_site_fract_x
 _atom_site_fract_y
 _atom_site_fract_z
 _atom_site_occupancy
  In3+  In0  1  0.18078651  0.66588259  0.50284867  1
  In3+  In1  1  0.00044837  0.16824969  0.15518331  1
  In3+  In2  1  0.48873578  0.15999008  0.01179825  1
  In3+  In3  1  0.48610863  0.17866603  0.33869715  1
  In3+  In4  1  0.86030578  -0.00082812  0.49618235  1
  In3+  In5  1  0.66584121  0.48988375  0.84198537  1
  In3+  In6  1  0.66405357  0.32613003  0.01249646  1
  In3+  In7  1  0.67226425  -0.00047075  0.66180019  1
  In3+  In8  1  0.18271113  0.32729247  0.15486259  1
  In3+  In9  1  0.30855429  0.83455281  0.49262624  1
  In3+  In10  1  0.67596068  0.49502786  0.50033914  1
  In3+  In11  1  0.14688811  0.83339791  0.33491371  1
  In3+  In12  1  0.82793564  0.48634032  -0.00044885  1
  In3+  In13  1  -0.00996187  0.67407247  0.35143853  1
  In3+  In14  1  -0.00062288  0.82047460  0.15815725  1
  In3+  In15  1  0.02882183  0.66975466  0.65842410  1
  In3+  In16  1  0.83605260  0.02649486  0.83886694  1
  In3+  In17  1  0.32565763  0.02705200  -0.00155148  1
  In3+  In18  1  0.48878944  0.49567004  0.65866418  1
  In3+  In19  1  0.67076145  0.81396141  0.83830299  1
  In3+  In20  1  0.49979851  0.63997802  0.49299933  1
  In3+  In21  1  0.83362226  0.17222269  0.01948492  1
  Ag+  Ag22  1  0.31823559  0.18517058  0.50308706  1
  Ag+  Ag23  1  0.82506549  0.81873419  0.35743644  1
  Ag+  Ag24  1  0.16740425  0.02434313  0.48033018  1
  Ag+  Ag25  1  0.64872805  0.17977485  0.15494605  1
  Ag+  Ag26  1  0.34150490  0.48607604  0.49937231  1
  Ag+  Ag27  1  0.31003073  0.50091661  0.85785781  1
  Ag+  Ag28  1  0.80913091  0.33782350  0.80747465  1
  Ag+  Ag29  1  0.64244294  0.63998614  -0.02118080  1
  Ag+  Ag30  1  -0.01683715  0.02127786  0.00192172  1
  Ag+  Ag31  1  0.35010201  0.16558874  0.14784597  1
  Ag+  Ag32  1  -0.01088709  0.30797250  0.63712508  1
  Ag+  Ag33  1  0.50817701  0.33989527  0.16444197  1
  Ag+  Ag34  1  0.69095244  0.66344729  0.35582556  1
  Ag+  Ag35  1  0.33720417  0.65232193  0.64090938  1
  Ag+  Ag36  1  0.18753088  0.16803439  -0.01558743  1
  Ag+  Ag37  1  0.02467059  0.13998680  0.50278362  1
  Ag+  Ag38  1  0.20107743  0.63416850  0.86561274  1
  Ag+  Ag39  1  0.00367477  0.84220221  0.48168770  1
  Ag+  Ag40  1  0.82728190  0.34914941  0.15363210  1
  Ag+  Ag41  1  0.48158775  0.33083843  0.52043652  1
  Ag+  Ag42  1  0.36505969  0.34405818  0.03100720  1
  Sn2+  Sn43  1  0.17017216  0.33563074  0.49623248  1
  Sn2+  Sn44  1  0.49231656  0.33682094  0.84187389  1
  Sn2+  Sn45  1  -0.00282443  0.49163882  0.16882922  1
  Sn2+  Sn46  1  0.50043920  0.00977551  0.17295188  1
  Sn2+  Sn47  1  -0.00008095  0.17323975  0.82490581  1
  Sn2+  Sn48  1  0.49497260  0.49668822  -0.00661628  1
  Sn2+  Sn49  1  0.50103196  0.49536738  0.32995711  1
  Sn2+  Sn50  1  0.51235964  0.83274397  0.33924956  1
  Sn2+  Sn51  1  0.48603857  0.00529388  0.49963089  1
  Sn2+  Sn52  1  0.33000013  -0.00626328  0.66410546  1
  Sn2+  Sn53  1  0.84168837  0.66548731  0.83569197  1
  Sn2+  Sn54  1  0.83378845  0.83379397  0.66190263  1
  Sn2+  Sn55  1  0.00127871  0.49976042  0.49917137  1
  Sn2+  Sn56  1  0.16117839  0.00527270  0.16652902  1
  Sn2+  Sn57  1  0.83102103  0.00027031  0.16755421  1
  Sn2+  Sn58  1  0.17261469  0.50230737  0.33530676  1
  Sn2+  Sn59  1  0.82616294  0.67427731  0.50981448  1
  Sn2+  Sn60  1  0.33294952  0.32953841  0.33298676  1
  Sn2+  Sn61  1  0.83145104  0.32579021  0.49781870  1
  Sn2+  Sn62  1  0.50747552  0.66021099  0.17337281  1
  Sn2+  Sn63  1  0.66792066  0.83523730  0.50000633  1
  Sn2+  Sn64  1  0.65418803  0.66915131  0.66139494  1
  Bi3+  Bi65  1  -0.00410445  0.83543907  0.83442802  1
  Bi3+  Bi66  1  -0.00134444  0.33386748  0.00298254  1
  Bi3+  Bi67  1  0.83258339  0.16979633  0.66659149  1
  Bi3+  Bi68  1  0.16562379  -0.00086360  0.83459062  1
  Bi3+  Bi69  1  0.83438905  0.83205925  -0.00384618  1
  Bi3+  Bi70  1  0.16607666  0.33210398  0.83195773  1
  Bi3+  Bi71  1  0.50284427  0.66302151  0.82906144  1
  Bi3+  Bi72  1  0.17091229  0.83287377  0.66609815  1
  Bi3+  Bi73  1  0.50030993  0.83168101  0.66164645  1
  Bi3+  Bi74  1  0.16485258  0.16921537  0.33346514  1
  Bi3+  Bi75  1  -0.00061782  0.66849402  -0.00329746  1
  Bi3+  Bi76  1  0.33585444  0.65781528  0.00162208  1
  Bi3+  Bi77  1  0.66827121  0.83444357  0.16975563  1
  Bi3+  Bi78  1  0.16808512  0.49962858  0.65986985  1
  Bi3+  Bi79  1  0.83431470  0.16401911  0.33637572  1
  Bi3+  Bi80  1  0.66659777  0.16893218  0.49199918  1
  Bi3+  Bi81  1  0.32649039  0.33769028  0.66477692  1
  Bi3+  Bi82  1  -0.00078741  0.33417474  0.33327568  1
  Bi3+  Bi83  1  0.33413558  0.66858888  0.33292296  1
  Bi3+  Bi84  1  0.66739712  0.33467721  0.33105458  1
  Bi3+  Bi85  1  0.66843982  0.17020720  0.83751464  1
  Te2-  Te86  1  0.15595607  0.17181710  0.17511528  1
  Te2-  Te87  1  0.16960804  0.17071187  0.49721206  1
  Te2-  Te88  1  0.16677625  0.16556745  0.83685134  1
  Te2-  Te89  1  0.16657139  0.48840511  0.16788985  1
  Te2-  Te90  1  0.16953079  0.50816845  0.49868846  1
  Te2-  Te91  1  0.16551341  0.49756070  0.82552946  1
  Te2-  Te92  1  0.16089810  0.83625778  0.17492189  1
  Te2-  Te93  1  0.15382554  0.82283167  0.50123931  1
  Te2-  Te94  1  0.16234740  0.83405945  0.83030731  1
  Te2-  Te95  1  0.50255401  0.16691786  0.16458147  1
  Te2-  Te96  1  0.50559455  0.17802346  0.49155315  1
  Te2-  Te97  1  0.50608560  0.17016231  0.83727558  1
  Te2-  Te98  1  0.50057749  0.48996554  0.16410187  1
  Te2-  Te99  1  0.49196183  0.48762308  0.50084326  1
  Te2-  Te100  1  0.51134307  0.50113496  0.82690501  1
  Te2-  Te101  1  0.50292716  0.83671798  0.17197778  1
  Te2-  Te102  1  0.50886420  0.84157514  0.50087863  1
  Te2-  Te103  1  0.50651762  0.82917796  0.82961582  1
  Te2-  Te104  1  0.84106010  0.15975246  0.17334837  1
  Te2-  Te105  1  0.82899493  0.15908740  0.50156691  1
  Te2-  Te106  1  0.83059323  0.18483412  0.82806587  1
  Te2-  Te107  1  0.83247565  0.49778765  0.15996107  1
  Te2-  Te108  1  0.83024563  0.50259547  0.50098615  1
  Te2-  Te109  1  0.82334592  0.48846714  0.83979187  1
  Te2-  Te110  1  0.83765735  0.83943144  0.16034126  1
  Te2-  Te111  1  0.83918088  0.84091362  0.50259305  1
  Te2-  Te112  1  0.83150188  0.83380072  0.83269463  1
  Te2-  Te113  1  0.17284175  0.01508719  -0.00220612  1
  Te2-  Te114  1  0.16564350  -0.00299799  0.33467729  1
  Te2-  Te115  1  0.16736356  -0.00445162  0.67201716  1
  Te2-  Te116  1  0.16100537  0.31995398  0.00138433  1
  Te2-  Te117  1  0.16141840  0.33300234  0.32964036  1
  Te2-  Te118  1  0.15849295  0.33733557  0.66621292  1
  Te2-  Te119  1  0.16638399  0.66600246  0.00447000  1
  Te2-  Te120  1  0.16765271  0.67329394  0.34138147  1
  Te2-  Te121  1  0.18483521  0.66761494  0.66259984  1
  Te2-  Te122  1  0.49738222  0.00572334  0.00190439  1
  Te2-  Te123  1  0.49879994  0.00600999  0.33361992  1
  Te2-  Te124  1  0.49577474  -0.00313789  0.66487931  1
  Te2-  Te125  1  0.50871446  0.32793713  0.01015819  1
  Te2-  Te126  1  0.50586040  0.33133229  0.31715920  1
  Te2-  Te127  1  0.49561412  0.33957580  0.66778902  1
  Te2-  Te128  1  0.49957178  0.66301185  0.00001757  1
  Te2-  Te129  1  0.49618467  0.66400524  0.33731087  1
  Te2-  Te130  1  0.48902912  0.66771406  0.66263944  1
  Te2-  Te131  1  0.83699730  -0.00088339  -0.00326430  1
  Te2-  Te132  1  0.83391993  -0.00199888  0.33961318  1
  Te2-  Te133  1  0.82786040  0.00389017  0.66260303  1
  Te2-  Te134  1  0.83337599  0.32996171  0.00554007  1
  Te2-  Te135  1  0.83337493  0.33042747  0.33476145  1
  Te2-  Te136  1  0.84503233  0.33505328  0.66328906  1
  Te2-  Te137  1  0.83725543  0.66836451  -0.00364971  1
  Te2-  Te138  1  0.83657057  0.67248136  0.33736125  1
  Te2-  Te139  1  0.82150398  0.67183701  0.66860247  1
  Te2-  Te140  1  -0.01265879  0.16988664  -0.00189807  1
  Te2-  Te141  1  -0.00076639  0.17026766  0.35350773  1
  Te2-  Te142  1  -0.00420244  0.16294273  0.65552141  1
  Te2-  Te143  1  -0.00346716  0.50211985  0.00271986  1
  Te2-  Te144  1  0.00403768  0.50267398  0.33094162  1
  Te2-  Te145  1  0.00397375  0.51613539  0.66582150  1
  Te2-  Te146  1  0.00063951  0.83263697  -0.00007498  1
  Te2-  Te147  1  -0.00590478  0.82853689  0.33500464  1
  Te2-  Te148  1  0.00447702  0.82330769  0.67185401  1
  Te2-  Te149  1  0.33612706  0.18288043  -0.00074733  1
  Te2-  Te150  1  0.33182985  0.16936241  0.35041060  1
  Te2-  Te151  1  0.33400995  0.16846152  0.65535479  1
  Te2-  Te152  1  0.33569263  0.48922568  0.00434555  1
  Te2-  Te153  1  0.33243848  0.50348480  0.34591974  1
  Te2-  Te154  1  0.33373405  0.50202454  0.65211037  1
  Te2-  Te155  1  0.33358829  0.82414882  0.00067678  1
  Te2-  Te156  1  0.33986491  0.83193986  0.33830890  1
  Te2-  Te157  1  0.33506546  0.82988983  0.66216640  1
  Te2-  Te158  1  0.67717409  0.16881843  0.00581181  1
  Te2-  Te159  1  0.67259254  0.17018664  0.32856936  1
  Te2-  Te160  1  0.66892439  0.16916951  0.66556002  1
  Te2-  Te161  1  0.66868567  0.49701504  -0.00127606  1
  Te2-  Te162  1  0.66531543  0.50751989  0.34228870  1
  Te2-  Te163  1  0.65990322  0.50183060  0.65334036  1
  Te2-  Te164  1  0.67197236  0.82993889  -0.00012439  1
  Te2-  Te165  1  0.67730105  0.82064546  0.33168369  1
  Te2-  Te166  1  0.66308786  0.83980578  0.67041184  1
  Te2-  Te167  1  0.00323956  0.00936773  0.15361122  1
  Te2-  Te168  1  0.01089932  -0.00824096  0.50009044  1
  Te2-  Te169  1  0.00008099  0.00148006  0.84482759  1
  Te2-  Te170  1  -0.01613028  0.32743086  0.16872524  1
  Te2-  Te171  1  -0.00085928  0.34140814  0.49457996  1
  Te2-  Te172  1  0.00517596  0.33216824  0.84002401  1
  Te2-  Te173  1  -0.00111527  0.66579950  0.16359511  1
  Te2-  Te174  1  -0.00810942  0.66682811  0.50251209  1
  Te2-  Te175  1  0.00190338  0.67257410  0.83193126  1
  Te2-  Te176  1  0.33044411  0.01396681  0.15623077  1
  Te2-  Te177  1  0.31829809  -0.01158174  0.50338540  1
  Te2-  Te178  1  0.33172637  0.00107505  0.83965271  1
  Te2-  Te179  1  0.33294436  0.31649037  0.17222981  1
  Te2-  Te180  1  0.33397333  0.33429579  0.50153151  1
  Te2-  Te181  1  0.33015451  0.34667230  0.82610626  1
  Te2-  Te182  1  0.33704036  0.66633546  0.16739893  1
  Te2-  Te183  1  0.34145107  0.67730203  0.49421805  1
  Te2-  Te184  1  0.34313256  0.65237208  0.84019984  1
  Te2-  Te185  1  0.66601747  -0.00228515  0.16842030  1
  Te2-  Te186  1  0.65815474  0.00687828  0.50557773  1
  Te2-  Te187  1  0.67323616  0.01031155  0.82655804  1
  Te2-  Te188  1  0.67476759  0.32548757  0.16598168  1
  Te2-  Te189  1  0.66401531  0.33544954  0.49388719  1
  Te2-  Te190  1  0.66402137  0.33444847  0.83798707  1
  Te2-  Te191  1  0.66188482  0.67109752  0.16589969  1
  Te2-  Te192  1  0.65535650  0.66419961  0.49940285  1
  Te2-  Te193  1  0.66766098  0.65808368  0.83371756  1
  Pb2+  Pb194  1  0.33113114  0.82448008  0.83171793  1
  Pb2+  Pb195  1  0.16912889  0.84485576  0.00208947  1
  Pb2+  Pb196  1  0.49954061  0.16729895  0.66116502  1
  Pb2+  Pb197  1  0.83285043  0.50596080  0.66892112  1
  Pb2+  Pb198  1  -0.00574008  0.50035380  0.83379974  1
  Pb2+  Pb199  1  0.16576461  0.16762002  0.66888954  1
  Pb2+  Pb200  1  -0.00041084  0.00414562  0.32322583  1
  Pb2+  Pb201  1  0.67087285  -0.00126202  -0.00062416  1
  Pb2+  Pb202  1  0.33447396  0.84255298  0.16785422  1
  Pb2+  Pb203  1  0.82814608  0.66949317  0.16463570  1
  Pb2+  Pb204  1  0.16622694  0.66303767  0.17307687  1
  Pb2+  Pb205  1  0.16626780  0.49002170  -0.00103332  1
  Pb2+  Pb206  1  0.66478694  0.49943473  0.17040969  1
  Pb2+  Pb207  1  0.67098167  0.33729827  0.66550319  1
  Pb2+  Pb208  1  0.50306440  0.83314401  0.00502055  1
  Pb2+  Pb209  1  0.83521488  0.50182551  0.33341916  1
  Pb2+  Pb210  1  0.33681433  0.17639464  0.82627658  1
  Pb2+  Pb211  1  -0.00370488  -0.00533301  0.67285818  1
  Pb2+  Pb212  1  0.33245901  0.00266401  0.33202940  1
  Pb2+  Pb213  1  0.66606166  -0.00457292  0.33776542  1
  Pb2+  Pb214  1  0.33569304  0.49139698  0.17809380  1
  Pb2+  Pb215  1  0.50449139  -0.00003617  0.83251419  1
