# generated using pymatgen
data_In22Ag21Sn22Bi21(Te54Pb11)2
_symmetry_space_group_name_H-M   'P 1'
_cell_length_a   19.14756088
_cell_length_b   19.13945452
_cell_length_c   19.16949045
_cell_angle_alpha   89.98396958
_cell_angle_beta   90.00372879
_cell_angle_gamma   90.00134822
_symmetry_Int_Tables_number   1
_chemical_formula_structural   In22Ag21Sn22Bi21(Te54Pb11)2
_chemical_formula_sum   'In22 Ag21 Sn22 Bi21 Te108 Pb22'
_cell_volume   7025.11706955
_cell_formula_units_Z   1
loop_
 _symmetry_equiv_pos_site_id
 _symmetry_equiv_pos_as_xyz
  1  'x, y, z'
loop_
 _atom_type_symbol
 _atom_type_oxidation_number
  In3+  3.0
  Ag+  1.0
  Sn2+  2.0
  Bi3+  3.0
  Te2-  -2.0
  Pb2+  2.0
loop_
 _atom_site_type_symbol
 _atom_site_label
 _atom_site_symmetry_multiplicity
 _atom_site_fract_x
 _atom_site_fract_y
 _atom_site_fract_z
 _atom_site_occupancy
  In3+  In0  1  0.30510512  0.51697646  0.84074831  1
  In3+  In1  1  0.83087263  0.16899682  0.66411486  1
  In3+  In2  1  0.69532804  0.50371305  0.81939144  1
  In3+  In3  1  0.82905773  -0.00468762  0.50551963  1
  In3+  In4  1  0.34486844  0.84786303  0.18623612  1
  In3+  In5  1  0.83487298  0.33663769  0.49656280  1
  In3+  In6  1  0.14936407  0.33992564  0.16768818  1
  In3+  In7  1  0.35943921  0.17570966  0.17929355  1
  In3+  In8  1  0.35726418  -0.00270809  -0.01004315  1
  In3+  In9  1  0.33589433  0.64817042  0.65734549  1
  In3+  In10  1  0.48448628  0.50030985  0.33043195  1
  In3+  In11  1  -0.00167731  0.17440371  0.49811205  1
  In3+  In12  1  0.83849163  0.82897504  0.00581428  1
  In3+  In13  1  0.84149647  0.82237293  0.33187077  1
  In3+  In14  1  0.49310343  0.65046513  0.16995934  1
  In3+  In15  1  0.34606051  0.86124916  0.51089314  1
  In3+  In16  1  0.51266354  0.49751965  -0.01356043  1
  In3+  In17  1  0.00299573  0.16757695  0.18265542  1
  In3+  In18  1  -0.00103996  0.34159178  -0.00657424  1
  In3+  In19  1  -0.00014070  0.64779460  -0.00228894  1
  In3+  In20  1  0.81262320  -0.00200790  0.82853750  1
  In3+  In21  1  0.83329971  0.00326711  0.18740749  1
  Ag+  Ag22  1  0.00174562  0.51483330  0.81177049  1
  Ag+  Ag23  1  0.47325904  0.13872276  0.33675940  1
  Ag+  Ag24  1  0.16116974  0.48548116  -0.01546415  1
  Ag+  Ag25  1  0.35966194  0.00244307  0.64140044  1
  Ag+  Ag26  1  0.83506512  0.14157528  0.35752564  1
  Ag+  Ag27  1  0.02243868  0.33636425  0.63990150  1
  Ag+  Ag28  1  0.35971620  0.16867760  0.47492753  1
  Ag+  Ag29  1  0.47632557  0.00159836  0.52017491  1
  Ag+  Ag30  1  0.02360959  0.52971386  0.52167204  1
  Ag+  Ag31  1  0.35651637  0.33800413  0.30795022  1
  Ag+  Ag32  1  0.70125860  0.69015787  0.69404230  1
  Ag+  Ag33  1  0.00260550  0.52684677  0.15317463  1
  Ag+  Ag34  1  0.84447822  0.69207333  0.83600726  1
  Ag+  Ag35  1  0.50265376  0.01953043  0.81235522  1
  Ag+  Ag36  1  0.02458545  0.64931023  0.36342694  1
  Ag+  Ag37  1  0.47401037  0.35382008  0.19825173  1
  Ag+  Ag38  1  0.65205223  -0.02302476  0.66471213  1
  Ag+  Ag39  1  0.17853885  0.50204184  0.64447294  1
  Ag+  Ag40  1  0.49633835  0.64276060  0.52318830  1
  Ag+  Ag41  1  0.47570739  0.01671556  0.16724795  1
  Ag+  Ag42  1  0.64030171  0.34110970  0.02226219  1
  Sn2+  Sn43  1  0.82836879  0.33276543  0.16815279  1
  Sn2+  Sn44  1  0.16185076  0.16519696  0.00441725  1
  Sn2+  Sn45  1  0.83146846  0.16434943  0.00099951  1
  Sn2+  Sn46  1  0.50187895  0.82873906  0.00453463  1
  Sn2+  Sn47  1  0.00808323  0.83237883  0.16816920  1
  Sn2+  Sn48  1  0.33088073  0.65917043  0.33813693  1
  Sn2+  Sn49  1  0.49859165  0.83871864  0.66993808  1
  Sn2+  Sn50  1  0.65817815  0.00860627  0.33935030  1
  Sn2+  Sn51  1  0.16531784  0.83185728  0.00868632  1
  Sn2+  Sn52  1  0.16637403  0.83426179  0.33063084  1
  Sn2+  Sn53  1  0.16298718  0.00116913  0.15779793  1
  Sn2+  Sn54  1  0.15843473  0.66071773  0.83143778  1
  Sn2+  Sn55  1  0.17656460  -0.00323718  0.82963862  1
  Sn2+  Sn56  1  0.17101788  0.82713725  0.66677701  1
  Sn2+  Sn57  1  0.49732745  0.16285980  0.65816026  1
  Sn2+  Sn58  1  0.00278682  0.01793310  0.66679787  1
  Sn2+  Sn59  1  0.66514170  0.00672103  -0.00481625  1
  Sn2+  Sn60  1  0.17045808  0.33363470  0.49648222  1
  Sn2+  Sn61  1  0.67490612  0.49432467  0.16703408  1
  Sn2+  Sn62  1  0.50537452  0.83511877  0.33213209  1
  Sn2+  Sn63  1  0.16743929  0.17072348  0.66633143  1
  Sn2+  Sn64  1  0.16808736  0.65703464  0.16179916  1
  Bi3+  Bi65  1  -0.00206008  0.34114011  0.33372986  1
  Bi3+  Bi66  1  0.00477244  0.83402008  0.50176707  1
  Bi3+  Bi67  1  0.83561948  0.49951237  0.33014841  1
  Bi3+  Bi68  1  0.33570137  0.83649768  0.82929452  1
  Bi3+  Bi69  1  0.67287476  0.16371312  0.16736749  1
  Bi3+  Bi70  1  0.83200234  0.32919588  0.83561599  1
  Bi3+  Bi71  1  0.50094779  0.33107334  0.83276993  1
  Bi3+  Bi72  1  0.16171535  0.50004225  0.33277097  1
  Bi3+  Bi73  1  0.66998065  0.33535367  0.66973818  1
  Bi3+  Bi74  1  0.66100091  0.67090052  0.33346582  1
  Bi3+  Bi75  1  0.33294647  0.16377617  0.83348119  1
  Bi3+  Bi76  1  0.66599190  0.50339359  0.49560070  1
  Bi3+  Bi77  1  0.00386505  0.65505864  0.67266942  1
  Bi3+  Bi78  1  0.00072276  0.16610561  0.82979977  1
  Bi3+  Bi79  1  0.83649856  0.49502589  0.66454216  1
  Bi3+  Bi80  1  -0.00476366  0.00517567  -0.00402930  1
  Bi3+  Bi81  1  0.66009407  0.83245922  0.49816969  1
  Bi3+  Bi82  1  0.66422052  0.83467281  0.16597234  1
  Bi3+  Bi83  1  0.32936521  0.32240246  0.66552466  1
  Bi3+  Bi84  1  0.66237744  0.83257560  0.83639019  1
  Bi3+  Bi85  1  0.49881453  0.32207232  0.50183584  1
  Te2-  Te86  1  0.15602530  0.16965525  0.16374102  1
  Te2-  Te87  1  0.15291393  0.16834168  0.50261730  1
  Te2-  Te88  1  0.16695955  0.16566553  0.83385358  1
  Te2-  Te89  1  0.15398632  0.49712713  0.17176256  1
  Te2-  Te90  1  0.16491706  0.49747348  0.49556796  1
  Te2-  Te91  1  0.15212573  0.50198345  0.83665938  1
  Te2-  Te92  1  0.17393781  0.83133332  0.16806685  1
  Te2-  Te93  1  0.16889872  0.83375778  0.49929778  1
  Te2-  Te94  1  0.17306707  0.83101965  0.83374285  1
  Te2-  Te95  1  0.50799847  0.16293227  0.18313158  1
  Te2-  Te96  1  0.50509986  0.15906022  0.48824599  1
  Te2-  Te97  1  0.49778467  0.16627013  0.83432705  1
  Te2-  Te98  1  0.50114849  0.49564610  0.17274659  1
  Te2-  Te99  1  0.50157642  0.49485635  0.49540279  1
  Te2-  Te100  1  0.49175615  0.49568982  0.83683345  1
  Te2-  Te101  1  0.49956581  0.83321568  0.16375840  1
  Te2-  Te102  1  0.49815897  0.85127200  0.49979320  1
  Te2-  Te103  1  0.50060258  0.83546689  0.83799422  1
  Te2-  Te104  1  0.83841856  0.16002965  0.16113368  1
  Te2-  Te105  1  0.84081719  0.16315689  0.50503313  1
  Te2-  Te106  1  0.83547671  0.16347347  0.83170798  1
  Te2-  Te107  1  0.84564194  0.50151546  0.16663179  1
  Te2-  Te108  1  0.82912582  0.49935843  0.49823247  1
  Te2-  Te109  1  0.85079929  0.49061162  0.83102333  1
  Te2-  Te110  1  0.83088657  0.83933803  0.16497172  1
  Te2-  Te111  1  0.83145888  0.83274178  0.49692220  1
  Te2-  Te112  1  0.82714748  0.83915313  0.83267150  1
  Te2-  Te113  1  0.15835425  -0.00266476  -0.00150482  1
  Te2-  Te114  1  0.16623573  -0.00172124  0.32891876  1
  Te2-  Te115  1  0.16082720  -0.00016741  0.67190085  1
  Te2-  Te116  1  0.15717392  0.33791399  0.00947073  1
  Te2-  Te117  1  0.15963866  0.33525298  0.32780049  1
  Te2-  Te118  1  0.16772776  0.34293603  0.66342792  1
  Te2-  Te119  1  0.15636619  0.67143396  0.00003651  1
  Te2-  Te120  1  0.16696763  0.66589619  0.32917067  1
  Te2-  Te121  1  0.16736647  0.65480911  0.66789901  1
  Te2-  Te122  1  0.50661175  -0.00073630  0.01833580  1
  Te2-  Te123  1  0.50431379  -0.00468231  0.31719735  1
  Te2-  Te124  1  0.50685757  0.00537613  0.66545183  1
  Te2-  Te125  1  0.49649331  0.34178954  -0.00502342  1
  Te2-  Te126  1  0.50010832  0.34145100  0.34162851  1
  Te2-  Te127  1  0.49967591  0.33097736  0.66691148  1
  Te2-  Te128  1  0.49574214  0.65532835  0.00716563  1
  Te2-  Te129  1  0.49760811  0.66174361  0.32572068  1
  Te2-  Te130  1  0.48739211  0.66963809  0.66680572  1
  Te2-  Te131  1  0.83145453  -0.00321834  -0.01526899  1
  Te2-  Te132  1  0.83267169  -0.00616049  0.34003922  1
  Te2-  Te133  1  0.83632566  0.00878556  0.66960826  1
  Te2-  Te134  1  0.84139426  0.33071179  -0.00093154  1
  Te2-  Te135  1  0.83643413  0.33675028  0.33358820  1
  Te2-  Te136  1  0.83159604  0.32998146  0.66901281  1
  Te2-  Te137  1  0.83876346  0.67123279  -0.01248024  1
  Te2-  Te138  1  0.82644704  0.66662746  0.33193397  1
  Te2-  Te139  1  0.84221918  0.66057402  0.67669945  1
  Te2-  Te140  1  -0.00003812  0.16643117  -0.00578723  1
  Te2-  Te141  1  -0.01529172  0.16628958  0.33478585  1
  Te2-  Te142  1  -0.00197357  0.18308263  0.66696839  1
  Te2-  Te143  1  0.00945103  0.49643963  0.00854566  1
  Te2-  Te144  1  -0.00307414  0.50546075  0.33714684  1
  Te2-  Te145  1  -0.00276079  0.49122309  0.66134340  1
  Te2-  Te146  1  -0.00643897  0.84231852  0.00108234  1
  Te2-  Te147  1  -0.00279014  0.82091812  0.33610920  1
  Te2-  Te148  1  0.00497926  0.82801835  0.66655504  1
  Te2-  Te149  1  0.33023299  0.15470141  -0.00361709  1
  Te2-  Te150  1  0.32968133  0.17828618  0.32759401  1
  Te2-  Te151  1  0.32971317  0.15878761  0.67236204  1
  Te2-  Te152  1  0.31279217  0.50261977  -0.00684879  1
  Te2-  Te153  1  0.32874148  0.48762614  0.33011232  1
  Te2-  Te154  1  0.32397783  0.49402852  0.67311262  1
  Te2-  Te155  1  0.33456710  0.84131958  -0.00665455  1
  Te2-  Te156  1  0.33429113  0.82875051  0.33564752  1
  Te2-  Te157  1  0.33144647  0.85196654  0.66417230  1
  Te2-  Te158  1  0.66607837  0.17404073  0.00509480  1
  Te2-  Te159  1  0.68780074  0.16401205  0.32896490  1
  Te2-  Te160  1  0.67189606  0.17303633  0.66625243  1
  Te2-  Te161  1  0.66497213  0.49002314  0.00889048  1
  Te2-  Te162  1  0.67083541  0.50576642  0.33206583  1
  Te2-  Te163  1  0.66862512  0.50073129  0.65941322  1
  Te2-  Te164  1  0.67063524  0.83447192  0.00101877  1
  Te2-  Te165  1  0.67159598  0.83489293  0.33151823  1
  Te2-  Te166  1  0.66502873  0.82934912  0.66506843  1
  Te2-  Te167  1  -0.00690693  0.00275870  0.16148054  1
  Te2-  Te168  1  -0.00859041  -0.00537596  0.50226976  1
  Te2-  Te169  1  0.00373392  0.00340258  0.83142867  1
  Te2-  Te170  1  -0.00342137  0.32427222  0.16943615  1
  Te2-  Te171  1  -0.00164707  0.32833969  0.49490192  1
  Te2-  Te172  1  -0.00440740  0.32759299  0.83974016  1
  Te2-  Te173  1  0.00048416  0.67502505  0.15280404  1
  Te2-  Te174  1  -0.00298528  0.67331336  0.50573390  1
  Te2-  Te175  1  -0.00832071  0.66242209  0.83867956  1
  Te2-  Te176  1  0.32717511  -0.00201435  0.16120523  1
  Te2-  Te177  1  0.33124425  0.01387088  0.49674798  1
  Te2-  Te178  1  0.34747144  -0.00084117  0.83661443  1
  Te2-  Te179  1  0.33388471  0.32410498  0.16252803  1
  Te2-  Te180  1  0.33535726  0.31676677  0.50572241  1
  Te2-  Te181  1  0.33526459  0.32928427  0.82839911  1
  Te2-  Te182  1  0.33834247  0.66558453  0.16963986  1
  Te2-  Te183  1  0.34495412  0.66144060  0.50431233  1
  Te2-  Te184  1  0.32854513  0.67098750  0.82755070  1
  Te2-  Te185  1  0.68002905  -0.00371759  0.16446339  1
  Te2-  Te186  1  0.67561416  -0.00798389  0.51074244  1
  Te2-  Te187  1  0.65683095  -0.00400549  0.82237644  1
  Te2-  Te188  1  0.67060283  0.32986469  0.16480399  1
  Te2-  Te189  1  0.66524930  0.33716433  0.50417004  1
  Te2-  Te190  1  0.66644163  0.34081484  0.83208763  1
  Te2-  Te191  1  0.66071781  0.67118747  0.16824453  1
  Te2-  Te192  1  0.64760354  0.66890118  0.49631411  1
  Te2-  Te193  1  0.66732952  0.66499287  0.83394993  1
  Pb2+  Pb194  1  0.66577831  0.33291279  0.33294366  1
  Pb2+  Pb195  1  0.00338967  0.83305904  0.83473538  1
  Pb2+  Pb196  1  0.33520494  0.48792380  0.50070316  1
  Pb2+  Pb197  1  0.32671798  0.49745475  0.15878501  1
  Pb2+  Pb198  1  0.33823165  0.00415701  0.32991835  1
  Pb2+  Pb199  1  0.66723457  0.66138098  -0.00200963  1
  Pb2+  Pb200  1  0.00112245  -0.00993986  0.33259671  1
  Pb2+  Pb201  1  0.32667538  0.67207411  0.00144227  1
  Pb2+  Pb202  1  0.16300898  0.33485451  0.83172964  1
  Pb2+  Pb203  1  0.83328112  0.66778402  0.16108552  1
  Pb2+  Pb204  1  0.16300924  0.00087897  0.50494214  1
  Pb2+  Pb205  1  0.81975374  0.66532328  0.50430787  1
  Pb2+  Pb206  1  0.83660094  0.49772868  -0.00193432  1
  Pb2+  Pb207  1  0.66982403  0.16224613  0.49833541  1
  Pb2+  Pb208  1  0.50017644  0.66668606  0.83354801  1
  Pb2+  Pb209  1  0.15982858  0.16804486  0.33403272  1
  Pb2+  Pb210  1  0.32702478  0.33008800  -0.00408916  1
  Pb2+  Pb211  1  0.66589081  0.16889141  0.83323920  1
  Pb2+  Pb212  1  0.49848310  0.16993264  0.00993011  1
  Pb2+  Pb213  1  0.17630068  0.66857113  0.49814151  1
  Pb2+  Pb214  1  0.83779639  0.83823857  0.66509699  1
  Pb2+  Pb215  1  0.49935931  0.50174121  0.67078188  1
