# generated using pymatgen
data_In22Ag21Sn22Bi21(Te54Pb11)2
_symmetry_space_group_name_H-M   'P 1'
_cell_length_a   19.14125509
_cell_length_b   19.16718957
_cell_length_c   19.13701436
_cell_angle_alpha   90.00033967
_cell_angle_beta   90.00584454
_cell_angle_gamma   90.00846250
_symmetry_Int_Tables_number   1
_chemical_formula_structural   In22Ag21Sn22Bi21(Te54Pb11)2
_chemical_formula_sum   'In22 Ag21 Sn22 Bi21 Te108 Pb22'
_cell_volume   7021.06550570
_cell_formula_units_Z   1
loop_
 _symmetry_equiv_pos_site_id
 _symmetry_equiv_pos_as_xyz
  1  'x, y, z'
loop_
 _atom_type_symbol
 _atom_type_oxidation_number
  In3+  3.0
  Ag+  1.0
  Sn2+  2.0
  Bi3+  3.0
  Te2-  -2.0
  Pb2+  2.0
loop_
 _atom_site_type_symbol
 _atom_site_label
 _atom_site_symmetry_multiplicity
 _atom_site_fract_x
 _atom_site_fract_y
 _atom_site_fract_z
 _atom_site_occupancy
  In3+  In0  1  0.84894055  0.35629053  0.82468977  1
  In3+  In1  1  0.66723791  -0.01490619  0.35093843  1
  In3+  In2  1  0.15571288  0.67986874  0.83504688  1
  In3+  In3  1  0.67096766  0.14459855  0.17393633  1
  In3+  In4  1  0.82518102  0.50875811  -0.00443338  1
  In3+  In5  1  0.83399024  0.51497158  0.65668812  1
  In3+  In6  1  0.33723817  0.13662964  0.83568864  1
  In3+  In7  1  0.33123918  0.67970568  0.67118095  1
  In3+  In8  1  0.66839888  0.83054000  0.17622077  1
  In3+  In9  1  0.50315534  0.32674556  0.15588998  1
  In3+  In10  1  0.00634021  -0.00036939  0.34690450  1
  In3+  In11  1  0.50804487  0.82754372  -0.00395818  1
  In3+  In12  1  0.50544496  0.50611619  0.32597729  1
  In3+  In13  1  0.33067626  -0.00388189  0.00950917  1
  In3+  In14  1  0.17859185  0.51052259  0.32513852  1
  In3+  In15  1  0.16473360  0.85417159  0.66082734  1
  In3+  In16  1  0.66978665  0.32409773  -0.00398136  1
  In3+  In17  1  0.83537290  0.16695150  0.35167249  1
  In3+  In18  1  0.01270243  0.16505394  0.50939827  1
  In3+  In19  1  0.17778941  0.16858410  0.34607416  1
  In3+  In20  1  0.33464860  0.52955501  0.83254439  1
  In3+  In21  1  0.15960714  0.82098669  0.01815343  1
  Ag+  Ag22  1  -0.01116864  0.35816864  0.63226921  1
  Ag+  Ag23  1  0.30141905  0.69144618  0.36450087  1
  Ag+  Ag24  1  0.30849451  0.83345823  0.85133998  1
  Ag+  Ag25  1  0.68721940  0.50031018  0.83376980  1
  Ag+  Ag26  1  -0.02384624  -0.02931666  0.63822057  1
  Ag+  Ag27  1  0.19510631  0.66955782  0.18966782  1
  Ag+  Ag28  1  -0.02686653  0.36062056  0.00098735  1
  Ag+  Ag29  1  0.83470397  0.81235044  0.35616463  1
  Ag+  Ag30  1  0.49600734  0.69214089  0.83148385  1
  Ag+  Ag31  1  0.16344048  -0.02244485  0.47747803  1
  Ag+  Ag32  1  0.63264104  0.02424005  -0.00148470  1
  Ag+  Ag33  1  -0.01806046  0.65461197  -0.00236591  1
  Ag+  Ag34  1  0.35407490  0.13662234  0.47071357  1
  Ag+  Ag35  1  0.66726462  0.64798206  0.35803568  1
  Ag+  Ag36  1  0.52732574  0.13563281  0.00130568  1
  Ag+  Ag37  1  0.49645243  0.80545848  0.64362128  1
  Ag+  Ag38  1  -0.03210227  0.80652527  0.48054466  1
  Ag+  Ag39  1  0.81154390  0.33115890  0.52666864  1
  Ag+  Ag40  1  0.36825442  -0.02593914  0.33743642  1
  Ag+  Ag41  1  0.86862461  0.80594334  0.64374801  1
  Ag+  Ag42  1  0.80726248  0.66105165  0.83057300  1
  Sn2+  Sn43  1  0.33364803  0.32917619  -0.00886319  1
  Sn2+  Sn44  1  0.16632857  0.33361453  0.83775548  1
  Sn2+  Sn45  1  0.49791817  0.00430069  0.16418822  1
  Sn2+  Sn46  1  0.82964495  0.00067838  0.16860474  1
  Sn2+  Sn47  1  0.50514601  0.50264624  0.67316533  1
  Sn2+  Sn48  1  0.16490870  0.50085603  -0.00009113  1
  Sn2+  Sn49  1  0.84119448  0.16305742  -0.00406703  1
  Sn2+  Sn50  1  -0.00783952  0.82820489  0.17226781  1
  Sn2+  Sn51  1  -0.00278836  0.49156108  0.49604213  1
  Sn2+  Sn52  1  0.49868544  0.66647265  0.16839207  1
  Sn2+  Sn53  1  0.83780435  0.66131119  0.49643013  1
  Sn2+  Sn54  1  -0.00441390  0.83220304  0.83049120  1
  Sn2+  Sn55  1  0.00268803  0.67159284  0.67643984  1
  Sn2+  Sn56  1  0.49897650  0.33006235  0.49591155  1
  Sn2+  Sn57  1  0.67078323  0.82998001  0.50655386  1
  Sn2+  Sn58  1  0.16529358  -0.00037643  0.82762955  1
  Sn2+  Sn59  1  0.50260511  0.50103863  -0.00530920  1
  Sn2+  Sn60  1  0.32234996  0.33520621  0.67161747  1
  Sn2+  Sn61  1  0.83413167  0.67049547  0.16223633  1
  Sn2+  Sn62  1  -0.00456512  0.33071870  0.32297679  1
  Sn2+  Sn63  1  0.66407135  0.50993107  0.15855160  1
  Sn2+  Sn64  1  0.50550285  -0.00442133  0.83166041  1
  Bi3+  Bi65  1  0.33843071  0.67136797  -0.00258591  1
  Bi3+  Bi66  1  0.16838838  0.33453499  0.50258675  1
  Bi3+  Bi67  1  0.00254589  -0.00455272  -0.00030320  1
  Bi3+  Bi68  1  0.49713693  0.33301657  0.83518367  1
  Bi3+  Bi69  1  0.16703142  0.17047230  0.67014599  1
  Bi3+  Bi70  1  -0.00079352  0.50353006  0.16624630  1
  Bi3+  Bi71  1  0.66682312  0.66952703  -0.00250656  1
  Bi3+  Bi72  1  0.17061491  0.16224852  0.00282803  1
  Bi3+  Bi73  1  0.83890376  0.16440780  0.66930909  1
  Bi3+  Bi74  1  0.83639069  0.83233102  -0.00451832  1
  Bi3+  Bi75  1  0.33365157  0.16566547  0.16259784  1
  Bi3+  Bi76  1  0.83674223  -0.00448933  0.83464347  1
  Bi3+  Bi77  1  0.33027457  0.34247430  0.33500677  1
  Bi3+  Bi78  1  0.66994071  0.83121815  0.83493664  1
  Bi3+  Bi79  1  0.33272614  -0.00072935  0.66008088  1
  Bi3+  Bi80  1  0.16502326  0.49602838  0.66714082  1
  Bi3+  Bi81  1  0.49642766  0.17077119  0.67548822  1
  Bi3+  Bi82  1  0.66553624  0.66955855  0.67256551  1
  Bi3+  Bi83  1  0.33342841  0.83416921  0.50055537  1
  Bi3+  Bi84  1  0.83081220  0.33491631  0.16089918  1
  Bi3+  Bi85  1  0.33283813  0.49568027  0.50326489  1
  Te2-  Te86  1  0.16823055  0.16947097  0.16675098  1
  Te2-  Te87  1  0.16713495  0.17208535  0.50288996  1
  Te2-  Te88  1  0.17497593  0.16701645  0.83651065  1
  Te2-  Te89  1  0.16464273  0.51738760  0.16686142  1
  Te2-  Te90  1  0.16719989  0.49806740  0.50094503  1
  Te2-  Te91  1  0.17884299  0.49846087  0.83009488  1
  Te2-  Te92  1  0.16508350  0.82013503  0.17004016  1
  Te2-  Te93  1  0.16804524  0.83303242  0.50700869  1
  Te2-  Te94  1  0.16608482  0.83085992  0.81730798  1
  Te2-  Te95  1  0.49977214  0.17203206  0.15111048  1
  Te2-  Te96  1  0.49283362  0.16996171  0.50446888  1
  Te2-  Te97  1  0.49513901  0.16777689  0.84428364  1
  Te2-  Te98  1  0.50363813  0.49990163  0.16583331  1
  Te2-  Te99  1  0.49565992  0.49598683  0.50475145  1
  Te2-  Te100  1  0.48609947  0.49394453  0.83194843  1
  Te2-  Te101  1  0.50891310  0.83505284  0.16151904  1
  Te2-  Te102  1  0.50163320  0.83200388  0.49684588  1
  Te2-  Te103  1  0.50868064  0.83900757  0.84266934  1
  Te2-  Te104  1  0.82386041  0.17247497  0.15888201  1
  Te2-  Te105  1  0.83424541  0.17926142  0.50469358  1
  Te2-  Te106  1  0.83173142  0.16256679  0.83299443  1
  Te2-  Te107  1  0.83367533  0.49971384  0.15793379  1
  Te2-  Te108  1  0.83619686  0.48568408  0.50434604  1
  Te2-  Te109  1  0.83620767  0.50880969  0.83819744  1
  Te2-  Te110  1  0.82799715  0.83297402  0.15796612  1
  Te2-  Te111  1  0.82714462  0.83698470  0.50650557  1
  Te2-  Te112  1  0.83248851  0.83081259  0.83284167  1
  Te2-  Te113  1  0.17017547  -0.00597693  -0.00276594  1
  Te2-  Te114  1  0.15883624  0.01237031  0.33387310  1
  Te2-  Te115  1  0.17055735  0.00849908  0.66593148  1
  Te2-  Te116  1  0.17379354  0.32888711  -0.00010639  1
  Te2-  Te117  1  0.16529188  0.32928635  0.33551554  1
  Te2-  Te118  1  0.15123605  0.33402115  0.66903076  1
  Te2-  Te119  1  0.17755397  0.67242511  -0.01134880  1
  Te2-  Te120  1  0.16062830  0.66669969  0.33374644  1
  Te2-  Te121  1  0.17323232  0.65758196  0.67739602  1
  Te2-  Te122  1  0.48570318  -0.00610007  0.00025391  1
  Te2-  Te123  1  0.51449436  0.00235013  0.33121072  1
  Te2-  Te124  1  0.49643779  0.00986237  0.66993417  1
  Te2-  Te125  1  0.49882231  0.33894597  0.00034619  1
  Te2-  Te126  1  0.49431581  0.34049298  0.33034328  1
  Te2-  Te127  1  0.49875691  0.33178261  0.66995677  1
  Te2-  Te128  1  0.50016929  0.66918909  -0.00787384  1
  Te2-  Te129  1  0.51917400  0.66058908  0.33166214  1
  Te2-  Te130  1  0.49989134  0.66122306  0.67808397  1
  Te2-  Te131  1  0.83939855  -0.00453042  -0.00088313  1
  Te2-  Te132  1  0.81668820  0.01318425  0.32855957  1
  Te2-  Te133  1  0.83647839  0.00254885  0.66981280  1
  Te2-  Te134  1  0.82642158  0.33590945  -0.00272454  1
  Te2-  Te135  1  0.83569638  0.32757954  0.32333687  1
  Te2-  Te136  1  0.84704626  0.32746115  0.67289955  1
  Te2-  Te137  1  0.83263460  0.66697447  -0.01283409  1
  Te2-  Te138  1  0.82265497  0.66692956  0.33448915  1
  Te2-  Te139  1  0.83283941  0.66779350  0.67828270  1
  Te2-  Te140  1  0.00831795  0.15959765  0.00287139  1
  Te2-  Te141  1  -0.01289959  0.15880266  0.33617428  1
  Te2-  Te142  1  0.00416566  0.16640788  0.66420270  1
  Te2-  Te143  1  0.00631479  0.50624785  0.00334657  1
  Te2-  Te144  1  0.00237919  0.50045866  0.32828102  1
  Te2-  Te145  1  -0.00082372  0.50260844  0.66566686  1
  Te2-  Te146  1  0.00472324  0.83333864  0.00303872  1
  Te2-  Te147  1  -0.01573719  0.84517641  0.33991988  1
  Te2-  Te148  1  0.01099067  0.83062820  0.66323714  1
  Te2-  Te149  1  0.33168758  0.15757148  0.00077159  1
  Te2-  Te150  1  0.33152838  0.17628723  0.32991746  1
  Te2-  Te151  1  0.33236754  0.16567019  0.67284060  1
  Te2-  Te152  1  0.33149212  0.50637234  -0.00731245  1
  Te2-  Te153  1  0.33914758  0.50428209  0.33686998  1
  Te2-  Te154  1  0.33025095  0.49906346  0.66721082  1
  Te2-  Te155  1  0.33276862  0.83704757  -0.00332889  1
  Te2-  Te156  1  0.33428432  0.83172741  0.33613335  1
  Te2-  Te157  1  0.34588915  0.83277540  0.66085134  1
  Te2-  Te158  1  0.67046962  0.17073582  0.00606356  1
  Te2-  Te159  1  0.66590770  0.17023249  0.32392154  1
  Te2-  Te160  1  0.66421424  0.16813750  0.66772022  1
  Te2-  Te161  1  0.66981831  0.50775548  -0.01137564  1
  Te2-  Te162  1  0.66332983  0.50223146  0.33165891  1
  Te2-  Te163  1  0.67927637  0.50332118  0.67932283  1
  Te2-  Te164  1  0.66950084  0.83108078  -0.00060537  1
  Te2-  Te165  1  0.68249069  0.83673906  0.33017869  1
  Te2-  Te166  1  0.64896766  0.83004730  0.67199687  1
  Te2-  Te167  1  -0.00241381  -0.00542582  0.16529148  1
  Te2-  Te168  1  0.01325906  0.00837571  0.50129313  1
  Te2-  Te169  1  0.00019668  -0.00121501  0.83678112  1
  Te2-  Te170  1  -0.00307873  0.33807494  0.15316778  1
  Te2-  Te171  1  0.00619874  0.32770053  0.48981639  1
  Te2-  Te172  1  -0.00398790  0.33509933  0.85269593  1
  Te2-  Te173  1  -0.00749434  0.66637433  0.15215431  1
  Te2-  Te174  1  -0.00732469  0.66306140  0.50046097  1
  Te2-  Te175  1  0.00582336  0.66953420  0.84563307  1
  Te2-  Te176  1  0.33577806  0.00543374  0.18792448  1
  Te2-  Te177  1  0.32294571  -0.00395290  0.49241529  1
  Te2-  Te178  1  0.33265159  -0.01532426  0.82414252  1
  Te2-  Te179  1  0.33789983  0.33188219  0.16880069  1
  Te2-  Te180  1  0.33101173  0.33367253  0.50022409  1
  Te2-  Te181  1  0.33455420  0.33237484  0.83143959  1
  Te2-  Te182  1  0.33997929  0.66827474  0.16234922  1
  Te2-  Te183  1  0.33363555  0.66199401  0.50491536  1
  Te2-  Te184  1  0.34381004  0.68315167  0.82924615  1
  Te2-  Te185  1  0.66174266  -0.00237560  0.14748681  1
  Te2-  Te186  1  0.66806793  0.00012750  0.50368703  1
  Te2-  Te187  1  0.67106151  -0.00065668  0.85024035  1
  Te2-  Te188  1  0.66430599  0.34315196  0.15367233  1
  Te2-  Te189  1  0.66675058  0.33532046  0.49918958  1
  Te2-  Te190  1  0.66319101  0.34533343  0.84185140  1
  Te2-  Te191  1  0.66692790  0.67197974  0.15979856  1
  Te2-  Te192  1  0.67309668  0.66739255  0.50704983  1
  Te2-  Te193  1  0.65741831  0.66159241  0.83378723  1
  Pb2+  Pb194  1  0.16150999  0.66699455  0.50756969  1
  Pb2+  Pb195  1  0.66434879  0.17151106  0.83531020  1
  Pb2+  Pb196  1  0.66273025  0.16879585  0.49630458  1
  Pb2+  Pb197  1  0.67088416  0.33595406  0.67327267  1
  Pb2+  Pb198  1  0.83462395  0.50005750  0.33150095  1
  Pb2+  Pb199  1  0.84332387  0.00523326  0.49772126  1
  Pb2+  Pb200  1  0.66471151  0.50013696  0.50688039  1
  Pb2+  Pb201  1  0.67010052  -0.00480369  0.67869820  1
  Pb2+  Pb202  1  0.49808611  0.17117456  0.32505094  1
  Pb2+  Pb203  1  0.50698712  0.82589918  0.32915457  1
  Pb2+  Pb204  1  -0.00652035  0.16440759  0.17034156  1
  Pb2+  Pb205  1  0.16626769  -0.00188329  0.16557316  1
  Pb2+  Pb206  1  0.16671096  0.34239184  0.16703410  1
  Pb2+  Pb207  1  0.00132193  0.16833949  0.83196525  1
  Pb2+  Pb208  1  0.33533922  0.50113729  0.16250817  1
  Pb2+  Pb209  1  -0.00939135  0.67321880  0.32390763  1
  Pb2+  Pb210  1  0.16171285  0.83927848  0.33818017  1
  Pb2+  Pb211  1  0.33873615  0.83604982  0.16365366  1
  Pb2+  Pb212  1  0.00904192  0.50208267  0.83446352  1
  Pb2+  Pb213  1  0.50093816  0.66327814  0.50214286  1
  Pb2+  Pb214  1  0.66538409  0.33658019  0.32328447  1
  Pb2+  Pb215  1  0.49269809  -0.00114598  0.50312975  1
