# generated using pymatgen
data_In22Ag21Sn22Bi21(Te54Pb11)2
_symmetry_space_group_name_H-M   'P 1'
_cell_length_a   19.14344734
_cell_length_b   19.13847348
_cell_length_c   19.12881278
_cell_angle_alpha   89.99984981
_cell_angle_beta   90.02236931
_cell_angle_gamma   90.00791218
_symmetry_Int_Tables_number   1
_chemical_formula_structural   In22Ag21Sn22Bi21(Te54Pb11)2
_chemical_formula_sum   'In22 Ag21 Sn22 Bi21 Te108 Pb22'
_cell_volume   7008.34418267
_cell_formula_units_Z   1
loop_
 _symmetry_equiv_pos_site_id
 _symmetry_equiv_pos_as_xyz
  1  'x, y, z'
loop_
 _atom_type_symbol
 _atom_type_oxidation_number
  In3+  3.0
  Ag+  1.0
  Sn2+  2.0
  Bi3+  3.0
  Te2-  -2.0
  Pb2+  2.0
loop_
 _atom_site_type_symbol
 _atom_site_label
 _atom_site_symmetry_multiplicity
 _atom_site_fract_x
 _atom_site_fract_y
 _atom_site_fract_z
 _atom_site_occupancy
  In3+  In0  1  0.18528741  0.34530149  0.50032341  1
  In3+  In1  1  0.34864883  0.47808014  0.49653437  1
  In3+  In2  1  0.83388951  0.16044884  0.65602987  1
  In3+  In3  1  0.66397957  0.49770185  0.85319399  1
  In3+  In4  1  0.18005262  0.68563785  0.49674065  1
  In3+  In5  1  0.15295351  0.16665110  0.33297300  1
  In3+  In6  1  0.35481558  0.15656133  0.83293650  1
  In3+  In7  1  0.65515459  0.00557029  0.01711438  1
  In3+  In8  1  0.34927289  0.49186275  0.16961245  1
  In3+  In9  1  -0.00078312  0.50016677  0.47826222  1
  In3+  In10  1  0.82956742  0.00781108  0.84532018  1
  In3+  In11  1  0.66398367  0.67260675  0.67595253  1
  In3+  In12  1  0.66282788  0.50234205  0.17162969  1
  In3+  In13  1  -0.00278621  0.17379918  0.84337593  1
  In3+  In14  1  0.34852855  0.33236978  -0.00717211  1
  In3+  In15  1  0.51158555  0.16790707  0.64834798  1
  In3+  In16  1  0.16196909  0.33625258  0.15280519  1
  In3+  In17  1  0.66602213  0.83944067  0.48648381  1
  In3+  In18  1  -0.00056789  0.35021047  0.65896427  1
  In3+  In19  1  0.33628662  0.67370077  0.31601611  1
  In3+  In20  1  0.16218630  0.85268150  0.32808316  1
  In3+  In21  1  -0.02128365  0.16766056  0.16234909  1
  Ag+  Ag22  1  0.83497397  -0.02537756  0.47753433  1
  Ag+  Ag23  1  0.65513653  0.86139902  0.83096310  1
  Ag+  Ag24  1  0.29955758  0.62910946  0.02172199  1
  Ag+  Ag25  1  0.67873259  -0.02638317  0.35149251  1
  Ag+  Ag26  1  0.52239214  0.51565567  0.00304796  1
  Ag+  Ag27  1  0.02697787  0.47431789  0.83924184  1
  Ag+  Ag28  1  0.18582553  0.82358547  0.69423870  1
  Ag+  Ag29  1  0.64479090  0.30629352  0.00553119  1
  Ag+  Ag30  1  0.30460303  0.82422504  0.84974445  1
  Ag+  Ag31  1  0.83069508  0.63508499  0.18263859  1
  Ag+  Ag32  1  -0.00109904  0.80789905  0.18795847  1
  Ag+  Ag33  1  0.83702695  0.52415091  0.30600619  1
  Ag+  Ag34  1  0.52503484  0.35044627  0.48596819  1
  Ag+  Ag35  1  0.52273064  0.20143465  0.00098810  1
  Ag+  Ag36  1  0.19099376  0.52106663  0.00907083  1
  Ag+  Ag37  1  0.47888353  0.65095181  0.16352444  1
  Ag+  Ag38  1  0.67957744  0.31663458  0.35963274  1
  Ag+  Ag39  1  -0.02872659  0.00002735  0.30346552  1
  Ag+  Ag40  1  0.81590444  0.17128966  0.00061749  1
  Ag+  Ag41  1  0.35783686  0.16367962  0.52871528  1
  Ag+  Ag42  1  0.52116295  0.01757785  0.17068963  1
  Sn2+  Sn43  1  0.67442601  0.16841302  0.83201385  1
  Sn2+  Sn44  1  0.83596207  0.49144155  -0.00199234  1
  Sn2+  Sn45  1  0.82421345  0.33334682  0.16895962  1
  Sn2+  Sn46  1  0.82721158  0.33366506  0.84318107  1
  Sn2+  Sn47  1  0.82959159  0.16666573  0.32799418  1
  Sn2+  Sn48  1  -0.00203916  0.16090171  0.50094529  1
  Sn2+  Sn49  1  0.00201750  0.67313487  0.33470719  1
  Sn2+  Sn50  1  0.17144524  0.16581857  0.00231932  1
  Sn2+  Sn51  1  0.49465076  0.83616925  0.67418675  1
  Sn2+  Sn52  1  0.66846858  0.16658891  0.49031195  1
  Sn2+  Sn53  1  -0.00575984  0.00029997  0.00122984  1
  Sn2+  Sn54  1  0.82968662  -0.00331643  0.17169908  1
  Sn2+  Sn55  1  0.83625206  0.84042513  0.67023494  1
  Sn2+  Sn56  1  0.66645587  0.17805800  0.16914146  1
  Sn2+  Sn57  1  0.83156009  0.66444574  0.49356342  1
  Sn2+  Sn58  1  0.83326427  0.66920868  0.84124692  1
  Sn2+  Sn59  1  0.33768355  0.84145175  0.50396368  1
  Sn2+  Sn60  1  0.00144254  0.49890460  0.15162040  1
  Sn2+  Sn61  1  0.50101819  0.32780621  0.82876747  1
  Sn2+  Sn62  1  0.66747279  -0.01460482  0.66016600  1
  Sn2+  Sn63  1  0.17469424  0.83125085  0.00892726  1
  Sn2+  Sn64  1  0.34652562  0.00285836  0.33286499  1
  Bi3+  Bi65  1  -0.00502138  0.33406606  0.00169090  1
  Bi3+  Bi66  1  -0.00758166  0.83454299  0.83338886  1
  Bi3+  Bi67  1  -0.00591547  0.66694686  0.66608369  1
  Bi3+  Bi68  1  0.66830473  0.66247930  0.32999892  1
  Bi3+  Bi69  1  0.33417453  0.33180584  0.33255880  1
  Bi3+  Bi70  1  0.15831138  0.00419865  0.50045981  1
  Bi3+  Bi71  1  0.50085099  0.66741121  0.83996416  1
  Bi3+  Bi72  1  -0.00399774  0.00094121  0.66484915  1
  Bi3+  Bi73  1  0.33465380  0.16751841  0.16297270  1
  Bi3+  Bi74  1  0.83393769  0.33268963  0.50338912  1
  Bi3+  Bi75  1  0.83740903  0.83838295  -0.00057414  1
  Bi3+  Bi76  1  0.33224658  0.33277198  0.66714295  1
  Bi3+  Bi77  1  0.33378469  0.66894714  0.66495613  1
  Bi3+  Bi78  1  0.50251497  0.82894167  0.00069468  1
  Bi3+  Bi79  1  -0.00622729  0.66800339  -0.00116236  1
  Bi3+  Bi80  1  0.67426719  0.50482312  0.49604921  1
  Bi3+  Bi81  1  0.66878821  0.67276891  0.00048223  1
  Bi3+  Bi82  1  0.33449127  0.00086859  -0.00083510  1
  Bi3+  Bi83  1  0.83122557  0.50057493  0.66898945  1
  Bi3+  Bi84  1  0.33369815  0.00087286  0.66433002  1
  Bi3+  Bi85  1  0.49770486  0.16847688  0.32385170  1
  Te2-  Te86  1  0.17341495  0.17727932  0.17242664  1
  Te2-  Te87  1  0.15785892  0.16465444  0.49306661  1
  Te2-  Te88  1  0.15308463  0.16716237  0.83282255  1
  Te2-  Te89  1  0.15995160  0.49259869  0.15599105  1
  Te2-  Te90  1  0.15300253  0.49422899  0.49937859  1
  Te2-  Te91  1  0.17310663  0.50081773  0.84067361  1
  Te2-  Te92  1  0.15382079  0.83343642  0.17353605  1
  Te2-  Te93  1  0.16839564  0.83931524  0.48820107  1
  Te2-  Te94  1  0.15835177  0.83535418  0.83765555  1
  Te2-  Te95  1  0.49732821  0.16479923  0.15536843  1
  Te2-  Te96  1  0.50180332  0.16696843  0.49456510  1
  Te2-  Te97  1  0.50369355  0.16925416  0.85115329  1
  Te2-  Te98  1  0.50151939  0.50447097  0.15678282  1
  Te2-  Te99  1  0.50785794  0.49695490  0.50066343  1
  Te2-  Te100  1  0.50527965  0.50230500  0.84329363  1
  Te2-  Te101  1  0.50154238  0.83268152  0.16096010  1
  Te2-  Te102  1  0.50771777  0.83426526  0.50290299  1
  Te2-  Te103  1  0.50943819  0.83001181  0.83360335  1
  Te2-  Te104  1  0.82590718  0.16625465  0.15492403  1
  Te2-  Te105  1  0.83146738  0.17137614  0.50140417  1
  Te2-  Te106  1  0.83750817  0.16453739  0.84901467  1
  Te2-  Te107  1  0.83737618  0.48946306  0.16284654  1
  Te2-  Te108  1  0.83915268  0.49726259  0.50532163  1
  Te2-  Te109  1  0.82098853  0.50133483  0.82976670  1
  Te2-  Te110  1  0.84818439  0.84028828  0.16019311  1
  Te2-  Te111  1  0.82290195  0.82991384  0.50258331  1
  Te2-  Te112  1  0.83121905  0.83687838  0.83480191  1
  Te2-  Te113  1  0.17062130  -0.00091867  0.00025459  1
  Te2-  Te114  1  0.17506161  0.00621581  0.33915433  1
  Te2-  Te115  1  0.16607971  -0.00888407  0.66144147  1
  Te2-  Te116  1  0.15764536  0.33061005  0.00116713  1
  Te2-  Te117  1  0.16762151  0.32693279  0.34461481  1
  Te2-  Te118  1  0.16508892  0.33273785  0.66044588  1
  Te2-  Te119  1  0.15871926  0.66654033  0.00174393  1
  Te2-  Te120  1  0.16442228  0.66034862  0.34419291  1
  Te2-  Te121  1  0.16564237  0.67746989  0.65598905  1
  Te2-  Te122  1  0.50006842  -0.00621745  0.00987457  1
  Te2-  Te123  1  0.50450116  0.00516215  0.32323900  1
  Te2-  Te124  1  0.49611013  0.00732334  0.66846028  1
  Te2-  Te125  1  0.49875659  0.34599487  -0.00353537  1
  Te2-  Te126  1  0.49745964  0.33251035  0.34086475  1
  Te2-  Te127  1  0.49506435  0.32380429  0.66113522  1
  Te2-  Te128  1  0.50578092  0.66656514  0.00550001  1
  Te2-  Te129  1  0.49727984  0.66415836  0.31835212  1
  Te2-  Te130  1  0.49914115  0.66654096  0.66849340  1
  Te2-  Te131  1  0.82896176  0.00217755  -0.00104574  1
  Te2-  Te132  1  0.82635108  0.00664462  0.33376726  1
  Te2-  Te133  1  0.83408496  0.00636472  0.66846617  1
  Te2-  Te134  1  0.83715595  0.32285579  0.00108686  1
  Te2-  Te135  1  0.82644477  0.32464717  0.33924126  1
  Te2-  Te136  1  0.83770767  0.33180116  0.67063559  1
  Te2-  Te137  1  0.83288795  0.67098077  0.00289474  1
  Te2-  Te138  1  0.83778460  0.67049336  0.32775094  1
  Te2-  Te139  1  0.83189438  0.66641904  0.66728315  1
  Te2-  Te140  1  0.00577440  0.16805163  0.00397050  1
  Te2-  Te141  1  -0.00169779  0.15228314  0.32690780  1
  Te2-  Te142  1  -0.01103719  0.16268545  0.67291385  1
  Te2-  Te143  1  -0.00504648  0.50068507  -0.01331545  1
  Te2-  Te144  1  -0.01192997  0.49764452  0.32721164  1
  Te2-  Te145  1  -0.00418899  0.50179030  0.68778138  1
  Te2-  Te146  1  0.00121879  0.83395276  -0.00401712  1
  Te2-  Te147  1  0.00637391  0.84643389  0.33063145  1
  Te2-  Te148  1  0.00007886  0.83206048  0.66753266  1
  Te2-  Te149  1  0.33215538  0.16845402  -0.00404910  1
  Te2-  Te150  1  0.33579871  0.16981598  0.32598747  1
  Te2-  Te151  1  0.33188596  0.16699345  0.67516057  1
  Te2-  Te152  1  0.33437453  0.48612624  0.01139628  1
  Te2-  Te153  1  0.33193233  0.49677934  0.33159850  1
  Te2-  Te154  1  0.33235013  0.49869183  0.66170935  1
  Te2-  Te155  1  0.33458062  0.83674310  -0.00718060  1
  Te2-  Te156  1  0.32559274  0.82762121  0.33353175  1
  Te2-  Te157  1  0.32981555  0.83507387  0.66240268  1
  Te2-  Te158  1  0.66539369  0.15914351  0.00101299  1
  Te2-  Te159  1  0.65886889  0.17474245  0.33008015  1
  Te2-  Te160  1  0.66502803  0.16604227  0.66315491  1
  Te2-  Te161  1  0.67099654  0.50939980  0.00718387  1
  Te2-  Te162  1  0.68148435  0.50228654  0.33014373  1
  Te2-  Te163  1  0.66883309  0.50591701  0.65988067  1
  Te2-  Te164  1  0.67177013  0.83907357  -0.01390000  1
  Te2-  Te165  1  0.66551789  0.82786298  0.33050695  1
  Te2-  Te166  1  0.66604044  0.82816599  0.67906950  1
  Te2-  Te167  1  -0.00012595  0.01469113  0.16067565  1
  Te2-  Te168  1  -0.01072929  -0.00035970  0.50373084  1
  Te2-  Te169  1  -0.01003621  0.00040539  0.83051316  1
  Te2-  Te170  1  0.00229382  0.32248645  0.16839334  1
  Te2-  Te171  1  -0.00341824  0.33320112  0.50504794  1
  Te2-  Te172  1  -0.00492351  0.32948658  0.83443405  1
  Te2-  Te173  1  -0.01058325  0.66206675  0.16489461  1
  Te2-  Te174  1  -0.00241336  0.65959977  0.50324906  1
  Te2-  Te175  1  -0.00270258  0.67054214  0.83060816  1
  Te2-  Te176  1  0.33198287  0.00198505  0.16431126  1
  Te2-  Te177  1  0.33054952  0.01213511  0.50254008  1
  Te2-  Te178  1  0.33480355  -0.00194632  0.83109499  1
  Te2-  Te179  1  0.32753771  0.33422711  0.16821305  1
  Te2-  Te180  1  0.33430820  0.31574232  0.50195098  1
  Te2-  Te181  1  0.33603674  0.33141148  0.83080433  1
  Te2-  Te182  1  0.33059584  0.66190476  0.16196947  1
  Te2-  Te183  1  0.33163289  0.66976854  0.50295377  1
  Te2-  Te184  1  0.33781817  0.67896787  0.82639937  1
  Te2-  Te185  1  0.66688201  0.00171935  0.16763018  1
  Te2-  Te186  1  0.67858457  -0.00544339  0.49700165  1
  Te2-  Te187  1  0.67422441  0.00767888  0.82496778  1
  Te2-  Te188  1  0.66597620  0.34579073  0.15071607  1
  Te2-  Te189  1  0.66970646  0.33862009  0.50601635  1
  Te2-  Te190  1  0.66426273  0.33768857  0.84786705  1
  Te2-  Te191  1  0.68114028  0.66054150  0.16767203  1
  Te2-  Te192  1  0.66583144  0.66815796  0.49435935  1
  Te2-  Te193  1  0.66447410  0.65877295  0.83448818  1
  Pb2+  Pb194  1  0.16542853  0.00717500  0.16841959  1
  Pb2+  Pb195  1  0.49746602  0.66626391  0.49280061  1
  Pb2+  Pb196  1  0.50537190  -0.00073506  0.84155783  1
  Pb2+  Pb197  1  0.50462082  0.00148249  0.49536359  1
  Pb2+  Pb198  1  0.50187430  0.33096045  0.16920080  1
  Pb2+  Pb199  1  0.15998748  0.16174638  0.66187665  1
  Pb2+  Pb200  1  0.33728914  0.50749156  0.84043414  1
  Pb2+  Pb201  1  0.15804638  0.66550217  0.17402942  1
  Pb2+  Pb202  1  -0.00824987  0.32365957  0.33619637  1
  Pb2+  Pb203  1  0.49491881  0.83541921  0.32652120  1
  Pb2+  Pb204  1  0.15987741  0.49376031  0.32714737  1
  Pb2+  Pb205  1  0.66890905  0.33389620  0.67773490  1
  Pb2+  Pb206  1  0.50059443  0.49590467  0.67459023  1
  Pb2+  Pb207  1  0.16321435  0.50598268  0.66685069  1
  Pb2+  Pb208  1  -0.00270141  0.83098688  0.49868691  1
  Pb2+  Pb209  1  0.67093025  0.83363136  0.15612145  1
  Pb2+  Pb210  1  0.83770987  0.83706367  0.32737201  1
  Pb2+  Pb211  1  0.16709958  0.33347521  0.83397581  1
  Pb2+  Pb212  1  0.16846893  0.66667234  0.83031186  1
  Pb2+  Pb213  1  0.33436033  0.83316649  0.15968039  1
  Pb2+  Pb214  1  0.16339266  0.00258909  0.83246038  1
  Pb2+  Pb215  1  0.50704082  0.49759656  0.32948805  1
