# generated using pymatgen
data_In22Ag21Sn22Bi21(Te54Pb11)2
_symmetry_space_group_name_H-M   'P 1'
_cell_length_a   19.13275136
_cell_length_b   19.13431379
_cell_length_c   19.11466537
_cell_angle_alpha   89.99499779
_cell_angle_beta   89.99840477
_cell_angle_gamma   89.99064991
_symmetry_Int_Tables_number   1
_chemical_formula_structural   In22Ag21Sn22Bi21(Te54Pb11)2
_chemical_formula_sum   'In22 Ag21 Sn22 Bi21 Te108 Pb22'
_cell_volume   6997.72725800
_cell_formula_units_Z   1
loop_
 _symmetry_equiv_pos_site_id
 _symmetry_equiv_pos_as_xyz
  1  'x, y, z'
loop_
 _atom_type_symbol
 _atom_type_oxidation_number
  In3+  3.0
  Ag+  1.0
  Sn2+  2.0
  Bi3+  3.0
  Te2-  -2.0
  Pb2+  2.0
loop_
 _atom_site_type_symbol
 _atom_site_label
 _atom_site_symmetry_multiplicity
 _atom_site_fract_x
 _atom_site_fract_y
 _atom_site_fract_z
 _atom_site_occupancy
  In3+  In0  1  0.67757232  0.16815474  0.16552747  1
  In3+  In1  1  0.48252883  0.83985259  0.32453446  1
  In3+  In2  1  0.66687114  0.49019678  0.16616956  1
  In3+  In3  1  0.82549161  0.83999320  0.67094190  1
  In3+  In4  1  0.67747098  0.49682615  0.49861454  1
  In3+  In5  1  0.35535561  0.33055891  0.66649030  1
  In3+  In6  1  -0.01909911  0.31275605  0.33203324  1
  In3+  In7  1  0.49812102  0.67388126  0.84189799  1
  In3+  In8  1  0.15480280  0.83098331  0.30927299  1
  In3+  In9  1  0.81950925  0.50140749  0.66986732  1
  In3+  In10  1  0.48812003  0.49845110  0.00003696  1
  In3+  In11  1  0.18456626  -0.00733749  0.83579229  1
  In3+  In12  1  0.67017126  0.65792416  0.01739107  1
  In3+  In13  1  -0.03026093  0.00283544  0.66811314  1
  In3+  In14  1  0.18724216  0.33282939  0.50175907  1
  In3+  In15  1  0.83466509  0.83065869  0.31812639  1
  In3+  In16  1  0.83109925  0.17164967  -0.00227086  1
  In3+  In17  1  0.50594430  0.15744325  0.00581452  1
  In3+  In18  1  0.67323127  0.33116375  0.35329746  1
  In3+  In19  1  0.65974697  0.16890191  0.82941829  1
  In3+  In20  1  0.81857463  0.65442968  0.84776230  1
  In3+  In21  1  0.83131836  -0.00463488  0.84219121  1
  Ag+  Ag22  1  0.01889489  -0.01002448  0.30193580  1
  Ag+  Ag23  1  0.83182134  0.47750769  0.00013238  1
  Ag+  Ag24  1  0.66195197  0.03304072  0.64477869  1
  Ag+  Ag25  1  0.33949133  0.80278055  0.85410046  1
  Ag+  Ag26  1  -0.01893642  0.14678676  0.16667823  1
  Ag+  Ag27  1  0.15006194  0.81186135  0.00379148  1
  Ag+  Ag28  1  0.35758671  0.15780218  0.85997701  1
  Ag+  Ag29  1  0.00382327  0.84964024  0.13962495  1
  Ag+  Ag30  1  0.31208163  0.36017584  0.33292949  1
  Ag+  Ag31  1  0.49065440  0.66340526  0.18331920  1
  Ag+  Ag32  1  0.66649759  0.52265890  0.86168604  1
  Ag+  Ag33  1  0.66493435  0.69284641  0.31495204  1
  Ag+  Ag34  1  0.66383973  0.14077580  0.52899630  1
  Ag+  Ag35  1  0.83040954  0.35478596  0.52179343  1
  Ag+  Ag36  1  0.85355982  0.83278448  0.01590655  1
  Ag+  Ag37  1  0.33873622  0.47510445  0.49033138  1
  Ag+  Ag38  1  0.66510293  0.33385808  0.67408799  1
  Ag+  Ag39  1  0.48144117  0.02337451  0.17800553  1
  Ag+  Ag40  1  0.80990484  0.35161476  0.16000047  1
  Ag+  Ag41  1  0.31414788  -0.00246368  0.31213419  1
  Ag+  Ag42  1  0.13742978  -0.01469469  0.18754584  1
  Sn2+  Sn43  1  0.15219898  0.50097428  0.00019198  1
  Sn2+  Sn44  1  0.49608069  0.16326369  0.33145724  1
  Sn2+  Sn45  1  0.50085684  0.50360793  0.67078548  1
  Sn2+  Sn46  1  0.00203635  0.33119328  0.01352714  1
  Sn2+  Sn47  1  0.50178932  0.50550731  0.33526145  1
  Sn2+  Sn48  1  0.67002379  0.00695955  0.33396255  1
  Sn2+  Sn49  1  0.34339678  0.49157260  0.82399675  1
  Sn2+  Sn50  1  0.34044395  0.67299718  0.00505725  1
  Sn2+  Sn51  1  0.34328983  -0.00335603  0.66799213  1
  Sn2+  Sn52  1  0.83291050  0.65987652  0.16862285  1
  Sn2+  Sn53  1  0.51184935  0.34032892  0.49380303  1
  Sn2+  Sn54  1  0.82938760  0.33588235  0.83810231  1
  Sn2+  Sn55  1  0.16636654  0.67402933  0.83599540  1
  Sn2+  Sn56  1  0.66899778  0.83574684  0.16433074  1
  Sn2+  Sn57  1  0.16427514  0.16188430  0.00577076  1
  Sn2+  Sn58  1  0.16824958  0.83869466  0.67475552  1
  Sn2+  Sn59  1  0.00430165  0.00142271  -0.00409535  1
  Sn2+  Sn60  1  0.50443668  0.34165133  0.17458227  1
  Sn2+  Sn61  1  0.34865548  0.67497830  0.33712353  1
  Sn2+  Sn62  1  0.50126588  0.65702932  0.49140337  1
  Sn2+  Sn63  1  -0.00926326  0.33637615  0.65986098  1
  Sn2+  Sn64  1  0.00051426  0.67158689  0.66908303  1
  Bi3+  Bi65  1  0.33330393  0.83677475  0.50143278  1
  Bi3+  Bi66  1  0.33204714  0.16563503  0.17009192  1
  Bi3+  Bi67  1  0.66678195  0.65975483  0.66056427  1
  Bi3+  Bi68  1  -0.00063315  0.16681648  0.84272515  1
  Bi3+  Bi69  1  0.83200064  0.66620359  0.50145345  1
  Bi3+  Bi70  1  0.00462186  0.83623620  0.83124276  1
  Bi3+  Bi71  1  0.16965506  0.32876145  0.16999109  1
  Bi3+  Bi72  1  0.33389689  0.83399912  0.16342634  1
  Bi3+  Bi73  1  0.16718374  0.16369719  0.33113321  1
  Bi3+  Bi74  1  0.82989283  -0.00303436  0.16522076  1
  Bi3+  Bi75  1  0.16417456  0.33500647  0.83016159  1
  Bi3+  Bi76  1  0.16684550  0.49759170  0.66792376  1
  Bi3+  Bi77  1  0.82858022  0.15971101  0.33163672  1
  Bi3+  Bi78  1  0.83206466  -0.00049799  0.49875526  1
  Bi3+  Bi79  1  0.50036024  0.83230998  0.00507345  1
  Bi3+  Bi80  1  0.00185398  0.83468896  0.50386684  1
  Bi3+  Bi81  1  0.34240802  0.16588920  0.49419382  1
  Bi3+  Bi82  1  -0.00222067  0.50060993  0.16545247  1
  Bi3+  Bi83  1  0.66781091  -0.00398895  0.00244903  1
  Bi3+  Bi84  1  0.49927508  0.33924836  0.83140367  1
  Bi3+  Bi85  1  0.33545234  0.00198151  0.00368035  1
  Te2-  Te86  1  0.16981345  0.16713333  0.16845283  1
  Te2-  Te87  1  0.16564421  0.17228529  0.49543751  1
  Te2-  Te88  1  0.15988980  0.17400708  0.83926408  1
  Te2-  Te89  1  0.16851624  0.49769178  0.16258998  1
  Te2-  Te90  1  0.17684784  0.49261489  0.50183910  1
  Te2-  Te91  1  0.16925168  0.49703397  0.83305009  1
  Te2-  Te92  1  0.16267218  0.84135047  0.15547687  1
  Te2-  Te93  1  0.16697176  0.83507876  0.50764512  1
  Te2-  Te94  1  0.17072905  0.83593231  0.84272062  1
  Te2-  Te95  1  0.49639858  0.17067873  0.16345850  1
  Te2-  Te96  1  0.51371114  0.16910244  0.49481378  1
  Te2-  Te97  1  0.50251333  0.17496466  0.83881893  1
  Te2-  Te98  1  0.51200721  0.51161297  0.15782634  1
  Te2-  Te99  1  0.48778131  0.49953057  0.50121080  1
  Te2-  Te100  1  0.51363914  0.49914275  0.84090794  1
  Te2-  Te101  1  0.49902327  0.81602387  0.16932291  1
  Te2-  Te102  1  0.49774584  0.82959125  0.48789168  1
  Te2-  Te103  1  0.48781114  0.82949323  0.83743245  1
  Te2-  Te104  1  0.83336275  0.16026921  0.16397376  1
  Te2-  Te105  1  0.81543398  0.16005061  0.49383343  1
  Te2-  Te106  1  0.83701627  0.16420227  0.84083074  1
  Te2-  Te107  1  0.83258561  0.49944933  0.15560901  1
  Te2-  Te108  1  0.83436829  0.50330162  0.49744167  1
  Te2-  Te109  1  0.82061236  0.50134547  0.84268035  1
  Te2-  Te110  1  0.84562697  0.83314229  0.16445701  1
  Te2-  Te111  1  0.83913271  0.83204814  0.51188016  1
  Te2-  Te112  1  0.83897292  0.83836587  0.82490847  1
  Te2-  Te113  1  0.17439397  0.00421601  -0.01120595  1
  Te2-  Te114  1  0.16440455  -0.00070276  0.33161367  1
  Te2-  Te115  1  0.17646860  -0.00047293  0.67778598  1
  Te2-  Te116  1  0.16655452  0.33552924  -0.00121314  1
  Te2-  Te117  1  0.16663763  0.32870980  0.33666930  1
  Te2-  Te118  1  0.15658874  0.33577797  0.66233849  1
  Te2-  Te119  1  0.17029574  0.66567141  -0.00463165  1
  Te2-  Te120  1  0.17058963  0.67560639  0.33153675  1
  Te2-  Te121  1  0.16676737  0.66251083  0.67112275  1
  Te2-  Te122  1  0.50167730  -0.00369046  0.01192920  1
  Te2-  Te123  1  0.51111017  -0.00720914  0.32066396  1
  Te2-  Te124  1  0.51280030  -0.00105178  0.66893523  1
  Te2-  Te125  1  0.49899527  0.34370346  -0.00285528  1
  Te2-  Te126  1  0.51690737  0.33364065  0.33253069  1
  Te2-  Te127  1  0.50965917  0.33756368  0.66768197  1
  Te2-  Te128  1  0.51088668  0.66662609  -0.00574691  1
  Te2-  Te129  1  0.51284236  0.66951193  0.33084949  1
  Te2-  Te130  1  0.50349778  0.66370125  0.66696024  1
  Te2-  Te131  1  0.83072888  -0.01478788  -0.00069543  1
  Te2-  Te132  1  0.83626342  -0.00391763  0.33239244  1
  Te2-  Te133  1  0.81254945  0.00024937  0.66528239  1
  Te2-  Te134  1  0.83448674  0.32564942  0.00923563  1
  Te2-  Te135  1  0.82630843  0.32491358  0.31287475  1
  Te2-  Te136  1  0.83132242  0.34417433  0.67111692  1
  Te2-  Te137  1  0.82331432  0.68493334  -0.00367351  1
  Te2-  Te138  1  0.81981605  0.67248419  0.33846950  1
  Te2-  Te139  1  0.83267464  0.65662822  0.66598067  1
  Te2-  Te140  1  -0.00643548  0.16539856  0.00877559  1
  Te2-  Te141  1  -0.00131039  0.15835148  0.32117473  1
  Te2-  Te142  1  -0.00213428  0.16491280  0.67076603  1
  Te2-  Te143  1  -0.01435398  0.49902530  0.00104227  1
  Te2-  Te144  1  -0.00091217  0.50613676  0.32884491  1
  Te2-  Te145  1  0.00090119  0.49841435  0.66675844  1
  Te2-  Te146  1  0.00419300  0.83654151  -0.00735903  1
  Te2-  Te147  1  0.00241171  0.84481146  0.34130794  1
  Te2-  Te148  1  0.00144649  0.83876648  0.66920591  1
  Te2-  Te149  1  0.33659603  0.16713297  0.00562090  1
  Te2-  Te150  1  0.33345849  0.14937673  0.33363279  1
  Te2-  Te151  1  0.33336644  0.17447268  0.65491347  1
  Te2-  Te152  1  0.33467955  0.50569798  -0.00154941  1
  Te2-  Te153  1  0.33855333  0.50666396  0.34057235  1
  Te2-  Te154  1  0.32979776  0.48735828  0.65789212  1
  Te2-  Te155  1  0.33687358  0.83733702  -0.00141379  1
  Te2-  Te156  1  0.32755830  0.84469396  0.33111328  1
  Te2-  Te157  1  0.33233808  0.83535501  0.66531735  1
  Te2-  Te158  1  0.66915653  0.16187057  0.00020844  1
  Te2-  Te159  1  0.66621304  0.17470982  0.32184247  1
  Te2-  Te160  1  0.66755191  0.17897158  0.67443872  1
  Te2-  Te161  1  0.68231111  0.50655807  0.00818558  1
  Te2-  Te162  1  0.66524823  0.48687472  0.32974991  1
  Te2-  Te163  1  0.66693351  0.49584916  0.65798483  1
  Te2-  Te164  1  0.66152321  0.83125190  0.00118621  1
  Te2-  Te165  1  0.67969545  0.83809058  0.32731932  1
  Te2-  Te166  1  0.66986472  0.82482762  0.66846291  1
  Te2-  Te167  1  -0.00632927  -0.00284600  0.15709453  1
  Te2-  Te168  1  -0.00483384  -0.00041094  0.50877514  1
  Te2-  Te169  1  -0.00759372  0.00265885  0.82713578  1
  Te2-  Te170  1  0.00978691  0.33912846  0.17443310  1
  Te2-  Te171  1  -0.02336187  0.32988858  0.48794961  1
  Te2-  Te172  1  -0.00152901  0.32951508  0.83577021  1
  Te2-  Te173  1  -0.00014835  0.66526441  0.16643295  1
  Te2-  Te174  1  -0.00237687  0.66885299  0.50076080  1
  Te2-  Te175  1  -0.00396508  0.67114263  0.83045107  1
  Te2-  Te176  1  0.33650487  -0.00251433  0.16628119  1
  Te2-  Te177  1  0.33470945  0.00138708  0.50418075  1
  Te2-  Te178  1  0.33594673  0.01444033  0.83480040  1
  Te2-  Te179  1  0.33406704  0.33168925  0.18081764  1
  Te2-  Te180  1  0.33971572  0.32619982  0.48173442  1
  Te2-  Te181  1  0.33096933  0.32766984  0.82663788  1
  Te2-  Te182  1  0.34174021  0.67151017  0.16815366  1
  Te2-  Te183  1  0.33635519  0.67614051  0.49764338  1
  Te2-  Te184  1  0.34002949  0.65823408  0.83446621  1
  Te2-  Te185  1  0.66867299  0.00638587  0.16381504  1
  Te2-  Te186  1  0.66914427  -0.00574852  0.49986705  1
  Te2-  Te187  1  0.67251803  0.00682281  0.83980598  1
  Te2-  Te188  1  0.66360722  0.33263621  0.15646203  1
  Te2-  Te189  1  0.68007957  0.34398909  0.50461518  1
  Te2-  Te190  1  0.66508067  0.32646901  0.82440432  1
  Te2-  Te191  1  0.67563907  0.66531645  0.17060252  1
  Te2-  Te192  1  0.66848711  0.65536589  0.49823448  1
  Te2-  Te193  1  0.66627437  0.66539699  0.82477032  1
  Pb2+  Pb194  1  0.66605005  0.83476114  0.83543570  1
  Pb2+  Pb195  1  0.49908423  0.16467000  0.66313433  1
  Pb2+  Pb196  1  0.34348437  0.49979013  0.17320326  1
  Pb2+  Pb197  1  0.33500895  0.66097705  0.66768837  1
  Pb2+  Pb198  1  0.16550345  0.00113694  0.50046740  1
  Pb2+  Pb199  1  -0.00758384  0.67647887  0.33105682  1
  Pb2+  Pb200  1  0.16950100  0.67161209  0.16365129  1
  Pb2+  Pb201  1  -0.00655283  0.66685728  0.00071283  1
  Pb2+  Pb202  1  0.66796726  0.33668983  -0.01049254  1
  Pb2+  Pb203  1  0.83146058  0.49743256  0.32520676  1
  Pb2+  Pb204  1  0.83258395  0.17157302  0.66406849  1
  Pb2+  Pb205  1  0.00753813  0.49205992  0.49829747  1
  Pb2+  Pb206  1  0.33221628  0.33619775  0.00144389  1
  Pb2+  Pb207  1  0.50025253  0.00099656  0.49029393  1
  Pb2+  Pb208  1  0.66856823  0.82586674  0.49561938  1
  Pb2+  Pb209  1  0.50273224  0.00017251  0.83940263  1
  Pb2+  Pb210  1  0.16737701  0.49825551  0.33105033  1
  Pb2+  Pb211  1  0.16895324  0.66775695  0.50041149  1
  Pb2+  Pb212  1  -0.01081073  0.16658927  0.49425529  1
  Pb2+  Pb213  1  -0.00630627  0.49966150  0.83313380  1
  Pb2+  Pb214  1  0.50042770  0.83282311  0.66123727  1
  Pb2+  Pb215  1  0.16731092  0.16604547  0.66997151  1
