# generated using pymatgen
data_In22Ag21Sn22Bi21(Te54Pb11)2
_symmetry_space_group_name_H-M   'P 1'
_cell_length_a   19.12979880
_cell_length_b   19.11713687
_cell_length_c   19.10509743
_cell_angle_alpha   89.99684642
_cell_angle_beta   89.99931114
_cell_angle_gamma   90.00480665
_symmetry_Int_Tables_number   1
_chemical_formula_structural   In22Ag21Sn22Bi21(Te54Pb11)2
_chemical_formula_sum   'In22 Ag21 Sn22 Bi21 Te108 Pb22'
_cell_volume   6986.86748462
_cell_formula_units_Z   1
loop_
 _symmetry_equiv_pos_site_id
 _symmetry_equiv_pos_as_xyz
  1  'x, y, z'
loop_
 _atom_type_symbol
 _atom_type_oxidation_number
  In3+  3.0
  Ag+  1.0
  Sn2+  2.0
  Bi3+  3.0
  Te2-  -2.0
  Pb2+  2.0
loop_
 _atom_site_type_symbol
 _atom_site_label
 _atom_site_symmetry_multiplicity
 _atom_site_fract_x
 _atom_site_fract_y
 _atom_site_fract_z
 _atom_site_occupancy
  In3+  In0  1  0.31643343  0.81650490  0.16573989  1
  In3+  In1  1  0.50115063  0.32132880  0.50490947  1
  In3+  In2  1  0.69093138  0.49645803  0.16744180  1
  In3+  In3  1  0.33371274  0.50934581  0.50464418  1
  In3+  In4  1  0.83422010  0.15437553  0.32959855  1
  In3+  In5  1  0.31380923  0.16642226  0.18574711  1
  In3+  In6  1  0.65692818  0.82292759  0.16442209  1
  In3+  In7  1  0.32175968  0.48927242  0.15394965  1
  In3+  In8  1  0.00622182  0.64654366  0.67898266  1
  In3+  In9  1  0.46445402  0.34198637  0.83673561  1
  In3+  In10  1  0.16397702  0.49807379  0.32990156  1
  In3+  In11  1  0.16470490  -0.02168808  0.49890155  1
  In3+  In12  1  0.32732526  0.66045522  0.34011990  1
  In3+  In13  1  0.85028012  0.49997839  0.32195366  1
  In3+  In14  1  -0.00123367  0.84544073  0.16644017  1
  In3+  In15  1  0.16196821  0.80836080  0.67557330  1
  In3+  In16  1  0.66849154  0.67481125  -0.01438104  1
  In3+  In17  1  -0.00069637  0.17549636  0.48250569  1
  In3+  In18  1  0.33036519  0.32831702  0.00706756  1
  In3+  In19  1  0.16186762  0.17104354  -0.00523717  1
  In3+  In20  1  0.83514074  0.83941612  0.32811013  1
  In3+  In21  1  0.16058963  0.49989039  0.67610836  1
  Ag+  Ag22  1  0.16403190  0.34913249  0.85496513  1
  Ag+  Ag23  1  -0.01339761  -0.00054597  0.33046609  1
  Ag+  Ag24  1  0.47762092  0.81123900  0.00081665  1
  Ag+  Ag25  1  0.02357161  0.33180081  0.68983525  1
  Ag+  Ag26  1  0.68426546  -0.00520110  0.33190383  1
  Ag+  Ag27  1  0.17888962  0.65601910  0.49706808  1
  Ag+  Ag28  1  0.16735446  -0.00265688  0.85479879  1
  Ag+  Ag29  1  0.01692655  0.50175068  0.18408084  1
  Ag+  Ag30  1  0.64666594  0.13690298  0.47855116  1
  Ag+  Ag31  1  0.16587342  0.52560312  -0.02662087  1
  Ag+  Ag32  1  0.82241431  0.85730083  0.02654307  1
  Ag+  Ag33  1  0.48093159  0.66879432  0.50797754  1
  Ag+  Ag34  1  0.29397739  0.52404443  0.85801291  1
  Ag+  Ag35  1  0.63733230  0.85190799  0.52986994  1
  Ag+  Ag36  1  -0.00326227  0.47623205  0.84193426  1
  Ag+  Ag37  1  0.81331492  0.66572005  0.83628204  1
  Ag+  Ag38  1  0.17041025  0.64402799  0.85393972  1
  Ag+  Ag39  1  0.85495963  0.33264329  0.15641776  1
  Ag+  Ag40  1  0.01716295  0.20184958  0.14459067  1
  Ag+  Ag41  1  0.15159473  0.33468392  0.15017543  1
  Ag+  Ag42  1  0.35038272  0.16199086  0.48880122  1
  Sn2+  Sn43  1  0.16026847  0.17160517  0.33865336  1
  Sn2+  Sn44  1  0.67238144  0.66997120  0.65618331  1
  Sn2+  Sn45  1  0.67290095  0.83736786  0.84117625  1
  Sn2+  Sn46  1  0.32570012  0.16930799  0.82679843  1
  Sn2+  Sn47  1  0.49076217  0.66870456  0.82983889  1
  Sn2+  Sn48  1  0.67002240  0.32574822  0.33510591  1
  Sn2+  Sn49  1  0.50147259  0.66807837  0.17463618  1
  Sn2+  Sn50  1  0.33261573  0.33574693  0.33567788  1
  Sn2+  Sn51  1  0.33274769  0.83032109  0.83741106  1
  Sn2+  Sn52  1  0.16523166  0.17293548  0.66963920  1
  Sn2+  Sn53  1  0.66208207  0.51012895  0.49644572  1
  Sn2+  Sn54  1  0.33498529  0.66487801  0.67193811  1
  Sn2+  Sn55  1  0.00489768  0.50245639  0.50426564  1
  Sn2+  Sn56  1  0.34202933  0.66585671  -0.00159265  1
  Sn2+  Sn57  1  0.82860124  0.17060880  0.00676936  1
  Sn2+  Sn58  1  0.84190840  -0.01774429  0.83408372  1
  Sn2+  Sn59  1  0.00554295  0.01628005  0.65884342  1
  Sn2+  Sn60  1  0.51022734  0.83133947  0.32761971  1
  Sn2+  Sn61  1  0.50472867  -0.01706650  0.49611756  1
  Sn2+  Sn62  1  -0.00112143  0.32178112  0.32787737  1
  Sn2+  Sn63  1  0.16275722  0.83011940  -0.01139948  1
  Sn2+  Sn64  1  0.66945829  0.16367454  0.82241738  1
  Bi3+  Bi65  1  0.32723999  0.00175992  0.66470431  1
  Bi3+  Bi66  1  0.33349610  -0.00160187  0.33490274  1
  Bi3+  Bi67  1  0.00202246  0.83396216  0.83346004  1
  Bi3+  Bi68  1  0.83183675  0.33546699  0.49561567  1
  Bi3+  Bi69  1  0.67032410  0.33420151  0.66689636  1
  Bi3+  Bi70  1  -0.00176623  0.83279568  0.49866663  1
  Bi3+  Bi71  1  0.00162211  0.66505339  -0.00509929  1
  Bi3+  Bi72  1  0.49874474  0.50465380  0.33447703  1
  Bi3+  Bi73  1  0.83640895  0.16904787  0.66774569  1
  Bi3+  Bi74  1  0.83520140  0.49996256  0.66581841  1
  Bi3+  Bi75  1  0.00295521  0.16268056  0.83542109  1
  Bi3+  Bi76  1  0.49730798  0.50236898  0.66655221  1
  Bi3+  Bi77  1  0.16891173  0.33961903  0.49516434  1
  Bi3+  Bi78  1  0.84250178  0.50098944  -0.00436941  1
  Bi3+  Bi79  1  0.83747267  0.66571656  0.50415185  1
  Bi3+  Bi80  1  0.33149962  0.33266977  0.66250567  1
  Bi3+  Bi81  1  0.49822511  0.17117131  -0.00183643  1
  Bi3+  Bi82  1  0.49934713  0.33702606  0.16858130  1
  Bi3+  Bi83  1  0.66726111  0.33637392  -0.00028155  1
  Bi3+  Bi84  1  0.66571215  0.66552005  0.33145114  1
  Bi3+  Bi85  1  0.67072265  0.16858748  0.17122740  1
  Te2-  Te86  1  0.16139605  0.18096648  0.16764438  1
  Te2-  Te87  1  0.15094421  0.17917383  0.49952664  1
  Te2-  Te88  1  0.16480278  0.15096274  0.84063101  1
  Te2-  Te89  1  0.16971910  0.48597973  0.17428352  1
  Te2-  Te90  1  0.17159510  0.50360702  0.49052778  1
  Te2-  Te91  1  0.15468040  0.49557984  0.82599469  1
  Te2-  Te92  1  0.16325986  0.83100672  0.16567328  1
  Te2-  Te93  1  0.16287156  0.82291332  0.50273986  1
  Te2-  Te94  1  0.16588881  0.84574464  0.82675139  1
  Te2-  Te95  1  0.50512307  0.17283157  0.16288680  1
  Te2-  Te96  1  0.50416090  0.16830186  0.49858638  1
  Te2-  Te97  1  0.49917348  0.17307056  0.83625434  1
  Te2-  Te98  1  0.48152777  0.49896822  0.16897319  1
  Te2-  Te99  1  0.49405318  0.51243416  0.50077631  1
  Te2-  Te100  1  0.49771084  0.50166660  0.82927282  1
  Te2-  Te101  1  0.50588377  0.82958986  0.15292039  1
  Te2-  Te102  1  0.49823799  0.82265181  0.49889303  1
  Te2-  Te103  1  0.49761918  0.82942880  0.84697734  1
  Te2-  Te104  1  0.83150222  0.18188373  0.17598192  1
  Te2-  Te105  1  0.84215946  0.17296184  0.49906000  1
  Te2-  Te106  1  0.83636645  0.16309027  0.83360373  1
  Te2-  Te107  1  0.84563840  0.48866287  0.16417127  1
  Te2-  Te108  1  0.83426845  0.50110842  0.50209769  1
  Te2-  Te109  1  0.84523313  0.50715620  0.83034952  1
  Te2-  Te110  1  0.84225954  0.83122730  0.17049548  1
  Te2-  Te111  1  0.83630466  0.82847650  0.49046135  1
  Te2-  Te112  1  0.83926860  0.82192884  0.83095442  1
  Te2-  Te113  1  0.16793915  -0.00080054  0.00531028  1
  Te2-  Te114  1  0.17232435  0.00306515  0.34288427  1
  Te2-  Te115  1  0.16654061  0.01114266  0.65034334  1
  Te2-  Te116  1  0.17744153  0.32404456  0.00188000  1
  Te2-  Te117  1  0.17213374  0.33918557  0.33451038  1
  Te2-  Te118  1  0.16774632  0.34323338  0.65665169  1
  Te2-  Te119  1  0.17096003  0.67116447  0.00069616  1
  Te2-  Te120  1  0.17146874  0.66060313  0.34192494  1
  Te2-  Te121  1  0.16511068  0.65555891  0.65234122  1
  Te2-  Te122  1  0.50040249  0.00655608  -0.00056740  1
  Te2-  Te123  1  0.49554322  -0.00313821  0.33778145  1
  Te2-  Te124  1  0.49435262  -0.00094472  0.66409487  1
  Te2-  Te125  1  0.50074195  0.33646127  -0.00091434  1
  Te2-  Te126  1  0.50048168  0.33967887  0.33533154  1
  Te2-  Te127  1  0.50301622  0.33971725  0.66802033  1
  Te2-  Te128  1  0.50853333  0.66714335  0.00057445  1
  Te2-  Te129  1  0.50133523  0.66774119  0.34063223  1
  Te2-  Te130  1  0.50174351  0.66398499  0.65892894  1
  Te2-  Te131  1  0.83350002  0.00115562  -0.00536177  1
  Te2-  Te132  1  0.83397079  -0.00266379  0.33373460  1
  Te2-  Te133  1  0.83545433  0.00431331  0.66852881  1
  Te2-  Te134  1  0.83117680  0.33725892  0.00615761  1
  Te2-  Te135  1  0.82945286  0.34707020  0.33509765  1
  Te2-  Te136  1  0.83367728  0.33513811  0.66173917  1
  Te2-  Te137  1  0.82981722  0.65978390  -0.01238335  1
  Te2-  Te138  1  0.83047322  0.65389147  0.33354800  1
  Te2-  Te139  1  0.84045020  0.66140170  0.67234497  1
  Te2-  Te140  1  -0.00072723  0.16637963  0.00302606  1
  Te2-  Te141  1  -0.00780638  0.15428670  0.33060496  1
  Te2-  Te142  1  -0.00234897  0.18097025  0.67291493  1
  Te2-  Te143  1  0.00923191  0.50586547  -0.01040073  1
  Te2-  Te144  1  0.00518890  0.49995187  0.33392159  1
  Te2-  Te145  1  0.00067347  0.48835532  0.66832632  1
  Te2-  Te146  1  -0.00470132  0.82612881  0.00491066  1
  Te2-  Te147  1  -0.00403146  0.83828185  0.32976534  1
  Te2-  Te148  1  0.01011326  0.84465055  0.66351594  1
  Te2-  Te149  1  0.33476478  0.17363877  -0.00511433  1
  Te2-  Te150  1  0.33077215  0.16543233  0.34110432  1
  Te2-  Te151  1  0.33138746  0.16801737  0.66326939  1
  Te2-  Te152  1  0.31887931  0.49803250  -0.00070958  1
  Te2-  Te153  1  0.33628383  0.50435000  0.34128115  1
  Te2-  Te154  1  0.33434746  0.49711762  0.66075634  1
  Te2-  Te155  1  0.33166936  0.83040421  0.00874659  1
  Te2-  Te156  1  0.33810765  0.83324147  0.32321148  1
  Te2-  Te157  1  0.32363861  0.83485672  0.66749295  1
  Te2-  Te158  1  0.66674244  0.17180645  0.00165398  1
  Te2-  Te159  1  0.67566151  0.16150741  0.33631965  1
  Te2-  Te160  1  0.67260662  0.17106210  0.65709235  1
  Te2-  Te161  1  0.67070949  0.49895799  0.00491692  1
  Te2-  Te162  1  0.66044215  0.50109858  0.32861997  1
  Te2-  Te163  1  0.66826456  0.50021281  0.66616718  1
  Te2-  Te164  1  0.67986242  0.82793768  0.00653070  1
  Te2-  Te165  1  0.67489689  0.83082251  0.32076134  1
  Te2-  Te166  1  0.66730055  0.83150649  0.67181166  1
  Te2-  Te167  1  -0.00022838  -0.00342165  0.17758688  1
  Te2-  Te168  1  0.00680701  -0.00386124  0.49009106  1
  Te2-  Te169  1  0.00892497  -0.00167599  0.82948882  1
  Te2-  Te170  1  0.00288455  0.34511245  0.17353918  1
  Te2-  Te171  1  -0.00177502  0.33479235  0.49094061  1
  Te2-  Te172  1  0.01269919  0.32660379  0.83680107  1
  Te2-  Te173  1  0.00037870  0.65209010  0.16217042  1
  Te2-  Te174  1  -0.00223008  0.66861455  0.50686000  1
  Te2-  Te175  1  0.02252381  0.67604707  0.82790137  1
  Te2-  Te176  1  0.33347273  0.01016018  0.17070213  1
  Te2-  Te177  1  0.33049752  0.01128448  0.50089188  1
  Te2-  Te178  1  0.32337514  -0.00157490  0.82702518  1
  Te2-  Te179  1  0.33810370  0.32923760  0.16679878  1
  Te2-  Te180  1  0.33719900  0.31974893  0.50117816  1
  Te2-  Te181  1  0.31378764  0.33182860  0.82397352  1
  Te2-  Te182  1  0.33497602  0.66406490  0.17077608  1
  Te2-  Te183  1  0.33085124  0.66699529  0.49797241  1
  Te2-  Te184  1  0.32295095  0.66684632  0.83097874  1
  Te2-  Te185  1  0.66920905  0.00501070  0.17892173  1
  Te2-  Te186  1  0.66506064  -0.00818227  0.48695770  1
  Te2-  Te187  1  0.66736631  0.00157835  0.83146564  1
  Te2-  Te188  1  0.66089125  0.33499547  0.16557791  1
  Te2-  Te189  1  0.66561984  0.33957005  0.50247813  1
  Te2-  Te190  1  0.67289448  0.33087354  0.83362864  1
  Te2-  Te191  1  0.66730512  0.66333389  0.16846915  1
  Te2-  Te192  1  0.67611220  0.67146326  0.49506730  1
  Te2-  Te193  1  0.66354539  0.66906127  0.83231955  1
  Pb2+  Pb194  1  0.33304634  0.00258923  -0.00249945  1
  Pb2+  Pb195  1  0.66546988  -0.00119860  0.00548980  1
  Pb2+  Pb196  1  0.00266753  -0.00454229  0.00172034  1
  Pb2+  Pb197  1  0.16727659  0.83336947  0.33403853  1
  Pb2+  Pb198  1  0.50023832  0.16848682  0.33111453  1
  Pb2+  Pb199  1  0.66517714  0.00155791  0.65766117  1
  Pb2+  Pb200  1  0.50011500  0.17061650  0.66801057  1
  Pb2+  Pb201  1  0.16482174  0.65520554  0.16848674  1
  Pb2+  Pb202  1  0.00618755  0.33990720  0.00475268  1
  Pb2+  Pb203  1  0.50155653  -0.00214790  0.16930647  1
  Pb2+  Pb204  1  0.67148162  0.49924276  0.83618613  1
  Pb2+  Pb205  1  0.84190553  0.33392808  0.83403096  1
  Pb2+  Pb206  1  -0.00105635  0.66966357  0.33456315  1
  Pb2+  Pb207  1  0.84020626  0.83011457  0.66415036  1
  Pb2+  Pb208  1  0.33288002  0.84107540  0.49689265  1
  Pb2+  Pb209  1  0.83543257  0.00886620  0.16324140  1
  Pb2+  Pb210  1  0.49490821  0.82959440  0.67476948  1
  Pb2+  Pb211  1  0.49306032  0.50397078  -0.00210131  1
  Pb2+  Pb212  1  0.83636021  0.00170223  0.50137612  1
  Pb2+  Pb213  1  0.16510878  0.00793087  0.17343972  1
  Pb2+  Pb214  1  0.49363470  0.00078453  0.83314276  1
  Pb2+  Pb215  1  0.83628201  0.66256658  0.15694374  1
