# generated using pymatgen
data_In22Ag21Sn22Bi21(Te54Pb11)2
_symmetry_space_group_name_H-M   'P 1'
_cell_length_a   19.18858272
_cell_length_b   19.21068848
_cell_length_c   19.17875442
_cell_angle_alpha   89.99285797
_cell_angle_beta   90.00984518
_cell_angle_gamma   90.00400997
_symmetry_Int_Tables_number   1
_chemical_formula_structural   In22Ag21Sn22Bi21(Te54Pb11)2
_chemical_formula_sum   'In22 Ag21 Sn22 Bi21 Te108 Pb22'
_cell_volume   7069.78514770
_cell_formula_units_Z   1
loop_
 _symmetry_equiv_pos_site_id
 _symmetry_equiv_pos_as_xyz
  1  'x, y, z'
loop_
 _atom_type_symbol
 _atom_type_oxidation_number
  In3+  3.0
  Ag+  1.0
  Sn2+  2.0
  Bi3+  3.0
  Te2-  -2.0
  Pb2+  2.0
loop_
 _atom_site_type_symbol
 _atom_site_label
 _atom_site_symmetry_multiplicity
 _atom_site_fract_x
 _atom_site_fract_y
 _atom_site_fract_z
 _atom_site_occupancy
  In3+  In0  1  0.66886182  0.81722064  0.16894889  1
  In3+  In1  1  0.66792494  0.01625966  0.32812238  1
  In3+  In2  1  0.32814464  0.34108324  0.66279088  1
  In3+  In3  1  0.84086510  0.17130581  0.65887334  1
  In3+  In4  1  0.50458110  0.16046592  0.65160306  1
  In3+  In5  1  0.33072256  0.18376472  0.16395260  1
  In3+  In6  1  0.65931853  0.17289607  0.83079244  1
  In3+  In7  1  0.66994472  0.33557427  0.01685065  1
  In3+  In8  1  0.84336522  0.82206563  0.66531150  1
  In3+  In9  1  -0.00005293  -0.00196978  0.67277715  1
  In3+  In10  1  -0.01435192  0.17292276  0.16933975  1
  In3+  In11  1  -0.02314507  0.64580589  0.66936285  1
  In3+  In12  1  0.32779617  0.49613089  0.17172850  1
  In3+  In13  1  0.16375618  -0.00174865  0.49250849  1
  In3+  In14  1  0.82864746  -0.00788407  0.15238983  1
  In3+  In15  1  -0.00450842  0.83994038  0.83629889  1
  In3+  In16  1  -0.00276692  0.18062580  0.49946060  1
  In3+  In17  1  -0.00078585  0.16495211  0.84693621  1
  In3+  In18  1  0.00610307  0.48420916  0.83717971  1
  In3+  In19  1  0.16415234  0.35070269  0.48486033  1
  In3+  In20  1  0.35140682  0.02133749  0.32997426  1
  In3+  In21  1  0.50080110  0.64370723  0.49079720  1
  Ag+  Ag22  1  0.18670181  0.36010794  0.85853241  1
  Ag+  Ag23  1  0.52469571  0.00277499  0.52130068  1
  Ag+  Ag24  1  0.70274236  0.35960712  0.37089301  1
  Ag+  Ag25  1  0.13998436  0.64838799  0.82187727  1
  Ag+  Ag26  1  0.17733180  0.47405498  -0.02530854  1
  Ag+  Ag27  1  0.85748431  0.47136482  0.66359429  1
  Ag+  Ag28  1  0.87208075  0.64266888  0.47595661  1
  Ag+  Ag29  1  0.68516796  0.17102523  0.18657231  1
  Ag+  Ag30  1  0.52017518  0.47303865  0.31438503  1
  Ag+  Ag31  1  0.86341977  0.63253614  0.19927258  1
  Ag+  Ag32  1  0.33471757  0.47131803  0.47392019  1
  Ag+  Ag33  1  0.01526078  -0.03126943  0.03123895  1
  Ag+  Ag34  1  0.69844744  0.46968294  0.47591707  1
  Ag+  Ag35  1  0.52342702  0.01768098  0.81603549  1
  Ag+  Ag36  1  -0.02665523  0.52310064  0.19857145  1
  Ag+  Ag37  1  0.34833748  0.34903862  0.31940276  1
  Ag+  Ag38  1  0.80379857  0.35780537  0.50095263  1
  Ag+  Ag39  1  -0.00371100  0.33437804  0.35876552  1
  Ag+  Ag40  1  0.84990533  0.80568376  0.02663312  1
  Ag+  Ag41  1  -0.02156546  0.53194523  0.47528842  1
  Ag+  Ag42  1  0.29959783  0.63796469  0.01656520  1
  Sn2+  Sn43  1  0.67034718  0.00593778  0.00367513  1
  Sn2+  Sn44  1  0.15837589  0.33869884  0.16654211  1
  Sn2+  Sn45  1  0.50713369  0.83445199  0.66261774  1
  Sn2+  Sn46  1  -0.00363984  0.00847572  0.33789027  1
  Sn2+  Sn47  1  0.83483612  0.66550182  0.83715435  1
  Sn2+  Sn48  1  0.66121764  0.83034366  0.49502734  1
  Sn2+  Sn49  1  0.16604894  0.17466070  0.33770482  1
  Sn2+  Sn50  1  0.33065326  0.16927869  0.82935854  1
  Sn2+  Sn51  1  0.66618862  0.34585600  0.66403067  1
  Sn2+  Sn52  1  0.49935342  0.83653418  0.34116278  1
  Sn2+  Sn53  1  0.16806020  0.82957303  -0.00665170  1
  Sn2+  Sn54  1  0.66614003  0.83830378  0.84010113  1
  Sn2+  Sn55  1  0.16939519  0.83861660  0.33421587  1
  Sn2+  Sn56  1  0.83504515  0.33743805  0.18326333  1
  Sn2+  Sn57  1  0.16601029  0.82749853  0.66712306  1
  Sn2+  Sn58  1  0.16845310  0.49815059  0.66263674  1
  Sn2+  Sn59  1  0.50662506  0.33335125  0.17149301  1
  Sn2+  Sn60  1  0.18189075  0.66345576  0.50784043  1
  Sn2+  Sn61  1  0.33266583  0.65509697  0.32999687  1
  Sn2+  Sn62  1  0.16984437  0.17002930  0.66814438  1
  Sn2+  Sn63  1  0.50360882  0.17460431  0.33207685  1
  Sn2+  Sn64  1  -0.00784256  0.83416472  0.49807554  1
  Bi3+  Bi65  1  0.00757599  0.32923565  0.66666088  1
  Bi3+  Bi66  1  0.16248014  0.00260233  0.83264546  1
  Bi3+  Bi67  1  0.32586320  0.16370932  0.50090213  1
  Bi3+  Bi68  1  0.83731527  0.16778343  0.33254603  1
  Bi3+  Bi69  1  0.33284716  0.66781588  0.66996200  1
  Bi3+  Bi70  1  0.50120194  0.16492411  0.00152879  1
  Bi3+  Bi71  1  0.83057419  0.16635225  -0.00495697  1
  Bi3+  Bi72  1  0.50550187  0.00223057  0.16301744  1
  Bi3+  Bi73  1  0.16661684  0.66613032  0.16184275  1
  Bi3+  Bi74  1  0.50104835  0.67258612  0.83348355  1
  Bi3+  Bi75  1  0.66159890  0.66968752  0.66515137  1
  Bi3+  Bi76  1  0.00090469  0.66405614  -0.00847764  1
  Bi3+  Bi77  1  0.33268178  0.83486862  0.49610061  1
  Bi3+  Bi78  1  0.33411786  0.83099091  0.16814574  1
  Bi3+  Bi79  1  0.16521866  0.50110291  0.32865212  1
  Bi3+  Bi80  1  0.82857530  0.00189287  0.83592331  1
  Bi3+  Bi81  1  0.50055631  0.66963260  0.16933153  1
  Bi3+  Bi82  1  -0.00402331  0.33336178  -0.00153760  1
  Bi3+  Bi83  1  0.49691560  0.49666393  0.66271687  1
  Bi3+  Bi84  1  0.66911906  0.49869278  0.82442966  1
  Bi3+  Bi85  1  0.50602980  0.83498453  -0.00022351  1
  Te2-  Te86  1  0.17790058  0.16846991  0.16969472  1
  Te2-  Te87  1  0.16446748  0.15553570  0.50188216  1
  Te2-  Te88  1  0.16141984  0.16305044  0.82862502  1
  Te2-  Te89  1  0.17215702  0.50675985  0.16706399  1
  Te2-  Te90  1  0.18224338  0.50285897  0.49459047  1
  Te2-  Te91  1  0.16006442  0.50298237  0.83047458  1
  Te2-  Te92  1  0.16813773  0.83081525  0.16552436  1
  Te2-  Te93  1  0.16933912  0.83708583  0.50041783  1
  Te2-  Te94  1  0.15654420  0.84104418  0.83211365  1
  Te2-  Te95  1  0.48826584  0.16352297  0.16349042  1
  Te2-  Te96  1  0.49188338  0.15003286  0.49929726  1
  Te2-  Te97  1  0.50020074  0.16161094  0.83958687  1
  Te2-  Te98  1  0.49061726  0.50639074  0.17246487  1
  Te2-  Te99  1  0.48236582  0.49594499  0.50204304  1
  Te2-  Te100  1  0.50386699  0.50224186  0.83279102  1
  Te2-  Te101  1  0.50159617  0.83535628  0.16634351  1
  Te2-  Te102  1  0.49430878  0.85515042  0.50008416  1
  Te2-  Te103  1  0.50198579  0.83391683  0.83575725  1
  Te2-  Te104  1  0.83127173  0.16727902  0.16276927  1
  Te2-  Te105  1  0.84085771  0.16605516  0.49807697  1
  Te2-  Te106  1  0.83256485  0.16474956  0.82955174  1
  Te2-  Te107  1  0.83344071  0.49418015  0.16581570  1
  Te2-  Te108  1  0.83766230  0.50319367  0.51643109  1
  Te2-  Te109  1  0.82970078  0.50117657  0.81461952  1
  Te2-  Te110  1  0.82519888  0.83992665  0.16579088  1
  Te2-  Te111  1  0.83125210  0.83161050  0.51053296  1
  Te2-  Te112  1  0.83241114  0.84079666  0.82291207  1
  Te2-  Te113  1  0.15518820  -0.00171992  -0.00111661  1
  Te2-  Te114  1  0.15753167  0.00120897  0.33636794  1
  Te2-  Te115  1  0.15708150  -0.00111972  0.66892529  1
  Te2-  Te116  1  0.16007804  0.33074762  0.00064034  1
  Te2-  Te117  1  0.15836261  0.33547556  0.33159962  1
  Te2-  Te118  1  0.16847689  0.33145363  0.66476227  1
  Te2-  Te119  1  0.16102390  0.67484669  -0.00658951  1
  Te2-  Te120  1  0.16683905  0.66635709  0.33014607  1
  Te2-  Te121  1  0.17346429  0.66939517  0.67686881  1
  Te2-  Te122  1  0.50145475  0.00010806  0.00142636  1
  Te2-  Te123  1  0.50497377  0.00427468  0.32508954  1
  Te2-  Te124  1  0.49755838  0.00571913  0.67144098  1
  Te2-  Te125  1  0.50583336  0.33036892  0.00304210  1
  Te2-  Te126  1  0.49383838  0.33093749  0.33021547  1
  Te2-  Te127  1  0.48948736  0.33087874  0.66670590  1
  Te2-  Te128  1  0.50060905  0.67066495  0.00003975  1
  Te2-  Te129  1  0.49486831  0.67053992  0.33240447  1
  Te2-  Te130  1  0.49732344  0.66721037  0.66825272  1
  Te2-  Te131  1  0.83589671  0.00526490  -0.00147805  1
  Te2-  Te132  1  0.83047151  0.00624472  0.32715763  1
  Te2-  Te133  1  0.83695222  0.01575687  0.67121228  1
  Te2-  Te134  1  0.83068081  0.32918475  -0.00383314  1
  Te2-  Te135  1  0.84288656  0.32858409  0.34305924  1
  Te2-  Te136  1  0.83774970  0.32491844  0.65155190  1
  Te2-  Te137  1  0.83730137  0.66447505  -0.00280559  1
  Te2-  Te138  1  0.83474804  0.66960388  0.33704229  1
  Te2-  Te139  1  0.82691780  0.67196240  0.66536413  1
  Te2-  Te140  1  -0.00746254  0.16881205  0.00784376  1
  Te2-  Te141  1  -0.00102247  0.17801832  0.33150882  1
  Te2-  Te142  1  -0.00100891  0.16538821  0.65433916  1
  Te2-  Te143  1  0.00696854  0.49945582  -0.00909862  1
  Te2-  Te144  1  0.00420751  0.48875333  0.33818058  1
  Te2-  Te145  1  0.00398768  0.49595954  0.67531165  1
  Te2-  Te146  1  -0.00852917  0.83003352  -0.00720323  1
  Te2-  Te147  1  0.00068422  0.83299803  0.33498703  1
  Te2-  Te148  1  -0.00416265  0.84512367  0.66691824  1
  Te2-  Te149  1  0.33520675  0.16544656  0.00329062  1
  Te2-  Te150  1  0.33179106  0.17123001  0.33694825  1
  Te2-  Te151  1  0.33790326  0.16934237  0.66443827  1
  Te2-  Te152  1  0.32462339  0.49681909  0.00038961  1
  Te2-  Te153  1  0.32976934  0.49557554  0.32857692  1
  Te2-  Te154  1  0.33431294  0.50033804  0.66399944  1
  Te2-  Te155  1  0.33843422  0.83505291  0.00536780  1
  Te2-  Te156  1  0.33082406  0.82800660  0.33213278  1
  Te2-  Te157  1  0.33526574  0.83403780  0.66144162  1
  Te2-  Te158  1  0.66587319  0.17459419  -0.01049613  1
  Te2-  Te159  1  0.67155661  0.16964995  0.33353664  1
  Te2-  Te160  1  0.65791710  0.17064831  0.67200076  1
  Te2-  Te161  1  0.66641655  0.49276964  -0.00846734  1
  Te2-  Te162  1  0.66200232  0.49761040  0.33546403  1
  Te2-  Te163  1  0.65717934  0.50596962  0.66337704  1
  Te2-  Te164  1  0.66770633  0.83997027  0.00793327  1
  Te2-  Te165  1  0.66386856  0.83483567  0.32578001  1
  Te2-  Te166  1  0.66528599  0.83481469  0.66750695  1
  Te2-  Te167  1  -0.00738189  0.00716818  0.16984031  1
  Te2-  Te168  1  0.00560436  -0.00250258  0.49836302  1
  Te2-  Te169  1  -0.00573230  0.00249938  0.83002863  1
  Te2-  Te170  1  -0.00098204  0.32702793  0.15738035  1
  Te2-  Te171  1  0.01291656  0.33273285  0.50614919  1
  Te2-  Te172  1  0.00472618  0.32850304  0.83041026  1
  Te2-  Te173  1  0.00219486  0.66399819  0.16084700  1
  Te2-  Te174  1  0.01216639  0.66934080  0.51972340  1
  Te2-  Te175  1  -0.00341154  0.67716882  0.82329540  1
  Te2-  Te176  1  0.33618709  -0.00643063  0.17669333  1
  Te2-  Te177  1  0.32130446  -0.00007860  0.48930034  1
  Te2-  Te178  1  0.32422059  0.00233038  0.83237222  1
  Te2-  Te179  1  0.33296780  0.33678909  0.17270451  1
  Te2-  Te180  1  0.31760530  0.32601514  0.50478768  1
  Te2-  Te181  1  0.32643248  0.32838146  0.82938630  1
  Te2-  Te182  1  0.33463294  0.66968958  0.15872189  1
  Te2-  Te183  1  0.34377474  0.67441908  0.50346056  1
  Te2-  Te184  1  0.33997778  0.66904512  0.83196453  1
  Te2-  Te185  1  0.66747553  0.01805336  0.16987817  1
  Te2-  Te186  1  0.66831222  -0.00443212  0.49017970  1
  Te2-  Te187  1  0.66620870  0.00421256  0.83431187  1
  Te2-  Te188  1  0.66474312  0.32107833  0.16829386  1
  Te2-  Te189  1  0.65743001  0.32832573  0.50732981  1
  Te2-  Te190  1  0.66736972  0.33284146  0.82372102  1
  Te2-  Te191  1  0.66330832  0.66311855  0.16557138  1
  Te2-  Te192  1  0.65321354  0.67217394  0.50489596  1
  Te2-  Te193  1  0.66610878  0.66730841  0.82898251  1
  Pb2+  Pb194  1  0.33420340  0.33262511  0.00222198  1
  Pb2+  Pb195  1  0.32829640  0.83299084  0.83472859  1
  Pb2+  Pb196  1  0.83866926  0.49831484  -0.00936259  1
  Pb2+  Pb197  1  0.83559257  0.33424637  0.82298824  1
  Pb2+  Pb198  1  0.16184246  0.16511484  -0.00012884  1
  Pb2+  Pb199  1  0.16503405  0.00348294  0.17082085  1
  Pb2+  Pb200  1  0.66401926  0.66497089  0.33827934  1
  Pb2+  Pb201  1  0.49278725  0.50354475  0.00498385  1
  Pb2+  Pb202  1  0.33314448  0.50333389  0.83126751  1
  Pb2+  Pb203  1  0.66855638  0.16272055  0.50014762  1
  Pb2+  Pb204  1  0.48772088  0.32922755  0.49770192  1
  Pb2+  Pb205  1  0.66774900  0.00164316  0.66453313  1
  Pb2+  Pb206  1  -0.00293044  0.83551105  0.16583108  1
  Pb2+  Pb207  1  0.83383773  0.49750162  0.35000560  1
  Pb2+  Pb208  1  0.83860571  -0.00231252  0.50012802  1
  Pb2+  Pb209  1  0.32612077  0.00272158  0.66365114  1
  Pb2+  Pb210  1  0.66801852  0.67031381  -0.00195335  1
  Pb2+  Pb211  1  0.00251924  0.66335440  0.34111313  1
  Pb2+  Pb212  1  0.83122371  0.83654333  0.33840912  1
  Pb2+  Pb213  1  0.32656950  -0.00156295  0.00039198  1
  Pb2+  Pb214  1  0.49781865  0.32888975  0.83279328  1
  Pb2+  Pb215  1  0.66505032  0.49012146  0.16805995  1
