# generated using pymatgen
data_In22Ag21Sn22Bi21(Te54Pb11)2
_symmetry_space_group_name_H-M   'P 1'
_cell_length_a   19.15544107
_cell_length_b   19.17174471
_cell_length_c   19.17166644
_cell_angle_alpha   90.01064393
_cell_angle_beta   89.98605350
_cell_angle_gamma   90.01280558
_symmetry_Int_Tables_number   1
_chemical_formula_structural   In22Ag21Sn22Bi21(Te54Pb11)2
_chemical_formula_sum   'In22 Ag21 Sn22 Bi21 Te108 Pb22'
_cell_volume   7040.66412900
_cell_formula_units_Z   1
loop_
 _symmetry_equiv_pos_site_id
 _symmetry_equiv_pos_as_xyz
  1  'x, y, z'
loop_
 _atom_type_symbol
 _atom_type_oxidation_number
  In3+  3.0
  Ag+  1.0
  Sn2+  2.0
  Bi3+  3.0
  Te2-  -2.0
  Pb2+  2.0
loop_
 _atom_site_type_symbol
 _atom_site_label
 _atom_site_symmetry_multiplicity
 _atom_site_fract_x
 _atom_site_fract_y
 _atom_site_fract_z
 _atom_site_occupancy
  In3+  In0  1  0.49958259  0.82758982  0.68714489  1
  In3+  In1  1  0.82257778  0.00420610  0.50958157  1
  In3+  In2  1  0.31572992  0.17898947  0.83360777  1
  In3+  In3  1  0.83575282  0.82283436  0.68904067  1
  In3+  In4  1  0.50008186  0.01552494  0.15927775  1
  In3+  In5  1  0.16183861  0.01102249  0.52710722  1
  In3+  In6  1  0.51260463  0.49628491  0.02729382  1
  In3+  In7  1  0.68235595  0.30836699  0.33768754  1
  In3+  In8  1  -0.01427438  0.16714677  0.16727223  1
  In3+  In9  1  0.67676334  0.01543896  0.66648795  1
  In3+  In10  1  0.15664638  0.84906762  -0.01469108  1
  In3+  In11  1  0.17408080  0.67362807  0.16194896  1
  In3+  In12  1  0.36436496  0.50471977  0.83750791  1
  In3+  In13  1  0.17218143  0.67090141  0.48706261  1
  In3+  In14  1  0.34607672  0.66596602  0.31503327  1
  In3+  In15  1  0.18057424  0.49290842  -0.01738572  1
  In3+  In16  1  -0.00344148  0.50885363  0.16315747  1
  In3+  In17  1  0.51423652  0.48338789  0.33000807  1
  In3+  In18  1  0.82087791  0.50832752  0.66675607  1
  In3+  In19  1  -0.00379111  0.33605589  0.67463728  1
  In3+  In20  1  0.82913286  0.13923882  0.32783750  1
  In3+  In21  1  0.15463999  0.17179559  0.65980695  1
  Ag+  Ag22  1  0.81144280  0.00594533  0.85705912  1
  Ag+  Ag23  1  0.52867417  0.31472855  0.16428633  1
  Ag+  Ag24  1  0.83237701  0.64252028  0.83821270  1
  Ag+  Ag25  1  0.01994918  0.80689344  0.14974001  1
  Ag+  Ag26  1  0.18192704  0.32036935  0.86041601  1
  Ag+  Ag27  1  0.00364800  0.86032838  0.80789280  1
  Ag+  Ag28  1  0.85923165  0.82213398  0.36150222  1
  Ag+  Ag29  1  0.69207384  0.52788584  0.49181804  1
  Ag+  Ag30  1  0.52193406  0.65946296  0.16978553  1
  Ag+  Ag31  1  0.36386468  0.31607407  0.00011926  1
  Ag+  Ag32  1  0.85293435  0.17943579  0.02852853  1
  Ag+  Ag33  1  -0.02234314  0.16444494  0.51815437  1
  Ag+  Ag34  1  0.64911033  0.20736907  0.14490070  1
  Ag+  Ag35  1  0.66611906  0.47312479  0.85973860  1
  Ag+  Ag36  1  0.69492875  0.64307157  0.01905411  1
  Ag+  Ag37  1  0.67150963  0.31581371  -0.03007536  1
  Ag+  Ag38  1  0.30572271  0.64354559  0.67415619  1
  Ag+  Ag39  1  0.15429485  0.02609504  0.83644668  1
  Ag+  Ag40  1  0.35977767  0.18270926  0.12997546  1
  Ag+  Ag41  1  0.85247057  0.16451797  0.68862295  1
  Ag+  Ag42  1  0.69878348  0.19049109  0.52598944  1
  Sn2+  Sn43  1  0.49985869  0.16066075  0.66761216  1
  Sn2+  Sn44  1  0.83352903  0.32470496  0.50840450  1
  Sn2+  Sn45  1  -0.00685478  0.32920730  0.33889518  1
  Sn2+  Sn46  1  0.49522379  0.00374312  0.49466775  1
  Sn2+  Sn47  1  -0.00101300  0.00050823  0.33706274  1
  Sn2+  Sn48  1  0.66682397  0.50141307  0.17125647  1
  Sn2+  Sn49  1  0.66999185  0.34057874  0.66014310  1
  Sn2+  Sn50  1  0.83650748  0.67197547  0.50108069  1
  Sn2+  Sn51  1  0.50531830  0.17524351  -0.00561357  1
  Sn2+  Sn52  1  0.16459040  0.17331872  0.00239814  1
  Sn2+  Sn53  1  0.49734883  0.81653562  0.00979255  1
  Sn2+  Sn54  1  0.66850738  0.67036137  0.32808393  1
  Sn2+  Sn55  1  0.67345023  0.16742938  0.83601155  1
  Sn2+  Sn56  1  0.32672768  0.48424282  0.16413252  1
  Sn2+  Sn57  1  0.00121988  0.65914018  0.67153513  1
  Sn2+  Sn58  1  -0.01036953  0.49824533  0.83968415  1
  Sn2+  Sn59  1  -0.00710261  0.16065894  0.83464820  1
  Sn2+  Sn60  1  -0.01154909  0.33236217  -0.00030643  1
  Sn2+  Sn61  1  -0.00457966  0.84275190  0.49286726  1
  Sn2+  Sn62  1  0.16327473  0.49628003  0.67257422  1
  Sn2+  Sn63  1  0.83204465  0.67533764  0.15670611  1
  Sn2+  Sn64  1  0.16312273  0.00622907  0.16108477  1
  Bi3+  Bi65  1  0.50457591  0.49981675  0.65904901  1
  Bi3+  Bi66  1  0.33084813  0.00323861  0.32951776  1
  Bi3+  Bi67  1  0.16616659  0.33234391  0.16358252  1
  Bi3+  Bi68  1  0.66294956  -0.00337272  0.33330571  1
  Bi3+  Bi69  1  0.67573654  0.83093122  0.83208758  1
  Bi3+  Bi70  1  0.16491510  0.83387939  0.33105483  1
  Bi3+  Bi71  1  0.33106440  0.83109640  0.50272209  1
  Bi3+  Bi72  1  0.83562830  0.32500644  0.83050962  1
  Bi3+  Bi73  1  0.00037648  0.66738473  0.33947217  1
  Bi3+  Bi74  1  0.49805780  0.16696830  0.33389457  1
  Bi3+  Bi75  1  0.33067449  0.66398099  -0.00777057  1
  Bi3+  Bi76  1  0.49861467  0.82896909  0.32913096  1
  Bi3+  Bi77  1  0.66781027  0.67282733  0.66640522  1
  Bi3+  Bi78  1  0.16730782  0.50034702  0.33469098  1
  Bi3+  Bi79  1  0.33024790  0.50241637  0.50382097  1
  Bi3+  Bi80  1  0.66594463  0.83407472  0.16005636  1
  Bi3+  Bi81  1  0.83200513  -0.00262276  0.16556605  1
  Bi3+  Bi82  1  0.16427551  0.33458077  0.49867506  1
  Bi3+  Bi83  1  0.15904616  0.65939337  0.83556277  1
  Bi3+  Bi84  1  0.83300807  0.83669327  -0.00243926  1
  Bi3+  Bi85  1  0.33927634  0.00016312  0.66742243  1
  Te2-  Te86  1  0.16395172  0.16746851  0.16309643  1
  Te2-  Te87  1  0.16614047  0.16908689  0.50242899  1
  Te2-  Te88  1  0.16470290  0.17584522  0.83159459  1
  Te2-  Te89  1  0.16301245  0.49886469  0.17371137  1
  Te2-  Te90  1  0.16695452  0.50080046  0.50176367  1
  Te2-  Te91  1  0.15868810  0.49797125  0.82992313  1
  Te2-  Te92  1  0.16334864  0.83402291  0.16716900  1
  Te2-  Te93  1  0.16537122  0.83347968  0.49698888  1
  Te2-  Te94  1  0.14954742  0.82108163  0.83436829  1
  Te2-  Te95  1  0.50150833  0.17021865  0.16785523  1
  Te2-  Te96  1  0.50066174  0.16517608  0.49565859  1
  Te2-  Te97  1  0.50555199  0.16884615  0.83572223  1
  Te2-  Te98  1  0.49349385  0.51123364  0.17769410  1
  Te2-  Te99  1  0.49171914  0.50038365  0.49265445  1
  Te2-  Te100  1  0.51892325  0.49883621  0.82341698  1
  Te2-  Te101  1  0.49982950  0.81704474  0.16691526  1
  Te2-  Te102  1  0.49455309  0.83362138  0.49120216  1
  Te2-  Te103  1  0.50185566  0.83113158  0.84386037  1
  Te2-  Te104  1  0.82527824  0.16364713  0.17224803  1
  Te2-  Te105  1  0.83365012  0.15714326  0.48029874  1
  Te2-  Te106  1  0.83111267  0.15928877  0.83522757  1
  Te2-  Te107  1  0.83778428  0.50623428  0.16474078  1
  Te2-  Te108  1  0.83489453  0.49846018  0.51042469  1
  Te2-  Te109  1  0.81946525  0.49244477  0.82186486  1
  Te2-  Te110  1  0.82804975  0.83500144  0.15908043  1
  Te2-  Te111  1  0.83716638  0.84705953  0.50343651  1
  Te2-  Te112  1  0.84355033  0.85614057  0.83665051  1
  Te2-  Te113  1  0.16627424  0.00203973  -0.01147052  1
  Te2-  Te114  1  0.16865390  -0.00430131  0.32726144  1
  Te2-  Te115  1  0.17279886  0.00517163  0.68123338  1
  Te2-  Te116  1  0.15791253  0.34169275  0.00276047  1
  Te2-  Te117  1  0.16475255  0.33518509  0.33288506  1
  Te2-  Te118  1  0.15980764  0.32918053  0.66085026  1
  Te2-  Te119  1  0.16655137  0.65278226  0.00143473  1
  Te2-  Te120  1  0.16494228  0.66705841  0.32947119  1
  Te2-  Te121  1  0.16078745  0.66508584  0.67401021  1
  Te2-  Te122  1  0.49865978  -0.00575830  0.00640631  1
  Te2-  Te123  1  0.49510057  -0.00376379  0.32629850  1
  Te2-  Te124  1  0.50086043  -0.00607339  0.65855851  1
  Te2-  Te125  1  0.50797580  0.34480133  0.01293142  1
  Te2-  Te126  1  0.49933532  0.33250606  0.31944593  1
  Te2-  Te127  1  0.50074881  0.33637050  0.66773787  1
  Te2-  Te128  1  0.49066966  0.65347826  0.00741340  1
  Te2-  Te129  1  0.49886960  0.66757979  0.32356378  1
  Te2-  Te130  1  0.50688756  0.66590031  0.66739961  1
  Te2-  Te131  1  0.83103354  0.00831386  0.00382387  1
  Te2-  Te132  1  0.82911424  -0.01490284  0.32870742  1
  Te2-  Te133  1  0.82805444  0.01894528  0.66011911  1
  Te2-  Te134  1  0.82039611  0.32291691  -0.00521950  1
  Te2-  Te135  1  0.83189220  0.34182992  0.33696200  1
  Te2-  Te136  1  0.83866464  0.31433132  0.66506659  1
  Te2-  Te137  1  0.83389061  0.67155691  -0.01339776  1
  Te2-  Te138  1  0.83814121  0.67695816  0.33461479  1
  Te2-  Te139  1  0.83265857  0.66744420  0.66854395  1
  Te2-  Te140  1  -0.00154035  0.17370910  0.00644612  1
  Te2-  Te141  1  -0.00857186  0.16756183  0.32292079  1
  Te2-  Te142  1  0.00138609  0.16796892  0.66388882  1
  Te2-  Te143  1  -0.00547190  0.49573248  0.00814348  1
  Te2-  Te144  1  0.00301092  0.50134517  0.33035344  1
  Te2-  Te145  1  -0.00756567  0.49087310  0.66862308  1
  Te2-  Te146  1  0.00222009  0.83418528  0.00744359  1
  Te2-  Te147  1  0.00402279  0.83124124  0.33135451  1
  Te2-  Te148  1  -0.00907952  0.83140205  0.66310399  1
  Te2-  Te149  1  0.33284472  0.17158606  -0.01224352  1
  Te2-  Te150  1  0.33471769  0.16452906  0.33464242  1
  Te2-  Te151  1  0.33634024  0.16500483  0.67795315  1
  Te2-  Te152  1  0.33088776  0.50118177  -0.00757159  1
  Te2-  Te153  1  0.32816641  0.50711054  0.33831193  1
  Te2-  Te154  1  0.33746931  0.49979985  0.66970479  1
  Te2-  Te155  1  0.32048391  0.82849364  -0.00067594  1
  Te2-  Te156  1  0.32967034  0.83070664  0.33740786  1
  Te2-  Te157  1  0.33778934  0.83756123  0.66422054  1
  Te2-  Te158  1  0.65756302  0.17301907  0.00375878  1
  Te2-  Te159  1  0.66211815  0.15830174  0.32924211  1
  Te2-  Te160  1  0.65626405  0.16604398  0.66365043  1
  Te2-  Te161  1  0.66102140  0.50284621  0.00342746  1
  Te2-  Te162  1  0.66290992  0.51233293  0.34349140  1
  Te2-  Te163  1  0.66710913  0.50307994  0.64554460  1
  Te2-  Te164  1  0.66675295  0.83121452  -0.00340464  1
  Te2-  Te165  1  0.66108561  0.83441676  0.32624325  1
  Te2-  Te166  1  0.67649523  0.83843843  0.66875980  1
  Te2-  Te167  1  -0.00415184  0.00938964  0.16940996  1
  Te2-  Te168  1  0.00667931  0.01370566  0.49611709  1
  Te2-  Te169  1  0.00912752  0.00527445  0.83056301  1
  Te2-  Te170  1  0.00271279  0.32625231  0.16866684  1
  Te2-  Te171  1  0.00285064  0.31709982  0.49804991  1
  Te2-  Te172  1  -0.00518358  0.33320107  0.83023955  1
  Te2-  Te173  1  -0.00119526  0.66338790  0.17319422  1
  Te2-  Te174  1  -0.00295007  0.66700582  0.50046417  1
  Te2-  Te175  1  -0.01086318  0.65581128  0.83095033  1
  Te2-  Te176  1  0.33370282  0.00842106  0.16834519  1
  Te2-  Te177  1  0.32508590  -0.00377437  0.49865147  1
  Te2-  Te178  1  0.33501779  -0.00212653  0.82893282  1
  Te2-  Te179  1  0.32665654  0.32645654  0.14981774  1
  Te2-  Te180  1  0.32880350  0.33713311  0.49907236  1
  Te2-  Te181  1  0.32710830  0.33374529  0.84479007  1
  Te2-  Te182  1  0.32513010  0.66202286  0.15880421  1
  Te2-  Te183  1  0.32601942  0.66748483  0.52194201  1
  Te2-  Te184  1  0.32973473  0.66148338  0.82642454  1
  Te2-  Te185  1  0.66239785  -0.00234115  0.16984167  1
  Te2-  Te186  1  0.66693317  0.00639654  0.49694711  1
  Te2-  Te187  1  0.66818058  -0.00468517  0.82218465  1
  Te2-  Te188  1  0.67055158  0.34596680  0.18631123  1
  Te2-  Te189  1  0.66871163  0.32838394  0.49099364  1
  Te2-  Te190  1  0.67167294  0.33046062  0.82346651  1
  Te2-  Te191  1  0.66937397  0.66893157  0.16090982  1
  Te2-  Te192  1  0.67129564  0.67375142  0.50069416  1
  Te2-  Te193  1  0.68190426  0.67307831  0.82559849  1
  Pb2+  Pb194  1  -0.00110710  0.49009994  0.50047966  1
  Pb2+  Pb195  1  0.33155070  0.83888323  0.16591950  1
  Pb2+  Pb196  1  0.83621878  0.33472938  0.16563942  1
  Pb2+  Pb197  1  0.83094497  0.50957405  0.33420612  1
  Pb2+  Pb198  1  0.50336154  0.33265643  0.49764808  1
  Pb2+  Pb199  1  0.49969445  0.00286551  0.82998442  1
  Pb2+  Pb200  1  -0.00308519  0.00311926  -0.00136008  1
  Pb2+  Pb201  1  0.66531778  0.00460334  -0.00104200  1
  Pb2+  Pb202  1  0.49577487  0.66608944  0.49645743  1
  Pb2+  Pb203  1  0.51531693  0.66459492  0.84076876  1
  Pb2+  Pb204  1  0.16350777  0.83416966  0.66608073  1
  Pb2+  Pb205  1  0.32373086  0.83127487  0.83281785  1
  Pb2+  Pb206  1  -0.00442069  -0.00124885  0.66596921  1
  Pb2+  Pb207  1  0.33438637  0.16579749  0.50717608  1
  Pb2+  Pb208  1  0.33376663  0.33627839  0.31873925  1
  Pb2+  Pb209  1  0.33314191  0.00450896  -0.00226887  1
  Pb2+  Pb210  1  -0.00120804  0.66699203  -0.00213973  1
  Pb2+  Pb211  1  0.33053050  0.33618272  0.67455798  1
  Pb2+  Pb212  1  0.66691999  0.84002480  0.49951956  1
  Pb2+  Pb213  1  0.82808766  0.49376913  -0.00685610  1
  Pb2+  Pb214  1  0.49546561  0.33460557  0.84289725  1
  Pb2+  Pb215  1  0.16087367  0.16370254  0.32973183  1
