# generated using pymatgen
data_In22Ag21Sn22Bi21(Te54Pb11)2
_symmetry_space_group_name_H-M   'P 1'
_cell_length_a   19.14059959
_cell_length_b   19.11382232
_cell_length_c   19.15599321
_cell_angle_alpha   90.00584323
_cell_angle_beta   89.97221349
_cell_angle_gamma   89.99720624
_symmetry_Int_Tables_number   1
_chemical_formula_structural   In22Ag21Sn22Bi21(Te54Pb11)2
_chemical_formula_sum   'In22 Ag21 Sn22 Bi21 Te108 Pb22'
_cell_volume   7008.21962181
_cell_formula_units_Z   1
loop_
 _symmetry_equiv_pos_site_id
 _symmetry_equiv_pos_as_xyz
  1  'x, y, z'
loop_
 _atom_type_symbol
 _atom_type_oxidation_number
  In3+  3.0
  Ag+  1.0
  Sn2+  2.0
  Bi3+  3.0
  Te2-  -2.0
  Pb2+  2.0
loop_
 _atom_site_type_symbol
 _atom_site_label
 _atom_site_symmetry_multiplicity
 _atom_site_fract_x
 _atom_site_fract_y
 _atom_site_fract_z
 _atom_site_occupancy
  In3+  In0  1  0.48798939  0.50393492  -0.01301560  1
  In3+  In1  1  0.82879356  0.31741298  0.50346283  1
  In3+  In2  1  0.00456300  0.50296588  0.16529949  1
  In3+  In3  1  0.48540921  0.00498550  0.51508109  1
  In3+  In4  1  0.66816374  0.49890611  0.50433967  1
  In3+  In5  1  0.82879325  -0.00145473  0.82430998  1
  In3+  In6  1  0.00835479  0.66599264  0.33397238  1
  In3+  In7  1  0.66647442  0.83915193  0.17008812  1
  In3+  In8  1  0.50747032  0.33653724  0.16782066  1
  In3+  In9  1  0.36088546  0.32700976  0.66164393  1
  In3+  In10  1  0.19147640  0.65063592  0.83447939  1
  In3+  In11  1  0.66604522  -0.00300348  0.00992293  1
  In3+  In12  1  -0.00467732  0.51899290  0.83157087  1
  In3+  In13  1  0.64689343  0.82607820  0.83541219  1
  In3+  In14  1  0.66611012  0.18319090  0.16668645  1
  In3+  In15  1  0.31747381  0.50692124  0.51455584  1
  In3+  In16  1  0.48874954  0.00389737  0.16667335  1
  In3+  In17  1  0.83675403  -0.00547686  0.50201285  1
  In3+  In18  1  0.83803919  0.15690929  0.00588417  1
  In3+  In19  1  -0.01229113  0.02080396  0.33389247  1
  In3+  In20  1  0.00159334  0.83504798  0.84551768  1
  In3+  In21  1  0.17011745  0.31449429  0.17027875  1
  Ag+  Ag22  1  0.52675250  0.00600194  0.86037498  1
  Ag+  Ag23  1  -0.02489658  0.16067408  0.81113824  1
  Ag+  Ag24  1  0.30219468  0.64152023  0.30028741  1
  Ag+  Ag25  1  0.83071966  0.85669577  0.02495842  1
  Ag+  Ag26  1  0.52854625  0.16950547  0.69010499  1
  Ag+  Ag27  1  0.64499151  0.46480693  0.80113867  1
  Ag+  Ag28  1  0.66303952  0.30942761  0.68734399  1
  Ag+  Ag29  1  0.19048678  0.66516757  0.18795172  1
  Ag+  Ag30  1  0.49041104  0.64253074  0.83314532  1
  Ag+  Ag31  1  0.34106406  0.63673030  0.68478855  1
  Ag+  Ag32  1  0.31765838  0.15980513  0.14578277  1
  Ag+  Ag33  1  0.29886435  0.67464431  0.01505013  1
  Ag+  Ag34  1  0.85657323  0.49680125  0.35843920  1
  Ag+  Ag35  1  0.36037717  0.53702387  0.83796114  1
  Ag+  Ag36  1  0.69285912  0.31865465  0.34777447  1
  Ag+  Ag37  1  0.01822929  0.14480349  0.16650312  1
  Ag+  Ag38  1  0.19015067  0.67006439  0.48315580  1
  Ag+  Ag39  1  0.64100796  0.86540509  0.46692019  1
  Ag+  Ag40  1  0.19024902  0.82984228  0.01959233  1
  Ag+  Ag41  1  -0.00056975  0.18486524  0.51672903  1
  Ag+  Ag42  1  0.01771511  0.00030036  0.69467992  1
  Sn2+  Sn43  1  -0.00077501  0.00057396  -0.00058712  1
  Sn2+  Sn44  1  0.33186501  0.81861255  0.49560064  1
  Sn2+  Sn45  1  -0.00628035  0.49747045  0.49921480  1
  Sn2+  Sn46  1  0.83646646  0.66454916  0.16742184  1
  Sn2+  Sn47  1  0.33312601  0.00511412  0.66900881  1
  Sn2+  Sn48  1  0.00311700  0.83290332  0.15783798  1
  Sn2+  Sn49  1  0.16892371  0.16206366  0.33878618  1
  Sn2+  Sn50  1  0.17200592  0.51392550  0.00464997  1
  Sn2+  Sn51  1  0.33703807  0.00000203  0.33308675  1
  Sn2+  Sn52  1  0.16861571  0.83240111  0.66717481  1
  Sn2+  Sn53  1  0.16477475  -0.01252222  0.16368356  1
  Sn2+  Sn54  1  -0.00477998  0.33538715  0.33590221  1
  Sn2+  Sn55  1  0.83854668  0.81992190  0.33375354  1
  Sn2+  Sn56  1  0.32772982  0.33932659  -0.00682293  1
  Sn2+  Sn57  1  0.66299407  0.16267533  0.83654360  1
  Sn2+  Sn58  1  0.83810424  0.00027599  0.16624781  1
  Sn2+  Sn59  1  0.49851732  0.50320424  0.66436353  1
  Sn2+  Sn60  1  0.33497940  0.17272902  0.83526303  1
  Sn2+  Sn61  1  0.16526655  0.83767499  0.33394262  1
  Sn2+  Sn62  1  0.83834599  0.17191923  0.33277191  1
  Sn2+  Sn63  1  0.83982557  0.16640993  0.66800629  1
  Sn2+  Sn64  1  0.50460924  0.32905129  0.49205926  1
  Bi3+  Bi65  1  0.00124470  0.33224533  0.00070545  1
  Bi3+  Bi66  1  0.66941337  0.66862067  -0.00071056  1
  Bi3+  Bi67  1  0.66943013  0.50610201  0.16423003  1
  Bi3+  Bi68  1  -0.00184976  0.66655349  0.00226671  1
  Bi3+  Bi69  1  0.16291780  0.32909774  0.83466208  1
  Bi3+  Bi70  1  0.49822284  0.16825360  0.32976833  1
  Bi3+  Bi71  1  0.66699062  0.65939710  0.33691425  1
  Bi3+  Bi72  1  0.83254410  0.49982856  0.66949589  1
  Bi3+  Bi73  1  0.83673928  0.83509339  0.66408984  1
  Bi3+  Bi74  1  0.83166664  0.66894630  0.49789089  1
  Bi3+  Bi75  1  0.33218172  0.33716351  0.33347243  1
  Bi3+  Bi76  1  0.49678286  0.83250158  0.33289027  1
  Bi3+  Bi77  1  0.16436924  0.16761541  0.66540558  1
  Bi3+  Bi78  1  0.65819518  0.66933083  0.66920021  1
  Bi3+  Bi79  1  0.16601338  0.49928748  0.67278768  1
  Bi3+  Bi80  1  0.32617314  0.84153425  0.83017075  1
  Bi3+  Bi81  1  0.50076980  0.50166581  0.33539133  1
  Bi3+  Bi82  1  0.83466674  0.50010827  -0.00125081  1
  Bi3+  Bi83  1  0.66749467  -0.00182447  0.66669349  1
  Bi3+  Bi84  1  0.16151079  -0.00079277  0.83591187  1
  Bi3+  Bi85  1  -0.00075057  0.82991456  0.49637015  1
  Te2-  Te86  1  0.16966189  0.16151400  0.16876694  1
  Te2-  Te87  1  0.15080033  0.16606154  0.49936656  1
  Te2-  Te88  1  0.16831654  0.16445474  0.83106139  1
  Te2-  Te89  1  0.16276106  0.51772147  0.16079247  1
  Te2-  Te90  1  0.16292116  0.51243842  0.50751073  1
  Te2-  Te91  1  0.15982395  0.49517039  0.83407222  1
  Te2-  Te92  1  0.16407209  0.82242188  0.16631552  1
  Te2-  Te93  1  0.16332157  0.82004935  0.50070165  1
  Te2-  Te94  1  0.15752158  0.83931071  0.82833304  1
  Te2-  Te95  1  0.50808987  0.16789695  0.16859011  1
  Te2-  Te96  1  0.50075356  0.16018459  0.49102117  1
  Te2-  Te97  1  0.49677472  0.15374973  0.83384008  1
  Te2-  Te98  1  0.50226868  0.49617286  0.16815804  1
  Te2-  Te99  1  0.50694384  0.49424857  0.49932746  1
  Te2-  Te100  1  0.50300650  0.49305232  0.83286821  1
  Te2-  Te101  1  0.50488796  0.83735386  0.16732401  1
  Te2-  Te102  1  0.49960277  0.84237808  0.49670043  1
  Te2-  Te103  1  0.49515931  0.85773917  0.83200619  1
  Te2-  Te104  1  0.82090031  0.16644036  0.16708612  1
  Te2-  Te105  1  0.84745211  0.16533369  0.49299473  1
  Te2-  Te106  1  0.83021187  0.15618770  0.83938978  1
  Te2-  Te107  1  0.83368805  0.50014227  0.16181477  1
  Te2-  Te108  1  0.83150336  0.50372885  0.50512094  1
  Te2-  Te109  1  0.83290510  0.49916144  0.83140948  1
  Te2-  Te110  1  0.82760136  0.83336547  0.17174321  1
  Te2-  Te111  1  0.83224579  0.83347121  0.50022656  1
  Te2-  Te112  1  0.84631408  0.84379462  0.82480227  1
  Te2-  Te113  1  0.16436717  -0.01535707  0.00140482  1
  Te2-  Te114  1  0.17182779  -0.00198229  0.32902737  1
  Te2-  Te115  1  0.16434653  0.00502415  0.66724040  1
  Te2-  Te116  1  0.16597626  0.33578313  0.00125450  1
  Te2-  Te117  1  0.16820214  0.33106170  0.33012395  1
  Te2-  Te118  1  0.15823594  0.33379603  0.66888434  1
  Te2-  Te119  1  0.15600939  0.68147790  -0.01675081  1
  Te2-  Te120  1  0.16394290  0.66935429  0.33757602  1
  Te2-  Te121  1  0.17442534  0.66110787  0.68187799  1
  Te2-  Te122  1  0.50763281  -0.00052581  0.00786030  1
  Te2-  Te123  1  0.50242699  -0.00063617  0.32440406  1
  Te2-  Te124  1  0.50523350  0.01664709  0.66301612  1
  Te2-  Te125  1  0.49385370  0.34352443  0.00616230  1
  Te2-  Te126  1  0.49489977  0.33491235  0.32828369  1
  Te2-  Te127  1  0.51255127  0.32090203  0.66076637  1
  Te2-  Te128  1  0.50832213  0.65885722  -0.01269062  1
  Te2-  Te129  1  0.50275610  0.66848973  0.33396396  1
  Te2-  Te130  1  0.49495344  0.66520305  0.67806324  1
  Te2-  Te131  1  0.83076513  0.00184857  0.00028492  1
  Te2-  Te132  1  0.83653437  -0.00130807  0.33399153  1
  Te2-  Te133  1  0.83204156  -0.00008019  0.66300171  1
  Te2-  Te134  1  0.83707200  0.33395279  0.00084236  1
  Te2-  Te135  1  0.83755976  0.34489850  0.33946798  1
  Te2-  Te136  1  0.81896059  0.33589064  0.65957084  1
  Te2-  Te137  1  0.83464543  0.66397182  -0.00148684  1
  Te2-  Te138  1  0.82872899  0.65033952  0.33719462  1
  Te2-  Te139  1  0.83301201  0.66717158  0.66359708  1
  Te2-  Te140  1  -0.00718667  0.16919908  0.01957086  1
  Te2-  Te141  1  -0.00200092  0.17041944  0.31483591  1
  Te2-  Te142  1  -0.00169447  0.15246270  0.66207798  1
  Te2-  Te143  1  -0.00111933  0.49978623  -0.00465301  1
  Te2-  Te144  1  0.00077512  0.50589968  0.32902178  1
  Te2-  Te145  1  -0.00230962  0.50076078  0.66905666  1
  Te2-  Te146  1  -0.01925383  0.83185997  -0.00183690  1
  Te2-  Te147  1  -0.00238758  0.82368449  0.33248897  1
  Te2-  Te148  1  -0.00131461  0.84921596  0.65935440  1
  Te2-  Te149  1  0.33157175  0.16990767  0.00156500  1
  Te2-  Te150  1  0.33668971  0.17195832  0.33210821  1
  Te2-  Te151  1  0.32739211  0.17453551  0.66293417  1
  Te2-  Te152  1  0.33298246  0.51209865  -0.01464645  1
  Te2-  Te153  1  0.33737641  0.50149587  0.33492011  1
  Te2-  Te154  1  0.33176950  0.48954025  0.67003380  1
  Te2-  Te155  1  0.33532161  0.82241067  -0.00554751  1
  Te2-  Te156  1  0.33585338  0.83330212  0.33530202  1
  Te2-  Te157  1  0.33115883  0.84483643  0.66409167  1
  Te2-  Te158  1  0.67149370  0.16199192  0.00588206  1
  Te2-  Te159  1  0.66479729  0.17401743  0.32591914  1
  Te2-  Te160  1  0.67515732  0.16244001  0.66600858  1
  Te2-  Te161  1  0.67090919  0.50478685  0.00171212  1
  Te2-  Te162  1  0.66076756  0.50021475  0.32687246  1
  Te2-  Te163  1  0.66734587  0.50714592  0.66364587  1
  Te2-  Te164  1  0.68130148  0.83546438  -0.00847136  1
  Te2-  Te165  1  0.66488384  0.82774257  0.32811033  1
  Te2-  Te166  1  0.67074965  0.83352246  0.67212212  1
  Te2-  Te167  1  -0.00050132  -0.00278717  0.17478152  1
  Te2-  Te168  1  -0.00460121  -0.00766476  0.48274755  1
  Te2-  Te169  1  -0.00159550  0.01185519  0.84061055  1
  Te2-  Te170  1  0.01236343  0.34699769  0.16414691  1
  Te2-  Te171  1  -0.00655860  0.33351418  0.49852076  1
  Te2-  Te172  1  0.00133133  0.30970768  0.83833925  1
  Te2-  Te173  1  -0.00446266  0.66283104  0.16604820  1
  Te2-  Te174  1  -0.00580268  0.66565015  0.49569766  1
  Te2-  Te175  1  -0.00432679  0.67620359  0.83308081  1
  Te2-  Te176  1  0.33486601  0.01043644  0.16461692  1
  Te2-  Te177  1  0.33327184  -0.00112327  0.49832018  1
  Te2-  Te178  1  0.32528815  0.00376919  0.83142358  1
  Te2-  Te179  1  0.32453150  0.32763315  0.16742726  1
  Te2-  Te180  1  0.33346146  0.34401966  0.50036116  1
  Te2-  Te181  1  0.32569284  0.33200371  0.82838231  1
  Te2-  Te182  1  0.33497945  0.66584688  0.15782589  1
  Te2-  Te183  1  0.33389986  0.66062491  0.51250196  1
  Te2-  Te184  1  0.34030721  0.68095291  0.82645355  1
  Te2-  Te185  1  0.66822531  -0.00553103  0.16162933  1
  Te2-  Te186  1  0.67946021  0.00138943  0.50136091  1
  Te2-  Te187  1  0.67272792  -0.00297842  0.83140669  1
  Te2-  Te188  1  0.66723601  0.33954429  0.17114823  1
  Te2-  Te189  1  0.67453176  0.33953314  0.49181534  1
  Te2-  Te190  1  0.66464746  0.32441272  0.83466847  1
  Te2-  Te191  1  0.66802998  0.67202100  0.16531595  1
  Te2-  Te192  1  0.66767456  0.66660125  0.50271655  1
  Te2-  Te193  1  0.65581965  0.67100436  0.83222890  1
  Pb2+  Pb194  1  0.00854557  0.67804149  0.66507780  1
  Pb2+  Pb195  1  0.16312590  -0.00853484  0.49824766  1
  Pb2+  Pb196  1  -0.00983931  0.32691487  0.66997762  1
  Pb2+  Pb197  1  0.33157446  0.83593557  0.16716335  1
  Pb2+  Pb198  1  0.49387675  0.32476419  0.83075663  1
  Pb2+  Pb199  1  0.50045944  0.17141805  0.00014847  1
  Pb2+  Pb200  1  0.49886807  0.84035165  0.66714841  1
  Pb2+  Pb201  1  0.33014106  0.49376036  0.15816175  1
  Pb2+  Pb202  1  0.67133847  0.16983311  0.49852735  1
  Pb2+  Pb203  1  0.84218993  0.33308669  0.17115984  1
  Pb2+  Pb204  1  0.66983379  0.00553334  0.33006638  1
  Pb2+  Pb205  1  0.82378661  0.67247049  0.83163045  1
  Pb2+  Pb206  1  0.16485772  0.33840541  0.50048018  1
  Pb2+  Pb207  1  0.49944210  0.66398796  0.15904886  1
  Pb2+  Pb208  1  0.16046112  0.16155573  -0.00029101  1
  Pb2+  Pb209  1  0.66569240  0.33674293  0.00293609  1
  Pb2+  Pb210  1  0.32831739  0.16985089  0.49658296  1
  Pb2+  Pb211  1  0.49827115  0.66416596  0.50512458  1
  Pb2+  Pb212  1  0.83462662  0.32983914  0.83178804  1
  Pb2+  Pb213  1  0.16820650  0.50016836  0.33139035  1
  Pb2+  Pb214  1  0.50549698  0.82703710  -0.00483539  1
  Pb2+  Pb215  1  0.33305993  -0.00388211  -0.00259687  1
