# generated using pymatgen
data_In22Ag21Sn22Bi21(Te54Pb11)2
_symmetry_space_group_name_H-M   'P 1'
_cell_length_a   19.15848997
_cell_length_b   19.16449273
_cell_length_c   19.17099546
_cell_angle_alpha   89.99395196
_cell_angle_beta   90.01831743
_cell_angle_gamma   89.99305632
_symmetry_Int_Tables_number   1
_chemical_formula_structural   In22Ag21Sn22Bi21(Te54Pb11)2
_chemical_formula_sum   'In22 Ag21 Sn22 Bi21 Te108 Pb22'
_cell_volume   7038.87480286
_cell_formula_units_Z   1
loop_
 _symmetry_equiv_pos_site_id
 _symmetry_equiv_pos_as_xyz
  1  'x, y, z'
loop_
 _atom_type_symbol
 _atom_type_oxidation_number
  In3+  3.0
  Ag+  1.0
  Sn2+  2.0
  Bi3+  3.0
  Te2-  -2.0
  Pb2+  2.0
loop_
 _atom_site_type_symbol
 _atom_site_label
 _atom_site_symmetry_multiplicity
 _atom_site_fract_x
 _atom_site_fract_y
 _atom_site_fract_z
 _atom_site_occupancy
  In3+  In0  1  0.32358226  -0.00489320  0.68457239  1
  In3+  In1  1  0.16569910  -0.00612200  0.16537213  1
  In3+  In2  1  -0.01600206  0.83293450  0.83053782  1
  In3+  In3  1  0.33062412  0.65567342  -0.00553848  1
  In3+  In4  1  -0.01447320  0.66693947  -0.01652563  1
  In3+  In5  1  0.17475157  0.83074428  0.68233729  1
  In3+  In6  1  0.49284753  0.16552889  0.33905971  1
  In3+  In7  1  0.31683693  -0.00120306  0.33281800  1
  In3+  In8  1  0.34305726  0.64939125  0.33215167  1
  In3+  In9  1  0.15394789  0.17420076  0.33149151  1
  In3+  In10  1  0.16606612  -0.02211632  0.49191980  1
  In3+  In11  1  0.16746313  0.50994442  0.31920972  1
  In3+  In12  1  0.66816914  0.82346714  0.83376074  1
  In3+  In13  1  0.67584322  0.32988414  -0.00975141  1
  In3+  In14  1  0.67697040  0.16384239  0.49070493  1
  In3+  In15  1  0.82088116  0.66929488  0.82940838  1
  In3+  In16  1  0.66691244  0.17196034  0.84652200  1
  In3+  In17  1  0.83556135  0.48470657  0.66630783  1
  In3+  In18  1  -0.01082490  0.67616166  0.33242168  1
  In3+  In19  1  -0.02200197  0.66975399  0.65655156  1
  In3+  In20  1  0.17516562  0.33760780  0.14955608  1
  In3+  In21  1  0.33061067  0.82445280  0.48170243  1
  Ag+  Ag22  1  0.30918604  0.49947412  0.16793156  1
  Ag+  Ag23  1  0.80837146  0.33306206  0.47659776  1
  Ag+  Ag24  1  0.16825592  0.80714461  0.31043082  1
  Ag+  Ag25  1  0.85196820  0.19238197  -0.02155895  1
  Ag+  Ag26  1  0.80754911  0.80502427  0.36240553  1
  Ag+  Ag27  1  0.80643833  0.83733990  0.00358119  1
  Ag+  Ag28  1  0.36432306  0.79968256  0.80673765  1
  Ag+  Ag29  1  0.63717922  0.35365178  0.30571652  1
  Ag+  Ag30  1  0.36659961  0.36339338  0.69626684  1
  Ag+  Ag31  1  0.83264610  0.48700900  -0.03043381  1
  Ag+  Ag32  1  0.83094464  0.69290505  0.47490858  1
  Ag+  Ag33  1  0.82904790  0.30835583  0.83597344  1
  Ag+  Ag34  1  0.83650412  0.83572222  0.65331389  1
  Ag+  Ag35  1  0.37136481  0.36291335  0.02706538  1
  Ag+  Ag36  1  0.70190223  -0.02828512  -0.03130815  1
  Ag+  Ag37  1  0.52692826  0.52674214  0.33215921  1
  Ag+  Ag38  1  0.02240050  -0.02651977  0.33633787  1
  Ag+  Ag39  1  0.46697843  0.33860669  0.86320221  1
  Ag+  Ag40  1  0.19059406  0.48968077  -0.02476419  1
  Ag+  Ag41  1  0.47447391  0.69484970  0.82462947  1
  Ag+  Ag42  1  0.69339519  0.81488664  0.19694413  1
  Sn2+  Sn43  1  0.15414453  0.66633771  0.49995471  1
  Sn2+  Sn44  1  0.33755546  0.16315685  0.50344270  1
  Sn2+  Sn45  1  0.16796557  0.16738633  0.66289336  1
  Sn2+  Sn46  1  -0.00394805  0.50300139  0.50128799  1
  Sn2+  Sn47  1  0.50330646  0.34432121  0.17014506  1
  Sn2+  Sn48  1  0.33567827  0.82631866  0.15917645  1
  Sn2+  Sn49  1  0.16796275  0.50259310  0.66647365  1
  Sn2+  Sn50  1  0.16865641  0.67045165  0.83218545  1
  Sn2+  Sn51  1  0.00134325  0.83044912  0.49673231  1
  Sn2+  Sn52  1  0.49911142  0.16754824  0.66969558  1
  Sn2+  Sn53  1  0.66937090  0.66273390  0.33293961  1
  Sn2+  Sn54  1  0.33012434  0.49428596  0.49373193  1
  Sn2+  Sn55  1  0.48867840  0.00122021  0.50007626  1
  Sn2+  Sn56  1  0.83873531  0.49706395  0.34421412  1
  Sn2+  Sn57  1  0.00025633  0.33759085  0.66791198  1
  Sn2+  Sn58  1  0.16631647  -0.00592367  0.83487830  1
  Sn2+  Sn59  1  0.16944134  0.66571812  0.16460592  1
  Sn2+  Sn60  1  0.65948922  0.49692789  0.83697903  1
  Sn2+  Sn61  1  0.50581209  0.00151016  0.16594763  1
  Sn2+  Sn62  1  0.83471387  0.67213910  0.15561722  1
  Sn2+  Sn63  1  0.83651978  0.33623552  0.16528434  1
  Sn2+  Sn64  1  -0.00337076  -0.00665254  0.01093818  1
  Bi3+  Bi65  1  0.50273722  0.16589705  0.00237092  1
  Bi3+  Bi66  1  0.67071377  0.50232410  0.16573587  1
  Bi3+  Bi67  1  0.16823752  0.82636534  0.00148361  1
  Bi3+  Bi68  1  0.49389664  0.83495188  0.00085442  1
  Bi3+  Bi69  1  0.66685575  0.16321293  0.16736534  1
  Bi3+  Bi70  1  0.16987358  0.33488458  0.50229639  1
  Bi3+  Bi71  1  0.83257966  -0.00313090  0.16921242  1
  Bi3+  Bi72  1  0.66772205  0.00206239  0.66741650  1
  Bi3+  Bi73  1  0.33332207  0.16581002  0.83127227  1
  Bi3+  Bi74  1  0.66819353  0.33119968  0.67008083  1
  Bi3+  Bi75  1  0.66756897  0.49717903  0.50096034  1
  Bi3+  Bi76  1  0.33228391  0.00232411  0.00707800  1
  Bi3+  Bi77  1  0.66818643  0.66882642  0.66689267  1
  Bi3+  Bi78  1  -0.00147123  0.33836132  0.33772625  1
  Bi3+  Bi79  1  0.49714818  0.66706535  0.15985039  1
  Bi3+  Bi80  1  0.49936645  0.33316048  0.49817472  1
  Bi3+  Bi81  1  0.83197205  0.16559270  0.32949248  1
  Bi3+  Bi82  1  -0.00456474  0.33910708  0.00200570  1
  Bi3+  Bi83  1  0.67176603  0.00181701  0.32898707  1
  Bi3+  Bi84  1  0.15695245  0.33421644  0.82994585  1
  Bi3+  Bi85  1  -0.00714641  0.50062120  0.16713610  1
  Te2-  Te86  1  0.16824538  0.17330814  0.17283039  1
  Te2-  Te87  1  0.17558236  0.17238815  0.49660735  1
  Te2-  Te88  1  0.16717766  0.16701129  0.83245435  1
  Te2-  Te89  1  0.15931878  0.49766500  0.16689243  1
  Te2-  Te90  1  0.16835257  0.49947857  0.50557886  1
  Te2-  Te91  1  0.16454109  0.49895902  0.83137975  1
  Te2-  Te92  1  0.16773579  0.83629186  0.16443456  1
  Te2-  Te93  1  0.17301295  0.82942320  0.51216408  1
  Te2-  Te94  1  0.17181597  0.83395523  0.83620218  1
  Te2-  Te95  1  0.50427770  0.17117446  0.16664986  1
  Te2-  Te96  1  0.50256707  0.16823450  0.49817560  1
  Te2-  Te97  1  0.49886366  0.18493718  0.83826532  1
  Te2-  Te98  1  0.51083531  0.50507449  0.17984882  1
  Te2-  Te99  1  0.50227965  0.49844105  0.48420059  1
  Te2-  Te100  1  0.50399373  0.48365999  0.83880962  1
  Te2-  Te101  1  0.49915675  0.83088713  0.16294436  1
  Te2-  Te102  1  0.49082736  0.83099589  0.49866304  1
  Te2-  Te103  1  0.50372851  0.84007302  0.83668958  1
  Te2-  Te104  1  0.82801633  0.16519121  0.16497052  1
  Te2-  Te105  1  0.83178779  0.18099024  0.49723761  1
  Te2-  Te106  1  0.82416480  0.16073356  0.83879957  1
  Te2-  Te107  1  0.83148904  0.50406637  0.17335419  1
  Te2-  Te108  1  0.82808716  0.48172247  0.50927658  1
  Te2-  Te109  1  0.82972279  0.51708263  0.82583817  1
  Te2-  Te110  1  0.83089151  0.83450668  0.15710317  1
  Te2-  Te111  1  0.84230600  0.83895615  0.50036573  1
  Te2-  Te112  1  0.83207109  0.82523481  0.85030338  1
  Te2-  Te113  1  0.16583179  0.00001278  0.00850912  1
  Te2-  Te114  1  0.16343993  0.01592811  0.33589560  1
  Te2-  Te115  1  0.17108781  -0.00507934  0.66203281  1
  Te2-  Te116  1  0.15903394  0.34510179  -0.00435918  1
  Te2-  Te117  1  0.16177061  0.33183733  0.33931519  1
  Te2-  Te118  1  0.16046561  0.33323006  0.66691291  1
  Te2-  Te119  1  0.17468809  0.66377728  0.00411608  1
  Te2-  Te120  1  0.17282510  0.66363126  0.34003696  1
  Te2-  Te121  1  0.16322063  0.67575517  0.66492790  1
  Te2-  Te122  1  0.49638102  0.00262715  0.00310126  1
  Te2-  Te123  1  0.50755539  0.00836678  0.33301440  1
  Te2-  Te124  1  0.50325558  0.00078410  0.66288471  1
  Te2-  Te125  1  0.51149827  0.33092004  0.00449140  1
  Te2-  Te126  1  0.49832128  0.32194438  0.33466306  1
  Te2-  Te127  1  0.50543421  0.33119231  0.66264182  1
  Te2-  Te128  1  0.49138120  0.66884335  -0.00558953  1
  Te2-  Te129  1  0.49638095  0.67152054  0.33013147  1
  Te2-  Te130  1  0.50317377  0.66592857  0.67726743  1
  Te2-  Te131  1  0.84159913  -0.01088170  0.00781237  1
  Te2-  Te132  1  0.83334119  0.00232335  0.33101906  1
  Te2-  Te133  1  0.83161010  -0.00836714  0.66478919  1
  Te2-  Te134  1  0.83332973  0.33732411  -0.00398322  1
  Te2-  Te135  1  0.83823668  0.33074506  0.33141018  1
  Te2-  Te136  1  0.83284784  0.33389000  0.68431495  1
  Te2-  Te137  1  0.83622802  0.68150692  -0.00054895  1
  Te2-  Te138  1  0.83694875  0.66684261  0.32903740  1
  Te2-  Te139  1  0.82892821  0.68383469  0.67559650  1
  Te2-  Te140  1  -0.00416190  0.16876294  0.00071776  1
  Te2-  Te141  1  -0.00274791  0.17405152  0.33407386  1
  Te2-  Te142  1  0.00053586  0.16242108  0.66740486  1
  Te2-  Te143  1  -0.01846907  0.50888272  0.00523799  1
  Te2-  Te144  1  0.00646738  0.50055016  0.33337753  1
  Te2-  Te145  1  -0.00404121  0.51015449  0.66676872  1
  Te2-  Te146  1  0.00969706  0.82488865  -0.00406003  1
  Te2-  Te147  1  0.02012766  0.82660498  0.33880660  1
  Te2-  Te148  1  -0.01064321  0.82390096  0.67438573  1
  Te2-  Te149  1  0.33473270  0.16597779  -0.00331477  1
  Te2-  Te150  1  0.33878271  0.15750397  0.33353418  1
  Te2-  Te151  1  0.33201772  0.15478246  0.66964372  1
  Te2-  Te152  1  0.33196253  0.50249721  0.01346902  1
  Te2-  Te153  1  0.32291302  0.49841171  0.32386315  1
  Te2-  Te154  1  0.33398217  0.50201960  0.66277400  1
  Te2-  Te155  1  0.32991075  0.83877414  -0.00212007  1
  Te2-  Te156  1  0.31707680  0.84368180  0.33093684  1
  Te2-  Te157  1  0.33070823  0.84109770  0.67159607  1
  Te2-  Te158  1  0.66482507  0.17080451  0.00210527  1
  Te2-  Te159  1  0.66890917  0.16796797  0.33287097  1
  Te2-  Te160  1  0.66380706  0.16608875  0.66634052  1
  Te2-  Te161  1  0.68284162  0.49835980  0.00461871  1
  Te2-  Te162  1  0.67108307  0.49516013  0.33519010  1
  Te2-  Te163  1  0.67141948  0.50161548  0.66576492  1
  Te2-  Te164  1  0.65572762  0.83384057  -0.01018229  1
  Te2-  Te165  1  0.66492302  0.83590988  0.33846377  1
  Te2-  Te166  1  0.67759938  0.83492122  0.67350878  1
  Te2-  Te167  1  0.00633426  -0.00299412  0.18091418  1
  Te2-  Te168  1  0.01360995  -0.00104120  0.48955232  1
  Te2-  Te169  1  0.00417893  -0.01066695  0.83541691  1
  Te2-  Te170  1  0.00542663  0.33693164  0.16670208  1
  Te2-  Te171  1  0.00671594  0.33822104  0.50310548  1
  Te2-  Te172  1  -0.00743665  0.33410992  0.83854139  1
  Te2-  Te173  1  0.00335362  0.66210185  0.17914258  1
  Te2-  Te174  1  -0.01848826  0.66338449  0.50130224  1
  Te2-  Te175  1  0.00496305  0.67462951  0.83327958  1
  Te2-  Te176  1  0.32983841  -0.00113149  0.17046653  1
  Te2-  Te177  1  0.32928924  -0.00632555  0.49082394  1
  Te2-  Te178  1  0.33082356  0.00152897  0.83917115  1
  Te2-  Te179  1  0.32871200  0.34278179  0.16573302  1
  Te2-  Te180  1  0.33498097  0.33301432  0.50584925  1
  Te2-  Te181  1  0.32137999  0.32674801  0.83148156  1
  Te2-  Te182  1  0.33616766  0.65833900  0.17574775  1
  Te2-  Te183  1  0.33399727  0.66813929  0.49069247  1
  Te2-  Te184  1  0.33094359  0.65977665  0.83691696  1
  Te2-  Te185  1  0.66688087  0.00033405  0.16730172  1
  Te2-  Te186  1  0.66434503  0.00396738  0.50120592  1
  Te2-  Te187  1  0.66505320  0.00867827  0.83037761  1
  Te2-  Te188  1  0.67026718  0.33405490  0.16525454  1
  Te2-  Te189  1  0.66247264  0.33174423  0.50627486  1
  Te2-  Te190  1  0.67721713  0.33104886  0.83389287  1
  Te2-  Te191  1  0.66243110  0.67161715  0.17166716  1
  Te2-  Te192  1  0.67954518  0.66245082  0.50234885  1
  Te2-  Te193  1  0.66381500  0.66627130  0.83081233  1
  Pb2+  Pb194  1  0.33570371  0.17058832  0.16445864  1
  Pb2+  Pb195  1  -0.00219242  0.16362468  0.83377428  1
  Pb2+  Pb196  1  -0.00309500  0.16343052  0.16631964  1
  Pb2+  Pb197  1  0.16537144  0.17455390  0.00229640  1
  Pb2+  Pb198  1  0.67017673  0.83394267  0.50408344  1
  Pb2+  Pb199  1  -0.00587811  0.83025089  0.16834027  1
  Pb2+  Pb200  1  0.83226979  -0.00820275  0.83567277  1
  Pb2+  Pb201  1  0.83032510  0.16541740  0.66777486  1
  Pb2+  Pb202  1  0.50246384  0.49793129  0.66527133  1
  Pb2+  Pb203  1  0.00698054  0.16980132  0.50129962  1
  Pb2+  Pb204  1  0.50641127  0.50061845  0.00477575  1
  Pb2+  Pb205  1  0.50668873  0.83342303  0.66714045  1
  Pb2+  Pb206  1  0.49951014  0.01419442  0.83264253  1
  Pb2+  Pb207  1  0.50716805  0.66326502  0.50350860  1
  Pb2+  Pb208  1  0.33068377  0.32956242  0.33651276  1
  Pb2+  Pb209  1  0.66701998  0.66633774  0.00146861  1
  Pb2+  Pb210  1  0.48881229  0.84150047  0.32968198  1
  Pb2+  Pb211  1  0.00293868  -0.00949605  0.66085421  1
  Pb2+  Pb212  1  -0.00388071  0.50329570  0.83662400  1
  Pb2+  Pb213  1  0.83708327  0.00780505  0.49631797  1
  Pb2+  Pb214  1  0.33725132  0.49085250  0.83941883  1
  Pb2+  Pb215  1  0.32892358  0.66953769  0.66035437  1
