# generated using pymatgen
data_In22Ag21Sn22Bi21(Te54Pb11)2
_symmetry_space_group_name_H-M   'P 1'
_cell_length_a   19.14426520
_cell_length_b   19.17363554
_cell_length_c   19.17776588
_cell_angle_alpha   89.98727854
_cell_angle_beta   89.99296944
_cell_angle_gamma   89.97439105
_symmetry_Int_Tables_number   1
_chemical_formula_structural   In22Ag21Sn22Bi21(Te54Pb11)2
_chemical_formula_sum   'In22 Ag21 Sn22 Bi21 Te108 Pb22'
_cell_volume   7039.48883951
_cell_formula_units_Z   1
loop_
 _symmetry_equiv_pos_site_id
 _symmetry_equiv_pos_as_xyz
  1  'x, y, z'
loop_
 _atom_type_symbol
 _atom_type_oxidation_number
  In3+  3.0
  Ag+  1.0
  Sn2+  2.0
  Bi3+  3.0
  Te2-  -2.0
  Pb2+  2.0
loop_
 _atom_site_type_symbol
 _atom_site_label
 _atom_site_symmetry_multiplicity
 _atom_site_fract_x
 _atom_site_fract_y
 _atom_site_fract_z
 _atom_site_occupancy
  In3+  In0  1  0.15086339  0.50375144  0.67153358  1
  In3+  In1  1  0.50447924  0.51910367  0.66749491  1
  In3+  In2  1  -0.01164028  0.81847968  0.50233121  1
  In3+  In3  1  0.49906566  0.82162428  0.33466428  1
  In3+  In4  1  0.15029574  0.16794634  0.34067141  1
  In3+  In5  1  0.63589597  0.82200885  0.83408353  1
  In3+  In6  1  0.48892220  0.34989273  0.82840732  1
  In3+  In7  1  0.84686063  0.17041412  0.00990606  1
  In3+  In8  1  0.32773090  0.66574992  0.31675077  1
  In3+  In9  1  0.50105798  0.81083930  -0.00853251  1
  In3+  In10  1  0.82297813  -0.00826857  0.83864140  1
  In3+  In11  1  0.13749931  0.00186125  0.16521254  1
  In3+  In12  1  0.33259529  0.33771701  0.00130664  1
  In3+  In13  1  0.33096416  0.15726982  0.16305587  1
  In3+  In14  1  0.63362217  0.64432063  -0.00278532  1
  In3+  In15  1  0.34348485  0.50916470  0.83638146  1
  In3+  In16  1  0.16769121  0.34222835  0.84601639  1
  In3+  In17  1  0.64853879  0.16542621  0.83256109  1
  In3+  In18  1  0.16947047  -0.01751914  0.49861965  1
  In3+  In19  1  0.65089377  0.34109329  -0.00007932  1
  In3+  In20  1  0.50597210  0.66044833  0.17969772  1
  In3+  In21  1  0.80831232  0.32802260  0.84450814  1
  Ag+  Ag22  1  -0.03450309  0.63267804  0.29796228  1
  Ag+  Ag23  1  0.31907022  0.82743892  0.51156237  1
  Ag+  Ag24  1  0.14117511  0.80765463  -0.02434797  1
  Ag+  Ag25  1  0.33453877  0.18988237  0.85408905  1
  Ag+  Ag26  1  -0.03059866  0.69176829  0.69470298  1
  Ag+  Ag27  1  0.67385263  0.80844537  0.46796778  1
  Ag+  Ag28  1  0.49735949  0.51123024  0.01353077  1
  Ag+  Ag29  1  0.67124940  0.52344462  0.17949654  1
  Ag+  Ag30  1  0.00601440  0.13809950  0.52276939  1
  Ag+  Ag31  1  0.64634615  0.64641641  0.37063628  1
  Ag+  Ag32  1  0.50848069  0.52112722  0.36669058  1
  Ag+  Ag33  1  -0.02187555  0.36216422  -0.03211932  1
  Ag+  Ag34  1  0.49166479  0.65066927  0.83090420  1
  Ag+  Ag35  1  0.81132262  0.34153146  0.14137813  1
  Ag+  Ag36  1  0.68164686  0.52094848  0.83035614  1
  Ag+  Ag37  1  0.50434000  0.81376204  0.63313309  1
  Ag+  Ag38  1  0.33088644  0.80871835  0.85975220  1
  Ag+  Ag39  1  -0.02724649  0.17404985  0.14649932  1
  Ag+  Ag40  1  0.83493779  -0.02294492  0.18764146  1
  Ag+  Ag41  1  0.33187106  0.69218950  0.01758141  1
  Ag+  Ag42  1  0.64261151  0.52888757  0.46982039  1
  Sn2+  Sn43  1  0.66563770  -0.00655754  0.66078158  1
  Sn2+  Sn44  1  0.49823946  0.15739015  0.66843019  1
  Sn2+  Sn45  1  0.34158403  0.33614412  0.32830805  1
  Sn2+  Sn46  1  0.16759820  0.16897980  0.67130381  1
  Sn2+  Sn47  1  0.33290510  -0.00248575  -0.00979617  1
  Sn2+  Sn48  1  0.33690449  0.00068536  0.32678252  1
  Sn2+  Sn49  1  -0.00367917  -0.00486658  0.66448255  1
  Sn2+  Sn50  1  0.84323437  0.66533660  0.49444693  1
  Sn2+  Sn51  1  0.66648497  0.83729940  0.16346563  1
  Sn2+  Sn52  1  0.84076032  0.83137160  0.33909474  1
  Sn2+  Sn53  1  0.83504943  0.16992674  0.32816799  1
  Sn2+  Sn54  1  0.66905728  -0.01804279  0.33507860  1
  Sn2+  Sn55  1  -0.00882697  0.50313432  0.83693539  1
  Sn2+  Sn56  1  0.68004400  0.17176986  0.50205838  1
  Sn2+  Sn57  1  0.35232345  0.49381562  0.16743281  1
  Sn2+  Sn58  1  0.81579487  0.50349790  0.32823884  1
  Sn2+  Sn59  1  0.33652050  0.51241242  0.50139131  1
  Sn2+  Sn60  1  0.17783117  0.66803672  0.83722059  1
  Sn2+  Sn61  1  0.00111741  0.33540077  0.66316595  1
  Sn2+  Sn62  1  0.66580218  0.33770263  0.66681869  1
  Sn2+  Sn63  1  0.50419401  0.34600491  0.16407445  1
  Sn2+  Sn64  1  0.66744177  0.66518961  0.67101791  1
  Bi3+  Bi65  1  0.17377425  0.83821078  0.33125093  1
  Bi3+  Bi66  1  -0.00222958  0.50212306  0.49990653  1
  Bi3+  Bi67  1  0.33373193  -0.00347846  0.66287922  1
  Bi3+  Bi68  1  0.66515983  0.16955216  0.16576258  1
  Bi3+  Bi69  1  0.00037481  0.33137682  0.33384848  1
  Bi3+  Bi70  1  0.33442192  0.66838851  0.66627131  1
  Bi3+  Bi71  1  0.83582546  0.33393487  0.50121698  1
  Bi3+  Bi72  1  0.50293026  0.16872647  0.33211784  1
  Bi3+  Bi73  1  0.49741613  0.00258795  0.83424032  1
  Bi3+  Bi74  1  0.16971640  0.16437081  0.00174090  1
  Bi3+  Bi75  1  0.83338587  0.16791014  0.66804132  1
  Bi3+  Bi76  1  0.00778620  0.66436920  -0.00217721  1
  Bi3+  Bi77  1  0.00140958  -0.00069245  0.33449271  1
  Bi3+  Bi78  1  0.17110424  0.66311025  0.50256293  1
  Bi3+  Bi79  1  0.50356005  0.16776672  -0.00003684  1
  Bi3+  Bi80  1  0.17339422  0.00321503  0.83358468  1
  Bi3+  Bi81  1  0.33448199  0.33192683  0.66517332  1
  Bi3+  Bi82  1  0.50142149  -0.00111379  0.50065734  1
  Bi3+  Bi83  1  0.17244214  0.32966452  0.17064197  1
  Bi3+  Bi84  1  0.66599269  0.00646973  -0.00008140  1
  Bi3+  Bi85  1  0.16929866  0.33091740  0.50479678  1
  Te2-  Te86  1  0.17667354  0.16431494  0.16757362  1
  Te2-  Te87  1  0.15518277  0.17007225  0.49963607  1
  Te2-  Te88  1  0.18195809  0.16705545  0.83868704  1
  Te2-  Te89  1  0.17714680  0.49517566  0.16847569  1
  Te2-  Te90  1  0.16784180  0.49900850  0.50518705  1
  Te2-  Te91  1  0.16957844  0.49761310  0.82826017  1
  Te2-  Te92  1  0.16890349  0.84220137  0.17110701  1
  Te2-  Te93  1  0.17350057  0.82865116  0.49595608  1
  Te2-  Te94  1  0.18103974  0.83870631  0.83823953  1
  Te2-  Te95  1  0.50122651  0.17135155  0.16561143  1
  Te2-  Te96  1  0.50148102  0.16267848  0.49771258  1
  Te2-  Te97  1  0.48790128  0.16398522  0.83678528  1
  Te2-  Te98  1  0.51106248  0.50666958  0.16085687  1
  Te2-  Te99  1  0.50489540  0.49978961  0.51295307  1
  Te2-  Te100  1  0.49796150  0.50193681  0.82436050  1
  Te2-  Te101  1  0.50446400  0.82531265  0.17385230  1
  Te2-  Te102  1  0.52543189  0.83952306  0.48786741  1
  Te2-  Te103  1  0.48460468  0.84227578  0.84228496  1
  Te2-  Te104  1  0.82619783  0.18655525  0.16177213  1
  Te2-  Te105  1  0.84582768  0.17047916  0.50278442  1
  Te2-  Te106  1  0.83571400  0.17866890  0.82998653  1
  Te2-  Te107  1  0.82183635  0.49073390  0.16751980  1
  Te2-  Te108  1  0.83668974  0.49718991  0.49515369  1
  Te2-  Te109  1  0.82665525  0.48698335  0.83388376  1
  Te2-  Te110  1  0.83337331  0.83112506  0.16862234  1
  Te2-  Te111  1  0.82349580  0.83311309  0.49799465  1
  Te2-  Te112  1  0.84012191  0.83982814  0.83218077  1
  Te2-  Te113  1  0.17144162  0.00434429  0.00383670  1
  Te2-  Te114  1  0.16853533  0.00368421  0.33392009  1
  Te2-  Te115  1  0.16781458  0.00009687  0.66275038  1
  Te2-  Te116  1  0.17307110  0.32911845  0.00348321  1
  Te2-  Te117  1  0.17234241  0.32966514  0.33783596  1
  Te2-  Te118  1  0.17171955  0.33671939  0.66647034  1
  Te2-  Te119  1  0.17903103  0.66842140  -0.00171324  1
  Te2-  Te120  1  0.17371844  0.67191566  0.33700935  1
  Te2-  Te121  1  0.17094733  0.66133382  0.66546673  1
  Te2-  Te122  1  0.50289062  0.00603027  0.00029251  1
  Te2-  Te123  1  0.50361836  0.00501137  0.33599885  1
  Te2-  Te124  1  0.49886101  -0.00225935  0.66704654  1
  Te2-  Te125  1  0.49707537  0.32837155  -0.01014707  1
  Te2-  Te126  1  0.50056936  0.33089863  0.33267238  1
  Te2-  Te127  1  0.49649356  0.32256283  0.67527064  1
  Te2-  Te128  1  0.48336923  0.66036951  -0.01608284  1
  Te2-  Te129  1  0.50322210  0.66587728  0.33328984  1
  Te2-  Te130  1  0.50018168  0.67384768  0.67980699  1
  Te2-  Te131  1  0.83017950  0.01126256  -0.00863335  1
  Te2-  Te132  1  0.83622112  0.00150913  0.33217938  1
  Te2-  Te133  1  0.83448298  0.00431469  0.67062193  1
  Te2-  Te134  1  0.84041295  0.32668444  -0.00386553  1
  Te2-  Te135  1  0.83792550  0.33516764  0.33899037  1
  Te2-  Te136  1  0.83414031  0.32986835  0.66689001  1
  Te2-  Te137  1  0.84179232  0.66597001  -0.00152131  1
  Te2-  Te138  1  0.83094743  0.67061594  0.33580406  1
  Te2-  Te139  1  0.82920719  0.66647075  0.66818029  1
  Te2-  Te140  1  0.00419376  0.17153402  0.00168557  1
  Te2-  Te141  1  0.00000467  0.16434724  0.33363673  1
  Te2-  Te142  1  -0.00080592  0.16573103  0.66633389  1
  Te2-  Te143  1  0.00339963  0.50158011  0.00089138  1
  Te2-  Te144  1  0.00485954  0.49681089  0.33492564  1
  Te2-  Te145  1  -0.00203767  0.50368517  0.66480220  1
  Te2-  Te146  1  0.00042201  0.83119943  0.00418294  1
  Te2-  Te147  1  0.00782129  0.83736076  0.34220793  1
  Te2-  Te148  1  0.00264060  0.82926887  0.65626828  1
  Te2-  Te149  1  0.33718293  0.17061109  0.00215508  1
  Te2-  Te150  1  0.34003287  0.16748234  0.32912523  1
  Te2-  Te151  1  0.33044803  0.16526022  0.66019937  1
  Te2-  Te152  1  0.34752143  0.48943649  -0.00847334  1
  Te2-  Te153  1  0.35152078  0.50819862  0.33795544  1
  Te2-  Te154  1  0.34636607  0.49817539  0.67007589  1
  Te2-  Te155  1  0.34827326  0.83780934  0.00330302  1
  Te2-  Te156  1  0.33980247  0.82840699  0.33796161  1
  Te2-  Te157  1  0.34806883  0.83238016  0.65710035  1
  Te2-  Te158  1  0.66763770  0.17168565  -0.00320165  1
  Te2-  Te159  1  0.66766671  0.16531864  0.33084710  1
  Te2-  Te160  1  0.66926914  0.16575323  0.67064153  1
  Te2-  Te161  1  0.64996098  0.49330730  -0.01962376  1
  Te2-  Te162  1  0.65865839  0.50527929  0.32573617  1
  Te2-  Te163  1  0.65738791  0.49561293  0.68195151  1
  Te2-  Te164  1  0.65759448  0.84404276  -0.00712271  1
  Te2-  Te165  1  0.66668582  0.82917406  0.32241620  1
  Te2-  Te166  1  0.65295353  0.83494930  0.68221092  1
  Te2-  Te167  1  -0.01638230  0.01484475  0.17087278  1
  Te2-  Te168  1  0.00835070  -0.00639891  0.49749337  1
  Te2-  Te169  1  0.01099658  0.00151656  0.82931657  1
  Te2-  Te170  1  0.01312473  0.31942397  0.17500269  1
  Te2-  Te171  1  0.00482626  0.33757912  0.49865889  1
  Te2-  Te172  1  0.01534520  0.33903043  0.82849904  1
  Te2-  Te173  1  0.00433427  0.66210729  0.16113952  1
  Te2-  Te174  1  0.00869241  0.66522188  0.49613198  1
  Te2-  Te175  1  0.00593120  0.66402527  0.83439479  1
  Te2-  Te176  1  0.34303739  0.00394333  0.16678026  1
  Te2-  Te177  1  0.33530573  -0.01057035  0.49870423  1
  Te2-  Te178  1  0.33387934  0.00117706  0.82474263  1
  Te2-  Te179  1  0.33616758  0.33311696  0.16338493  1
  Te2-  Te180  1  0.33166842  0.33724513  0.50137711  1
  Te2-  Te181  1  0.33059013  0.33522322  0.82843460  1
  Te2-  Te182  1  0.34392998  0.66033759  0.16211656  1
  Te2-  Te183  1  0.33675265  0.67284430  0.50391930  1
  Te2-  Te184  1  0.33690786  0.66385739  0.82754652  1
  Te2-  Te185  1  0.68318450  0.00631541  0.16347573  1
  Te2-  Te186  1  0.66507648  0.00743141  0.50118199  1
  Te2-  Te187  1  0.66455423  0.00679701  0.83456243  1
  Te2-  Te188  1  0.66408475  0.33315003  0.15616909  1
  Te2-  Te189  1  0.67293906  0.33276713  0.50083204  1
  Te2-  Te190  1  0.65550848  0.32270252  0.83557189  1
  Te2-  Te191  1  0.65800274  0.66622056  0.14606538  1
  Te2-  Te192  1  0.67416275  0.66618279  0.51390874  1
  Te2-  Te193  1  0.66165555  0.66915237  0.84553566  1
  Pb2+  Pb194  1  0.00232383  0.00295409  -0.00147500  1
  Pb2+  Pb195  1  0.82884776  0.66527797  0.83492889  1
  Pb2+  Pb196  1  0.82284593  0.83517122  0.66558131  1
  Pb2+  Pb197  1  0.50480546  0.67556807  0.50804520  1
  Pb2+  Pb198  1  0.82535213  0.83370768  0.00050397  1
  Pb2+  Pb199  1  0.17740609  0.50140021  -0.00100492  1
  Pb2+  Pb200  1  0.82020488  0.50016726  0.00149747  1
  Pb2+  Pb201  1  0.17007951  0.66880974  0.16716291  1
  Pb2+  Pb202  1  0.50352540  0.33128950  0.50466592  1
  Pb2+  Pb203  1  0.18043676  0.83086863  0.67204621  1
  Pb2+  Pb204  1  -0.00296511  0.48286226  0.16768101  1
  Pb2+  Pb205  1  0.17900257  0.50084511  0.33517130  1
  Pb2+  Pb206  1  0.32460805  0.16032989  0.49500858  1
  Pb2+  Pb207  1  0.33590007  0.83517232  0.17026893  1
  Pb2+  Pb208  1  0.82568383  0.49842259  0.66299025  1
  Pb2+  Pb209  1  0.00028458  0.83660944  0.17392366  1
  Pb2+  Pb210  1  0.82872420  0.66164090  0.16759323  1
  Pb2+  Pb211  1  0.66914573  0.33624778  0.32994436  1
  Pb2+  Pb212  1  0.00871088  0.83364247  0.83248524  1
  Pb2+  Pb213  1  0.51313084  -0.00345298  0.16909062  1
  Pb2+  Pb214  1  0.00615253  0.17093308  0.83482246  1
  Pb2+  Pb215  1  0.83454501  0.00179777  0.49765387  1
