# generated using pymatgen
data_In22Ag21Sn22Bi21(Te54Pb11)2
_symmetry_space_group_name_H-M   'P 1'
_cell_length_a   19.10788522
_cell_length_b   19.13089803
_cell_length_c   19.12179065
_cell_angle_alpha   89.99971493
_cell_angle_beta   89.99993626
_cell_angle_gamma   90.00250360
_symmetry_Int_Tables_number   1
_chemical_formula_structural   In22Ag21Sn22Bi21(Te54Pb11)2
_chemical_formula_sum   'In22 Ag21 Sn22 Bi21 Te108 Pb22'
_cell_volume   6989.98975965
_cell_formula_units_Z   1
loop_
 _symmetry_equiv_pos_site_id
 _symmetry_equiv_pos_as_xyz
  1  'x, y, z'
loop_
 _atom_type_symbol
 _atom_type_oxidation_number
  In3+  3.0
  Ag+  1.0
  Sn2+  2.0
  Bi3+  3.0
  Te2-  -2.0
  Pb2+  2.0
loop_
 _atom_site_type_symbol
 _atom_site_label
 _atom_site_symmetry_multiplicity
 _atom_site_fract_x
 _atom_site_fract_y
 _atom_site_fract_z
 _atom_site_occupancy
  In3+  In0  1  0.17889845  0.00829737  0.50316714  1
  In3+  In1  1  0.00307508  0.49100673  0.48998189  1
  In3+  In2  1  0.83447663  0.17561779  0.65992383  1
  In3+  In3  1  0.66776986  0.80411219  0.51544309  1
  In3+  In4  1  -0.00325478  0.33727161  0.65734361  1
  In3+  In5  1  0.34047792  0.64753778  0.66548607  1
  In3+  In6  1  0.82903188  0.34441496  0.81494167  1
  In3+  In7  1  0.33409389  0.00624490  -0.02702419  1
  In3+  In8  1  0.17628252  0.83397963  0.66928867  1
  In3+  In9  1  0.84084437  0.81474919  0.33124599  1
  In3+  In10  1  0.83179988  0.50774860  0.66339435  1
  In3+  In11  1  0.83660789  0.19351866  -0.02253707  1
  In3+  In12  1  0.47816874  0.67097865  0.16632699  1
  In3+  In13  1  0.81395888  0.48797765  0.34260567  1
  In3+  In14  1  0.49667379  0.84383718  0.67768507  1
  In3+  In15  1  0.16669383  0.33183389  0.17775769  1
  In3+  In16  1  0.18399885  0.17272483  0.65925177  1
  In3+  In17  1  0.82514206  0.66854087  0.84630206  1
  In3+  In18  1  -0.00293094  0.16513971  0.19035411  1
  In3+  In19  1  0.15648083  0.67269618  0.15516622  1
  In3+  In20  1  0.16622543  0.83524680  0.00073669  1
  In3+  In21  1  -0.00783948  0.00994174  0.33983846  1
  Ag+  Ag22  1  0.65631196  0.34704712  0.66812754  1
  Ag+  Ag23  1  0.00094231  0.86039418  0.14522668  1
  Ag+  Ag24  1  0.81508524  0.34564907  0.51195844  1
  Ag+  Ag25  1  0.80991234  0.50196514  -0.02828132  1
  Ag+  Ag26  1  0.64596357  0.49185154  0.80547462  1
  Ag+  Ag27  1  0.33436868  0.16082451  0.81178937  1
  Ag+  Ag28  1  0.31607429  0.01580123  0.66863746  1
  Ag+  Ag29  1  0.36377635  0.18549142  0.51427889  1
  Ag+  Ag30  1  0.36221461  0.31406486  0.66923809  1
  Ag+  Ag31  1  0.83130564  0.63843487  0.50976141  1
  Ag+  Ag32  1  -0.00584171  0.34414315  0.35227220  1
  Ag+  Ag33  1  0.46555430  0.35733638  0.52480517  1
  Ag+  Ag34  1  0.36030688  0.46946007  0.52989002  1
  Ag+  Ag35  1  0.68535317  0.86028465  0.83809346  1
  Ag+  Ag36  1  0.49181033  0.18799574  0.35664773  1
  Ag+  Ag37  1  0.47154815  0.33082156  0.80639050  1
  Ag+  Ag38  1  -0.00767622  0.68828745  -0.02238948  1
  Ag+  Ag39  1  0.49855905  0.03273579  0.83304029  1
  Ag+  Ag40  1  -0.00187303  0.18358292  0.51179991  1
  Ag+  Ag41  1  0.49810737  0.47663955  0.35119208  1
  Ag+  Ag42  1  0.65075941  0.49008915  0.48313077  1
  Sn2+  Sn43  1  0.17298459  0.00152898  0.16921002  1
  Sn2+  Sn44  1  0.33667784  0.84192092  0.82905902  1
  Sn2+  Sn45  1  0.17422833  0.00325656  0.82659827  1
  Sn2+  Sn46  1  0.50364244  0.16657140  0.66652815  1
  Sn2+  Sn47  1  0.00990803  0.16835947  0.82489033  1
  Sn2+  Sn48  1  0.82393745  -0.00059992  0.83689994  1
  Sn2+  Sn49  1  0.66797696  0.33139340  0.35538503  1
  Sn2+  Sn50  1  0.66811491  0.49716751  0.16749854  1
  Sn2+  Sn51  1  0.49393650  0.00266176  0.16444669  1
  Sn2+  Sn52  1  -0.00273969  0.84057568  0.83092974  1
  Sn2+  Sn53  1  0.83670019  0.33396875  0.17149627  1
  Sn2+  Sn54  1  0.33887823  0.32638065  -0.01875549  1
  Sn2+  Sn55  1  0.66597067  0.00045792  0.33880191  1
  Sn2+  Sn56  1  0.00034287  0.00824781  0.66192588  1
  Sn2+  Sn57  1  0.00255630  0.49807220  0.84254528  1
  Sn2+  Sn58  1  0.33336329  0.16827106  0.17636079  1
  Sn2+  Sn59  1  0.50026709  0.83256042  -0.01077867  1
  Sn2+  Sn60  1  0.50264993  0.33751998  0.17455424  1
  Sn2+  Sn61  1  0.34298267  0.49311905  0.83181468  1
  Sn2+  Sn62  1  0.00067160  0.66071255  0.33473600  1
  Sn2+  Sn63  1  0.16753526  0.33269187  0.83431603  1
  Sn2+  Sn64  1  0.33506914  0.00395265  0.34626457  1
  Bi3+  Bi65  1  0.16609042  0.49849560  -0.00146600  1
  Bi3+  Bi66  1  0.33641945  0.49528124  0.16891394  1
  Bi3+  Bi67  1  0.67081009  0.17468820  0.50032719  1
  Bi3+  Bi68  1  0.66582063  0.66000189  0.66644103  1
  Bi3+  Bi69  1  0.15918039  0.67114173  0.50184075  1
  Bi3+  Bi70  1  0.83306792  0.00163858  0.50353391  1
  Bi3+  Bi71  1  0.16234866  0.33285945  0.50097473  1
  Bi3+  Bi72  1  0.49915189  0.49558525  0.00357121  1
  Bi3+  Bi73  1  0.17161377  0.16489371  0.33662657  1
  Bi3+  Bi74  1  0.33603482  0.83606454  0.50306325  1
  Bi3+  Bi75  1  0.84094560  0.66221897  0.16850921  1
  Bi3+  Bi76  1  0.66618327  -0.00007283  0.66687135  1
  Bi3+  Bi77  1  0.66855668  0.33357600  -0.00055929  1
  Bi3+  Bi78  1  0.50475041  0.83641021  0.33187832  1
  Bi3+  Bi79  1  0.66842909  0.16743642  0.16847993  1
  Bi3+  Bi80  1  -0.00455854  0.83326108  0.50200838  1
  Bi3+  Bi81  1  0.16319377  0.67011353  0.83166311  1
  Bi3+  Bi82  1  0.50101030  -0.00215497  0.50385490  1
  Bi3+  Bi83  1  0.00084335  0.33291520  -0.00237731  1
  Bi3+  Bi84  1  0.49795778  0.16694202  -0.00246040  1
  Bi3+  Bi85  1  0.00184905  0.49370176  0.17040958  1
  Te2-  Te86  1  0.16266501  0.16752136  0.16982559  1
  Te2-  Te87  1  0.15330181  0.16191373  0.50396649  1
  Te2-  Te88  1  0.17907981  0.16105796  0.82400170  1
  Te2-  Te89  1  0.16948710  0.49965804  0.16312142  1
  Te2-  Te90  1  0.16100976  0.50425156  0.50142237  1
  Te2-  Te91  1  0.16957559  0.50404310  0.83543116  1
  Te2-  Te92  1  0.15253710  0.82974443  0.16214990  1
  Te2-  Te93  1  0.16623596  0.83747452  0.50601732  1
  Te2-  Te94  1  0.16730309  0.83283187  0.83167302  1
  Te2-  Te95  1  0.50377434  0.16476328  0.15932997  1
  Te2-  Te96  1  0.50718894  0.15948063  0.50010710  1
  Te2-  Te97  1  0.48963117  0.18000811  0.83622688  1
  Te2-  Te98  1  0.49829924  0.50976656  0.16445127  1
  Te2-  Te99  1  0.50128285  0.50101081  0.49660249  1
  Te2-  Te100  1  0.50005547  0.48229732  0.83887422  1
  Te2-  Te101  1  0.50034410  0.83172227  0.16475661  1
  Te2-  Te102  1  0.50301683  0.83542355  0.49862865  1
  Te2-  Te103  1  0.49638901  0.82285022  0.83178535  1
  Te2-  Te104  1  0.83567744  0.16766642  0.16770023  1
  Te2-  Te105  1  0.84180843  0.16511935  0.50441130  1
  Te2-  Te106  1  0.83428700  0.16621015  0.82820251  1
  Te2-  Te107  1  0.83850156  0.49993417  0.18330842  1
  Te2-  Te108  1  0.84782124  0.49339120  0.49465571  1
  Te2-  Te109  1  0.84459913  0.49701924  0.82886939  1
  Te2-  Te110  1  0.84935934  0.82832956  0.17226810  1
  Te2-  Te111  1  0.82819364  0.83964052  0.49198712  1
  Te2-  Te112  1  0.82914543  0.82428835  0.83239698  1
  Te2-  Te113  1  0.17519668  -0.00402095  -0.00098943  1
  Te2-  Te114  1  0.16448035  0.00391281  0.33890996  1
  Te2-  Te115  1  0.16849350  0.00032383  0.66536310  1
  Te2-  Te116  1  0.16750032  0.33388837  -0.00349602  1
  Te2-  Te117  1  0.15551362  0.32659927  0.33669754  1
  Te2-  Te118  1  0.15517274  0.32594299  0.66563432  1
  Te2-  Te119  1  0.15610038  0.66508883  -0.00406140  1
  Te2-  Te120  1  0.16692123  0.66733645  0.33991327  1
  Te2-  Te121  1  0.17022117  0.67132218  0.66683826  1
  Te2-  Te122  1  0.48992255  0.00190975  -0.01168722  1
  Te2-  Te123  1  0.49967085  -0.00280606  0.33649492  1
  Te2-  Te124  1  0.50490738  -0.00133625  0.67128800  1
  Te2-  Te125  1  0.50438384  0.33221069  0.00341710  1
  Te2-  Te126  1  0.50229210  0.33113022  0.32943405  1
  Te2-  Te127  1  0.50949447  0.32578105  0.66084818  1
  Te2-  Te128  1  0.49670846  0.66250090  0.00541722  1
  Te2-  Te129  1  0.50292522  0.67503768  0.32505494  1
  Te2-  Te130  1  0.49988306  0.66558781  0.66595116  1
  Te2-  Te131  1  0.83270393  -0.00656627  -0.00557223  1
  Te2-  Te132  1  0.83639953  0.00465706  0.33731096  1
  Te2-  Te133  1  0.82870688  -0.00026749  0.66995234  1
  Te2-  Te134  1  0.83441549  0.34705976  0.00030712  1
  Te2-  Te135  1  0.84199908  0.33832398  0.34193374  1
  Te2-  Te136  1  0.83968828  0.33215854  0.65907067  1
  Te2-  Te137  1  0.84557293  0.65174277  -0.00137337  1
  Te2-  Te138  1  0.83752747  0.66046101  0.33870169  1
  Te2-  Te139  1  0.82947434  0.66233949  0.65769145  1
  Te2-  Te140  1  -0.00513282  0.16995922  -0.00660289  1
  Te2-  Te141  1  0.00506850  0.16558265  0.34228002  1
  Te2-  Te142  1  -0.00730078  0.16871385  0.66203959  1
  Te2-  Te143  1  0.00561279  0.49429165  0.00800240  1
  Te2-  Te144  1  0.00671273  0.49154048  0.33246463  1
  Te2-  Te145  1  -0.00859158  0.49230470  0.66875338  1
  Te2-  Te146  1  0.00830042  0.83310289  -0.00004456  1
  Te2-  Te147  1  -0.00539102  0.83489431  0.34002446  1
  Te2-  Te148  1  0.00349601  0.83736322  0.66396014  1
  Te2-  Te149  1  0.33474759  0.16191483  0.00569227  1
  Te2-  Te150  1  0.33692397  0.16393730  0.33809500  1
  Te2-  Te151  1  0.33364752  0.16575622  0.65954788  1
  Te2-  Te152  1  0.33271038  0.49781070  0.00035047  1
  Te2-  Te153  1  0.34679145  0.49860079  0.32947606  1
  Te2-  Te154  1  0.33295306  0.49461575  0.67052054  1
  Te2-  Te155  1  0.32898391  0.83875755  -0.00186657  1
  Te2-  Te156  1  0.33526018  0.83516128  0.33714320  1
  Te2-  Te157  1  0.33444415  0.83814014  0.66424969  1
  Te2-  Te158  1  0.67289489  0.16978494  0.00202458  1
  Te2-  Te159  1  0.65380543  0.16797670  0.33174364  1
  Te2-  Te160  1  0.67603013  0.16830201  0.66337309  1
  Te2-  Te161  1  0.66597483  0.49455285  0.00558549  1
  Te2-  Te162  1  0.65972999  0.49378835  0.33492901  1
  Te2-  Te163  1  0.68046950  0.49326013  0.66255574  1
  Te2-  Te164  1  0.66269086  0.83057591  -0.01300640  1
  Te2-  Te165  1  0.66957977  0.83771808  0.33271910  1
  Te2-  Te166  1  0.65987842  0.82922835  0.67623871  1
  Te2-  Te167  1  0.00404640  0.00656977  0.17252150  1
  Te2-  Te168  1  -0.00421305  -0.00553950  0.49717853  1
  Te2-  Te169  1  -0.00080180  -0.00050015  0.82888862  1
  Te2-  Te170  1  0.00386149  0.32557597  0.16195448  1
  Te2-  Te171  1  0.00018674  0.33358683  0.50158842  1
  Te2-  Te172  1  -0.00211756  0.32878883  0.83480915  1
  Te2-  Te173  1  0.00257037  0.65848000  0.17191608  1
  Te2-  Te174  1  -0.00423250  0.66918932  0.49958463  1
  Te2-  Te175  1  0.00049344  0.66923360  0.83236819  1
  Te2-  Te176  1  0.33218738  0.00251907  0.17321572  1
  Te2-  Te177  1  0.33476833  -0.00182514  0.51390550  1
  Te2-  Te178  1  0.34455973  0.00756957  0.82091339  1
  Te2-  Te179  1  0.33007170  0.33359390  0.16232152  1
  Te2-  Te180  1  0.32108976  0.32692298  0.50750870  1
  Te2-  Te181  1  0.32526925  0.32533818  0.82115765  1
  Te2-  Te182  1  0.32069271  0.66570578  0.16446124  1
  Te2-  Te183  1  0.32611591  0.67216136  0.51131487  1
  Te2-  Te184  1  0.32858135  0.66578561  0.82351786  1
  Te2-  Te185  1  0.66515799  0.00220935  0.16673094  1
  Te2-  Te186  1  0.66710611  0.00650517  0.50370459  1
  Te2-  Te187  1  0.65297734  0.00366347  0.82811273  1
  Te2-  Te188  1  0.67118972  0.32994593  0.16589545  1
  Te2-  Te189  1  0.66830900  0.33625044  0.50960946  1
  Te2-  Te190  1  0.67900075  0.34397523  0.83116656  1
  Te2-  Te191  1  0.67941364  0.66635680  0.16503656  1
  Te2-  Te192  1  0.67885847  0.64855470  0.50339666  1
  Te2-  Te193  1  0.67389908  0.64520535  0.82764622  1
  Pb2+  Pb194  1  0.33565061  0.66323320  0.34073300  1
  Pb2+  Pb195  1  0.83434070  0.00025803  0.16534663  1
  Pb2+  Pb196  1  0.17572376  0.49787918  0.33333083  1
  Pb2+  Pb197  1  0.83494974  0.82483152  0.00114864  1
  Pb2+  Pb198  1  0.66969493  0.66592910  0.33358330  1
  Pb2+  Pb199  1  0.50297543  0.65520496  0.83436735  1
  Pb2+  Pb200  1  0.66911475  0.66204062  -0.00199616  1
  Pb2+  Pb201  1  -0.00122592  0.66455667  0.66656866  1
  Pb2+  Pb202  1  0.16212369  0.49573912  0.66715538  1
  Pb2+  Pb203  1  0.16108063  0.83572540  0.33463573  1
  Pb2+  Pb204  1  0.67089956  0.83221244  0.16609519  1
  Pb2+  Pb205  1  0.00110722  0.00219183  -0.00298041  1
  Pb2+  Pb206  1  0.33414490  0.33238213  0.33643906  1
  Pb2+  Pb207  1  0.83065597  0.83188749  0.66142622  1
  Pb2+  Pb208  1  0.16613357  0.16564656  -0.00573958  1
  Pb2+  Pb209  1  0.32807110  0.83710126  0.16541231  1
  Pb2+  Pb210  1  0.50803851  0.49408379  0.66549275  1
  Pb2+  Pb211  1  0.32625790  0.66976705  -0.00784125  1
  Pb2+  Pb212  1  0.65916837  0.17876213  0.83022219  1
  Pb2+  Pb213  1  0.66126005  -0.00061429  -0.00409546  1
  Pb2+  Pb214  1  0.82620329  0.17368341  0.33666102  1
  Pb2+  Pb215  1  0.50286124  0.66619891  0.49754389  1
