# generated using pymatgen
data_In22Ag21Sn22Bi21(Te54Pb11)2
_symmetry_space_group_name_H-M   'P 1'
_cell_length_a   19.10396050
_cell_length_b   19.12495775
_cell_length_c   19.11801197
_cell_angle_alpha   89.99376078
_cell_angle_beta   89.98764188
_cell_angle_gamma   90.00309549
_symmetry_Int_Tables_number   1
_chemical_formula_structural   In22Ag21Sn22Bi21(Te54Pb11)2
_chemical_formula_sum   'In22 Ag21 Sn22 Bi21 Te108 Pb22'
_cell_volume   6985.00323633
_cell_formula_units_Z   1
loop_
 _symmetry_equiv_pos_site_id
 _symmetry_equiv_pos_as_xyz
  1  'x, y, z'
loop_
 _atom_type_symbol
 _atom_type_oxidation_number
  In3+  3.0
  Ag+  1.0
  Sn2+  2.0
  Bi3+  3.0
  Te2-  -2.0
  Pb2+  2.0
loop_
 _atom_site_type_symbol
 _atom_site_label
 _atom_site_symmetry_multiplicity
 _atom_site_fract_x
 _atom_site_fract_y
 _atom_site_fract_z
 _atom_site_occupancy
  In3+  In0  1  0.68140712  0.67584626  0.66684531  1
  In3+  In1  1  0.50204114  0.16874711  0.64596174  1
  In3+  In2  1  0.00485236  0.18742045  0.84069521  1
  In3+  In3  1  0.34714653  -0.00246798  0.66453393  1
  In3+  In4  1  0.68057063  0.49776562  0.85265189  1
  In3+  In5  1  0.83725493  0.83489978  0.68629664  1
  In3+  In6  1  0.66718601  0.16863400  0.84274997  1
  In3+  In7  1  0.82944434  -0.00092892  0.48874479  1
  In3+  In8  1  0.15941748  0.52788208  0.33008080  1
  In3+  In9  1  0.52018862  0.83883286  -0.00088326  1
  In3+  In10  1  0.67706941  0.16555858  0.18142919  1
  In3+  In11  1  0.52742256  0.35767909  0.16666756  1
  In3+  In12  1  0.83205439  0.82876052  0.33017828  1
  In3+  In13  1  -0.00441503  0.51572527  0.49964523  1
  In3+  In14  1  0.82590844  0.49292948  0.31901800  1
  In3+  In15  1  -0.01498298  0.34489043  0.33259495  1
  In3+  In16  1  0.14267539  0.32134390  0.49990167  1
  In3+  In17  1  0.16170216  0.18159877  0.30923447  1
  In3+  In18  1  -0.00622118  0.33570574  0.66084565  1
  In3+  In19  1  -0.01884823  0.50593641  0.15427419  1
  In3+  In20  1  0.83469234  0.67319016  0.15451300  1
  In3+  In21  1  0.50415287  0.50634773  0.65067298  1
  Ag+  Ag22  1  0.52566286  -0.01509344  0.49972724  1
  Ag+  Ag23  1  0.50534850  0.80259197  0.36290713  1
  Ag+  Ag24  1  -0.02609379  0.81613609  0.50894745  1
  Ag+  Ag25  1  0.52434314  0.69531892  0.48425968  1
  Ag+  Ag26  1  0.18378475  0.66359514  0.15165209  1
  Ag+  Ag27  1  -0.01272450  0.50312232  0.81132279  1
  Ag+  Ag28  1  0.83849213  0.31050360  0.50613793  1
  Ag+  Ag29  1  0.83749036  -0.02303386  0.16289598  1
  Ag+  Ag30  1  0.82886261  0.33610275  0.14648357  1
  Ag+  Ag31  1  0.15530170  0.64104336  0.85726344  1
  Ag+  Ag32  1  0.13703390  0.83262643  0.33569940  1
  Ag+  Ag33  1  0.66894750  0.80617242  0.85585132  1
  Ag+  Ag34  1  -0.00471301  0.64072162  0.67684440  1
  Ag+  Ag35  1  0.17353174  0.18691304  0.00385997  1
  Ag+  Ag36  1  0.84179842  0.47966359  0.01534837  1
  Ag+  Ag37  1  0.85106743  0.81007764  0.02328395  1
  Ag+  Ag38  1  0.47883494  0.67847648  0.13910322  1
  Ag+  Ag39  1  0.66558610  0.52483897  0.16570653  1
  Ag+  Ag40  1  -0.00017829  0.33955956  -0.02249746  1
  Ag+  Ag41  1  0.69080810  0.34100173  0.31703617  1
  Ag+  Ag42  1  0.68844809  0.17481439  0.51407480  1
  Sn2+  Sn43  1  -0.00037182  0.65925385  -0.00986738  1
  Sn2+  Sn44  1  0.15835118  0.83151692  0.66016236  1
  Sn2+  Sn45  1  0.66461920  0.83604913  0.16982334  1
  Sn2+  Sn46  1  0.16339855  0.33915768  0.83284491  1
  Sn2+  Sn47  1  0.15237883  0.34352732  0.17088718  1
  Sn2+  Sn48  1  0.83518298  0.34100511  0.83451797  1
  Sn2+  Sn49  1  0.33512125  -0.00236547  0.00044999  1
  Sn2+  Sn50  1  0.66539856  0.84150231  0.49562974  1
  Sn2+  Sn51  1  0.31763814  0.33426078  0.00272936  1
  Sn2+  Sn52  1  -0.00667930  0.17170483  0.15893576  1
  Sn2+  Sn53  1  0.50359972  0.82748771  0.66565425  1
  Sn2+  Sn54  1  -0.00003060  0.16071381  0.50358599  1
  Sn2+  Sn55  1  0.66523454  0.66249843  0.33634897  1
  Sn2+  Sn56  1  0.32934295  0.83414021  0.49573141  1
  Sn2+  Sn57  1  0.50952288  -0.01052942  0.18198276  1
  Sn2+  Sn58  1  0.33442760  0.16711965  0.49779281  1
  Sn2+  Sn59  1  0.00615940  0.83277013  0.17058097  1
  Sn2+  Sn60  1  0.67105014  0.00052593  -0.00246096  1
  Sn2+  Sn61  1  0.49276493  0.16140962  0.00163701  1
  Sn2+  Sn62  1  0.33462298  -0.01171803  0.34016785  1
  Sn2+  Sn63  1  0.50365665  -0.00760864  0.82876733  1
  Sn2+  Sn64  1  0.33962146  0.66821480  0.33568196  1
  Bi3+  Bi65  1  0.32893532  0.67306172  0.66457465  1
  Bi3+  Bi66  1  0.33432081  0.16484050  0.16607146  1
  Bi3+  Bi67  1  0.49713572  0.16600253  0.32544605  1
  Bi3+  Bi68  1  0.83881191  0.66656620  0.83221141  1
  Bi3+  Bi69  1  0.33473743  0.33003372  0.33163508  1
  Bi3+  Bi70  1  0.50681790  0.49898747  0.00241147  1
  Bi3+  Bi71  1  0.16401773  -0.00044570  0.83411842  1
  Bi3+  Bi72  1  0.16431444  -0.00197118  0.49771824  1
  Bi3+  Bi73  1  0.00027194  0.00299366  0.66644978  1
  Bi3+  Bi74  1  0.33199580  0.49982803  0.83471924  1
  Bi3+  Bi75  1  0.16802434  0.66958860  0.50097491  1
  Bi3+  Bi76  1  0.83426177  0.16829500  -0.00093704  1
  Bi3+  Bi77  1  0.66602648  0.00006628  0.33010672  1
  Bi3+  Bi78  1  0.50117538  0.33064761  0.84014088  1
  Bi3+  Bi79  1  0.66594438  -0.00159303  0.66211272  1
  Bi3+  Bi80  1  0.15890311  0.83383709  0.00230518  1
  Bi3+  Bi81  1  0.50230744  0.33289395  0.49844542  1
  Bi3+  Bi82  1  0.83000002  0.67130987  0.49764944  1
  Bi3+  Bi83  1  0.66730722  0.33622785  0.66158135  1
  Bi3+  Bi84  1  -0.00032891  0.00241886  0.33336200  1
  Bi3+  Bi85  1  0.50339387  0.49648810  0.32936538  1
  Te2-  Te86  1  0.16463532  0.16585384  0.15728472  1
  Te2-  Te87  1  0.16576220  0.16539474  0.50035094  1
  Te2-  Te88  1  0.15958464  0.16569983  0.84308204  1
  Te2-  Te89  1  0.16352641  0.51353790  0.17867596  1
  Te2-  Te90  1  0.15551318  0.50148355  0.49160269  1
  Te2-  Te91  1  0.16803115  0.49625815  0.83545306  1
  Te2-  Te92  1  0.16193633  0.82040694  0.16948517  1
  Te2-  Te93  1  0.16759892  0.83553527  0.49076142  1
  Te2-  Te94  1  0.16601937  0.83974946  0.83264093  1
  Te2-  Te95  1  0.49892081  0.15766715  0.16389056  1
  Te2-  Te96  1  0.49566421  0.17064516  0.49113626  1
  Te2-  Te97  1  0.50430382  0.16841840  0.84045089  1
  Te2-  Te98  1  0.51244396  0.51604892  0.16484000  1
  Te2-  Te99  1  0.50149214  0.49596138  0.49298122  1
  Te2-  Te100  1  0.49722852  0.49297618  0.84109526  1
  Te2-  Te101  1  0.50576693  0.82531135  0.15303958  1
  Te2-  Te102  1  0.50004241  0.83988581  0.50612804  1
  Te2-  Te103  1  0.51679866  0.83357931  0.83670021  1
  Te2-  Te104  1  0.83306564  0.18415243  0.16413011  1
  Te2-  Te105  1  0.83538564  0.16009512  0.49682891  1
  Te2-  Te106  1  0.83361037  0.17080027  0.83620125  1
  Te2-  Te107  1  0.83156539  0.48813117  0.16614784  1
  Te2-  Te108  1  0.83953861  0.51053481  0.50271516  1
  Te2-  Te109  1  0.84125350  0.50285019  0.84185297  1
  Te2-  Te110  1  0.83625088  0.82847711  0.16959844  1
  Te2-  Te111  1  0.82885230  0.83646427  0.48910347  1
  Te2-  Te112  1  0.82133545  0.82922885  0.83739965  1
  Te2-  Te113  1  0.16644726  -0.00433603  -0.00085336  1
  Te2-  Te114  1  0.16448613  -0.01500852  0.33587784  1
  Te2-  Te115  1  0.16368308  -0.00159095  0.66635679  1
  Te2-  Te116  1  0.15692198  0.33328182  0.00334567  1
  Te2-  Te117  1  0.17050270  0.33064647  0.34139885  1
  Te2-  Te118  1  0.16145501  0.33372978  0.65900308  1
  Te2-  Te119  1  0.15984503  0.67009379  0.00266369  1
  Te2-  Te120  1  0.16746816  0.68090380  0.33910992  1
  Te2-  Te121  1  0.16188266  0.67215198  0.66214819  1
  Te2-  Te122  1  0.49933674  -0.00741938  0.00042740  1
  Te2-  Te123  1  0.50312196  0.00581289  0.34537008  1
  Te2-  Te124  1  0.50283247  0.00311317  0.65464180  1
  Te2-  Te125  1  0.49688322  0.33449614  0.00580846  1
  Te2-  Te126  1  0.49788746  0.33210325  0.32751918  1
  Te2-  Te127  1  0.50215484  0.32980222  0.66993005  1
  Te2-  Te128  1  0.50276866  0.66475398  -0.00547508  1
  Te2-  Te129  1  0.50658923  0.65704264  0.34203053  1
  Te2-  Te130  1  0.49348409  0.66717337  0.65923979  1
  Te2-  Te131  1  0.83181712  0.00730361  0.01186253  1
  Te2-  Te132  1  0.83223218  -0.00368746  0.32574608  1
  Te2-  Te133  1  0.83270890  -0.00531677  0.66210013  1
  Te2-  Te134  1  0.84101006  0.33248015  -0.00533474  1
  Te2-  Te135  1  0.83279734  0.34103335  0.35528039  1
  Te2-  Te136  1  0.83386954  0.33371574  0.65957728  1
  Te2-  Te137  1  0.83667472  0.66635250  -0.00215725  1
  Te2-  Te138  1  0.83000428  0.66368527  0.33697467  1
  Te2-  Te139  1  0.84316142  0.67339629  0.66592005  1
  Te2-  Te140  1  -0.00058045  0.17908564  -0.00357208  1
  Te2-  Te141  1  0.00739179  0.16618727  0.33184378  1
  Te2-  Te142  1  -0.00143346  0.17085538  0.67405570  1
  Te2-  Te143  1  -0.00905469  0.49141888  0.00660562  1
  Te2-  Te144  1  -0.00124305  0.49667785  0.34207919  1
  Te2-  Te145  1  -0.00076256  0.49301804  0.66255068  1
  Te2-  Te146  1  -0.00397533  0.83201456  0.00139136  1
  Te2-  Te147  1  -0.01242132  0.83883469  0.33983681  1
  Te2-  Te148  1  -0.00825465  0.84185744  0.65572097  1
  Te2-  Te149  1  0.32287673  0.16562078  0.00458697  1
  Te2-  Te150  1  0.32633402  0.16399755  0.32931500  1
  Te2-  Te151  1  0.34111798  0.16126375  0.66675003  1
  Te2-  Te152  1  0.33608548  0.50020337  0.00007403  1
  Te2-  Te153  1  0.33438066  0.49524836  0.33288552  1
  Te2-  Te154  1  0.33766831  0.50370980  0.67040917  1
  Te2-  Te155  1  0.32598183  0.83554569  0.00070917  1
  Te2-  Te156  1  0.35825512  0.83296663  0.33595535  1
  Te2-  Te157  1  0.33353427  0.83672581  0.66619470  1
  Te2-  Te158  1  0.66666832  0.16666475  -0.00196912  1
  Te2-  Te159  1  0.66290296  0.16710341  0.33336729  1
  Te2-  Te160  1  0.65959986  0.16649779  0.66104949  1
  Te2-  Te161  1  0.67030906  0.49972130  0.01212361  1
  Te2-  Te162  1  0.67008837  0.49134480  0.32014788  1
  Te2-  Te163  1  0.66105145  0.49887675  0.66511669  1
  Te2-  Te164  1  0.67357056  0.83868300  -0.00033617  1
  Te2-  Te165  1  0.66132374  0.83735637  0.33421649  1
  Te2-  Te166  1  0.67176654  0.83664815  0.66248102  1
  Te2-  Te167  1  -0.01052079  0.00102894  0.17214437  1
  Te2-  Te168  1  -0.00160604  0.00017328  0.49973215  1
  Te2-  Te169  1  -0.00209249  -0.00320142  0.82887747  1
  Te2-  Te170  1  -0.00485791  0.33906843  0.18288067  1
  Te2-  Te171  1  -0.00962181  0.32776142  0.50194328  1
  Te2-  Te172  1  0.00347034  0.34466847  0.82887873  1
  Te2-  Te173  1  -0.01237126  0.65853742  0.16795354  1
  Te2-  Te174  1  -0.00007878  0.67060051  0.50851501  1
  Te2-  Te175  1  0.00510623  0.65621217  0.82558073  1
  Te2-  Te176  1  0.33648990  0.00195133  0.16874481  1
  Te2-  Te177  1  0.32537132  0.00352615  0.50696545  1
  Te2-  Te178  1  0.33157805  0.00013334  0.82734194  1
  Te2-  Te179  1  0.32259322  0.32758697  0.16886653  1
  Te2-  Te180  1  0.33750345  0.33252911  0.49749794  1
  Te2-  Te181  1  0.33493982  0.33455081  0.83475632  1
  Te2-  Te182  1  0.33313842  0.66433622  0.17329491  1
  Te2-  Te183  1  0.33078226  0.66714863  0.50290782  1
  Te2-  Te184  1  0.32173724  0.66408213  0.82906580  1
  Te2-  Te185  1  0.67469350  0.00749118  0.16892356  1
  Te2-  Te186  1  0.67244299  0.01378593  0.49791465  1
  Te2-  Te187  1  0.66341136  0.01133660  0.82419409  1
  Te2-  Te188  1  0.67700937  0.32167817  0.17234239  1
  Te2-  Te189  1  0.66378103  0.32511471  0.50300644  1
  Te2-  Te190  1  0.66484457  0.33342955  0.82763611  1
  Te2-  Te191  1  0.68226652  0.67041049  0.17205768  1
  Te2-  Te192  1  0.66795131  0.66667859  0.50989600  1
  Te2-  Te193  1  0.67227940  0.66088071  0.82274146  1
  Pb2+  Pb194  1  0.32775801  0.50091250  0.49912601  1
  Pb2+  Pb195  1  0.16312447  -0.00585788  0.16939864  1
  Pb2+  Pb196  1  0.15722930  0.50000257  0.00766460  1
  Pb2+  Pb197  1  0.33453464  0.83328184  0.17037088  1
  Pb2+  Pb198  1  0.82799815  0.50178472  0.67292113  1
  Pb2+  Pb199  1  0.33934034  0.83304412  0.83361132  1
  Pb2+  Pb200  1  -0.00040260  0.82473381  0.83031273  1
  Pb2+  Pb201  1  0.49659275  0.66219255  0.82403753  1
  Pb2+  Pb202  1  0.83642146  0.16841764  0.33037847  1
  Pb2+  Pb203  1  0.82966174  0.16515237  0.66650660  1
  Pb2+  Pb204  1  0.33946615  0.49493901  0.16767780  1
  Pb2+  Pb205  1  -0.00123261  0.00592247  0.00151720  1
  Pb2+  Pb206  1  0.67071526  0.33340912  0.00321827  1
  Pb2+  Pb207  1  0.33367341  0.33222336  0.66464920  1
  Pb2+  Pb208  1  0.33102232  0.66910749  0.00017455  1
  Pb2+  Pb209  1  0.16708232  0.16554416  0.67019089  1
  Pb2+  Pb210  1  0.33305866  0.16635850  0.83734981  1
  Pb2+  Pb211  1  0.67241042  0.49299074  0.49236428  1
  Pb2+  Pb212  1  0.66952797  0.66826747  0.00220517  1
  Pb2+  Pb213  1  0.16689424  0.50510014  0.66421109  1
  Pb2+  Pb214  1  0.82995778  0.00001622  0.84062251  1
  Pb2+  Pb215  1  -0.00214621  0.66980492  0.33654707  1
