# generated using pymatgen
data_In22Ag21Sn22Bi21(Te54Pb11)2
_symmetry_space_group_name_H-M   'P 1'
_cell_length_a   19.14379234
_cell_length_b   19.11324364
_cell_length_c   19.13648152
_cell_angle_alpha   89.99947626
_cell_angle_beta   90.00599739
_cell_angle_gamma   89.99883894
_symmetry_Int_Tables_number   1
_chemical_formula_structural   In22Ag21Sn22Bi21(Te54Pb11)2
_chemical_formula_sum   'In22 Ag21 Sn22 Bi21 Te108 Pb22'
_cell_volume   7002.03792188
_cell_formula_units_Z   1
loop_
 _symmetry_equiv_pos_site_id
 _symmetry_equiv_pos_as_xyz
  1  'x, y, z'
loop_
 _atom_type_symbol
 _atom_type_oxidation_number
  In3+  3.0
  Ag+  1.0
  Sn2+  2.0
  Bi3+  3.0
  Te2-  -2.0
  Pb2+  2.0
loop_
 _atom_site_type_symbol
 _atom_site_label
 _atom_site_symmetry_multiplicity
 _atom_site_fract_x
 _atom_site_fract_y
 _atom_site_fract_z
 _atom_site_occupancy
  In3+  In0  1  0.33769876  0.35456367  0.66233475  1
  In3+  In1  1  0.49638272  0.15855249  0.67244129  1
  In3+  In2  1  -0.01104584  0.18112959  0.17614854  1
  In3+  In3  1  0.33639297  0.49836915  0.49940975  1
  In3+  In4  1  0.33025964  0.33321502  0.33373028  1
  In3+  In5  1  0.00281741  -0.00581278  0.32488898  1
  In3+  In6  1  0.15139074  0.33295321  0.18012940  1
  In3+  In7  1  0.32314383  0.16364172  0.17016750  1
  In3+  In8  1  0.68252625  0.16703542  0.51820753  1
  In3+  In9  1  -0.00083415  0.80379425  0.16667547  1
  In3+  In10  1  0.68489249  0.33314857  -0.01122183  1
  In3+  In11  1  0.50035011  0.32529215  0.49981703  1
  In3+  In12  1  0.33401586  0.33673929  0.02176632  1
  In3+  In13  1  -0.02160381  0.33650617  0.66020807  1
  In3+  In14  1  0.83268027  -0.02085510  0.16619119  1
  In3+  In15  1  0.32948536  0.15780958  0.50528188  1
  In3+  In16  1  0.34469008  0.00033792  -0.00938498  1
  In3+  In17  1  0.00311162  0.16704135  0.47966044  1
  In3+  In18  1  0.82752250  0.83240107  -0.01638840  1
  In3+  In19  1  0.51473603  0.49760170  -0.00357400  1
  In3+  In20  1  0.00080715  0.49726889  0.84748929  1
  In3+  In21  1  0.68360634  0.86380284  0.83061985  1
  Ag+  Ag22  1  0.67044978  -0.02273582  0.69067674  1
  Ag+  Ag23  1  0.83014907  0.02238181  0.80994329  1
  Ag+  Ag24  1  0.30495387  0.00067805  0.68604371  1
  Ag+  Ag25  1  0.49341991  0.33265736  0.85191528  1
  Ag+  Ag26  1  0.64062806  0.53118616  0.16435637  1
  Ag+  Ag27  1  0.14900416  0.83287267  0.65056123  1
  Ag+  Ag28  1  0.30483073  0.03238719  0.33175720  1
  Ag+  Ag29  1  0.68774799  -0.02290310  -0.02043724  1
  Ag+  Ag30  1  0.85318695  0.84519577  0.64745111  1
  Ag+  Ag31  1  -0.02491344  0.85769449  0.80473080  1
  Ag+  Ag32  1  0.16727938  0.66216173  0.47625938  1
  Ag+  Ag33  1  -0.02707785  0.33664004  0.35865633  1
  Ag+  Ag34  1  0.82857762  0.64249621  0.19719485  1
  Ag+  Ag35  1  0.86179233  0.47708108  0.65886895  1
  Ag+  Ag36  1  -0.02519709  0.50079684  0.18872167  1
  Ag+  Ag37  1  0.64623803  0.17112803  0.81780777  1
  Ag+  Ag38  1  0.85760259  0.33448419  0.49228562  1
  Ag+  Ag39  1  0.50095004  0.47797458  0.35566595  1
  Ag+  Ag40  1  0.16492632  0.47790935  0.02881006  1
  Ag+  Ag41  1  0.53295496  0.63934808  0.16502756  1
  Ag+  Ag42  1  0.15970224  0.17818385  0.35155656  1
  Sn2+  Sn43  1  0.16544328  0.51146835  0.66260698  1
  Sn2+  Sn44  1  0.82193177  0.50061795  0.33646288  1
  Sn2+  Sn45  1  0.50184618  0.49848022  0.67260971  1
  Sn2+  Sn46  1  0.83919652  0.65481217  0.51182428  1
  Sn2+  Sn47  1  0.49389252  0.00336416  0.50722446  1
  Sn2+  Sn48  1  0.33865951  0.50275469  0.16549342  1
  Sn2+  Sn49  1  -0.00483150  0.66615654  0.66483006  1
  Sn2+  Sn50  1  0.32421313  0.68730715  0.66361774  1
  Sn2+  Sn51  1  0.16297894  0.65889972  0.16637351  1
  Sn2+  Sn52  1  0.83549199  0.15947742  0.67167876  1
  Sn2+  Sn53  1  0.17037888  0.49867321  0.33173775  1
  Sn2+  Sn54  1  0.49630327  0.15916711  0.33817200  1
  Sn2+  Sn55  1  0.65715256  0.65718941  0.33281376  1
  Sn2+  Sn56  1  0.17531036  0.33719644  0.82957920  1
  Sn2+  Sn57  1  -0.00269903  0.64370414  0.33351039  1
  Sn2+  Sn58  1  0.16919402  0.84176395  0.34252446  1
  Sn2+  Sn59  1  0.83060448  0.34487227  0.17482585  1
  Sn2+  Sn60  1  0.50826106  0.33247735  0.16687536  1
  Sn2+  Sn61  1  0.15545649  -0.00834960  0.83091567  1
  Sn2+  Sn62  1  0.66857159  0.83494586  0.17102768  1
  Sn2+  Sn63  1  0.32749370  0.49328023  0.83861513  1
  Sn2+  Sn64  1  0.50224904  0.17108189  0.00020061  1
  Bi3+  Bi65  1  0.33128229  0.83389158  0.83239420  1
  Bi3+  Bi66  1  0.00105077  0.16691857  0.83320240  1
  Bi3+  Bi67  1  0.33415394  0.83645930  0.49994204  1
  Bi3+  Bi68  1  0.00253500  0.83461523  0.49703056  1
  Bi3+  Bi69  1  0.65794505  0.33513236  0.66721740  1
  Bi3+  Bi70  1  0.17067117  0.16838036  -0.00040506  1
  Bi3+  Bi71  1  0.16587405  0.66636403  0.83321654  1
  Bi3+  Bi72  1  0.00384480  0.66524286  -0.00266276  1
  Bi3+  Bi73  1  0.66432887  0.66507400  0.66681204  1
  Bi3+  Bi74  1  0.33215751  0.66049010  0.32904727  1
  Bi3+  Bi75  1  0.50119628  0.82997397  0.32881649  1
  Bi3+  Bi76  1  0.66204902  0.33410444  0.32910390  1
  Bi3+  Bi77  1  0.49850444  0.83675868  0.66721666  1
  Bi3+  Bi78  1  0.66489980  0.16826386  0.16583944  1
  Bi3+  Bi79  1  0.50117051  0.00237053  0.16903273  1
  Bi3+  Bi80  1  -0.00775810  0.00529754  0.66612171  1
  Bi3+  Bi81  1  0.83373768  0.66202293  0.82842271  1
  Bi3+  Bi82  1  0.33190485  0.65892436  0.00097656  1
  Bi3+  Bi83  1  0.00809063  0.33217863  -0.00410937  1
  Bi3+  Bi84  1  0.16372068  0.83486451  0.00177715  1
  Bi3+  Bi85  1  0.66857662  0.00123659  0.32823417  1
  Te2-  Te86  1  0.16971107  0.17665001  0.16133597  1
  Te2-  Te87  1  0.17220910  0.16774981  0.49850250  1
  Te2-  Te88  1  0.16536218  0.16358453  0.83527062  1
  Te2-  Te89  1  0.17409909  0.48855446  0.17513110  1
  Te2-  Te90  1  0.17807669  0.51138895  0.49686703  1
  Te2-  Te91  1  0.16173643  0.50317320  0.82550429  1
  Te2-  Te92  1  0.15758498  0.83382411  0.16755670  1
  Te2-  Te93  1  0.16869118  0.82481552  0.50284333  1
  Te2-  Te94  1  0.16918728  0.83170207  0.84023692  1
  Te2-  Te95  1  0.49882905  0.16441908  0.16710406  1
  Te2-  Te96  1  0.49350807  0.16763427  0.49929334  1
  Te2-  Te97  1  0.49954808  0.17258601  0.82926346  1
  Te2-  Te98  1  0.49678411  0.49402423  0.15247839  1
  Te2-  Te99  1  0.49298208  0.49798545  0.50166085  1
  Te2-  Te100  1  0.49928954  0.48841887  0.84110462  1
  Te2-  Te101  1  0.50030818  0.83889872  0.16644819  1
  Te2-  Te102  1  0.49897170  0.83304496  0.49900623  1
  Te2-  Te103  1  0.49563716  0.83098123  0.83205539  1
  Te2-  Te104  1  0.83385985  0.17682347  0.16654888  1
  Te2-  Te105  1  0.83685900  0.17993033  0.50267048  1
  Te2-  Te106  1  0.83879762  0.16787311  0.83435804  1
  Te2-  Te107  1  0.82954609  0.49958704  0.16765737  1
  Te2-  Te108  1  0.83594168  0.49484191  0.50834685  1
  Te2-  Te109  1  0.84295607  0.50019201  0.82043668  1
  Te2-  Te110  1  0.84486831  0.82781584  0.16930279  1
  Te2-  Te111  1  0.83896846  0.83120318  0.50173775  1
  Te2-  Te112  1  0.83434006  0.82724339  0.83164946  1
  Te2-  Te113  1  0.17045761  0.00139866  -0.00115682  1
  Te2-  Te114  1  0.15722064  0.01414229  0.33269642  1
  Te2-  Te115  1  0.15640898  -0.00834388  0.67042652  1
  Te2-  Te116  1  0.17369088  0.33142878  -0.00484059  1
  Te2-  Te117  1  0.17629797  0.32757230  0.33160369  1
  Te2-  Te118  1  0.18444510  0.33584560  0.66763186  1
  Te2-  Te119  1  0.16726858  0.66897471  -0.00073894  1
  Te2-  Te120  1  0.16671270  0.66780840  0.32765121  1
  Te2-  Te121  1  0.16521102  0.67988557  0.67328793  1
  Te2-  Te122  1  0.50069211  0.00184561  0.00445302  1
  Te2-  Te123  1  0.50585434  -0.00680655  0.33229864  1
  Te2-  Te124  1  0.52135861  0.00140118  0.66659300  1
  Te2-  Te125  1  0.48496037  0.33883400  -0.00086207  1
  Te2-  Te126  1  0.50054809  0.33091498  0.33808869  1
  Te2-  Te127  1  0.49682638  0.32798501  0.65850892  1
  Te2-  Te128  1  0.49473404  0.65646939  0.01098397  1
  Te2-  Te129  1  0.49750277  0.66904228  0.31464958  1
  Te2-  Te130  1  0.49828179  0.66975955  0.66286688  1
  Te2-  Te131  1  0.83144879  -0.01153609  0.01129059  1
  Te2-  Te132  1  0.83660103  0.00265476  0.32699866  1
  Te2-  Te133  1  0.82569022  -0.00706806  0.66504588  1
  Te2-  Te134  1  0.84138267  0.33654779  -0.00346326  1
  Te2-  Te135  1  0.82466128  0.34072810  0.34390751  1
  Te2-  Te136  1  0.82454777  0.33269195  0.65581480  1
  Te2-  Te137  1  0.84078041  0.67269956  -0.00667817  1
  Te2-  Te138  1  0.83613090  0.65819148  0.34212645  1
  Te2-  Te139  1  0.82935987  0.67582919  0.66713673  1
  Te2-  Te140  1  0.00469773  0.16904524  0.00035150  1
  Te2-  Te141  1  0.01005250  0.19114861  0.32958586  1
  Te2-  Te142  1  0.00083658  0.17088099  0.67033225  1
  Te2-  Te143  1  0.01597812  0.49844850  0.00048884  1
  Te2-  Te144  1  0.00032809  0.48569374  0.33229810  1
  Te2-  Te145  1  0.00663020  0.49235652  0.66132224  1
  Te2-  Te146  1  0.00177180  0.82933837  0.00931497  1
  Te2-  Te147  1  0.00653411  0.83949254  0.33219049  1
  Te2-  Te148  1  0.00095450  0.83776294  0.66181995  1
  Te2-  Te149  1  0.33280311  0.16914914  0.00380436  1
  Te2-  Te150  1  0.33164233  0.17803693  0.33152101  1
  Te2-  Te151  1  0.34152256  0.14375076  0.65785114  1
  Te2-  Te152  1  0.31467129  0.49694801  -0.00249882  1
  Te2-  Te153  1  0.34546228  0.49837502  0.33994387  1
  Te2-  Te154  1  0.33690991  0.50969005  0.66032239  1
  Te2-  Te155  1  0.32950793  0.83065962  -0.00135285  1
  Te2-  Te156  1  0.33423194  0.82694562  0.33743384  1
  Te2-  Te157  1  0.33787610  0.85144402  0.66436507  1
  Te2-  Te158  1  0.66334032  0.18030597  0.00532612  1
  Te2-  Te159  1  0.66624259  0.16789980  0.32804469  1
  Te2-  Te160  1  0.66520317  0.17390295  0.67083552  1
  Te2-  Te161  1  0.66919936  0.49162943  0.01166028  1
  Te2-  Te162  1  0.64918573  0.49850729  0.32138150  1
  Te2-  Te163  1  0.66217091  0.49902615  0.66477045  1
  Te2-  Te164  1  0.67075537  0.83248590  -0.00330248  1
  Te2-  Te165  1  0.66637810  0.83432121  0.33745327  1
  Te2-  Te166  1  0.66213841  0.82938337  0.67575838  1
  Te2-  Te167  1  -0.00666151  0.01888926  0.17306388  1
  Te2-  Te168  1  -0.00036702  0.00653976  0.49955505  1
  Te2-  Te169  1  -0.01548887  0.00240528  0.83125853  1
  Te2-  Te170  1  0.00087707  0.34005831  0.15822127  1
  Te2-  Te171  1  0.00455051  0.32415032  0.50516407  1
  Te2-  Te172  1  0.00515709  0.33388690  0.82936717  1
  Te2-  Te173  1  -0.00644575  0.64979704  0.16348405  1
  Te2-  Te174  1  0.01116768  0.67294613  0.49807808  1
  Te2-  Te175  1  0.00055558  0.66152802  0.83237844  1
  Te2-  Te176  1  0.33583325  0.00859319  0.18272314  1
  Te2-  Te177  1  0.33471523  0.00215975  0.47971611  1
  Te2-  Te178  1  0.33296438  -0.00325333  0.83305729  1
  Te2-  Te179  1  0.33692874  0.32883508  0.17390570  1
  Te2-  Te180  1  0.34196289  0.33016651  0.50252326  1
  Te2-  Te181  1  0.34391525  0.33554577  0.81661275  1
  Te2-  Te182  1  0.32834897  0.66822126  0.16425876  1
  Te2-  Te183  1  0.32446217  0.67183432  0.49441795  1
  Te2-  Te184  1  0.33207281  0.66645712  0.83531106  1
  Te2-  Te185  1  0.67054041  0.00304664  0.16599892  1
  Te2-  Te186  1  0.66566953  0.01379173  0.49033214  1
  Te2-  Te187  1  0.67814354  0.01538662  0.83780579  1
  Te2-  Te188  1  0.66882428  0.33090508  0.16529423  1
  Te2-  Te189  1  0.65660505  0.32593927  0.49782718  1
  Te2-  Te190  1  0.65693955  0.32484761  0.83592245  1
  Te2-  Te191  1  0.68058454  0.67550452  0.16935812  1
  Te2-  Te192  1  0.66691637  0.66612484  0.50097575  1
  Te2-  Te193  1  0.66735207  0.65931760  0.83255327  1
  Pb2+  Pb194  1  0.17086515  0.16743420  0.66635628  1
  Pb2+  Pb195  1  0.50753326  0.00143810  0.83361415  1
  Pb2+  Pb196  1  0.32934450  0.83813858  0.17007475  1
  Pb2+  Pb197  1  0.83175652  0.33238698  0.82309719  1
  Pb2+  Pb198  1  0.83223996  0.00723483  0.49924497  1
  Pb2+  Pb199  1  0.83635476  0.17158051  0.33462548  1
  Pb2+  Pb200  1  0.82998759  0.16041935  0.00102216  1
  Pb2+  Pb201  1  0.16958709  -0.00561578  0.50142154  1
  Pb2+  Pb202  1  0.00252549  0.50251902  0.49621548  1
  Pb2+  Pb203  1  0.84283350  0.50407242  -0.00046341  1
  Pb2+  Pb204  1  0.66831390  0.66370465  0.00025120  1
  Pb2+  Pb205  1  -0.00088566  -0.00291406  0.00169368  1
  Pb2+  Pb206  1  0.49985070  0.83120922  -0.00046682  1
  Pb2+  Pb207  1  0.33425916  0.16977130  0.83111647  1
  Pb2+  Pb208  1  0.66810452  0.49641259  0.49302725  1
  Pb2+  Pb209  1  0.17335014  0.34182443  0.50123475  1
  Pb2+  Pb210  1  0.66912671  0.83952396  0.50803717  1
  Pb2+  Pb211  1  0.83670787  0.82821331  0.33523682  1
  Pb2+  Pb212  1  0.67012963  0.49249147  0.83417622  1
  Pb2+  Pb213  1  0.50002590  0.65915117  0.83225827  1
  Pb2+  Pb214  1  0.16427759  0.00359925  0.16601672  1
  Pb2+  Pb215  1  0.49556828  0.66324912  0.48813296  1
