# generated using pymatgen
data_In22Ag21Sn22Bi21(Te54Pb11)2
_symmetry_space_group_name_H-M   'P 1'
_cell_length_a   19.15565677
_cell_length_b   19.14772186
_cell_length_c   19.13489733
_cell_angle_alpha   90.00333147
_cell_angle_beta   90.00997494
_cell_angle_gamma   89.99951192
_symmetry_Int_Tables_number   1
_chemical_formula_structural   In22Ag21Sn22Bi21(Te54Pb11)2
_chemical_formula_sum   'In22 Ag21 Sn22 Bi21 Te108 Pb22'
_cell_volume   7018.43506625
_cell_formula_units_Z   1
loop_
 _symmetry_equiv_pos_site_id
 _symmetry_equiv_pos_as_xyz
  1  'x, y, z'
loop_
 _atom_type_symbol
 _atom_type_oxidation_number
  In3+  3.0
  Ag+  1.0
  Sn2+  2.0
  Bi3+  3.0
  Te2-  -2.0
  Pb2+  2.0
loop_
 _atom_site_type_symbol
 _atom_site_label
 _atom_site_symmetry_multiplicity
 _atom_site_fract_x
 _atom_site_fract_y
 _atom_site_fract_z
 _atom_site_occupancy
  In3+  In0  1  0.34164510  0.84857799  0.15479720  1
  In3+  In1  1  0.17051906  0.49791631  0.32425924  1
  In3+  In2  1  -0.00276346  0.81620245  0.83610358  1
  In3+  In3  1  0.67953740  0.15906439  0.16325854  1
  In3+  In4  1  0.83257009  0.00003872  0.86065390  1
  In3+  In5  1  0.00596671  0.50651172  0.49870187  1
  In3+  In6  1  0.80830361  0.49865442  0.33776181  1
  In3+  In7  1  -0.02289950  0.50391538  0.82474051  1
  In3+  In8  1  0.50477237  0.16163137  0.30220869  1
  In3+  In9  1  0.00657425  0.33181434  0.66361084  1
  In3+  In10  1  0.16200815  0.49618333  0.00184450  1
  In3+  In11  1  0.34111273  0.49976356  0.17057426  1
  In3+  In12  1  0.67679445  0.80881339  0.84290529  1
  In3+  In13  1  0.83476326  0.16117996  0.33483419  1
  In3+  In14  1  0.50731963  0.50661368  0.67605572  1
  In3+  In15  1  0.83452604  0.84589896  0.32683093  1
  In3+  In16  1  0.48743895  0.83800672  0.34279401  1
  In3+  In17  1  0.82015320  0.65191522  0.83733459  1
  In3+  In18  1  0.64539373  0.50001690  0.50076854  1
  In3+  In19  1  0.35738124  0.83589097  0.80537339  1
  In3+  In20  1  0.00476206  0.48129515  0.17347041  1
  In3+  In21  1  0.66043265  0.33489182  0.68995253  1
  Ag+  Ag22  1  0.68719250  0.31589477  0.01108680  1
  Ag+  Ag23  1  -0.02685764  0.67414289  0.64137642  1
  Ag+  Ag24  1  0.14848027  0.02466282  0.16498637  1
  Ag+  Ag25  1  0.31516322  -0.00691064  0.66021007  1
  Ag+  Ag26  1  0.50344143  0.35621938  0.85487980  1
  Ag+  Ag27  1  0.49960551  -0.00970182  0.14215697  1
  Ag+  Ag28  1  0.66551790  0.49241996  0.85793770  1
  Ag+  Ag29  1  0.51201206  0.46824935  0.31028364  1
  Ag+  Ag30  1  0.14416399  0.31800872  0.16863950  1
  Ag+  Ag31  1  0.85533793  0.02446395  0.16330103  1
  Ag+  Ag32  1  0.82605082  0.81208859  -0.02259162  1
  Ag+  Ag33  1  0.51987653  0.64868607  0.85395348  1
  Ag+  Ag34  1  0.02018697  0.80055110  0.53680479  1
  Ag+  Ag35  1  -0.02125482  0.18476845  0.17432346  1
  Ag+  Ag36  1  0.64456440  0.64773411  0.01126058  1
  Ag+  Ag37  1  -0.01293134  0.16881252  0.47006681  1
  Ag+  Ag38  1  0.51959986  0.19208808  -0.00060414  1
  Ag+  Ag39  1  0.81520043  0.14699107  -0.00209824  1
  Ag+  Ag40  1  0.47986339  0.64424686  0.47482198  1
  Ag+  Ag41  1  0.30835678  0.81209587  0.49824321  1
  Ag+  Ag42  1  0.13175341  0.69603186  0.53001688  1
  Sn2+  Sn43  1  0.16344849  0.16604294  0.32469556  1
  Sn2+  Sn44  1  -0.00448695  0.32979994  -0.00513921  1
  Sn2+  Sn45  1  0.50243737  0.49539071  0.00012828  1
  Sn2+  Sn46  1  0.15612258  0.83009314  0.00410246  1
  Sn2+  Sn47  1  0.50727434  0.82987525  -0.00040339  1
  Sn2+  Sn48  1  0.82287395  0.66949217  0.50433092  1
  Sn2+  Sn49  1  0.66693382  0.49511933  0.16194780  1
  Sn2+  Sn50  1  0.83948046  -0.00157979  0.49165268  1
  Sn2+  Sn51  1  0.00056313  0.67158400  0.32923170  1
  Sn2+  Sn52  1  0.66797266  0.17354248  0.49974499  1
  Sn2+  Sn53  1  0.33456756  0.32809867  0.67103806  1
  Sn2+  Sn54  1  0.33904155  0.66964467  0.00017368  1
  Sn2+  Sn55  1  0.82953701  0.33133934  0.16118717  1
  Sn2+  Sn56  1  0.16334844  0.33456421  0.49536779  1
  Sn2+  Sn57  1  0.66273025  0.66296230  0.66735628  1
  Sn2+  Sn58  1  0.67379470  0.83027280  0.50520464  1
  Sn2+  Sn59  1  0.16295091  0.16145879  0.65427800  1
  Sn2+  Sn60  1  0.66972325  0.67423828  0.32634228  1
  Sn2+  Sn61  1  0.16193215  0.00134307  0.84225246  1
  Sn2+  Sn62  1  0.66260110  0.17513188  0.84291280  1
  Sn2+  Sn63  1  0.49940819  0.32465218  0.16365224  1
  Sn2+  Sn64  1  0.83080365  0.33097964  0.49933117  1
  Bi3+  Bi65  1  0.50152271  0.00347089  0.50284149  1
  Bi3+  Bi66  1  0.83317375  0.66423359  0.16817547  1
  Bi3+  Bi67  1  0.50393427  0.00036969  0.83157930  1
  Bi3+  Bi68  1  0.50112695  0.33244849  0.50085026  1
  Bi3+  Bi69  1  0.00304170  0.00025208  0.33157890  1
  Bi3+  Bi70  1  0.33564533  0.16195473  0.83492627  1
  Bi3+  Bi71  1  0.34091274  0.66710459  0.66577494  1
  Bi3+  Bi72  1  0.16662557  0.66547249  0.16877367  1
  Bi3+  Bi73  1  0.00282983  0.66432056  0.00071957  1
  Bi3+  Bi74  1  0.66538655  0.00008606  0.33341986  1
  Bi3+  Bi75  1  0.00146118  0.82939790  0.16624533  1
  Bi3+  Bi76  1  0.32820193  0.50572218  0.49834490  1
  Bi3+  Bi77  1  0.82867218  0.33155754  0.83377221  1
  Bi3+  Bi78  1  -0.00131975  0.17097645  0.84244704  1
  Bi3+  Bi79  1  0.16833597  0.49940508  0.66686486  1
  Bi3+  Bi80  1  0.33540528  0.66756523  0.33408547  1
  Bi3+  Bi81  1  0.50668124  0.83068743  0.66185006  1
  Bi3+  Bi82  1  0.33481542  0.16641812  0.16611656  1
  Bi3+  Bi83  1  0.33346603  0.33738358  0.00083179  1
  Bi3+  Bi84  1  0.16828484  0.16815741  -0.00028979  1
  Bi3+  Bi85  1  0.33371576  0.00134733  0.33972025  1
  Te2-  Te86  1  0.17329639  0.17097842  0.16502887  1
  Te2-  Te87  1  0.16623808  0.17521985  0.49494015  1
  Te2-  Te88  1  0.16853835  0.16673656  0.83419574  1
  Te2-  Te89  1  0.16552621  0.50321529  0.16498263  1
  Te2-  Te90  1  0.16606613  0.49635639  0.50087128  1
  Te2-  Te91  1  0.17581848  0.49886121  0.83409849  1
  Te2-  Te92  1  0.16922460  0.82706782  0.16437600  1
  Te2-  Te93  1  0.15984302  0.83770492  0.49957908  1
  Te2-  Te94  1  0.15349393  0.84060719  0.84263426  1
  Te2-  Te95  1  0.49438416  0.16332612  0.14752691  1
  Te2-  Te96  1  0.50607527  0.16875641  0.50859705  1
  Te2-  Te97  1  0.49831866  0.16089131  0.84754546  1
  Te2-  Te98  1  0.49787833  0.49954733  0.16857054  1
  Te2-  Te99  1  0.49319208  0.49764809  0.50021057  1
  Te2-  Te100  1  0.51181164  0.50255031  0.82852628  1
  Te2-  Te101  1  0.49584837  0.84044474  0.16827525  1
  Te2-  Te102  1  0.51403621  0.84111474  0.49994775  1
  Te2-  Te103  1  0.51187356  0.83674283  0.82842700  1
  Te2-  Te104  1  0.83291323  0.17065740  0.15967647  1
  Te2-  Te105  1  0.83749902  0.17187684  0.49103779  1
  Te2-  Te106  1  0.83382246  0.17070013  0.84705867  1
  Te2-  Te107  1  0.83805817  0.50265500  0.17777714  1
  Te2-  Te108  1  0.84879554  0.49645464  0.48914776  1
  Te2-  Te109  1  0.81662137  0.49708112  0.83052802  1
  Te2-  Te110  1  0.83707575  0.82418160  0.17330875  1
  Te2-  Te111  1  0.83226462  0.83109233  0.48977733  1
  Te2-  Te112  1  0.83201293  0.84877550  0.83447812  1
  Te2-  Te113  1  0.16836861  0.00277820  0.01269651  1
  Te2-  Te114  1  0.16970054  0.00240636  0.31857872  1
  Te2-  Te115  1  0.16937947  0.00099127  0.66889527  1
  Te2-  Te116  1  0.16811244  0.33662865  0.01176670  1
  Te2-  Te117  1  0.16655007  0.33839025  0.32053502  1
  Te2-  Te118  1  0.16447081  0.33678306  0.66847728  1
  Te2-  Te119  1  0.16879863  0.66166011  0.00214781  1
  Te2-  Te120  1  0.17160960  0.65744724  0.33267682  1
  Te2-  Te121  1  0.17659996  0.66296366  0.66540103  1
  Te2-  Te122  1  0.49832799  -0.01155845  -0.00727627  1
  Te2-  Te123  1  0.49954165  0.00072203  0.34120026  1
  Te2-  Te124  1  0.49762978  -0.00232696  0.66803237  1
  Te2-  Te125  1  0.49582002  0.33793196  0.00093345  1
  Te2-  Te126  1  0.50113082  0.32306476  0.33640796  1
  Te2-  Te127  1  0.50518020  0.34234625  0.66235899  1
  Te2-  Te128  1  0.49961740  0.67161252  -0.00214311  1
  Te2-  Te129  1  0.50111768  0.68304451  0.33580924  1
  Te2-  Te130  1  0.50241960  0.66636832  0.66855877  1
  Te2-  Te131  1  0.83292783  0.00276486  0.01406298  1
  Te2-  Te132  1  0.83179430  0.00694336  0.31658466  1
  Te2-  Te133  1  0.83458144  0.00405300  0.65229598  1
  Te2-  Te134  1  0.83256192  0.33579705  -0.00397997  1
  Te2-  Te135  1  0.83379411  0.34421335  0.33042058  1
  Te2-  Te136  1  0.83117924  0.33572690  0.67016911  1
  Te2-  Te137  1  0.83834851  0.66592454  -0.00636110  1
  Te2-  Te138  1  0.83273033  0.65239817  0.33170292  1
  Te2-  Te139  1  0.83057567  0.66645772  0.68012242  1
  Te2-  Te140  1  0.00744137  0.17105357  0.00485648  1
  Te2-  Te141  1  -0.00610686  0.16553922  0.32338957  1
  Te2-  Te142  1  0.00405223  0.17177898  0.67805661  1
  Te2-  Te143  1  0.00630998  0.49946456  -0.00078788  1
  Te2-  Te144  1  0.01463674  0.50156495  0.33494127  1
  Te2-  Te145  1  0.00654090  0.51298916  0.66453201  1
  Te2-  Te146  1  -0.01229821  0.82891946  -0.00146671  1
  Te2-  Te147  1  -0.00723747  0.83738113  0.33295289  1
  Te2-  Te148  1  0.00017724  0.82045887  0.67965313  1
  Te2-  Te149  1  0.33084183  0.17071346  -0.00078193  1
  Te2-  Te150  1  0.33556011  0.16364348  0.32963152  1
  Te2-  Te151  1  0.33009496  0.16817767  0.67390146  1
  Te2-  Te152  1  0.33165530  0.50051067  0.00575709  1
  Te2-  Te153  1  0.34439571  0.50497778  0.33255658  1
  Te2-  Te154  1  0.33511877  0.50008762  0.66417695  1
  Te2-  Te155  1  0.33010880  0.83020114  0.00419043  1
  Te2-  Te156  1  0.33312775  0.83512662  0.34720022  1
  Te2-  Te157  1  0.34062815  0.83646458  0.65008165  1
  Te2-  Te158  1  0.66673093  0.17009229  0.00803071  1
  Te2-  Te159  1  0.67320545  0.16389386  0.32997311  1
  Te2-  Te160  1  0.66972855  0.17851185  0.66858167  1
  Te2-  Te161  1  0.66319415  0.50221793  0.00605955  1
  Te2-  Te162  1  0.65333804  0.50604487  0.33426230  1
  Te2-  Te163  1  0.66576379  0.49551668  0.65470493  1
  Te2-  Te164  1  0.67644586  0.83012437  -0.00720419  1
  Te2-  Te165  1  0.67694955  0.83766570  0.33391176  1
  Te2-  Te166  1  0.66779386  0.83033545  0.67377992  1
  Te2-  Te167  1  0.00260237  -0.00917829  0.17068519  1
  Te2-  Te168  1  -0.00279678  0.01505179  0.49210736  1
  Te2-  Te169  1  -0.00798408  0.01044648  0.83130358  1
  Te2-  Te170  1  -0.00215209  0.32830241  0.16565372  1
  Te2-  Te171  1  -0.00052584  0.31932155  0.50988917  1
  Te2-  Te172  1  -0.00448871  0.33904141  0.82792840  1
  Te2-  Te173  1  0.00071758  0.66532088  0.16447322  1
  Te2-  Te174  1  -0.00792452  0.66126080  0.49512741  1
  Te2-  Te175  1  -0.00213033  0.66224834  0.83978748  1
  Te2-  Te176  1  0.34963001  0.00040501  0.17397780  1
  Te2-  Te177  1  0.33598801  0.00246848  0.50556122  1
  Te2-  Te178  1  0.33299839  -0.00577512  0.82304708  1
  Te2-  Te179  1  0.33802847  0.33767077  0.16464958  1
  Te2-  Te180  1  0.33470830  0.33857224  0.50351838  1
  Te2-  Te181  1  0.34846586  0.33086003  0.83604504  1
  Te2-  Te182  1  0.32990421  0.66256890  0.17071226  1
  Te2-  Te183  1  0.33719427  0.66813651  0.49959804  1
  Te2-  Te184  1  0.33915159  0.68085141  0.82969200  1
  Te2-  Te185  1  0.64923398  0.00835031  0.17266987  1
  Te2-  Te186  1  0.66969291  0.00557395  0.49585319  1
  Te2-  Te187  1  0.67422488  0.01203851  0.83118463  1
  Te2-  Te188  1  0.66446317  0.32824287  0.15842640  1
  Te2-  Te189  1  0.66556658  0.34135495  0.49584150  1
  Te2-  Te190  1  0.65902539  0.33873303  0.84137269  1
  Te2-  Te191  1  0.67161697  0.66539547  0.15768606  1
  Te2-  Te192  1  0.66880338  0.65722806  0.49919678  1
  Te2-  Te193  1  0.66610771  0.65737184  0.84037971  1
  Pb2+  Pb194  1  0.83759704  0.16840593  0.67179845  1
  Pb2+  Pb195  1  0.83460462  0.50107995  0.00601424  1
  Pb2+  Pb196  1  0.34341022  0.50660142  0.83618250  1
  Pb2+  Pb197  1  0.17231561  0.83195354  0.67172696  1
  Pb2+  Pb198  1  -0.00046529  0.00046488  0.00086994  1
  Pb2+  Pb199  1  0.66718133  0.83839742  0.16381817  1
  Pb2+  Pb200  1  0.66769776  0.33339550  0.32568334  1
  Pb2+  Pb201  1  0.16676216  0.00432138  0.49346782  1
  Pb2+  Pb202  1  0.33236154  0.33533685  0.33340091  1
  Pb2+  Pb203  1  0.83472383  0.83640952  0.66286591  1
  Pb2+  Pb204  1  0.33305065  -0.00052363  -0.00335723  1
  Pb2+  Pb205  1  0.33605782  0.16646844  0.50165058  1
  Pb2+  Pb206  1  0.50138021  0.17219220  0.68013360  1
  Pb2+  Pb207  1  0.00198444  -0.00276141  0.66221464  1
  Pb2+  Pb208  1  0.16372336  0.82900586  0.33284186  1
  Pb2+  Pb209  1  0.17081418  0.66738558  0.83174263  1
  Pb2+  Pb210  1  0.83712028  0.50113778  0.65476822  1
  Pb2+  Pb211  1  0.66468296  0.00164895  0.66604784  1
  Pb2+  Pb212  1  0.00050545  0.33558913  0.34231469  1
  Pb2+  Pb213  1  0.17048261  0.33426157  0.83960227  1
  Pb2+  Pb214  1  0.66578295  -0.00100823  -0.00047490  1
  Pb2+  Pb215  1  0.49989854  0.66942393  0.16827414  1
