# generated using pymatgen
data_In22Ag21Sn22Bi21(Te54Pb11)2
_symmetry_space_group_name_H-M   'P 1'
_cell_length_a   19.15942209
_cell_length_b   19.10648725
_cell_length_c   19.17218870
_cell_angle_alpha   90.00614655
_cell_angle_beta   89.99915309
_cell_angle_gamma   89.98818465
_symmetry_Int_Tables_number   1
_chemical_formula_structural   In22Ag21Sn22Bi21(Te54Pb11)2
_chemical_formula_sum   'In22 Ag21 Sn22 Bi21 Te108 Pb22'
_cell_volume   7018.34862328
_cell_formula_units_Z   1
loop_
 _symmetry_equiv_pos_site_id
 _symmetry_equiv_pos_as_xyz
  1  'x, y, z'
loop_
 _atom_type_symbol
 _atom_type_oxidation_number
  In3+  3.0
  Ag+  1.0
  Sn2+  2.0
  Bi3+  3.0
  Te2-  -2.0
  Pb2+  2.0
loop_
 _atom_site_type_symbol
 _atom_site_label
 _atom_site_symmetry_multiplicity
 _atom_site_fract_x
 _atom_site_fract_y
 _atom_site_fract_z
 _atom_site_occupancy
  In3+  In0  1  0.16167043  0.66071908  0.83040418  1
  In3+  In1  1  0.16090951  0.83130704  0.00099238  1
  In3+  In2  1  0.84055151  0.48265279  0.66188782  1
  In3+  In3  1  0.00569051  0.34538112  0.66489599  1
  In3+  In4  1  0.66916254  0.34411953  0.31743979  1
  In3+  In5  1  0.82053575  -0.01404544  0.84081684  1
  In3+  In6  1  0.50274925  0.18462981  0.32819093  1
  In3+  In7  1  -0.00538337  0.83783061  0.82356800  1
  In3+  In8  1  0.15371335  -0.02500882  0.82908865  1
  In3+  In9  1  0.32331720  0.67165615  0.66038743  1
  In3+  In10  1  0.50261881  0.49393663  0.01502919  1
  In3+  In11  1  0.84185841  0.49381112  0.32081266  1
  In3+  In12  1  0.67265455  0.67008176  0.00954587  1
  In3+  In13  1  0.01404205  0.66506751  0.00191078  1
  In3+  In14  1  0.16220035  0.34368714  0.15966213  1
  In3+  In15  1  0.49443946  0.16417698  0.68256350  1
  In3+  In16  1  0.67654007  0.48592485  0.17659005  1
  In3+  In17  1  0.50051824  0.16588990  0.02217922  1
  In3+  In18  1  0.50242309  -0.00643895  0.84034210  1
  In3+  In19  1  0.15725688  0.50194866  0.01105918  1
  In3+  In20  1  0.83594087  0.15809214  0.66780626  1
  In3+  In21  1  0.50345536  0.83884638  0.33139386  1
  Ag+  Ag22  1  0.46686877  0.35774319  0.19083902  1
  Ag+  Ag23  1  0.64174120  -0.01728806  0.33075257  1
  Ag+  Ag24  1  0.70365046  0.69268452  0.30173521  1
  Ag+  Ag25  1  0.30972039  0.50229367  0.47817607  1
  Ag+  Ag26  1  0.50775391  0.32830881  0.85853455  1
  Ag+  Ag27  1  0.85417944  0.33776503  0.47936029  1
  Ag+  Ag28  1  0.15410016  0.84136713  0.64719594  1
  Ag+  Ag29  1  -0.01131661  0.48189949  0.84621697  1
  Ag+  Ag30  1  0.01326367  0.31757511  0.30099799  1
  Ag+  Ag31  1  0.14395731  -0.00548696  0.19126835  1
  Ag+  Ag32  1  0.49663109  -0.01023189  0.18798067  1
  Ag+  Ag33  1  0.31149638  0.32284064  0.31403094  1
  Ag+  Ag34  1  0.81245170  0.83291199  0.01778751  1
  Ag+  Ag35  1  0.01745810  0.51548491  0.18971216  1
  Ag+  Ag36  1  0.86632270  0.35079405  0.19682481  1
  Ag+  Ag37  1  0.13682033  0.32502671  0.46913636  1
  Ag+  Ag38  1  0.80253312  0.80094154  0.34692961  1
  Ag+  Ag39  1  0.80885791  0.83741660  0.69389343  1
  Ag+  Ag40  1  0.16212273  0.70441122  0.19046588  1
  Ag+  Ag41  1  0.16773230  0.85608077  0.35543112  1
  Ag+  Ag42  1  0.64325395  0.83600116  0.85682362  1
  Sn2+  Sn43  1  0.33396516  0.16383069  0.83378359  1
  Sn2+  Sn44  1  0.17374110  0.33705841  0.83284808  1
  Sn2+  Sn45  1  0.50109997  0.66647387  0.49903696  1
  Sn2+  Sn46  1  0.66993690  -0.00283806  0.65330976  1
  Sn2+  Sn47  1  0.67742107  0.83594299  0.16775888  1
  Sn2+  Sn48  1  0.33097803  0.00169486  0.32726512  1
  Sn2+  Sn49  1  0.33059417  0.66086686  0.33236379  1
  Sn2+  Sn50  1  0.50106306  0.00139411  0.49417684  1
  Sn2+  Sn51  1  0.50101844  0.49269621  0.67313327  1
  Sn2+  Sn52  1  0.32815003  0.16366457  0.16767036  1
  Sn2+  Sn53  1  0.00404383  0.17589800  0.83586580  1
  Sn2+  Sn54  1  0.00234974  0.67166942  0.33080189  1
  Sn2+  Sn55  1  0.16931408  0.66148660  0.49405627  1
  Sn2+  Sn56  1  0.67144740  0.50734518  0.83474993  1
  Sn2+  Sn57  1  -0.00381252  0.00118770  0.32941549  1
  Sn2+  Sn58  1  0.67735509  0.83246771  0.50220691  1
  Sn2+  Sn59  1  0.00125236  0.49942388  0.49848835  1
  Sn2+  Sn60  1  0.00066347  -0.00714302  -0.00015763  1
  Sn2+  Sn61  1  0.16393657  0.16566231  0.66357100  1
  Sn2+  Sn62  1  0.66724868  0.33112905  0.66283725  1
  Sn2+  Sn63  1  0.32839032  -0.00203796  0.00750213  1
  Sn2+  Sn64  1  -0.00651988  0.33534644  -0.00222217  1
  Bi3+  Bi65  1  0.16288751  0.49853079  0.33873224  1
  Bi3+  Bi66  1  0.66920289  0.16663811  0.16926806  1
  Bi3+  Bi67  1  0.66597226  0.16643040  0.49920756  1
  Bi3+  Bi68  1  0.50207448  0.33429793  0.50057455  1
  Bi3+  Bi69  1  0.33343104  0.33907328  0.66556830  1
  Bi3+  Bi70  1  0.49978668  0.50400172  0.33910020  1
  Bi3+  Bi71  1  0.33588207  0.83393288  0.83443702  1
  Bi3+  Bi72  1  0.33628974  0.17801431  0.49824897  1
  Bi3+  Bi73  1  0.82881322  0.33484291  0.83314849  1
  Bi3+  Bi74  1  0.33449125  0.66558950  -0.00199720  1
  Bi3+  Bi75  1  -0.00268300  -0.00055440  0.66797442  1
  Bi3+  Bi76  1  0.83341680  0.66856879  0.82959057  1
  Bi3+  Bi77  1  0.66702252  0.49807613  0.50222684  1
  Bi3+  Bi78  1  0.00262011  0.82699936  0.16599238  1
  Bi3+  Bi79  1  0.66666651  0.33886767  -0.00234931  1
  Bi3+  Bi80  1  0.33299001  0.49873330  0.83341153  1
  Bi3+  Bi81  1  0.83208648  0.00139037  0.16938400  1
  Bi3+  Bi82  1  0.66698401  0.66625963  0.66464173  1
  Bi3+  Bi83  1  0.33392059  0.83527103  0.17010493  1
  Bi3+  Bi84  1  0.16905045  0.50078696  0.66698538  1
  Bi3+  Bi85  1  0.83293400  0.00109012  0.49795654  1
  Te2-  Te86  1  0.17215240  0.14071111  0.16125196  1
  Te2-  Te87  1  0.17253627  0.18168561  0.50217308  1
  Te2-  Te88  1  0.17223885  0.17196550  0.82852819  1
  Te2-  Te89  1  0.16222308  0.49811367  0.16673314  1
  Te2-  Te90  1  0.16516705  0.48897590  0.50226165  1
  Te2-  Te91  1  0.16724010  0.50316848  0.82977313  1
  Te2-  Te92  1  0.16730907  0.84682310  0.15543056  1
  Te2-  Te93  1  0.16931336  0.82955064  0.50232585  1
  Te2-  Te94  1  0.17540412  0.82371276  0.83653198  1
  Te2-  Te95  1  0.50543695  0.15878820  0.17325491  1
  Te2-  Te96  1  0.50215937  0.16904005  0.49175665  1
  Te2-  Te97  1  0.49856178  0.17849598  0.83187743  1
  Te2-  Te98  1  0.50392279  0.49849313  0.17174561  1
  Te2-  Te99  1  0.50495097  0.49837891  0.50219056  1
  Te2-  Te100  1  0.49873713  0.48684340  0.83234333  1
  Te2-  Te101  1  0.50085091  0.83914490  0.17359826  1
  Te2-  Te102  1  0.49984156  0.83385596  0.48859960  1
  Te2-  Te103  1  0.49784563  0.83503630  0.83100067  1
  Te2-  Te104  1  0.83233833  0.16666001  0.16306946  1
  Te2-  Te105  1  0.82819960  0.17120402  0.50673806  1
  Te2-  Te106  1  0.83253149  0.16853042  0.82564355  1
  Te2-  Te107  1  0.83020646  0.49275056  0.16595027  1
  Te2-  Te108  1  0.82999339  0.48659325  0.50929208  1
  Te2-  Te109  1  0.84235286  0.50271775  0.82467894  1
  Te2-  Te110  1  0.84007634  0.83548335  0.16578336  1
  Te2-  Te111  1  0.83453872  0.83820981  0.48567265  1
  Te2-  Te112  1  0.84228082  0.83449867  0.83739169  1
  Te2-  Te113  1  0.16632987  -0.00658274  -0.01787841  1
  Te2-  Te114  1  0.16634167  0.00286048  0.33616743  1
  Te2-  Te115  1  0.16448413  -0.00874133  0.67480508  1
  Te2-  Te116  1  0.16371095  0.33837044  0.00297820  1
  Te2-  Te117  1  0.16238937  0.33764435  0.32458854  1
  Te2-  Te118  1  0.16667396  0.33608919  0.67106150  1
  Te2-  Te119  1  0.17070880  0.66097542  -0.00670492  1
  Te2-  Te120  1  0.16729079  0.65669400  0.33149179  1
  Te2-  Te121  1  0.16870360  0.66522747  0.66715895  1
  Te2-  Te122  1  0.50186064  0.00606266  -0.00848370  1
  Te2-  Te123  1  0.49519358  -0.00519777  0.33380546  1
  Te2-  Te124  1  0.50449466  0.00858493  0.66396005  1
  Te2-  Te125  1  0.50511922  0.33626846  0.00593103  1
  Te2-  Te126  1  0.50842804  0.34051289  0.33125402  1
  Te2-  Te127  1  0.49929445  0.32518795  0.66299753  1
  Te2-  Te128  1  0.49902707  0.65828423  0.00100711  1
  Te2-  Te129  1  0.49138707  0.66520698  0.33619906  1
  Te2-  Te130  1  0.50376805  0.66325529  0.66434166  1
  Te2-  Te131  1  0.83412353  -0.01087302  -0.00406782  1
  Te2-  Te132  1  0.84080381  0.00091628  0.33345020  1
  Te2-  Te133  1  0.83442271  -0.01230123  0.66355606  1
  Te2-  Te134  1  0.83023555  0.33423596  -0.00608585  1
  Te2-  Te135  1  0.82469420  0.34157398  0.33573863  1
  Te2-  Te136  1  0.83788804  0.32908893  0.67402657  1
  Te2-  Te137  1  0.82630201  0.67562356  -0.00600791  1
  Te2-  Te138  1  0.84307639  0.65805168  0.33143117  1
  Te2-  Te139  1  0.83040224  0.68708930  0.66830115  1
  Te2-  Te140  1  0.00249358  0.16586730  -0.00322774  1
  Te2-  Te141  1  0.00051225  0.17477102  0.33185280  1
  Te2-  Te142  1  -0.00140862  0.16140355  0.67036989  1
  Te2-  Te143  1  0.00519616  0.50771229  -0.00993545  1
  Te2-  Te144  1  -0.00430580  0.49728096  0.33347539  1
  Te2-  Te145  1  0.00305034  0.49989066  0.67278262  1
  Te2-  Te146  1  0.00755382  0.82554682  0.00061822  1
  Te2-  Te147  1  0.01790113  0.83281520  0.32531076  1
  Te2-  Te148  1  0.00972480  0.83687286  0.67120826  1
  Te2-  Te149  1  0.34389547  0.16404186  -0.00068081  1
  Te2-  Te150  1  0.34380295  0.17755818  0.33611914  1
  Te2-  Te151  1  0.33436188  0.17086778  0.66389717  1
  Te2-  Te152  1  0.33033325  0.50213900  -0.00303869  1
  Te2-  Te153  1  0.33256035  0.49008484  0.33383553  1
  Te2-  Te154  1  0.33240669  0.50568914  0.67197147  1
  Te2-  Te155  1  0.33267631  0.82967264  0.00026918  1
  Te2-  Te156  1  0.31691424  0.83218412  0.32854909  1
  Te2-  Te157  1  0.33104861  0.82709261  0.66899952  1
  Te2-  Te158  1  0.66161913  0.17023541  0.00092245  1
  Te2-  Te159  1  0.66119361  0.17851373  0.33319675  1
  Te2-  Te160  1  0.67165690  0.16238928  0.66186444  1
  Te2-  Te161  1  0.66296507  0.50410797  0.00030513  1
  Te2-  Te162  1  0.66648815  0.50398064  0.33526394  1
  Te2-  Te163  1  0.67287851  0.50281605  0.66839620  1
  Te2-  Te164  1  0.66578351  0.82783664  0.00112050  1
  Te2-  Te165  1  0.65860138  0.83163419  0.33111917  1
  Te2-  Te166  1  0.66553004  0.83190140  0.65859424  1
  Te2-  Te167  1  -0.00342980  -0.00348508  0.16225057  1
  Te2-  Te168  1  -0.00026416  0.00311658  0.50250901  1
  Te2-  Te169  1  -0.00175191  0.00095254  0.83189645  1
  Te2-  Te170  1  0.00651065  0.34409905  0.15738478  1
  Te2-  Te171  1  -0.00283267  0.33804727  0.51277793  1
  Te2-  Te172  1  -0.00251577  0.33539281  0.82931628  1
  Te2-  Te173  1  0.01345563  0.66146070  0.15844987  1
  Te2-  Te174  1  0.00199621  0.66279498  0.50027856  1
  Te2-  Te175  1  0.00096770  0.67736623  0.84218015  1
  Te2-  Te176  1  0.34669780  -0.00319513  0.16550874  1
  Te2-  Te177  1  0.33547175  0.00665846  0.49973511  1
  Te2-  Te178  1  0.34557055  -0.00126103  0.83637225  1
  Te2-  Te179  1  0.32666525  0.32593083  0.16730033  1
  Te2-  Te180  1  0.34039121  0.34007878  0.50679437  1
  Te2-  Te181  1  0.34096872  0.33607194  0.82923989  1
  Te2-  Te182  1  0.31680321  0.67271354  0.16228400  1
  Te2-  Te183  1  0.33159663  0.65234161  0.50229940  1
  Te2-  Te184  1  0.33284785  0.66462249  0.83362790  1
  Te2-  Te185  1  0.67087936  0.00155991  0.17930839  1
  Te2-  Te186  1  0.66998014  0.00368074  0.48289645  1
  Te2-  Te187  1  0.66801709  -0.01295718  0.83034209  1
  Te2-  Te188  1  0.66638551  0.33200819  0.16129931  1
  Te2-  Te189  1  0.66548066  0.33268656  0.50338772  1
  Te2-  Te190  1  0.66286555  0.33789140  0.83301186  1
  Te2-  Te191  1  0.66592986  0.66705522  0.16373576  1
  Te2-  Te192  1  0.66675895  0.66170294  0.49974887  1
  Te2-  Te193  1  0.67061805  0.67532829  0.82967450  1
  Pb2+  Pb194  1  0.49883987  0.83447784  0.65735503  1
  Pb2+  Pb195  1  0.33679354  0.33289842  -0.00111166  1
  Pb2+  Pb196  1  0.66664387  0.00058837  0.00873120  1
  Pb2+  Pb197  1  -0.00244892  0.66825246  0.67090043  1
  Pb2+  Pb198  1  0.33605707  0.00004223  0.66979560  1
  Pb2+  Pb199  1  0.17254963  0.16529758  -0.00283062  1
  Pb2+  Pb200  1  0.49891437  0.83235789  0.00484106  1
  Pb2+  Pb201  1  0.00595571  0.17107645  0.16554921  1
  Pb2+  Pb202  1  0.50265392  0.65461158  0.83179979  1
  Pb2+  Pb203  1  0.49226273  0.66857236  0.16984862  1
  Pb2+  Pb204  1  0.66428789  0.16157093  0.83029107  1
  Pb2+  Pb205  1  0.83449021  0.16288836  -0.00426439  1
  Pb2+  Pb206  1  0.83418769  0.50495423  -0.00602350  1
  Pb2+  Pb207  1  -0.00154280  0.17212102  0.50064974  1
  Pb2+  Pb208  1  0.83048730  0.16669448  0.33305107  1
  Pb2+  Pb209  1  0.16945608  0.00463309  0.50396334  1
  Pb2+  Pb210  1  0.17247091  0.16990423  0.32765592  1
  Pb2+  Pb211  1  -0.00016381  0.83219481  0.49405053  1
  Pb2+  Pb212  1  0.33328555  0.82622431  0.49356836  1
  Pb2+  Pb213  1  0.83283193  0.65940002  0.50319058  1
  Pb2+  Pb214  1  0.84084895  0.66435888  0.16191642  1
  Pb2+  Pb215  1  0.33013620  0.50290563  0.16835433  1
