# generated using pymatgen
data_In22Ag21Sn22Bi21(Te54Pb11)2
_symmetry_space_group_name_H-M   'P 1'
_cell_length_a   19.17268690
_cell_length_b   19.15118201
_cell_length_c   19.14631410
_cell_angle_alpha   90.00538240
_cell_angle_beta   89.99604377
_cell_angle_gamma   90.00909885
_symmetry_Int_Tables_number   1
_chemical_formula_structural   In22Ag21Sn22Bi21(Te54Pb11)2
_chemical_formula_sum   'In22 Ag21 Sn22 Bi21 Te108 Pb22'
_cell_volume   7030.13613221
_cell_formula_units_Z   1
loop_
 _symmetry_equiv_pos_site_id
 _symmetry_equiv_pos_as_xyz
  1  'x, y, z'
loop_
 _atom_type_symbol
 _atom_type_oxidation_number
  In3+  3.0
  Ag+  1.0
  Sn2+  2.0
  Bi3+  3.0
  Te2-  -2.0
  Pb2+  2.0
loop_
 _atom_site_type_symbol
 _atom_site_label
 _atom_site_symmetry_multiplicity
 _atom_site_fract_x
 _atom_site_fract_y
 _atom_site_fract_z
 _atom_site_occupancy
  In3+  In0  1  0.16282847  0.49498162  0.01096783  1
  In3+  In1  1  0.32994278  0.33169157  -0.01543221  1
  In3+  In2  1  0.83106783  0.17268514  -0.02883088  1
  In3+  In3  1  0.48404744  0.00559934  0.50089770  1
  In3+  In4  1  0.16251149  0.15826926  0.65805835  1
  In3+  In5  1  0.48674410  0.83679578  0.35737465  1
  In3+  In6  1  0.49799327  0.48163824  0.00039487  1
  In3+  In7  1  0.66797946  0.84958848  0.82911253  1
  In3+  In8  1  0.63445291  0.48056101  0.49927021  1
  In3+  In9  1  0.33123021  0.50548894  0.81945114  1
  In3+  In10  1  0.47711990  0.33186432  0.50429055  1
  In3+  In11  1  0.00326994  0.67976061  0.67192186  1
  In3+  In12  1  0.01330412  0.51305115  0.50274369  1
  In3+  In13  1  0.50637249  -0.00893184  0.18181781  1
  In3+  In14  1  0.33491045  -0.00408377  0.67510474  1
  In3+  In15  1  0.16170458  0.33153311  0.51832646  1
  In3+  In16  1  0.16803543  0.69372749  0.15054663  1
  In3+  In17  1  0.33608709  0.15969060  0.81593475  1
  In3+  In18  1  0.68077857  0.15427897  0.49823955  1
  In3+  In19  1  0.17222458  0.68848866  0.50024789  1
  In3+  In20  1  0.32934576  0.48102343  0.16710626  1
  In3+  In21  1  0.33507253  0.15930278  0.49943158  1
  Ag+  Ag22  1  0.15387317  0.00583995  0.48981878  1
  Ag+  Ag23  1  0.51986904  -0.02054016  0.85791110  1
  Ag+  Ag24  1  0.30602403  0.00237676  0.34890301  1
  Ag+  Ag25  1  -0.02951507  0.85262362  0.80550196  1
  Ag+  Ag26  1  0.64859856  0.01572636  0.32344947  1
  Ag+  Ag27  1  0.13783441  0.86203549  -0.00227593  1
  Ag+  Ag28  1  0.86681544  0.52757874  -0.03683624  1
  Ag+  Ag29  1  0.32801587  0.35574787  0.65543969  1
  Ag+  Ag30  1  0.87042096  0.86049531  0.69587480  1
  Ag+  Ag31  1  -0.02394138  0.35094608  0.67856894  1
  Ag+  Ag32  1  0.69077649  0.50144637  0.14003312  1
  Ag+  Ag33  1  -0.01205675  -0.00182620  0.02207535  1
  Ag+  Ag34  1  0.18855025  0.35340379  0.19148640  1
  Ag+  Ag35  1  0.32582379  0.52820910  0.51809883  1
  Ag+  Ag36  1  0.02060950  0.66665354  0.36335444  1
  Ag+  Ag37  1  0.86394484  0.32856401  0.80494626  1
  Ag+  Ag38  1  0.14285700  -0.00108957  0.19149426  1
  Ag+  Ag39  1  0.31547469  0.64226590  0.33109949  1
  Ag+  Ag40  1  0.52174146  0.81632151  0.65660407  1
  Ag+  Ag41  1  0.86330306  0.13765738  0.67033231  1
  Ag+  Ag42  1  -0.03306773  0.02279922  0.66744440  1
  Sn2+  Sn43  1  0.82965689  0.65428304  0.83282085  1
  Sn2+  Sn44  1  0.16376083  0.48913841  0.66560174  1
  Sn2+  Sn45  1  0.66867089  0.49457036  0.83148202  1
  Sn2+  Sn46  1  0.66495993  0.33327723  0.32838872  1
  Sn2+  Sn47  1  0.49986097  0.15881286  -0.00130486  1
  Sn2+  Sn48  1  0.67639472  0.33559585  0.00293725  1
  Sn2+  Sn49  1  0.33395565  0.67214205  0.65850593  1
  Sn2+  Sn50  1  0.83309965  0.00020236  0.16207461  1
  Sn2+  Sn51  1  0.83825914  0.83758401  -0.00638972  1
  Sn2+  Sn52  1  0.33166708  0.83265244  0.49568447  1
  Sn2+  Sn53  1  0.49228434  0.66884180  0.16854346  1
  Sn2+  Sn54  1  0.49989326  0.66483404  0.50053670  1
  Sn2+  Sn55  1  -0.00102701  0.84176724  0.49477583  1
  Sn2+  Sn56  1  0.66423239  0.17250791  0.82470102  1
  Sn2+  Sn57  1  0.16239726  0.67229962  0.82845671  1
  Sn2+  Sn58  1  0.00432996  0.15289893  0.83068607  1
  Sn2+  Sn59  1  -0.00021176  -0.01150292  0.34243975  1
  Sn2+  Sn60  1  0.66886832  0.83588429  0.49883837  1
  Sn2+  Sn61  1  0.00095618  0.34179743  0.33815911  1
  Sn2+  Sn62  1  0.32226423  -0.00055706  0.00380991  1
  Sn2+  Sn63  1  0.49635669  0.33982440  0.17235559  1
  Sn2+  Sn64  1  0.83038439  0.66464634  0.49945887  1
  Bi3+  Bi65  1  0.33412602  0.16139431  0.16345248  1
  Bi3+  Bi66  1  0.83364931  0.33108111  0.16727372  1
  Bi3+  Bi67  1  0.17372064  0.83303096  0.67376551  1
  Bi3+  Bi68  1  0.16938726  0.33354562  0.83517159  1
  Bi3+  Bi69  1  0.33575747  0.83803577  0.16369965  1
  Bi3+  Bi70  1  0.49862844  0.16599727  0.66517917  1
  Bi3+  Bi71  1  0.00314777  0.16589425  0.50136063  1
  Bi3+  Bi72  1  0.16666599  0.16742933  -0.00272713  1
  Bi3+  Bi73  1  0.83495298  0.82986325  0.33735141  1
  Bi3+  Bi74  1  0.33211098  0.83166584  0.83595011  1
  Bi3+  Bi75  1  0.16645556  0.49875449  0.33848964  1
  Bi3+  Bi76  1  0.66322908  0.66937902  0.33472400  1
  Bi3+  Bi77  1  0.16729753  -0.00243687  0.82833887  1
  Bi3+  Bi78  1  -0.00179908  0.83211873  0.16640176  1
  Bi3+  Bi79  1  0.83396879  0.50141218  0.66618092  1
  Bi3+  Bi80  1  0.00070705  0.32388574  -0.00608796  1
  Bi3+  Bi81  1  0.65532495  -0.00077875  0.66044784  1
  Bi3+  Bi82  1  0.83376878  0.50074604  0.33779404  1
  Bi3+  Bi83  1  0.49715780  0.33045779  0.83069089  1
  Bi3+  Bi84  1  0.50043298  0.83578156  -0.00541492  1
  Bi3+  Bi85  1  0.84070862  0.33523484  0.50161157  1
  Te2-  Te86  1  0.17165819  0.14789360  0.16009031  1
  Te2-  Te87  1  0.17009364  0.15434639  0.50315043  1
  Te2-  Te88  1  0.17636739  0.16786075  0.83121996  1
  Te2-  Te89  1  0.17238558  0.49767530  0.16854455  1
  Te2-  Te90  1  0.17830352  0.48667773  0.49903384  1
  Te2-  Te91  1  0.17632944  0.49786037  0.83304488  1
  Te2-  Te92  1  0.16730710  0.84865296  0.15081903  1
  Te2-  Te93  1  0.16874228  0.84065679  0.50445336  1
  Te2-  Te94  1  0.17024260  0.83258649  0.84295209  1
  Te2-  Te95  1  0.50015383  0.17327544  0.16330786  1
  Te2-  Te96  1  0.49487129  0.17030689  0.50118765  1
  Te2-  Te97  1  0.49404468  0.16872897  0.83016666  1
  Te2-  Te98  1  0.48727999  0.50006938  0.16056591  1
  Te2-  Te99  1  0.47697787  0.49565202  0.49953473  1
  Te2-  Te100  1  0.49135613  0.49599363  0.83880378  1
  Te2-  Te101  1  0.50089207  0.83437574  0.16076329  1
  Te2-  Te102  1  0.49899101  0.83671656  0.50969456  1
  Te2-  Te103  1  0.49796648  0.83727917  0.83112810  1
  Te2-  Te104  1  0.83116289  0.16753581  0.17394856  1
  Te2-  Te105  1  0.83709021  0.16990009  0.51727799  1
  Te2-  Te106  1  0.83374497  0.17775329  0.81774090  1
  Te2-  Te107  1  0.83391843  0.49475481  0.17372326  1
  Te2-  Te108  1  0.84787864  0.49864172  0.50025643  1
  Te2-  Te109  1  0.83178641  0.48474856  0.82846720  1
  Te2-  Te110  1  0.83386433  0.83282700  0.16811189  1
  Te2-  Te111  1  0.83645272  0.82583082  0.49945993  1
  Te2-  Te112  1  0.82511386  0.82661812  0.83562037  1
  Te2-  Te113  1  0.16123646  0.00718735  -0.01107098  1
  Te2-  Te114  1  0.15905433  -0.00623689  0.33830631  1
  Te2-  Te115  1  0.17846558  -0.00071767  0.66668571  1
  Te2-  Te116  1  0.16593723  0.33228787  0.00081092  1
  Te2-  Te117  1  0.15939765  0.33489676  0.33368577  1
  Te2-  Te118  1  0.18127368  0.32440554  0.67102589  1
  Te2-  Te119  1  0.16944107  0.65393094  0.00049473  1
  Te2-  Te120  1  0.16818948  0.66108165  0.34672228  1
  Te2-  Te121  1  0.16693534  0.66769344  0.65984342  1
  Te2-  Te122  1  0.49881423  0.00001636  0.00099779  1
  Te2-  Te123  1  0.50628661  -0.00854346  0.33974486  1
  Te2-  Te124  1  0.49270882  0.00350070  0.65840353  1
  Te2-  Te125  1  0.49405724  0.32979182  -0.00201016  1
  Te2-  Te126  1  0.50040020  0.33640589  0.34230093  1
  Te2-  Te127  1  0.48616796  0.33194691  0.66395628  1
  Te2-  Te128  1  0.49886800  0.67068929  0.00187726  1
  Te2-  Te129  1  0.50038494  0.67915189  0.33467740  1
  Te2-  Te130  1  0.49703862  0.67162790  0.66147507  1
  Te2-  Te131  1  0.83998225  0.00891079  0.00146031  1
  Te2-  Te132  1  0.84158339  -0.00806426  0.33312709  1
  Te2-  Te133  1  0.82000937  -0.00589483  0.66738222  1
  Te2-  Te134  1  0.83987861  0.32492292  0.00572851  1
  Te2-  Te135  1  0.83593898  0.33622594  0.33647832  1
  Te2-  Te136  1  0.83083303  0.33896314  0.66194471  1
  Te2-  Te137  1  0.83425952  0.66466398  -0.00140769  1
  Te2-  Te138  1  0.82940924  0.66406431  0.33460830  1
  Te2-  Te139  1  0.84525046  0.66211809  0.66726103  1
  Te2-  Te140  1  -0.00218500  0.16027692  -0.00657388  1
  Te2-  Te141  1  0.00131262  0.16672229  0.33903489  1
  Te2-  Te142  1  0.00927862  0.16662009  0.66572705  1
  Te2-  Te143  1  0.00482352  0.49207967  -0.00188731  1
  Te2-  Te144  1  0.00076273  0.51196169  0.34185043  1
  Te2-  Te145  1  0.00369412  0.49530050  0.66132085  1
  Te2-  Te146  1  -0.00690439  0.84609965  0.00362163  1
  Te2-  Te147  1  0.00089380  0.81656526  0.33027125  1
  Te2-  Te148  1  0.01237254  0.83159878  0.66210093  1
  Te2-  Te149  1  0.33190303  0.16998117  -0.00083414  1
  Te2-  Te150  1  0.33460062  0.15353834  0.33155074  1
  Te2-  Te151  1  0.33527743  0.15672936  0.66089829  1
  Te2-  Te152  1  0.33043181  0.49115285  0.00904053  1
  Te2-  Te153  1  0.33062608  0.49578115  0.32318300  1
  Te2-  Te154  1  0.33046921  0.50406351  0.66385950  1
  Te2-  Te155  1  0.33623137  0.83209989  -0.00098201  1
  Te2-  Te156  1  0.33722388  0.85151139  0.32779212  1
  Te2-  Te157  1  0.33311233  0.83561677  0.67025057  1
  Te2-  Te158  1  0.67212981  0.16923040  -0.00525334  1
  Te2-  Te159  1  0.66789760  0.16139214  0.34218617  1
  Te2-  Te160  1  0.66060009  0.16402990  0.65755761  1
  Te2-  Te161  1  0.65482015  0.49360268  -0.00196175  1
  Te2-  Te162  1  0.66812326  0.50291780  0.34710306  1
  Te2-  Te163  1  0.66790387  0.50163474  0.65797516  1
  Te2-  Te164  1  0.66633889  0.83387196  -0.00587108  1
  Te2-  Te165  1  0.67245669  0.83116240  0.33702946  1
  Te2-  Te166  1  0.66579139  0.83775049  0.67295823  1
  Te2-  Te167  1  -0.00375208  -0.00435905  0.17198174  1
  Te2-  Te168  1  0.00656511  0.00291200  0.51252739  1
  Te2-  Te169  1  0.00316959  -0.00400594  0.81459368  1
  Te2-  Te170  1  -0.00195946  0.32970716  0.16486337  1
  Te2-  Te171  1  0.00690790  0.32778276  0.51003401  1
  Te2-  Te172  1  0.00892374  0.32904331  0.82710717  1
  Te2-  Te173  1  0.01328406  0.66901631  0.16186631  1
  Te2-  Te174  1  0.00713401  0.66649514  0.50998359  1
  Te2-  Te175  1  0.00087682  0.67164169  0.82724815  1
  Te2-  Te176  1  0.35128879  0.00062478  0.16307572  1
  Te2-  Te177  1  0.33462717  0.00183786  0.49378315  1
  Te2-  Te178  1  0.33280122  -0.00145010  0.83343191  1
  Te2-  Te179  1  0.33089465  0.32499617  0.16811700  1
  Te2-  Te180  1  0.32385129  0.31800337  0.50927022  1
  Te2-  Te181  1  0.33376104  0.33851607  0.83061235  1
  Te2-  Te182  1  0.32336160  0.67810688  0.18208876  1
  Te2-  Te183  1  0.32846354  0.67229657  0.48636424  1
  Te2-  Te184  1  0.33033817  0.66535737  0.83283370  1
  Te2-  Te185  1  0.66220695  0.00106027  0.17553750  1
  Te2-  Te186  1  0.66606339  0.00082913  0.49705958  1
  Te2-  Te187  1  0.66244444  0.00517779  0.83094858  1
  Te2-  Te188  1  0.66586545  0.34807729  0.17042325  1
  Te2-  Te189  1  0.67419666  0.33336693  0.49423106  1
  Te2-  Te190  1  0.65796910  0.33293365  0.83431349  1
  Te2-  Te191  1  0.66329976  0.65226130  0.17138576  1
  Te2-  Te192  1  0.66151158  0.66977367  0.49765828  1
  Te2-  Te193  1  0.66886112  0.65433598  0.83111942  1
  Pb2+  Pb194  1  0.67537593  0.67133400  0.66455780  1
  Pb2+  Pb195  1  0.00320731  0.67652556  -0.00517228  1
  Pb2+  Pb196  1  0.66699253  0.17582276  0.16436046  1
  Pb2+  Pb197  1  0.50015520  0.16411634  0.33098132  1
  Pb2+  Pb198  1  0.66658787  0.66275954  0.00174129  1
  Pb2+  Pb199  1  0.83753509  0.66351229  0.16720055  1
  Pb2+  Pb200  1  0.83740665  -0.00490864  0.49998925  1
  Pb2+  Pb201  1  0.66626681  0.82651474  0.17009114  1
  Pb2+  Pb202  1  0.00400471  0.50220942  0.82950682  1
  Pb2+  Pb203  1  0.83524548  0.16372268  0.34245923  1
  Pb2+  Pb204  1  0.49892575  0.50823679  0.33056143  1
  Pb2+  Pb205  1  0.16789735  0.16472365  0.32896681  1
  Pb2+  Pb206  1  0.00204319  0.49601204  0.16970387  1
  Pb2+  Pb207  1  0.66927149  0.00074892  0.00533602  1
  Pb2+  Pb208  1  0.17169162  0.82820404  0.32695031  1
  Pb2+  Pb209  1  0.83724521  0.00441945  0.83375461  1
  Pb2+  Pb210  1  0.49888772  0.50285524  0.66818662  1
  Pb2+  Pb211  1  0.33104683  0.32682183  0.33997764  1
  Pb2+  Pb212  1  0.33452919  0.66144798  0.01170730  1
  Pb2+  Pb213  1  0.66087019  0.33210587  0.66394274  1
  Pb2+  Pb214  1  0.00163328  0.16537916  0.16425541  1
  Pb2+  Pb215  1  0.50007311  0.67132838  0.83244042  1
