# generated using pymatgen
data_In22Ag21Sn22Bi21(Te54Pb11)2
_symmetry_space_group_name_H-M   'P 1'
_cell_length_a   19.12906768
_cell_length_b   19.12947398
_cell_length_c   19.11604499
_cell_angle_alpha   90.00314843
_cell_angle_beta   89.99292960
_cell_angle_gamma   90.00813864
_symmetry_Int_Tables_number   1
_chemical_formula_structural   In22Ag21Sn22Bi21(Te54Pb11)2
_chemical_formula_sum   'In22 Ag21 Sn22 Bi21 Te108 Pb22'
_cell_volume   6995.11514306
_cell_formula_units_Z   1
loop_
 _symmetry_equiv_pos_site_id
 _symmetry_equiv_pos_as_xyz
  1  'x, y, z'
loop_
 _atom_type_symbol
 _atom_type_oxidation_number
  In3+  3.0
  Ag+  1.0
  Sn2+  2.0
  Bi3+  3.0
  Te2-  -2.0
  Pb2+  2.0
loop_
 _atom_site_type_symbol
 _atom_site_label
 _atom_site_symmetry_multiplicity
 _atom_site_fract_x
 _atom_site_fract_y
 _atom_site_fract_z
 _atom_site_occupancy
  In3+  In0  1  0.83472085  0.49312054  -0.00060102  1
  In3+  In1  1  0.00406639  0.48355325  0.83173677  1
  In3+  In2  1  0.82376048  0.82383734  0.66463325  1
  In3+  In3  1  0.83062434  0.35466892  0.49230011  1
  In3+  In4  1  0.82942758  -0.01449018  0.49405429  1
  In3+  In5  1  0.00040588  0.17064810  0.83275990  1
  In3+  In6  1  0.36415242  0.66728361  0.66685514  1
  In3+  In7  1  0.83895094  0.83227216  0.01299425  1
  In3+  In8  1  0.68001406  -0.00043167  0.66968404  1
  In3+  In9  1  0.51710831  0.83428161  0.67078080  1
  In3+  In10  1  0.82352481  0.52088886  0.33591446  1
  In3+  In11  1  0.67193845  0.82887804  0.83916991  1
  In3+  In12  1  0.34632506  0.64094397  0.33484474  1
  In3+  In13  1  -0.00110685  0.66883204  0.34132649  1
  In3+  In14  1  0.50273636  0.48479619  0.66120915  1
  In3+  In15  1  -0.00581265  0.82980363  0.83096150  1
  In3+  In16  1  0.33565767  0.18490100  0.83261090  1
  In3+  In17  1  0.49868684  0.01437610  0.83188119  1
  In3+  In18  1  0.01199723  0.83410980  0.19274855  1
  In3+  In19  1  0.16092639  0.17560475  0.67630519  1
  In3+  In20  1  0.66300107  0.82923839  0.18949334  1
  In3+  In21  1  0.83009843  0.33037818  0.82578962  1
  Ag+  Ag22  1  0.52930049  0.35098557  0.82437992  1
  Ag+  Ag23  1  0.13915806  0.50378638  -0.01799271  1
  Ag+  Ag24  1  0.19126284  0.83483879  0.30907626  1
  Ag+  Ag25  1  0.69228730  -0.00701031  0.01731279  1
  Ag+  Ag26  1  0.66658653  0.65187080  0.64574799  1
  Ag+  Ag27  1  0.52916077  0.49566865  0.36128224  1
  Ag+  Ag28  1  0.84655701  0.19172218  0.36310706  1
  Ag+  Ag29  1  0.66415541  0.35386674  0.36168470  1
  Ag+  Ag30  1  0.35847940  0.34083768  0.36132979  1
  Ag+  Ag31  1  0.35491340  0.48293708  0.81383257  1
  Ag+  Ag32  1  -0.00195317  0.50765311  0.47257465  1
  Ag+  Ag33  1  0.17886418  0.33391013  0.82771340  1
  Ag+  Ag34  1  0.64215204  0.69548998  0.35499777  1
  Ag+  Ag35  1  0.66723466  0.35338858  0.65575359  1
  Ag+  Ag36  1  0.85567170  0.19285311  -0.00382673  1
  Ag+  Ag37  1  0.36663105  0.80362159  0.19967506  1
  Ag+  Ag38  1  -0.01965474  -0.01140329  0.66710768  1
  Ag+  Ag39  1  -0.02367029  0.32320071  -0.00300213  1
  Ag+  Ag40  1  0.83508386  0.83735495  0.31676634  1
  Ag+  Ag41  1  0.67601633  0.81234790  0.49643283  1
  Ag+  Ag42  1  0.83457321  0.66104553  0.48287617  1
  Sn2+  Sn43  1  0.32666881  0.66361178  -0.00645492  1
  Sn2+  Sn44  1  0.49888374  0.65426013  0.83784545  1
  Sn2+  Sn45  1  -0.00023803  -0.00140349  0.34629010  1
  Sn2+  Sn46  1  0.16592812  0.18551687  -0.00586347  1
  Sn2+  Sn47  1  0.15448970  -0.00518562  0.49920099  1
  Sn2+  Sn48  1  -0.00325965  0.00467200  -0.01049066  1
  Sn2+  Sn49  1  0.67497627  0.17132203  0.49413004  1
  Sn2+  Sn50  1  0.66576374  0.31759097  -0.00500209  1
  Sn2+  Sn51  1  0.50046439  0.49884432  0.00095343  1
  Sn2+  Sn52  1  -0.00778333  0.82967442  0.50449072  1
  Sn2+  Sn53  1  -0.00864206  0.17034280  0.49876758  1
  Sn2+  Sn54  1  0.83539923  0.00578824  0.83227591  1
  Sn2+  Sn55  1  0.33251075  0.83409698  0.49662341  1
  Sn2+  Sn56  1  0.51114545  -0.00622696  0.50089885  1
  Sn2+  Sn57  1  -0.00440956  0.33354981  0.32623448  1
  Sn2+  Sn58  1  0.50434786  0.33019874  0.49935805  1
  Sn2+  Sn59  1  0.67204659  0.51007290  0.49642265  1
  Sn2+  Sn60  1  0.83383898  0.16476021  0.66972012  1
  Sn2+  Sn61  1  0.16640501  0.65292525  0.83250834  1
  Sn2+  Sn62  1  0.16228859  -0.00113036  0.82744348  1
  Sn2+  Sn63  1  0.00457436  0.49980537  0.16302041  1
  Sn2+  Sn64  1  0.50269698  0.83826872  -0.01028411  1
  Bi3+  Bi65  1  0.33518401  0.50008130  0.16336010  1
  Bi3+  Bi66  1  0.15981931  0.66773376  0.50180212  1
  Bi3+  Bi67  1  0.83139129  0.66939995  0.83133747  1
  Bi3+  Bi68  1  0.16426588  0.33377880  0.16029816  1
  Bi3+  Bi69  1  0.66863360  0.15896043  0.83258722  1
  Bi3+  Bi70  1  0.16578626  0.83629317  0.66588260  1
  Bi3+  Bi71  1  0.32869931  -0.00352788  -0.00463405  1
  Bi3+  Bi72  1  0.83235092  0.66460088  0.16946914  1
  Bi3+  Bi73  1  0.51080645  0.17594110  0.33356561  1
  Bi3+  Bi74  1  0.66948152  0.16403383  0.16068186  1
  Bi3+  Bi75  1  0.33438119  0.82990631  0.83309484  1
  Bi3+  Bi76  1  0.33136165  0.16789994  0.16754974  1
  Bi3+  Bi77  1  0.33155813  -0.00475107  0.66710561  1
  Bi3+  Bi78  1  0.66956608  0.00367947  0.33503751  1
  Bi3+  Bi79  1  -0.01023396  0.33126507  0.66894695  1
  Bi3+  Bi80  1  0.16165455  0.50454646  0.33498287  1
  Bi3+  Bi81  1  0.49798585  -0.00098495  0.16174544  1
  Bi3+  Bi82  1  0.66833974  0.50032763  0.16413727  1
  Bi3+  Bi83  1  0.33154665  0.16654789  0.50008918  1
  Bi3+  Bi84  1  0.50019471  0.16816322  -0.00214594  1
  Bi3+  Bi85  1  0.33184305  0.33785599  0.00196191  1
  Te2-  Te86  1  0.16797275  0.16847784  0.16972011  1
  Te2-  Te87  1  0.16712886  0.16434930  0.50212878  1
  Te2-  Te88  1  0.16560409  0.17659137  0.83127614  1
  Te2-  Te89  1  0.17030990  0.49609374  0.17251200  1
  Te2-  Te90  1  0.15098561  0.50283025  0.49620233  1
  Te2-  Te91  1  0.15796612  0.49283354  0.83612175  1
  Te2-  Te92  1  0.16161903  0.83110428  0.16529558  1
  Te2-  Te93  1  0.16021327  0.82933226  0.50449611  1
  Te2-  Te94  1  0.16812934  0.82870839  0.82898491  1
  Te2-  Te95  1  0.49860255  0.16485149  0.16802335  1
  Te2-  Te96  1  0.49759952  0.16626690  0.49510361  1
  Te2-  Te97  1  0.50015307  0.17289651  0.83435404  1
  Te2-  Te98  1  0.50116528  0.49896951  0.16743714  1
  Te2-  Te99  1  0.49813567  0.49628206  0.50563755  1
  Te2-  Te100  1  0.50059319  0.49527167  0.82935168  1
  Te2-  Te101  1  0.50476058  0.83629934  0.16554805  1
  Te2-  Te102  1  0.50774275  0.83531034  0.50738882  1
  Te2-  Te103  1  0.49688237  0.82617664  0.82623719  1
  Te2-  Te104  1  0.82987373  0.16499293  0.14490337  1
  Te2-  Te105  1  0.83374473  0.15873082  0.50502283  1
  Te2-  Te106  1  0.83154045  0.16859868  0.84419439  1
  Te2-  Te107  1  0.83377354  0.50181159  0.16390865  1
  Te2-  Te108  1  0.84291712  0.50759118  0.49278244  1
  Te2-  Te109  1  0.83686247  0.50537987  0.83967170  1
  Te2-  Te110  1  0.82525330  0.82808908  0.16671694  1
  Te2-  Te111  1  0.82523204  0.83421353  0.51336582  1
  Te2-  Te112  1  0.83291077  0.83469955  0.82161529  1
  Te2-  Te113  1  0.16649162  0.00625207  -0.00671583  1
  Te2-  Te114  1  0.16139782  -0.01466559  0.33699537  1
  Te2-  Te115  1  0.17038056  0.00200487  0.66595047  1
  Te2-  Te116  1  0.17062495  0.34412960  -0.00287547  1
  Te2-  Te117  1  0.15359398  0.33545132  0.33076495  1
  Te2-  Te118  1  0.15892174  0.33085412  0.67633604  1
  Te2-  Te119  1  0.16583229  0.65379464  -0.00433797  1
  Te2-  Te120  1  0.15503686  0.67439551  0.33959112  1
  Te2-  Te121  1  0.15864227  0.67010463  0.66503215  1
  Te2-  Te122  1  0.49254379  0.00319375  -0.00345767  1
  Te2-  Te123  1  0.50378269  0.00396553  0.33003910  1
  Te2-  Te124  1  0.49339093  -0.00784212  0.66903264  1
  Te2-  Te125  1  0.49699755  0.33069334  -0.01351789  1
  Te2-  Te126  1  0.50945273  0.33869774  0.34014602  1
  Te2-  Te127  1  0.51215471  0.33285816  0.67260685  1
  Te2-  Te128  1  0.49643137  0.66948532  -0.00233641  1
  Te2-  Te129  1  0.50189661  0.65322938  0.33832085  1
  Te2-  Te130  1  0.51812061  0.67625852  0.66991459  1
  Te2-  Te131  1  0.83793782  -0.01384549  -0.00434597  1
  Te2-  Te132  1  0.83098681  -0.01177181  0.33945214  1
  Te2-  Te133  1  0.83458149  0.00087308  0.66696095  1
  Te2-  Te134  1  0.82940884  0.33824100  -0.00617705  1
  Te2-  Te135  1  0.82671395  0.33435861  0.34163453  1
  Te2-  Te136  1  0.82412260  0.33284985  0.67044773  1
  Te2-  Te137  1  0.83050368  0.67467617  -0.00194408  1
  Te2-  Te138  1  0.84170168  0.67248780  0.33390216  1
  Te2-  Te139  1  0.81693693  0.67078573  0.66913364  1
  Te2-  Te140  1  0.00261548  0.17246193  -0.00994775  1
  Te2-  Te141  1  -0.01150580  0.16460489  0.33215570  1
  Te2-  Te142  1  0.00325567  0.17179182  0.67112429  1
  Te2-  Te143  1  -0.00753617  0.49226813  -0.00204233  1
  Te2-  Te144  1  -0.00327818  0.49883200  0.32493765  1
  Te2-  Te145  1  -0.00340613  0.49375911  0.67691401  1
  Te2-  Te146  1  -0.00520637  0.83710702  -0.01371363  1
  Te2-  Te147  1  -0.01630215  0.83384463  0.34153409  1
  Te2-  Te148  1  0.00258578  0.84174041  0.67185711  1
  Te2-  Te149  1  0.33471631  0.16472113  0.00128523  1
  Te2-  Te150  1  0.33849468  0.18015998  0.33375754  1
  Te2-  Te151  1  0.32876793  0.16177037  0.66813483  1
  Te2-  Te152  1  0.34007514  0.50103196  0.00238549  1
  Te2-  Te153  1  0.32712696  0.48634940  0.33067271  1
  Te2-  Te154  1  0.34168526  0.50822141  0.66931192  1
  Te2-  Te155  1  0.33223208  0.83372252  -0.00326952  1
  Te2-  Te156  1  0.33450604  0.83440487  0.33890970  1
  Te2-  Te157  1  0.33039727  0.82939350  0.66600624  1
  Te2-  Te158  1  0.66108803  0.14696662  -0.00371240  1
  Te2-  Te159  1  0.67207731  0.16479502  0.32371919  1
  Te2-  Te160  1  0.66724658  0.15489513  0.67056005  1
  Te2-  Te161  1  0.66756179  0.49846701  0.00273487  1
  Te2-  Te162  1  0.67171943  0.49542830  0.32770765  1
  Te2-  Te163  1  0.65829112  0.50225972  0.66303411  1
  Te2-  Te164  1  0.66656848  0.84626822  -0.01135732  1
  Te2-  Te165  1  0.67384096  0.83833677  0.34463671  1
  Te2-  Te166  1  0.66840626  0.84386281  0.66272592  1
  Te2-  Te167  1  -0.00239918  -0.01202170  0.16678235  1
  Te2-  Te168  1  -0.00623710  0.00273609  0.51082295  1
  Te2-  Te169  1  0.00232017  0.00902967  0.82204714  1
  Te2-  Te170  1  0.00189417  0.33153830  0.15256159  1
  Te2-  Te171  1  -0.01357078  0.33657746  0.50422874  1
  Te2-  Te172  1  -0.01260876  0.32913050  0.83848838  1
  Te2-  Te173  1  -0.00653738  0.67583051  0.16793938  1
  Te2-  Te174  1  -0.00986313  0.65814337  0.49705457  1
  Te2-  Te175  1  -0.00426724  0.67396659  0.83116685  1
  Te2-  Te176  1  0.33498841  0.00278393  0.16328089  1
  Te2-  Te177  1  0.33517397  0.00334940  0.50283353  1
  Te2-  Te178  1  0.33360649  -0.00544230  0.83192527  1
  Te2-  Te179  1  0.33049692  0.33141409  0.16602445  1
  Te2-  Te180  1  0.32943957  0.32959673  0.50529900  1
  Te2-  Te181  1  0.32682368  0.34019010  0.83683197  1
  Te2-  Te182  1  0.33171007  0.66458544  0.16924909  1
  Te2-  Te183  1  0.32764209  0.66797066  0.50337869  1
  Te2-  Te184  1  0.33115004  0.66807534  0.82493046  1
  Te2-  Te185  1  0.66107100  -0.00512848  0.16494576  1
  Te2-  Te186  1  0.67080672  0.00574401  0.50095752  1
  Te2-  Te187  1  0.66072327  -0.00403006  0.82311578  1
  Te2-  Te188  1  0.66761483  0.33106265  0.15839056  1
  Te2-  Te189  1  0.67659463  0.33257608  0.50762072  1
  Te2-  Te190  1  0.67453762  0.32638850  0.83254649  1
  Te2-  Te191  1  0.67073091  0.66623251  0.17474147  1
  Te2-  Te192  1  0.68020013  0.66408338  0.49437498  1
  Te2-  Te193  1  0.66921722  0.67454049  0.83483375  1
  Pb2+  Pb194  1  0.50493702  0.66624533  0.50375080  1
  Pb2+  Pb195  1  0.50101321  0.16357790  0.66451266  1
  Pb2+  Pb196  1  0.33073871  0.00595350  0.33469574  1
  Pb2+  Pb197  1  0.66329456  0.67433378  0.00450594  1
  Pb2+  Pb198  1  0.66863146  0.50247914  0.83252230  1
  Pb2+  Pb199  1  0.16792571  0.50235491  0.67095828  1
  Pb2+  Pb200  1  -0.00239070  0.66222144  -0.00091023  1
  Pb2+  Pb201  1  -0.00450882  0.16165919  0.16299292  1
  Pb2+  Pb202  1  0.33902743  0.33369557  0.67151545  1
  Pb2+  Pb203  1  0.82992139  0.50204210  0.66658683  1
  Pb2+  Pb204  1  0.32572980  0.50126543  0.49878422  1
  Pb2+  Pb205  1  0.50040134  0.66519637  0.16752332  1
  Pb2+  Pb206  1  0.15473158  0.33163914  0.50181440  1
  Pb2+  Pb207  1  0.50174311  0.33510390  0.16139989  1
  Pb2+  Pb208  1  0.16427153  0.83139477  -0.00378293  1
  Pb2+  Pb209  1  -0.01107871  0.67099879  0.66342815  1
  Pb2+  Pb210  1  0.16350441  0.66383045  0.17022645  1
  Pb2+  Pb211  1  0.16512218  -0.00150087  0.16330191  1
  Pb2+  Pb212  1  0.83135195  0.00029387  0.17097077  1
  Pb2+  Pb213  1  0.15811603  0.16262772  0.33786394  1
  Pb2+  Pb214  1  0.50278715  0.83002305  0.33966798  1
  Pb2+  Pb215  1  0.83446236  0.33034136  0.17345705  1
