# generated using pymatgen
data_In22Ag21Sn22Bi21(Te54Pb11)2
_symmetry_space_group_name_H-M   'P 1'
_cell_length_a   19.14081498
_cell_length_b   19.13384332
_cell_length_c   19.13990203
_cell_angle_alpha   89.99111196
_cell_angle_beta   89.99670159
_cell_angle_gamma   90.01131056
_symmetry_Int_Tables_number   1
_chemical_formula_structural   In22Ag21Sn22Bi21(Te54Pb11)2
_chemical_formula_sum   'In22 Ag21 Sn22 Bi21 Te108 Pb22'
_cell_volume   7009.74685848
_cell_formula_units_Z   1
loop_
 _symmetry_equiv_pos_site_id
 _symmetry_equiv_pos_as_xyz
  1  'x, y, z'
loop_
 _atom_type_symbol
 _atom_type_oxidation_number
  In3+  3.0
  Ag+  1.0
  Sn2+  2.0
  Bi3+  3.0
  Te2-  -2.0
  Pb2+  2.0
loop_
 _atom_site_type_symbol
 _atom_site_label
 _atom_site_symmetry_multiplicity
 _atom_site_fract_x
 _atom_site_fract_y
 _atom_site_fract_z
 _atom_site_occupancy
  In3+  In0  1  0.66210385  0.17033668  0.14665340  1
  In3+  In1  1  0.32821474  0.32588213  0.32341184  1
  In3+  In2  1  0.18795211  0.01060891  0.83244504  1
  In3+  In3  1  0.16928443  0.52652914  0.32994068  1
  In3+  In4  1  0.81780375  0.83761013  0.65711258  1
  In3+  In5  1  0.33847788  0.16783126  0.16464891  1
  In3+  In6  1  0.18555458  0.17009747  0.66663186  1
  In3+  In7  1  0.49886523  0.82609068  -0.00369358  1
  In3+  In8  1  -0.01756488  0.68617875  0.66263373  1
  In3+  In9  1  0.49931102  0.16909616  -0.00697695  1
  In3+  In10  1  0.18846252  0.17281575  0.00157574  1
  In3+  In11  1  0.84474640  0.83783688  0.32201419  1
  In3+  In12  1  0.48813780  0.66317222  0.83124364  1
  In3+  In13  1  0.35312950  0.33036882  0.66874870  1
  In3+  In14  1  0.50479138  0.01576174  0.84845672  1
  In3+  In15  1  0.49743099  0.81968740  0.33446221  1
  In3+  In16  1  0.83274923  0.16545453  0.65458938  1
  In3+  In17  1  0.35762074  0.50647702  0.16387213  1
  In3+  In18  1  -0.02440778  0.16634663  0.82943842  1
  In3+  In19  1  0.66430673  0.00418919  0.30811384  1
  In3+  In20  1  0.32122928  -0.00071288  0.34178272  1
  In3+  In21  1  0.49612115  -0.00913709  0.16815124  1
  Ag+  Ag22  1  0.85651276  0.66237167  0.17627263  1
  Ag+  Ag23  1  0.49435436  0.68807614  0.14954455  1
  Ag+  Ag24  1  0.85462995  0.19388309  0.30576216  1
  Ag+  Ag25  1  0.47740844  0.86614360  0.70099036  1
  Ag+  Ag26  1  0.66955088  0.19109522  0.84492255  1
  Ag+  Ag27  1  0.33305342  0.34974952  0.02127030  1
  Ag+  Ag28  1  0.68234019  0.53094700  0.18839065  1
  Ag+  Ag29  1  0.31652261  0.17907054  0.83617508  1
  Ag+  Ag30  1  0.01877957  -0.01568620  0.33323899  1
  Ag+  Ag31  1  0.86304778  0.81339931  0.02818252  1
  Ag+  Ag32  1  0.14494161  0.82873456  0.34505655  1
  Ag+  Ag33  1  0.02580401  0.83022150  0.19342031  1
  Ag+  Ag34  1  -0.02574335  0.83472200  0.48650455  1
  Ag+  Ag35  1  0.51027997  0.52389000  0.01343569  1
  Ag+  Ag36  1  0.83937750  0.30545181  0.16505608  1
  Ag+  Ag37  1  0.68668859  0.30982704  0.67369170  1
  Ag+  Ag38  1  0.33586802  0.64336433  0.33733403  1
  Ag+  Ag39  1  0.49857917  0.31293174  0.85417849  1
  Ag+  Ag40  1  0.66955117  -0.02300673  0.00382150  1
  Ag+  Ag41  1  0.32503077  0.18003343  0.47788063  1
  Ag+  Ag42  1  0.85595836  0.31163353  0.52756139  1
  Sn2+  Sn43  1  0.65696050  0.17072630  0.50188511  1
  Sn2+  Sn44  1  0.83213515  0.16104638  0.00054290  1
  Sn2+  Sn45  1  0.17401910  0.83327669  0.65687586  1
  Sn2+  Sn46  1  0.00191083  0.16085173  0.49915567  1
  Sn2+  Sn47  1  0.66680833  0.84341665  0.49225536  1
  Sn2+  Sn48  1  0.33907642  0.48014664  0.83530990  1
  Sn2+  Sn49  1  0.16398884  0.83614467  0.00133834  1
  Sn2+  Sn50  1  0.83585006  0.66050703  0.48303602  1
  Sn2+  Sn51  1  0.83090872  0.67484416  0.85020283  1
  Sn2+  Sn52  1  0.33576918  0.66101145  0.00934174  1
  Sn2+  Sn53  1  0.16224911  0.49448915  0.66978064  1
  Sn2+  Sn54  1  0.00232492  0.32816893  0.00653228  1
  Sn2+  Sn55  1  0.15789188  -0.00057203  0.50080398  1
  Sn2+  Sn56  1  0.66694599  0.66481548  0.00670816  1
  Sn2+  Sn57  1  0.17660744  0.49895073  0.01202002  1
  Sn2+  Sn58  1  0.33865351  0.00669295  0.66177852  1
  Sn2+  Sn59  1  -0.01337814  0.50761984  0.16172131  1
  Sn2+  Sn60  1  0.16381234  0.33135654  0.49689432  1
  Sn2+  Sn61  1  0.66757069  0.00147987  0.67977364  1
  Sn2+  Sn62  1  0.66822320  0.82929167  0.16362398  1
  Sn2+  Sn63  1  0.32921432  0.83187435  0.16990817  1
  Sn2+  Sn64  1  0.65800208  0.67153730  0.32611532  1
  Bi3+  Bi65  1  0.33725548  -0.00011673  0.00240100  1
  Bi3+  Bi66  1  0.66768982  0.83017032  0.83311134  1
  Bi3+  Bi67  1  0.50024964  0.32969933  0.50012057  1
  Bi3+  Bi68  1  0.50260636  0.66553302  0.49802863  1
  Bi3+  Bi69  1  0.83604390  0.50081731  0.33030829  1
  Bi3+  Bi70  1  0.49824120  0.50066558  0.67108396  1
  Bi3+  Bi71  1  -0.00119301  0.83792191  0.82978030  1
  Bi3+  Bi72  1  0.66531173  0.66676512  0.66614645  1
  Bi3+  Bi73  1  -0.00153584  0.33133871  0.66928555  1
  Bi3+  Bi74  1  0.16498195  0.00153019  0.16069814  1
  Bi3+  Bi75  1  0.50148454  0.16734632  0.33559607  1
  Bi3+  Bi76  1  0.66517282  0.49927671  0.49528276  1
  Bi3+  Bi77  1  0.82832262  -0.00237564  0.83593057  1
  Bi3+  Bi78  1  0.33618050  0.83543920  0.49756473  1
  Bi3+  Bi79  1  0.66417878  0.49987829  0.83508552  1
  Bi3+  Bi80  1  0.50536995  0.16872337  0.66652161  1
  Bi3+  Bi81  1  0.83176736  -0.00633840  0.16264420  1
  Bi3+  Bi82  1  0.50392433  0.32708710  0.16374969  1
  Bi3+  Bi83  1  0.66044261  0.33612875  -0.00112769  1
  Bi3+  Bi84  1  -0.00077259  0.32857914  0.33224681  1
  Bi3+  Bi85  1  0.16767566  0.66943335  0.82941010  1
  Te2-  Te86  1  0.16789610  0.16373152  0.16118602  1
  Te2-  Te87  1  0.17578164  0.16009233  0.50937456  1
  Te2-  Te88  1  0.16842364  0.16160880  0.83431536  1
  Te2-  Te89  1  0.15887284  0.50138473  0.17020176  1
  Te2-  Te90  1  0.16499702  0.50057221  0.49113708  1
  Te2-  Te91  1  0.17140607  0.50300284  0.83510783  1
  Te2-  Te92  1  0.16932008  0.84011349  0.16233433  1
  Te2-  Te93  1  0.17473621  0.83891512  0.49506180  1
  Te2-  Te94  1  0.16230709  0.83552957  0.83013019  1
  Te2-  Te95  1  0.50295601  0.16260765  0.17255303  1
  Te2-  Te96  1  0.48283741  0.16767981  0.50212758  1
  Te2-  Te97  1  0.51663869  0.16712343  0.82745388  1
  Te2-  Te98  1  0.50569393  0.48873691  0.15794411  1
  Te2-  Te99  1  0.50016430  0.49784002  0.49933042  1
  Te2-  Te100  1  0.49883696  0.50730470  0.83202237  1
  Te2-  Te101  1  0.49654319  0.83840255  0.16562445  1
  Te2-  Te102  1  0.49943904  0.82884586  0.49641903  1
  Te2-  Te103  1  0.50208656  0.82479871  0.83857655  1
  Te2-  Te104  1  0.82318575  0.15630016  0.16795339  1
  Te2-  Te105  1  0.83069205  0.17040993  0.50320394  1
  Te2-  Te106  1  0.82072615  0.16144435  0.83405509  1
  Te2-  Te107  1  0.82832017  0.51602969  0.16935359  1
  Te2-  Te108  1  0.82823277  0.49574384  0.49505451  1
  Te2-  Te109  1  0.83078948  0.50485645  0.83413691  1
  Te2-  Te110  1  0.82808856  0.83319057  0.16857914  1
  Te2-  Te111  1  0.82848032  0.83131455  0.50170684  1
  Te2-  Te112  1  0.83361494  0.83511461  0.82950476  1
  Te2-  Te113  1  0.17014807  0.00472703  -0.00508649  1
  Te2-  Te114  1  0.16773364  -0.01206666  0.32520339  1
  Te2-  Te115  1  0.17337565  0.00441281  0.67535117  1
  Te2-  Te116  1  0.18099380  0.32793715  -0.00068411  1
  Te2-  Te117  1  0.16518486  0.32536448  0.33556570  1
  Te2-  Te118  1  0.16134881  0.32796967  0.66452684  1
  Te2-  Te119  1  0.17012997  0.66746916  -0.00761924  1
  Te2-  Te120  1  0.17720297  0.68048193  0.33061634  1
  Te2-  Te121  1  0.16875555  0.66273998  0.66823834  1
  Te2-  Te122  1  0.50223855  0.00785130  0.00456817  1
  Te2-  Te123  1  0.50566117  0.00622355  0.32505497  1
  Te2-  Te124  1  0.50046619  0.00546045  0.66878902  1
  Te2-  Te125  1  0.48903847  0.32204183  0.00246388  1
  Te2-  Te126  1  0.49478988  0.33014307  0.33410229  1
  Te2-  Te127  1  0.50719783  0.33491836  0.66267147  1
  Te2-  Te128  1  0.49463129  0.66895778  0.00087701  1
  Te2-  Te129  1  0.48845367  0.66579021  0.33557431  1
  Te2-  Te130  1  0.50224727  0.66571093  0.66425018  1
  Te2-  Te131  1  0.81990784  0.00037281  -0.00074474  1
  Te2-  Te132  1  0.81637851  -0.00952787  0.32715995  1
  Te2-  Te133  1  0.83475382  0.00006075  0.66995005  1
  Te2-  Te134  1  0.82898117  0.33094457  0.01140502  1
  Te2-  Te135  1  0.83711485  0.33892772  0.31982136  1
  Te2-  Te136  1  0.83300542  0.32675765  0.67190856  1
  Te2-  Te137  1  0.82847532  0.67210934  0.00922032  1
  Te2-  Te138  1  0.82870860  0.67129084  0.32394600  1
  Te2-  Te139  1  0.82984242  0.67302600  0.66550569  1
  Te2-  Te140  1  -0.00523486  0.17074920  -0.00643437  1
  Te2-  Te141  1  -0.00522740  0.16505691  0.33891321  1
  Te2-  Te142  1  -0.00501221  0.16951879  0.66851775  1
  Te2-  Te143  1  0.00270743  0.49624657  0.00254615  1
  Te2-  Te144  1  0.00175608  0.49788642  0.32915917  1
  Te2-  Te145  1  0.00083890  0.49405624  0.66465446  1
  Te2-  Te146  1  0.00264796  0.83531256  -0.00847685  1
  Te2-  Te147  1  -0.00395281  0.83769330  0.33853861  1
  Te2-  Te148  1  0.00702105  0.83548203  0.66703889  1
  Te2-  Te149  1  0.34080736  0.16179253  -0.01190505  1
  Te2-  Te150  1  0.33498859  0.16037510  0.33112633  1
  Te2-  Te151  1  0.33759018  0.16814413  0.68386845  1
  Te2-  Te152  1  0.33463618  0.49610736  0.00650505  1
  Te2-  Te153  1  0.32434916  0.49551505  0.32337387  1
  Te2-  Te154  1  0.33318476  0.49329957  0.66589390  1
  Te2-  Te155  1  0.33796479  0.83748900  0.00207063  1
  Te2-  Te156  1  0.34508592  0.84668523  0.33286315  1
  Te2-  Te157  1  0.33825490  0.83611963  0.66351368  1
  Te2-  Te158  1  0.65905077  0.17317238  -0.00728348  1
  Te2-  Te159  1  0.66324571  0.15700878  0.34325914  1
  Te2-  Te160  1  0.66910337  0.16610937  0.66493120  1
  Te2-  Te161  1  0.65464934  0.49715246  -0.00433519  1
  Te2-  Te162  1  0.66899635  0.49961230  0.33125798  1
  Te2-  Te163  1  0.66225083  0.50406127  0.66567090  1
  Te2-  Te164  1  0.65437359  0.82999194  -0.00474208  1
  Te2-  Te165  1  0.65196482  0.83940610  0.33208701  1
  Te2-  Te166  1  0.66472346  0.83027286  0.66777349  1
  Te2-  Te167  1  -0.00043865  -0.00841057  0.17483821  1
  Te2-  Te168  1  0.00082514  -0.00872240  0.48806458  1
  Te2-  Te169  1  -0.00798845  0.00469956  0.83281918  1
  Te2-  Te170  1  -0.00943987  0.33069633  0.16653415  1
  Te2-  Te171  1  -0.00070745  0.32987062  0.49868116  1
  Te2-  Te172  1  0.00138495  0.32666924  0.83519835  1
  Te2-  Te173  1  0.00403351  0.67961675  0.16649580  1
  Te2-  Te174  1  -0.00425047  0.68055324  0.50608132  1
  Te2-  Te175  1  0.00090456  0.66954094  0.82369337  1
  Te2-  Te176  1  0.33287435  0.00492271  0.16383033  1
  Te2-  Te177  1  0.33150463  -0.00096127  0.49659392  1
  Te2-  Te178  1  0.34376415  0.00464759  0.83721798  1
  Te2-  Te179  1  0.33659733  0.32891612  0.16690076  1
  Te2-  Te180  1  0.33348243  0.32392573  0.51151223  1
  Te2-  Te181  1  0.34849556  0.32507511  0.82523187  1
  Te2-  Te182  1  0.34576238  0.66065991  0.17158590  1
  Te2-  Te183  1  0.33849717  0.66684189  0.48886861  1
  Te2-  Te184  1  0.33276021  0.66593164  0.83521617  1
  Te2-  Te185  1  0.66380974  0.00457013  0.15359289  1
  Te2-  Te186  1  0.66600360  0.00166727  0.51211368  1
  Te2-  Te187  1  0.66088084  -0.00889417  0.84444202  1
  Te2-  Te188  1  0.66746503  0.32431996  0.16367775  1
  Te2-  Te189  1  0.66236787  0.33696094  0.50668474  1
  Te2-  Te190  1  0.65654334  0.33791064  0.83266441  1
  Te2-  Te191  1  0.64357640  0.67019706  0.16803706  1
  Te2-  Te192  1  0.66631715  0.66492435  0.49915358  1
  Te2-  Te193  1  0.66574393  0.66549895  0.83168088  1
  Pb2+  Pb194  1  0.17432604  0.66817361  0.16304821  1
  Pb2+  Pb195  1  0.16316172  0.33565854  0.16725385  1
  Pb2+  Pb196  1  0.33086268  0.49016555  0.49398768  1
  Pb2+  Pb197  1  0.33534997  0.66533987  0.66278001  1
  Pb2+  Pb198  1  0.00083355  0.66785498  0.33120571  1
  Pb2+  Pb199  1  0.16832026  0.67208770  0.49900485  1
  Pb2+  Pb200  1  -0.00327109  0.15977703  0.16590967  1
  Pb2+  Pb201  1  0.00540398  0.00241906  0.66051138  1
  Pb2+  Pb202  1  0.50040761  0.50090619  0.32448066  1
  Pb2+  Pb203  1  0.82491932  0.50110319  0.00392487  1
  Pb2+  Pb204  1  -0.00724374  0.00082558  0.00229020  1
  Pb2+  Pb205  1  -0.00244661  0.50328529  0.49703439  1
  Pb2+  Pb206  1  0.50118680  -0.00191175  0.49492414  1
  Pb2+  Pb207  1  -0.00050386  0.66593356  -0.00032045  1
  Pb2+  Pb208  1  0.00384937  0.49706595  0.83413463  1
  Pb2+  Pb209  1  0.16162574  0.15691162  0.33837975  1
  Pb2+  Pb210  1  0.83309041  0.00458590  0.49453324  1
  Pb2+  Pb211  1  0.17672576  0.33061694  0.83185354  1
  Pb2+  Pb212  1  0.67070464  0.32561129  0.33691016  1
  Pb2+  Pb213  1  0.33038393  0.83646696  0.83371602  1
  Pb2+  Pb214  1  0.83045659  0.50146427  0.66413152  1
  Pb2+  Pb215  1  0.82669211  0.33237008  0.84400527  1
