# generated using pymatgen
data_In22Ag21Sn22Bi21(Te54Pb11)2
_symmetry_space_group_name_H-M   'P 1'
_cell_length_a   19.15489236
_cell_length_b   19.16602317
_cell_length_c   19.12524583
_cell_angle_alpha   90.02004685
_cell_angle_beta   90.00037987
_cell_angle_gamma   89.99473417
_symmetry_Int_Tables_number   1
_chemical_formula_structural   In22Ag21Sn22Bi21(Te54Pb11)2
_chemical_formula_sum   'In22 Ag21 Sn22 Bi21 Te108 Pb22'
_cell_volume   7021.31928367
_cell_formula_units_Z   1
loop_
 _symmetry_equiv_pos_site_id
 _symmetry_equiv_pos_as_xyz
  1  'x, y, z'
loop_
 _atom_type_symbol
 _atom_type_oxidation_number
  In3+  3.0
  Ag+  1.0
  Sn2+  2.0
  Bi3+  3.0
  Te2-  -2.0
  Pb2+  2.0
loop_
 _atom_site_type_symbol
 _atom_site_label
 _atom_site_symmetry_multiplicity
 _atom_site_fract_x
 _atom_site_fract_y
 _atom_site_fract_z
 _atom_site_occupancy
  In3+  In0  1  0.35400796  0.49059340  0.83007240  1
  In3+  In1  1  0.50361335  0.50039986  0.32082828  1
  In3+  In2  1  0.82752198  0.16743511  0.00823301  1
  In3+  In3  1  -0.00523839  0.48755172  0.83006000  1
  In3+  In4  1  -0.01774858  0.33622921  0.66377355  1
  In3+  In5  1  0.50305607  0.49916356  0.00832616  1
  In3+  In6  1  -0.00342840  0.02003604  0.32652513  1
  In3+  In7  1  0.83733309  0.85308645  0.32978236  1
  In3+  In8  1  0.31186779  0.16898908  0.49865988  1
  In3+  In9  1  0.82276571  0.32821608  0.51161273  1
  In3+  In10  1  0.66652093  0.16366326  0.14712594  1
  In3+  In11  1  0.17315158  0.01832704  0.83875714  1
  In3+  In12  1  0.83011492  0.85383726  0.00312978  1
  In3+  In13  1  -0.02722212  0.50423851  0.15920941  1
  In3+  In14  1  0.15975219  0.66486406  0.80187628  1
  In3+  In15  1  0.51874478  0.33747898  0.83338885  1
  In3+  In16  1  0.35131631  0.00240619  0.34016427  1
  In3+  In17  1  0.65706355  0.33071839  0.67804698  1
  In3+  In18  1  0.00517622  0.66251628  0.34393031  1
  In3+  In19  1  0.83575864  0.17359339  0.32804247  1
  In3+  In20  1  0.01698049  0.67806783  0.66817714  1
  In3+  In21  1  0.36012786  -0.01545200  0.00879010  1
  Ag+  Ag22  1  0.18829772  0.13865849  0.32150494  1
  Ag+  Ag23  1  0.19312209  0.80282430  0.66244835  1
  Ag+  Ag24  1  0.53239258  0.52993090  0.66523619  1
  Ag+  Ag25  1  0.02358884  0.14004565  0.16136001  1
  Ag+  Ag26  1  0.31121147  0.80832402  0.16855589  1
  Ag+  Ag27  1  0.14261476  0.33289145  0.49580187  1
  Ag+  Ag28  1  0.85253474  0.17274721  0.69150044  1
  Ag+  Ag29  1  0.68991360  0.30964735  0.33438835  1
  Ag+  Ag30  1  0.64995195  0.32775247  0.03063150  1
  Ag+  Ag31  1  0.82995139  0.02157095  0.16641377  1
  Ag+  Ag32  1  0.19048671  0.69345171  0.49533858  1
  Ag+  Ag33  1  0.35759346  0.69013603  0.70000981  1
  Ag+  Ag34  1  0.49912039  0.68626105  0.15607697  1
  Ag+  Ag35  1  0.66177574  -0.02304389  0.02426856  1
  Ag+  Ag36  1  0.35426430  0.33304914  0.00773573  1
  Ag+  Ag37  1  0.83680005  -0.02616935  0.52655114  1
  Ag+  Ag38  1  0.47595920  0.86160412  0.00518417  1
  Ag+  Ag39  1  0.66412713  0.52245106  0.16651126  1
  Ag+  Ag40  1  0.83168717  0.33579523  0.85377544  1
  Ag+  Ag41  1  0.47885735  -0.02197569  0.17101405  1
  Ag+  Ag42  1  0.68889976  0.62557961  0.69397473  1
  Sn2+  Sn43  1  0.00513824  0.33800574  0.33224839  1
  Sn2+  Sn44  1  0.82719566  0.49871339  0.33227953  1
  Sn2+  Sn45  1  0.67009989  0.00310480  0.32569142  1
  Sn2+  Sn46  1  0.00543551  0.83471647  0.16795728  1
  Sn2+  Sn47  1  0.49796775  0.82555131  0.31419876  1
  Sn2+  Sn48  1  0.83109519  0.66064666  0.50207856  1
  Sn2+  Sn49  1  0.51398044  -0.00120025  0.49338645  1
  Sn2+  Sn50  1  0.66734032  0.66138026  0.00366467  1
  Sn2+  Sn51  1  0.33049399  0.82911029  0.49023805  1
  Sn2+  Sn52  1  0.15825244  0.16853928  0.65666129  1
  Sn2+  Sn53  1  0.66786191  0.50194874  0.85181561  1
  Sn2+  Sn54  1  -0.00782071  0.16528563  0.84488239  1
  Sn2+  Sn55  1  0.49414219  0.16981319  0.00249771  1
  Sn2+  Sn56  1  0.33410492  0.65940091  0.00200468  1
  Sn2+  Sn57  1  0.82924371  0.49572904  -0.00243355  1
  Sn2+  Sn58  1  0.17368238  0.50237161  0.00047160  1
  Sn2+  Sn59  1  0.33690509  0.16891897  0.16159036  1
  Sn2+  Sn60  1  0.83054102  0.49854688  0.66840403  1
  Sn2+  Sn61  1  0.32644671  0.33204663  0.32703044  1
  Sn2+  Sn62  1  0.82381134  0.67260596  0.17020080  1
  Sn2+  Sn63  1  0.16337889  0.33196580  0.17314843  1
  Sn2+  Sn64  1  0.49621534  0.82894827  0.68102992  1
  Bi3+  Bi65  1  -0.00043255  0.66454918  0.00130355  1
  Bi3+  Bi66  1  0.16915631  0.49738219  0.33274985  1
  Bi3+  Bi67  1  -0.00244573  0.00433921  0.66451882  1
  Bi3+  Bi68  1  0.66583014  0.00311853  0.66268802  1
  Bi3+  Bi69  1  0.66920779  0.17066249  0.83043095  1
  Bi3+  Bi70  1  0.49758799  0.66432823  0.84035994  1
  Bi3+  Bi71  1  0.67018954  0.83876104  0.16671953  1
  Bi3+  Bi72  1  0.50005657  0.33053684  0.16688504  1
  Bi3+  Bi73  1  0.82810284  0.33499234  0.16562968  1
  Bi3+  Bi74  1  0.16309980  0.49357315  0.66203963  1
  Bi3+  Bi75  1  -0.00097800  0.49815900  0.49794361  1
  Bi3+  Bi76  1  0.50238535  0.33490053  0.50219006  1
  Bi3+  Bi77  1  0.32979799  0.33130376  0.66617386  1
  Bi3+  Bi78  1  0.66671147  0.66830495  0.33118702  1
  Bi3+  Bi79  1  0.66275858  0.83608832  0.49766799  1
  Bi3+  Bi80  1  -0.00413970  0.16795128  0.49361919  1
  Bi3+  Bi81  1  0.00123240  0.83154027  0.83286336  1
  Bi3+  Bi82  1  0.66856659  0.16583821  0.49849295  1
  Bi3+  Bi83  1  0.33598472  0.67038746  0.33096280  1
  Bi3+  Bi84  1  0.50048623  0.16634110  0.66541427  1
  Bi3+  Bi85  1  -0.00298752  0.33384952  0.00179841  1
  Te2-  Te86  1  0.16591879  0.17248241  0.17766009  1
  Te2-  Te87  1  0.15812788  0.17581988  0.48682446  1
  Te2-  Te88  1  0.15986497  0.17092269  0.83342329  1
  Te2-  Te89  1  0.17146060  0.49675075  0.17051253  1
  Te2-  Te90  1  0.16051165  0.48775513  0.49669954  1
  Te2-  Te91  1  0.15168393  0.50942929  0.82765684  1
  Te2-  Te92  1  0.16346939  0.83364634  0.16626071  1
  Te2-  Te93  1  0.16854067  0.83862005  0.51203391  1
  Te2-  Te94  1  0.16315860  0.81845058  0.81630306  1
  Te2-  Te95  1  0.50849706  0.17084281  0.16394245  1
  Te2-  Te96  1  0.50633400  0.16545405  0.50136019  1
  Te2-  Te97  1  0.50358040  0.17364355  0.83029591  1
  Te2-  Te98  1  0.51146961  0.49127718  0.16351878  1
  Te2-  Te99  1  0.49956670  0.49678116  0.51883854  1
  Te2-  Te100  1  0.50658382  0.49994076  0.81419997  1
  Te2-  Te101  1  0.51154167  0.83641354  0.15532538  1
  Te2-  Te102  1  0.50043860  0.84164959  0.49144524  1
  Te2-  Te103  1  0.49674815  0.83014311  0.85276597  1
  Te2-  Te104  1  0.82646538  0.17167033  0.16837559  1
  Te2-  Te105  1  0.83371994  0.17482673  0.48593484  1
  Te2-  Te106  1  0.83384701  0.17892597  0.83802023  1
  Te2-  Te107  1  0.81670085  0.49908667  0.16415140  1
  Te2-  Te108  1  0.83684060  0.48839736  0.49922520  1
  Te2-  Te109  1  0.83643352  0.48823940  0.82968364  1
  Te2-  Te110  1  0.83424668  0.83055608  0.16488454  1
  Te2-  Te111  1  0.82884642  0.83128747  0.48839380  1
  Te2-  Te112  1  0.83614406  0.83420097  0.83938374  1
  Te2-  Te113  1  0.16151226  0.00224231  -0.00674629  1
  Te2-  Te114  1  0.14866992  -0.00154749  0.33442615  1
  Te2-  Te115  1  0.16161560  0.00982427  0.67451866  1
  Te2-  Te116  1  0.15644326  0.33934115  0.00059902  1
  Te2-  Te117  1  0.17026369  0.33722161  0.34119125  1
  Te2-  Te118  1  0.16796104  0.32953501  0.65659782  1
  Te2-  Te119  1  0.16492773  0.66339521  0.00483059  1
  Te2-  Te120  1  0.16850895  0.66438921  0.34466633  1
  Te2-  Te121  1  0.16941296  0.65706168  0.64606078  1
  Te2-  Te122  1  0.51161874  0.00598669  0.00973013  1
  Te2-  Te123  1  0.49978466  -0.00010910  0.32124664  1
  Te2-  Te124  1  0.50070566  0.00189282  0.66630286  1
  Te2-  Te125  1  0.50410366  0.34093016  -0.00838625  1
  Te2-  Te126  1  0.49218835  0.34244781  0.33581232  1
  Te2-  Te127  1  0.49568815  0.32843771  0.66798173  1
  Te2-  Te128  1  0.50063957  0.65383110  0.00187460  1
  Te2-  Te129  1  0.50014256  0.66161758  0.32575268  1
  Te2-  Te130  1  0.50006307  0.67367450  0.67495256  1
  Te2-  Te131  1  0.82148525  0.00835653  0.00998487  1
  Te2-  Te132  1  0.84103226  0.00315866  0.32053960  1
  Te2-  Te133  1  0.83218547  0.01281226  0.66920501  1
  Te2-  Te134  1  0.83477466  0.33095872  0.00351600  1
  Te2-  Te135  1  0.83547937  0.33670110  0.32748246  1
  Te2-  Te136  1  0.83036121  0.32123828  0.66265633  1
  Te2-  Te137  1  0.83641470  0.65573001  0.00140327  1
  Te2-  Te138  1  0.82942230  0.65784525  0.33222075  1
  Te2-  Te139  1  0.82734256  0.66574148  0.66454575  1
  Te2-  Te140  1  -0.00637721  0.16978854  0.01487449  1
  Te2-  Te141  1  -0.00643554  0.17336370  0.32341730  1
  Te2-  Te142  1  -0.00235669  0.16990971  0.66320765  1
  Te2-  Te143  1  -0.00026861  0.50109483  -0.00215330  1
  Te2-  Te144  1  0.00237004  0.50583567  0.33198272  1
  Te2-  Te145  1  -0.00158823  0.49458014  0.66392710  1
  Te2-  Te146  1  -0.00499386  0.82915448  -0.00210284  1
  Te2-  Te147  1  -0.00551344  0.81685048  0.33133498  1
  Te2-  Te148  1  -0.00609207  0.83880507  0.66816401  1
  Te2-  Te149  1  0.33531633  0.18234051  -0.00160573  1
  Te2-  Te150  1  0.33260740  0.15946783  0.33666241  1
  Te2-  Te151  1  0.33411658  0.16517289  0.66031701  1
  Te2-  Te152  1  0.33726939  0.48632317  -0.01192331  1
  Te2-  Te153  1  0.33556034  0.50361405  0.33520265  1
  Te2-  Te154  1  0.32444401  0.49359094  0.67573381  1
  Te2-  Te155  1  0.33094878  0.83360549  0.01459277  1
  Te2-  Te156  1  0.33586182  0.83586694  0.31974111  1
  Te2-  Te157  1  0.33731961  0.83115565  0.66427910  1
  Te2-  Te158  1  0.66942671  0.18197678  -0.00766894  1
  Te2-  Te159  1  0.67151409  0.16346556  0.33740737  1
  Te2-  Te160  1  0.66385078  0.16932187  0.66294904  1
  Te2-  Te161  1  0.66019971  0.49031370  0.00719490  1
  Te2-  Te162  1  0.65896749  0.50751263  0.32077018  1
  Te2-  Te163  1  0.67290241  0.48474076  0.66399493  1
  Te2-  Te164  1  0.67824162  0.83103475  0.00295089  1
  Te2-  Te165  1  0.67037960  0.83335202  0.33295939  1
  Te2-  Te166  1  0.66244027  0.83900564  0.66112702  1
  Te2-  Te167  1  -0.00638512  -0.00389025  0.17156536  1
  Te2-  Te168  1  -0.01504665  0.00530890  0.49911518  1
  Te2-  Te169  1  0.00341253  -0.00217946  0.83022258  1
  Te2-  Te170  1  -0.00627939  0.34719709  0.16447397  1
  Te2-  Te171  1  -0.00329417  0.33141745  0.50221078  1
  Te2-  Te172  1  -0.01048610  0.33302444  0.83306796  1
  Te2-  Te173  1  -0.00230108  0.65935002  0.16307878  1
  Te2-  Te174  1  -0.00685400  0.66061197  0.50111145  1
  Te2-  Te175  1  0.00133346  0.66740257  0.83388786  1
  Te2-  Te176  1  0.33656722  0.01086667  0.15763003  1
  Te2-  Te177  1  0.33416080  0.00345881  0.49079729  1
  Te2-  Te178  1  0.32883507  -0.00158343  0.84197091  1
  Te2-  Te179  1  0.33798114  0.33045403  0.15739647  1
  Te2-  Te180  1  0.34103906  0.32308864  0.49946245  1
  Te2-  Te181  1  0.32986607  0.33826061  0.82953901  1
  Te2-  Te182  1  0.34655203  0.66583214  0.16717096  1
  Te2-  Te183  1  0.33532706  0.66911023  0.49279644  1
  Te2-  Te184  1  0.33159526  0.65730170  0.84015974  1
  Te2-  Te185  1  0.67872940  0.00832527  0.16709201  1
  Te2-  Te186  1  0.68307212  0.00051373  0.49904030  1
  Te2-  Te187  1  0.66708369  0.00599559  0.82798831  1
  Te2-  Te188  1  0.66306855  0.31799275  0.17786678  1
  Te2-  Te189  1  0.66652086  0.33110678  0.48347257  1
  Te2-  Te190  1  0.67656247  0.33426457  0.83178720  1
  Te2-  Te191  1  0.65325484  0.67237391  0.16704531  1
  Te2-  Te192  1  0.66552657  0.67125291  0.49663703  1
  Te2-  Te193  1  0.66232866  0.66453382  0.83346121  1
  Pb2+  Pb194  1  0.33271160  0.17000978  0.83247306  1
  Pb2+  Pb195  1  0.16647659  0.83337315  0.33856645  1
  Pb2+  Pb196  1  0.33915797  0.49833460  0.16255477  1
  Pb2+  Pb197  1  0.16917323  0.00212124  0.16575812  1
  Pb2+  Pb198  1  0.66316298  0.50120304  0.49027886  1
  Pb2+  Pb199  1  0.32960851  -0.00362665  0.66428080  1
  Pb2+  Pb200  1  0.83416689  0.00735584  0.83741190  1
  Pb2+  Pb201  1  0.33264304  0.49575381  0.50580405  1
  Pb2+  Pb202  1  0.49974380  0.66899272  0.50078124  1
  Pb2+  Pb203  1  0.50139572  0.17211923  0.33227628  1
  Pb2+  Pb204  1  0.16790986  0.66384538  0.17291769  1
  Pb2+  Pb205  1  0.15999224  0.00654749  0.50255791  1
  Pb2+  Pb206  1  0.16560781  0.83227207  -0.00960859  1
  Pb2+  Pb207  1  0.82812324  0.83465899  0.66369612  1
  Pb2+  Pb208  1  0.16316072  0.34197751  0.82990306  1
  Pb2+  Pb209  1  0.83366065  0.66073772  0.83384317  1
  Pb2+  Pb210  1  0.16812739  0.17144448  0.00763664  1
  Pb2+  Pb211  1  0.00078519  0.83327849  0.49953096  1
  Pb2+  Pb212  1  -0.00668820  0.00164892  0.00254840  1
  Pb2+  Pb213  1  0.33074092  0.82743080  0.83886356  1
  Pb2+  Pb214  1  0.66378470  0.83554503  0.83293158  1
  Pb2+  Pb215  1  0.50071545  0.00186400  0.84004455  1
