# generated using pymatgen
data_In22Ag21Sn22Bi21(Te54Pb11)2
_symmetry_space_group_name_H-M   'P 1'
_cell_length_a   19.12203685
_cell_length_b   19.08843693
_cell_length_c   19.13147568
_cell_angle_alpha   90.00415686
_cell_angle_beta   89.98463272
_cell_angle_gamma   89.99313298
_symmetry_Int_Tables_number   1
_chemical_formula_structural   In22Ag21Sn22Bi21(Te54Pb11)2
_chemical_formula_sum   'In22 Ag21 Sn22 Bi21 Te108 Pb22'
_cell_volume   6983.17568537
_cell_formula_units_Z   1
loop_
 _symmetry_equiv_pos_site_id
 _symmetry_equiv_pos_as_xyz
  1  'x, y, z'
loop_
 _atom_type_symbol
 _atom_type_oxidation_number
  In3+  3.0
  Ag+  1.0
  Sn2+  2.0
  Bi3+  3.0
  Te2-  -2.0
  Pb2+  2.0
loop_
 _atom_site_type_symbol
 _atom_site_label
 _atom_site_symmetry_multiplicity
 _atom_site_fract_x
 _atom_site_fract_y
 _atom_site_fract_z
 _atom_site_occupancy
  In3+  In0  1  0.51580552  0.83052208  0.00322180  1
  In3+  In1  1  0.83025023  0.15824571  0.34082637  1
  In3+  In2  1  0.34821646  0.16084249  0.50163142  1
  In3+  In3  1  0.65524053  0.66844626  0.32217543  1
  In3+  In4  1  0.80546246  0.66339932  0.16716864  1
  In3+  In5  1  0.34695587  0.83330424  0.84926773  1
  In3+  In6  1  0.00091317  0.68105647  0.33539941  1
  In3+  In7  1  0.66831658  0.83886845  0.85674545  1
  In3+  In8  1  0.18492476  0.66799992  0.50574266  1
  In3+  In9  1  0.50441019  0.33980786  0.50013571  1
  In3+  In10  1  0.82517108  0.15650675  0.00341054  1
  In3+  In11  1  0.16874799  0.83124872  0.31745348  1
  In3+  In12  1  0.16961337  0.00726033  0.16032777  1
  In3+  In13  1  0.82213048  0.33134924  0.48795944  1
  In3+  In14  1  0.32921242  0.00673813  -0.00478403  1
  In3+  In15  1  0.66186710  0.48003191  0.49746189  1
  In3+  In16  1  0.35783614  0.51247384  0.16688577  1
  In3+  In17  1  -0.02206459  0.82682539  0.16845461  1
  In3+  In18  1  0.50671423  0.51825774  0.00564981  1
  In3+  In19  1  0.82178529  0.68062306  0.82041952  1
  In3+  In20  1  0.66839995  0.16682390  0.81983803  1
  In3+  In21  1  0.82774679  0.47188061  0.66823184  1
  Ag+  Ag22  1  0.02366279  0.33154151  0.35935652  1
  Ag+  Ag23  1  0.02910634  0.80539572  0.52564050  1
  Ag+  Ag24  1  0.52248936  0.66706372  0.46984368  1
  Ag+  Ag25  1  0.66316352  0.85709133  0.17322114  1
  Ag+  Ag26  1  0.64103703  0.01678018  0.33723415  1
  Ag+  Ag27  1  0.49880511  0.68477983  0.16259563  1
  Ag+  Ag28  1  -0.02804228  0.32313511  0.02166791  1
  Ag+  Ag29  1  0.35167762  0.66838055  0.32928800  1
  Ag+  Ag30  1  0.80628863  0.16812538  0.64181221  1
  Ag+  Ag31  1  0.65882103  0.33446608  0.69013766  1
  Ag+  Ag32  1  0.14115855  0.14930278  -0.01044302  1
  Ag+  Ag33  1  0.19226381  0.16493527  0.63934290  1
  Ag+  Ag34  1  0.34742142  0.16165440  0.19575250  1
  Ag+  Ag35  1  0.35442296  0.00040067  0.69348340  1
  Ag+  Ag36  1  0.49439725  0.66947919  0.82025335  1
  Ag+  Ag37  1  0.68079599  0.00359146  -0.02141179  1
  Ag+  Ag38  1  0.80382394  0.02181822  0.15589020  1
  Ag+  Ag39  1  0.66298154  0.31780828  0.33114993  1
  Ag+  Ag40  1  0.64797020  0.17731588  0.47613047  1
  Ag+  Ag41  1  0.67057012  0.47825538  0.14329311  1
  Ag+  Ag42  1  0.83036196  0.02053819  0.80928475  1
  Sn2+  Sn43  1  0.66794389  0.32257495  0.01424679  1
  Sn2+  Sn44  1  0.16401035  0.48774256  0.66980507  1
  Sn2+  Sn45  1  0.16291001  0.67138428  0.83221464  1
  Sn2+  Sn46  1  0.50251390  0.83343419  0.33227519  1
  Sn2+  Sn47  1  0.50451993  0.16811685  0.32871031  1
  Sn2+  Sn48  1  0.82335606  0.66787224  0.49492119  1
  Sn2+  Sn49  1  0.00065396  0.83668211  0.83339716  1
  Sn2+  Sn50  1  -0.00636244  0.50011243  0.17082837  1
  Sn2+  Sn51  1  -0.00094176  0.16658755  0.82775843  1
  Sn2+  Sn52  1  0.50250918  0.16840918  0.67082358  1
  Sn2+  Sn53  1  0.32467301  0.16879794  0.83263925  1
  Sn2+  Sn54  1  0.34786427  0.84122052  0.16900460  1
  Sn2+  Sn55  1  0.50861174  -0.00178559  0.15965420  1
  Sn2+  Sn56  1  0.17220192  0.84543348  0.66550910  1
  Sn2+  Sn57  1  0.66912977  0.67134806  0.00806103  1
  Sn2+  Sn58  1  0.33957081  0.51615273  0.83593523  1
  Sn2+  Sn59  1  0.16347905  0.83357473  0.00478630  1
  Sn2+  Sn60  1  0.33884013  0.67226793  0.65724204  1
  Sn2+  Sn61  1  -0.01218433  0.01042626  0.00256107  1
  Sn2+  Sn62  1  0.16143444  -0.00135815  0.50816273  1
  Sn2+  Sn63  1  0.66522470  0.16090246  0.16833148  1
  Sn2+  Sn64  1  0.16843231  0.48661027  0.00097422  1
  Bi3+  Bi65  1  0.83116518  0.00046370  0.49379924  1
  Bi3+  Bi66  1  0.33732817  0.32998482  0.00078734  1
  Bi3+  Bi67  1  0.33296013  0.83504454  0.50048214  1
  Bi3+  Bi68  1  0.49848082  0.50033942  0.66721534  1
  Bi3+  Bi69  1  0.50427198  0.16237375  0.00119421  1
  Bi3+  Bi70  1  0.00171466  0.00593946  0.33066560  1
  Bi3+  Bi71  1  0.16711761  0.33042625  0.16549665  1
  Bi3+  Bi72  1  -0.00213621  0.16273455  0.50076931  1
  Bi3+  Bi73  1  0.33209660  -0.00676370  0.33032820  1
  Bi3+  Bi74  1  0.49836684  0.32990339  0.16824233  1
  Bi3+  Bi75  1  -0.00003863  0.00320292  0.66794730  1
  Bi3+  Bi76  1  0.16159634  0.50197451  0.33063019  1
  Bi3+  Bi77  1  0.00302530  0.50154501  0.83582493  1
  Bi3+  Bi78  1  0.83598135  0.83542355  0.00573764  1
  Bi3+  Bi79  1  0.66654484  0.83689726  0.49104697  1
  Bi3+  Bi80  1  0.83304594  0.83339381  0.33393946  1
  Bi3+  Bi81  1  0.83396583  0.32475761  0.83194441  1
  Bi3+  Bi82  1  -0.00210955  0.32832527  0.66905764  1
  Bi3+  Bi83  1  0.33726185  0.50208517  0.49923654  1
  Bi3+  Bi84  1  0.00066135  0.16386053  0.16461479  1
  Bi3+  Bi85  1  0.83129611  0.50070339  0.33682013  1
  Te2-  Te86  1  0.16184575  0.16455058  0.15830052  1
  Te2-  Te87  1  0.15964800  0.16772048  0.49564020  1
  Te2-  Te88  1  0.16689942  0.16315349  0.84349753  1
  Te2-  Te89  1  0.16235056  0.49552379  0.16845515  1
  Te2-  Te90  1  0.16928030  0.50492945  0.49977137  1
  Te2-  Te91  1  0.16788249  0.50423388  0.83084462  1
  Te2-  Te92  1  0.17759337  0.83511396  0.16568321  1
  Te2-  Te93  1  0.17014137  0.82801887  0.49844762  1
  Te2-  Te94  1  0.16314659  0.82969902  0.83442783  1
  Te2-  Te95  1  0.49404415  0.16756346  0.16560565  1
  Te2-  Te96  1  0.50269348  0.16976667  0.49950580  1
  Te2-  Te97  1  0.50649929  0.16685789  0.83588154  1
  Te2-  Te98  1  0.51360300  0.49090630  0.16180591  1
  Te2-  Te99  1  0.50085613  0.51493527  0.50252538  1
  Te2-  Te100  1  0.49883705  0.51437563  0.83388152  1
  Te2-  Te101  1  0.50967071  0.83496770  0.16037708  1
  Te2-  Te102  1  0.49866706  0.81934358  0.49665566  1
  Te2-  Te103  1  0.50307147  0.82264827  0.84420799  1
  Te2-  Te104  1  0.83884071  0.16502350  0.16084502  1
  Te2-  Te105  1  0.83245046  0.16754117  0.49589537  1
  Te2-  Te106  1  0.82621001  0.16316252  0.84559266  1
  Te2-  Te107  1  0.82063392  0.50579663  0.17075737  1
  Te2-  Te108  1  0.82408825  0.49741312  0.50495025  1
  Te2-  Te109  1  0.83702680  0.49363091  0.82701119  1
  Te2-  Te110  1  0.82313664  0.82493371  0.17017196  1
  Te2-  Te111  1  0.83224839  0.83643502  0.49584980  1
  Te2-  Te112  1  0.83060167  0.83220734  0.84104493  1
  Te2-  Te113  1  0.16909748  0.00338288  0.00383541  1
  Te2-  Te114  1  0.16692248  -0.00798674  0.33363837  1
  Te2-  Te115  1  0.16093926  0.01393628  0.66669664  1
  Te2-  Te116  1  0.17566531  0.32837645  0.00400868  1
  Te2-  Te117  1  0.16994642  0.33619036  0.33088480  1
  Te2-  Te118  1  0.16585035  0.31880038  0.66743087  1
  Te2-  Te119  1  0.16955798  0.66317583  -0.00061316  1
  Te2-  Te120  1  0.15582886  0.66585920  0.34119908  1
  Te2-  Te121  1  0.17198700  0.66648843  0.66244644  1
  Te2-  Te122  1  0.50213138  -0.00444196  0.00131284  1
  Te2-  Te123  1  0.49270668  -0.00068459  0.33084871  1
  Te2-  Te124  1  0.49945879  0.00131531  0.66787765  1
  Te2-  Te125  1  0.50140885  0.32878322  0.00282302  1
  Te2-  Te126  1  0.50974812  0.33251817  0.33624634  1
  Te2-  Te127  1  0.50948980  0.33774927  0.66010048  1
  Te2-  Te128  1  0.50217691  0.67192969  0.01201036  1
  Te2-  Te129  1  0.50019690  0.67049541  0.32236586  1
  Te2-  Te130  1  0.49863226  0.66189699  0.67331123  1
  Te2-  Te131  1  0.82746273  -0.00168961  0.01124116  1
  Te2-  Te132  1  0.84178541  -0.00142966  0.32849151  1
  Te2-  Te133  1  0.83493963  0.01452483  0.66013226  1
  Te2-  Te134  1  0.82680105  0.33143551  -0.00175399  1
  Te2-  Te135  1  0.81615458  0.33892829  0.33646811  1
  Te2-  Te136  1  0.82965623  0.31887477  0.66742522  1
  Te2-  Te137  1  0.83273210  0.67061575  0.00849033  1
  Te2-  Te138  1  0.84346484  0.66658078  0.32583705  1
  Te2-  Te139  1  0.83470785  0.67027624  0.66962086  1
  Te2-  Te140  1  -0.00492127  0.17277963  0.00016416  1
  Te2-  Te141  1  -0.00816894  0.17669800  0.33397732  1
  Te2-  Te142  1  -0.00414257  0.16617023  0.66673096  1
  Te2-  Te143  1  0.00226014  0.49038491  -0.00067300  1
  Te2-  Te144  1  -0.00381584  0.48103261  0.33058080  1
  Te2-  Te145  1  -0.00179880  0.49525061  0.66846866  1
  Te2-  Te146  1  -0.00111621  0.83711251  0.00516822  1
  Te2-  Te147  1  0.00210671  0.83831527  0.32926677  1
  Te2-  Te148  1  0.00185082  0.83806364  0.66654396  1
  Te2-  Te149  1  0.34264501  0.16181790  -0.00856192  1
  Te2-  Te150  1  0.33398554  0.16195840  0.34574411  1
  Te2-  Te151  1  0.33767131  0.15382472  0.66473082  1
  Te2-  Te152  1  0.33935336  0.49626168  0.00494907  1
  Te2-  Te153  1  0.32774147  0.51240316  0.33445001  1
  Te2-  Te154  1  0.33222125  0.49918188  0.66283700  1
  Te2-  Te155  1  0.33207428  0.84284099  0.00085331  1
  Te2-  Te156  1  0.33080658  0.82629129  0.33552522  1
  Te2-  Te157  1  0.32948783  0.84757595  0.66213086  1
  Te2-  Te158  1  0.66610130  0.15271567  0.00449641  1
  Te2-  Te159  1  0.67379843  0.16423201  0.33150852  1
  Te2-  Te160  1  0.66170721  0.17877355  0.66964946  1
  Te2-  Te161  1  0.66084977  0.49960917  -0.00265279  1
  Te2-  Te162  1  0.67002590  0.51326797  0.34613414  1
  Te2-  Te163  1  0.66546248  0.48744240  0.66042155  1
  Te2-  Te164  1  0.67014254  0.84439503  0.01412936  1
  Te2-  Te165  1  0.67049578  0.82492572  0.32553279  1
  Te2-  Te166  1  0.66466017  0.83268937  0.65662019  1
  Te2-  Te167  1  0.01113521  -0.00293684  0.16935628  1
  Te2-  Te168  1  -0.00312906  -0.00112053  0.49565489  1
  Te2-  Te169  1  -0.01669742  -0.00082375  0.83254947  1
  Te2-  Te170  1  0.00333232  0.33006282  0.16441355  1
  Te2-  Te171  1  -0.00888830  0.32992664  0.50424093  1
  Te2-  Te172  1  -0.00373245  0.33586816  0.83155052  1
  Te2-  Te173  1  0.00557747  0.67047770  0.17461697  1
  Te2-  Te174  1  -0.01038787  0.66913511  0.49289697  1
  Te2-  Te175  1  -0.00580369  0.66429490  0.83572323  1
  Te2-  Te176  1  0.32850708  0.01015428  0.16951754  1
  Te2-  Te177  1  0.32950262  0.00071296  0.49418282  1
  Te2-  Te178  1  0.33299530  -0.00800432  0.83897816  1
  Te2-  Te179  1  0.33318140  0.31566378  0.16516943  1
  Te2-  Te180  1  0.34163884  0.33557231  0.49870066  1
  Te2-  Te181  1  0.33616761  0.33825582  0.83522060  1
  Te2-  Te182  1  0.34484724  0.66764967  0.17449971  1
  Te2-  Te183  1  0.33640697  0.66815481  0.49081145  1
  Te2-  Te184  1  0.33864109  0.67734000  0.83167680  1
  Te2-  Te185  1  0.66373536  0.00348271  0.18877980  1
  Te2-  Te186  1  0.66752019  0.00111989  0.48711161  1
  Te2-  Te187  1  0.67838298  -0.00847009  0.83122214  1
  Te2-  Te188  1  0.66244786  0.33251175  0.17492108  1
  Te2-  Te189  1  0.66447095  0.32556694  0.49046374  1
  Te2-  Te190  1  0.67072132  0.32905994  0.83864749  1
  Te2-  Te191  1  0.65388553  0.66174561  0.16780290  1
  Te2-  Te192  1  0.66773295  0.67381408  0.49492860  1
  Te2-  Te193  1  0.66828654  0.67775093  0.83872132  1
  Pb2+  Pb194  1  0.33986249  0.32343296  0.66656826  1
  Pb2+  Pb195  1  0.16284272  0.16179155  0.32683123  1
  Pb2+  Pb196  1  0.49907475  -0.00683978  0.49906107  1
  Pb2+  Pb197  1  0.83045588  0.84076457  0.66660473  1
  Pb2+  Pb198  1  -0.00511691  0.50316589  0.49588747  1
  Pb2+  Pb199  1  0.50169074  0.50203745  0.33331886  1
  Pb2+  Pb200  1  0.16572920  0.33476872  0.50235670  1
  Pb2+  Pb201  1  0.50319495  0.33892134  0.83265536  1
  Pb2+  Pb202  1  0.00462578  0.66661257  0.66631545  1
  Pb2+  Pb203  1  0.16581907  0.33058366  0.83637218  1
  Pb2+  Pb204  1  0.49687916  0.83050884  0.66904763  1
  Pb2+  Pb205  1  0.66690061  0.66319903  0.66414804  1
  Pb2+  Pb206  1  0.66819014  0.50509832  0.83035592  1
  Pb2+  Pb207  1  0.33978823  0.34044844  0.32969331  1
  Pb2+  Pb208  1  0.00212989  0.66310964  0.00494587  1
  Pb2+  Pb209  1  0.66768190  0.00558305  0.65901577  1
  Pb2+  Pb210  1  0.33557246  0.66979135  0.00307829  1
  Pb2+  Pb211  1  0.50730598  -0.00255976  0.83620679  1
  Pb2+  Pb212  1  0.83467901  0.50119987  -0.00063355  1
  Pb2+  Pb213  1  0.83480668  0.33271349  0.17137010  1
  Pb2+  Pb214  1  0.15806370  -0.00200330  0.83479259  1
  Pb2+  Pb215  1  0.17462467  0.66484524  0.17014519  1
