# generated using pymatgen
data_In22Ag21Sn22Bi21(Te54Pb11)2
_symmetry_space_group_name_H-M   'P 1'
_cell_length_a   19.10730759
_cell_length_b   19.11833780
_cell_length_c   19.10291262
_cell_angle_alpha   90.00674894
_cell_angle_beta   89.99075109
_cell_angle_gamma   90.00721744
_symmetry_Int_Tables_number   1
_chemical_formula_structural   In22Ag21Sn22Bi21(Te54Pb11)2
_chemical_formula_sum   'In22 Ag21 Sn22 Bi21 Te108 Pb22'
_cell_volume   6978.29303989
_cell_formula_units_Z   1
loop_
 _symmetry_equiv_pos_site_id
 _symmetry_equiv_pos_as_xyz
  1  'x, y, z'
loop_
 _atom_type_symbol
 _atom_type_oxidation_number
  In3+  3.0
  Ag+  1.0
  Sn2+  2.0
  Bi3+  3.0
  Te2-  -2.0
  Pb2+  2.0
loop_
 _atom_site_type_symbol
 _atom_site_label
 _atom_site_symmetry_multiplicity
 _atom_site_fract_x
 _atom_site_fract_y
 _atom_site_fract_z
 _atom_site_occupancy
  In3+  In0  1  0.83074532  0.49274034  0.63574595  1
  In3+  In1  1  0.32134630  0.67962930  -0.00083697  1
  In3+  In2  1  0.49821704  0.49652727  0.01785234  1
  In3+  In3  1  -0.00641341  0.67063131  0.33827032  1
  In3+  In4  1  0.49465412  0.83632731  0.66236994  1
  In3+  In5  1  0.84290809  0.66977282  0.17075669  1
  In3+  In6  1  0.34686584  -0.00124677  0.33695127  1
  In3+  In7  1  0.33891798  0.49834678  0.17282747  1
  In3+  In8  1  0.01265078  0.84370172  0.83750656  1
  In3+  In9  1  0.18515004  0.49666373  0.67170551  1
  In3+  In10  1  0.81586618  0.00145530  0.83024230  1
  In3+  In11  1  0.14278010  0.34424793  0.16553043  1
  In3+  In12  1  0.66989398  0.32325757  0.00696981  1
  In3+  In13  1  0.19312795  0.00023300  0.17135166  1
  In3+  In14  1  0.16918200  0.31716850  0.84318198  1
  In3+  In15  1  0.34719653  0.49926803  0.83928772  1
  In3+  In16  1  0.34118372  0.31098527  0.65556585  1
  In3+  In17  1  0.50252592  0.65379813  0.48543284  1
  In3+  In18  1  -0.00134616  0.01325417  0.00436904  1
  In3+  In19  1  0.83118593  0.66796487  0.83792208  1
  In3+  In20  1  0.17509523  -0.00875310  0.84488034  1
  In3+  In21  1  0.68389362  0.67022419  0.34606269  1
  Ag+  Ag22  1  0.83696363  0.84401998  0.36214419  1
  Ag+  Ag23  1  0.33178975  0.17165610  0.47838340  1
  Ag+  Ag24  1  0.84829598  0.00220865  0.51675762  1
  Ag+  Ag25  1  0.82879762  0.30763467  0.14652704  1
  Ag+  Ag26  1  -0.03208901  0.31129465  0.03056137  1
  Ag+  Ag27  1  0.35871619  0.14643859  0.83352645  1
  Ag+  Ag28  1  0.52403651  0.49029955  0.35478956  1
  Ag+  Ag29  1  0.66480111  0.14549806  0.18122362  1
  Ag+  Ag30  1  0.51245537  0.13757186  0.02323797  1
  Ag+  Ag31  1  0.49770042  -0.00176974  0.15051160  1
  Ag+  Ag32  1  0.81572675  0.47695091  0.32722652  1
  Ag+  Ag33  1  0.15078876  0.64546865  0.16929860  1
  Ag+  Ag34  1  0.35034788  0.84997921  0.83263369  1
  Ag+  Ag35  1  0.82911396  0.35588987  0.49682267  1
  Ag+  Ag36  1  0.82200307  0.13749016  0.63488018  1
  Ag+  Ag37  1  0.65831045  0.49066166  0.47445096  1
  Ag+  Ag38  1  0.19039328  0.84596677  0.01084764  1
  Ag+  Ag39  1  0.63636407  0.02471309  0.00782484  1
  Ag+  Ag40  1  0.67413526  0.85480761  0.49911221  1
  Ag+  Ag41  1  -0.02809892  0.83328206  0.47889540  1
  Ag+  Ag42  1  0.51353154  0.00395989  0.85416182  1
  Sn2+  Sn43  1  0.50082344  0.16958877  0.33007997  1
  Sn2+  Sn44  1  0.49651845  0.68095338  0.83498938  1
  Sn2+  Sn45  1  0.67711024  0.33972105  0.33103607  1
  Sn2+  Sn46  1  -0.00771274  0.50171309  0.83406754  1
  Sn2+  Sn47  1  0.16651359  0.83146455  0.66678676  1
  Sn2+  Sn48  1  -0.00838243  0.50362187  0.49859428  1
  Sn2+  Sn49  1  0.50672915  0.50595607  0.66206913  1
  Sn2+  Sn50  1  0.16353377  0.83390567  0.32853499  1
  Sn2+  Sn51  1  0.50939005  0.82936490  0.34093423  1
  Sn2+  Sn52  1  0.66527996  0.49994649  0.83093477  1
  Sn2+  Sn53  1  0.33470513  0.00396685  -0.00127957  1
  Sn2+  Sn54  1  0.83011359  0.49855728  0.01106198  1
  Sn2+  Sn55  1  0.49567958  0.67834075  0.16710464  1
  Sn2+  Sn56  1  0.51327352  0.32556678  0.16840839  1
  Sn2+  Sn57  1  0.33492934  0.82835108  0.15946165  1
  Sn2+  Sn58  1  0.51167973  0.32472699  0.49229499  1
  Sn2+  Sn59  1  0.50116423  0.83125214  0.00003660  1
  Sn2+  Sn60  1  0.15996571  -0.00255424  0.49751275  1
  Sn2+  Sn61  1  0.83062549  0.16612532  0.33504260  1
  Sn2+  Sn62  1  0.50670851  0.16400993  0.67101715  1
  Sn2+  Sn63  1  0.33410950  0.66901964  0.67249695  1
  Sn2+  Sn64  1  -0.01010731  -0.00753820  0.33438476  1
  Bi3+  Bi65  1  0.33357033  0.33471618  -0.00201808  1
  Bi3+  Bi66  1  -0.00331234  0.33565643  0.33883659  1
  Bi3+  Bi67  1  0.33244165  0.67377166  0.32905453  1
  Bi3+  Bi68  1  0.66443471  0.66800908  0.66668220  1
  Bi3+  Bi69  1  0.17473852  0.16132000  0.00064022  1
  Bi3+  Bi70  1  -0.00007609  0.66426830  -0.00195508  1
  Bi3+  Bi71  1  0.83296467  0.82944037  0.67021650  1
  Bi3+  Bi72  1  -0.00044211  0.66746237  0.66492647  1
  Bi3+  Bi73  1  0.82794075  -0.00534287  0.16433701  1
  Bi3+  Bi74  1  0.00301463  -0.00124478  0.66875107  1
  Bi3+  Bi75  1  0.83388120  0.83005505  -0.00058656  1
  Bi3+  Bi76  1  0.16704701  0.50165634  0.33503753  1
  Bi3+  Bi77  1  0.33133545  -0.00049072  0.66481045  1
  Bi3+  Bi78  1  -0.00131610  0.33776926  0.66740550  1
  Bi3+  Bi79  1  0.16461629  0.66946448  0.83520796  1
  Bi3+  Bi80  1  0.65895093  0.66797891  0.00362145  1
  Bi3+  Bi81  1  0.66744415  0.16757606  0.83277140  1
  Bi3+  Bi82  1  0.49865239  0.00259156  0.50012785  1
  Bi3+  Bi83  1  0.66646764  -0.00139962  0.32853376  1
  Bi3+  Bi84  1  -0.00239971  0.16696548  0.83137628  1
  Bi3+  Bi85  1  0.66535589  0.50193810  0.16619893  1
  Te2-  Te86  1  0.17024860  0.15556665  0.16128537  1
  Te2-  Te87  1  0.17617344  0.16550782  0.50072186  1
  Te2-  Te88  1  0.16230266  0.16229366  0.83765235  1
  Te2-  Te89  1  0.17248789  0.50001723  0.16850695  1
  Te2-  Te90  1  0.16628561  0.50285992  0.50121713  1
  Te2-  Te91  1  0.16258789  0.50854732  0.82525073  1
  Te2-  Te92  1  0.17461988  0.84708606  0.15844849  1
  Te2-  Te93  1  0.17099564  0.83777844  0.49868922  1
  Te2-  Te94  1  0.16745682  0.83211356  0.83825756  1
  Te2-  Te95  1  0.51127860  0.16583579  0.16792045  1
  Te2-  Te96  1  0.48844544  0.16756455  0.50280648  1
  Te2-  Te97  1  0.50617800  0.15611487  0.82654342  1
  Te2-  Te98  1  0.49890146  0.50106028  0.17033887  1
  Te2-  Te99  1  0.50814661  0.49814598  0.50086236  1
  Te2-  Te100  1  0.49915946  0.50285997  0.82412367  1
  Te2-  Te101  1  0.49622838  0.84189893  0.16985726  1
  Te2-  Te102  1  0.50408271  0.83703503  0.50295163  1
  Te2-  Te103  1  0.49658384  0.84005754  0.82768224  1
  Te2-  Te104  1  0.82020663  0.16034813  0.16817028  1
  Te2-  Te105  1  0.83223593  0.15023056  0.48988752  1
  Te2-  Te106  1  0.83485409  0.16408302  0.83668428  1
  Te2-  Te107  1  0.82824279  0.51518833  0.18073034  1
  Te2-  Te108  1  0.82987970  0.50561578  0.48251722  1
  Te2-  Te109  1  0.83263029  0.50391002  0.84278333  1
  Te2-  Te110  1  0.83407391  0.82857838  0.16396896  1
  Te2-  Te111  1  0.82678708  0.84025319  0.50907534  1
  Te2-  Te112  1  0.83441041  0.83727828  0.83369877  1
  Te2-  Te113  1  0.16572201  -0.00561178  0.00115675  1
  Te2-  Te114  1  0.16133850  -0.00698412  0.32713003  1
  Te2-  Te115  1  0.16576862  -0.00193134  0.66608294  1
  Te2-  Te116  1  0.17052488  0.32995422  0.00370378  1
  Te2-  Te117  1  0.16453951  0.33619083  0.32876589  1
  Te2-  Te118  1  0.16322200  0.34111798  0.67051460  1
  Te2-  Te119  1  0.16655665  0.67347872  0.00338544  1
  Te2-  Te120  1  0.17089110  0.66736382  0.31900173  1
  Te2-  Te121  1  0.16294597  0.66373002  0.66708433  1
  Te2-  Te122  1  0.49231860  -0.00655278  0.00045123  1
  Te2-  Te123  1  0.50335332  -0.00160534  0.33667617  1
  Te2-  Te124  1  0.49495901  -0.00403317  0.66457181  1
  Te2-  Te125  1  0.49829563  0.34266018  0.00041203  1
  Te2-  Te126  1  0.50606063  0.34316897  0.33518494  1
  Te2-  Te127  1  0.49411180  0.33297228  0.66542768  1
  Te2-  Te128  1  0.49630424  0.66312133  -0.00156627  1
  Te2-  Te129  1  0.49258522  0.66309318  0.33292485  1
  Te2-  Te130  1  0.50186955  0.67410617  0.66874530  1
  Te2-  Te131  1  0.83892455  -0.00813481  -0.00030222  1
  Te2-  Te132  1  0.82784762  -0.00855619  0.32710662  1
  Te2-  Te133  1  0.83754077  -0.00616993  0.66572674  1
  Te2-  Te134  1  0.82785142  0.33714123  0.00024490  1
  Te2-  Te135  1  0.83556723  0.33203381  0.34410598  1
  Te2-  Te136  1  0.83655452  0.34088812  0.65718938  1
  Te2-  Te137  1  0.83116569  0.66556709  0.00349655  1
  Te2-  Te138  1  0.83817488  0.68017041  0.32990770  1
  Te2-  Te139  1  0.83313893  0.66442302  0.67357342  1
  Te2-  Te140  1  0.00527021  0.17332197  -0.00349237  1
  Te2-  Te141  1  0.00148175  0.16853627  0.33385345  1
  Te2-  Te142  1  -0.01202364  0.16557504  0.66852231  1
  Te2-  Te143  1  0.00017259  0.50279682  -0.00046284  1
  Te2-  Te144  1  0.00546830  0.50646628  0.33764771  1
  Te2-  Te145  1  -0.01075016  0.50473949  0.66366079  1
  Te2-  Te146  1  -0.00294309  0.82588601  -0.00810400  1
  Te2-  Te147  1  -0.00607076  0.82894665  0.33353062  1
  Te2-  Te148  1  -0.00030715  0.83221836  0.67630427  1
  Te2-  Te149  1  0.33552855  0.17056682  -0.01607335  1
  Te2-  Te150  1  0.33888354  0.16289303  0.32925182  1
  Te2-  Te151  1  0.33235502  0.16404265  0.68453132  1
  Te2-  Te152  1  0.33761683  0.49956815  -0.00029219  1
  Te2-  Te153  1  0.33055294  0.50588591  0.33031472  1
  Te2-  Te154  1  0.33695249  0.50496073  0.66817600  1
  Te2-  Te155  1  0.33542652  0.83195767  -0.01283185  1
  Te2-  Te156  1  0.33478793  0.83704424  0.33175882  1
  Te2-  Te157  1  0.33430321  0.83414528  0.67835005  1
  Te2-  Te158  1  0.65536107  0.17024155  -0.00271176  1
  Te2-  Te159  1  0.66090205  0.16633727  0.32819316  1
  Te2-  Te160  1  0.67837321  0.16713733  0.66753654  1
  Te2-  Te161  1  0.65901429  0.50667128  -0.00021890  1
  Te2-  Te162  1  0.66846604  0.51546645  0.32912118  1
  Te2-  Te163  1  0.67617518  0.50620900  0.66884248  1
  Te2-  Te164  1  0.66799060  0.82732997  -0.00273927  1
  Te2-  Te165  1  0.67335515  0.82733706  0.34625883  1
  Te2-  Te166  1  0.66742637  0.82962122  0.65463311  1
  Te2-  Te167  1  -0.00784148  0.00129908  0.16668013  1
  Te2-  Te168  1  -0.00244878  -0.01437726  0.50407639  1
  Te2-  Te169  1  0.00886434  0.00194322  0.83217379  1
  Te2-  Te170  1  -0.01977573  0.33473334  0.17469792  1
  Te2-  Te171  1  -0.01003266  0.33341234  0.50158821  1
  Te2-  Te172  1  0.00779807  0.33270353  0.82912742  1
  Te2-  Te173  1  0.00464103  0.66923572  0.16444301  1
  Te2-  Te174  1  0.00011402  0.67904109  0.50041638  1
  Te2-  Te175  1  -0.00036835  0.66957906  0.83163254  1
  Te2-  Te176  1  0.34633466  0.00124338  0.17313579  1
  Te2-  Te177  1  0.33269227  0.01196403  0.49810186  1
  Te2-  Te178  1  0.32672213  -0.00122106  0.82853539  1
  Te2-  Te179  1  0.34281312  0.34001097  0.16190552  1
  Te2-  Te180  1  0.33456681  0.32424759  0.50372016  1
  Te2-  Te181  1  0.32412698  0.34618854  0.83161660  1
  Te2-  Te182  1  0.33393489  0.66178791  0.16151285  1
  Te2-  Te183  1  0.34295896  0.66799218  0.49811472  1
  Te2-  Te184  1  0.32799571  0.65771236  0.83869869  1
  Te2-  Te185  1  0.66145517  -0.00139354  0.16112455  1
  Te2-  Te186  1  0.66040037  0.00250586  0.49494689  1
  Te2-  Te187  1  0.66036039  0.00338884  0.84364599  1
  Te2-  Te188  1  0.67855005  0.34062069  0.16245552  1
  Te2-  Te189  1  0.67360150  0.34297715  0.49734828  1
  Te2-  Te190  1  0.66530786  0.33301393  0.84072980  1
  Te2-  Te191  1  0.66067875  0.66605987  0.16686558  1
  Te2-  Te192  1  0.65747128  0.65587651  0.50084921  1
  Te2-  Te193  1  0.66551484  0.66606121  0.83413844  1
  Pb2+  Pb194  1  0.33867757  0.49542933  0.49955625  1
  Pb2+  Pb195  1  0.34372617  0.17075696  0.15408203  1
  Pb2+  Pb196  1  0.66388342  0.83418587  0.82666721  1
  Pb2+  Pb197  1  0.66436200  0.83325254  0.17185248  1
  Pb2+  Pb198  1  0.00645332  0.83635009  0.16304132  1
  Pb2+  Pb199  1  0.16879692  0.50182354  -0.00552305  1
  Pb2+  Pb200  1  0.33876321  0.33389521  0.33065009  1
  Pb2+  Pb201  1  0.66281465  0.17189179  0.49506005  1
  Pb2+  Pb202  1  0.33718187  0.84045903  0.50135683  1
  Pb2+  Pb203  1  0.66425320  0.00025740  0.66768658  1
  Pb2+  Pb204  1  -0.00519734  0.50198282  0.16750882  1
  Pb2+  Pb205  1  0.82439281  0.15915930  0.00238661  1
  Pb2+  Pb206  1  -0.00123275  0.15748507  0.50076473  1
  Pb2+  Pb207  1  0.16884705  0.67126775  0.49076494  1
  Pb2+  Pb208  1  0.17007154  0.16060157  0.33356712  1
  Pb2+  Pb209  1  0.16099031  0.33497715  0.50074268  1
  Pb2+  Pb210  1  0.66409221  0.33539507  0.66660262  1
  Pb2+  Pb211  1  0.83678235  0.33615206  0.82756803  1
  Pb2+  Pb212  1  0.49540374  0.32648262  0.83449122  1
  Pb2+  Pb213  1  0.82951530  0.67256496  0.50263820  1
  Pb2+  Pb214  1  -0.00496895  0.16654963  0.16721804  1
  Pb2+  Pb215  1  0.16089840  0.16869832  0.66683137  1
