# generated using pymatgen
data_In22Ag21Sn22Bi21(Te54Pb11)2
_symmetry_space_group_name_H-M   'P 1'
_cell_length_a   19.11663706
_cell_length_b   19.11318735
_cell_length_c   19.14287396
_cell_angle_alpha   89.99587019
_cell_angle_beta   89.98139825
_cell_angle_gamma   89.99965428
_symmetry_Int_Tables_number   1
_chemical_formula_structural   In22Ag21Sn22Bi21(Te54Pb11)2
_chemical_formula_sum   'In22 Ag21 Sn22 Bi21 Te108 Pb22'
_cell_volume   6994.42032952
_cell_formula_units_Z   1
loop_
 _symmetry_equiv_pos_site_id
 _symmetry_equiv_pos_as_xyz
  1  'x, y, z'
loop_
 _atom_type_symbol
 _atom_type_oxidation_number
  In3+  3.0
  Ag+  1.0
  Sn2+  2.0
  Bi3+  3.0
  Te2-  -2.0
  Pb2+  2.0
loop_
 _atom_site_type_symbol
 _atom_site_label
 _atom_site_symmetry_multiplicity
 _atom_site_fract_x
 _atom_site_fract_y
 _atom_site_fract_z
 _atom_site_occupancy
  In3+  In0  1  0.50978418  0.00483265  0.17195432  1
  In3+  In1  1  0.82946623  0.65893381  0.82881347  1
  In3+  In2  1  0.84096892  0.50431605  0.00409875  1
  In3+  In3  1  0.49909312  0.33184765  0.82019953  1
  In3+  In4  1  0.33579969  0.16829685  0.15486689  1
  In3+  In5  1  0.15764911  0.49833669  0.33317108  1
  In3+  In6  1  0.35433392  0.16298903  0.49872774  1
  In3+  In7  1  0.83133250  0.50554092  0.64775455  1
  In3+  In8  1  0.49902866  0.16340339  -0.00884460  1
  In3+  In9  1  -0.00923298  0.65112505  0.01125942  1
  In3+  In10  1  0.83566948  -0.00519506  0.18123111  1
  In3+  In11  1  0.66803963  0.81876675  0.83435616  1
  In3+  In12  1  0.84199168  0.16895779  0.01073069  1
  In3+  In13  1  0.67161654  0.49839352  0.16151395  1
  In3+  In14  1  -0.00302799  0.64828212  0.35046213  1
  In3+  In15  1  0.15322387  0.49802372  0.65498444  1
  In3+  In16  1  0.34134146  0.49294107  0.16718573  1
  In3+  In17  1  0.85477468  0.32232110  0.83442436  1
  In3+  In18  1  0.51683061  0.34126822  0.16937958  1
  In3+  In19  1  0.14338222  -0.00292681  0.48431668  1
  In3+  In20  1  0.52821703  0.83638235  0.33591678  1
  In3+  In21  1  0.82652206  0.16440879  0.65959976  1
  Ag+  Ag22  1  0.83717294  0.34894184  0.18479921  1
  Ag+  Ag23  1  0.51142833  0.47557439  0.00337087  1
  Ag+  Ag24  1  0.50129688  0.85583891  -0.01959095  1
  Ag+  Ag25  1  0.50361924  0.00970578  0.52330000  1
  Ag+  Ag26  1  -0.03314111  -0.00671006  0.30874238  1
  Ag+  Ag27  1  0.81450568  0.17059274  0.31179324  1
  Ag+  Ag28  1  0.83815114  0.81147331  0.33662394  1
  Ag+  Ag29  1  0.50603386  0.30421037  0.51969953  1
  Ag+  Ag30  1  -0.03138646  0.34976328  0.02389793  1
  Ag+  Ag31  1  0.13655638  0.81050537  0.00574877  1
  Ag+  Ag32  1  0.84991352  0.32784876  0.48289495  1
  Ag+  Ag33  1  0.66006608  0.15860364  0.48465595  1
  Ag+  Ag34  1  0.83179161  0.69363209  0.48033468  1
  Ag+  Ag35  1  -0.02655904  0.48271818  0.49182142  1
  Ag+  Ag36  1  0.35042681  0.16001878  0.80178200  1
  Ag+  Ag37  1  0.14211483  0.17144210  0.03086175  1
  Ag+  Ag38  1  0.66907918  -0.00043792  0.35254246  1
  Ag+  Ag39  1  0.02158658  0.49826954  0.14873364  1
  Ag+  Ag40  1  -0.02860121  0.35436024  0.64080614  1
  Ag+  Ag41  1  0.52375193  0.16834688  0.64161546  1
  Ag+  Ag42  1  0.65282048  0.69096138  0.65997610  1
  Sn2+  Sn43  1  0.66818620  -0.00289111  0.65734436  1
  Sn2+  Sn44  1  0.51925121  0.66872949  0.50506149  1
  Sn2+  Sn45  1  0.83575021  0.48818428  0.33241827  1
  Sn2+  Sn46  1  0.82985374  0.00662493  0.83406440  1
  Sn2+  Sn47  1  0.16607088  0.83238963  0.68169114  1
  Sn2+  Sn48  1  0.65971704  0.66522616  -0.00500870  1
  Sn2+  Sn49  1  0.01212364  0.17012633  0.83414856  1
  Sn2+  Sn50  1  -0.00469863  0.82680057  0.48953504  1
  Sn2+  Sn51  1  0.49988677  0.00138248  0.83416381  1
  Sn2+  Sn52  1  0.35053680  0.66601583  0.66003308  1
  Sn2+  Sn53  1  0.49903283  0.85043369  0.66400335  1
  Sn2+  Sn54  1  -0.00732898  0.32034181  0.33366845  1
  Sn2+  Sn55  1  0.66599993  0.82956997  0.16563963  1
  Sn2+  Sn56  1  0.49959529  0.66312633  0.84088640  1
  Sn2+  Sn57  1  0.50699880  0.16279989  0.33369882  1
  Sn2+  Sn58  1  0.67088766  0.83684081  0.49713402  1
  Sn2+  Sn59  1  0.82114613  0.01451104  0.48713549  1
  Sn2+  Sn60  1  0.16348108  -0.00536090  0.16112884  1
  Sn2+  Sn61  1  0.32556135  0.33410850  0.66380059  1
  Sn2+  Sn62  1  0.33638375  0.00782824  0.66160325  1
  Sn2+  Sn63  1  -0.00272996  0.18181088  0.17867577  1
  Sn2+  Sn64  1  0.66866658  0.49939324  0.83559823  1
  Bi3+  Bi65  1  0.66445238  0.49652916  0.49902447  1
  Bi3+  Bi66  1  0.00021906  0.66740209  0.66767048  1
  Bi3+  Bi67  1  0.66727405  0.33100638  0.34066013  1
  Bi3+  Bi68  1  0.33600202  0.66979877  -0.00371413  1
  Bi3+  Bi69  1  0.66989455  0.33287035  0.66441913  1
  Bi3+  Bi70  1  0.16570053  0.16869065  0.33747266  1
  Bi3+  Bi71  1  0.50135182  0.66812312  0.16459220  1
  Bi3+  Bi72  1  0.16467664  0.16685190  0.66808749  1
  Bi3+  Bi73  1  0.33493823  0.33355517  0.00114301  1
  Bi3+  Bi74  1  0.00077571  0.00558218  0.67005478  1
  Bi3+  Bi75  1  0.17200470  0.33137753  0.83383675  1
  Bi3+  Bi76  1  0.66664032  0.33502345  0.00029379  1
  Bi3+  Bi77  1  0.16959306  0.00359856  0.83464614  1
  Bi3+  Bi78  1  0.66295099  0.16854874  0.83602626  1
  Bi3+  Bi79  1  0.66632697  -0.00096220  -0.00480885  1
  Bi3+  Bi80  1  0.16498984  0.66887575  0.83395896  1
  Bi3+  Bi81  1  0.00219576  0.00499270  0.00202066  1
  Bi3+  Bi82  1  0.33097391  0.00096454  -0.00115809  1
  Bi3+  Bi83  1  0.33523777  0.49334258  0.83385506  1
  Bi3+  Bi84  1  0.33383615  0.49839520  0.50292262  1
  Bi3+  Bi85  1  -0.00496912  0.16800435  0.50120657  1
  Te2-  Te86  1  0.17325815  0.16248014  0.17518960  1
  Te2-  Te87  1  0.16306009  0.15776323  0.50332149  1
  Te2-  Te88  1  0.17755731  0.16699255  0.82839661  1
  Te2-  Te89  1  0.16687849  0.49815549  0.17591914  1
  Te2-  Te90  1  0.17273682  0.50064452  0.49441388  1
  Te2-  Te91  1  0.17055535  0.49938417  0.83105995  1
  Te2-  Te92  1  0.16422599  0.83676532  0.15291452  1
  Te2-  Te93  1  0.16479959  0.84296422  0.50443975  1
  Te2-  Te94  1  0.16822211  0.83510677  0.84862683  1
  Te2-  Te95  1  0.49554459  0.16201371  0.17223659  1
  Te2-  Te96  1  0.50831443  0.15955918  0.49492234  1
  Te2-  Te97  1  0.49519115  0.17199874  0.83590248  1
  Te2-  Te98  1  0.50239857  0.50091935  0.15680449  1
  Te2-  Te99  1  0.49943261  0.50724848  0.49876347  1
  Te2-  Te100  1  0.49736820  0.49347381  0.84057002  1
  Te2-  Te101  1  0.50676107  0.83198973  0.17792819  1
  Te2-  Te102  1  0.50909618  0.82893550  0.49462157  1
  Te2-  Te103  1  0.50983613  0.83364083  0.83214073  1
  Te2-  Te104  1  0.83785687  0.16662675  0.16449510  1
  Te2-  Te105  1  0.83394858  0.17912334  0.50975458  1
  Te2-  Te106  1  0.83109540  0.16937095  0.83248286  1
  Te2-  Te107  1  0.82635593  0.49453625  0.15909014  1
  Te2-  Te108  1  0.82634378  0.48063213  0.49702524  1
  Te2-  Te109  1  0.83168038  0.50204263  0.84850126  1
  Te2-  Te110  1  0.82880665  0.83849877  0.17877495  1
  Te2-  Te111  1  0.82979474  0.84118125  0.49155737  1
  Te2-  Te112  1  0.82340422  0.83250539  0.83298192  1
  Te2-  Te113  1  0.16733134  0.01826219  -0.00243929  1
  Te2-  Te114  1  0.17116210  0.00512841  0.33328982  1
  Te2-  Te115  1  0.16597017  -0.00016789  0.67217361  1
  Te2-  Te116  1  0.17332334  0.31970812  -0.00155529  1
  Te2-  Te117  1  0.16351638  0.33468819  0.33482492  1
  Te2-  Te118  1  0.15869076  0.33312274  0.67215532  1
  Te2-  Te119  1  0.16848800  0.66455729  -0.00437166  1
  Te2-  Te120  1  0.15259525  0.66703462  0.33577699  1
  Te2-  Te121  1  0.16443145  0.66743873  0.67196374  1
  Te2-  Te122  1  0.49957892  0.00309848  0.00512903  1
  Te2-  Te123  1  0.51715366  -0.00901059  0.32513338  1
  Te2-  Te124  1  0.49803562  0.01272800  0.67024693  1
  Te2-  Te125  1  0.50129006  0.32778839  0.01397079  1
  Te2-  Te126  1  0.50641629  0.33449269  0.32306790  1
  Te2-  Te127  1  0.50218579  0.32086523  0.66604004  1
  Te2-  Te128  1  0.49869435  0.66799432  0.00200666  1
  Te2-  Te129  1  0.50371349  0.67693387  0.33086467  1
  Te2-  Te130  1  0.50680836  0.66877419  0.67037411  1
  Te2-  Te131  1  0.83131998  0.00632364  -0.00028038  1
  Te2-  Te132  1  0.82247879  0.01929953  0.32972794  1
  Te2-  Te133  1  0.83846778  0.00446046  0.66860382  1
  Te2-  Te134  1  0.82683132  0.32804204  -0.00893489  1
  Te2-  Te135  1  0.82978656  0.32273142  0.33233947  1
  Te2-  Te136  1  0.83288092  0.33693754  0.68365311  1
  Te2-  Te137  1  0.82863580  0.66474293  -0.00412248  1
  Te2-  Te138  1  0.84212518  0.66099634  0.33673187  1
  Te2-  Te139  1  0.83851252  0.65971477  0.67571401  1
  Te2-  Te140  1  -0.00347446  0.16577382  0.00234448  1
  Te2-  Te141  1  0.00465030  0.15532767  0.33970166  1
  Te2-  Te142  1  -0.00054546  0.16817372  0.66743629  1
  Te2-  Te143  1  -0.00232475  0.49385024  0.00236444  1
  Te2-  Te144  1  0.00080581  0.49560076  0.34471957  1
  Te2-  Te145  1  -0.00803981  0.50103499  0.65538659  1
  Te2-  Te146  1  -0.00810251  0.83948163  0.00227118  1
  Te2-  Te147  1  -0.01350003  0.84733029  0.33632530  1
  Te2-  Te148  1  0.00077691  0.83382910  0.66375071  1
  Te2-  Te149  1  0.34293179  0.16715109  0.00164757  1
  Te2-  Te150  1  0.33272838  0.16714164  0.34320124  1
  Te2-  Te151  1  0.32869384  0.17121811  0.65655234  1
  Te2-  Te152  1  0.33933685  0.50005707  -0.00220008  1
  Te2-  Te153  1  0.33069811  0.50244583  0.33464408  1
  Te2-  Te154  1  0.33785222  0.49807800  0.66904520  1
  Te2-  Te155  1  0.35022775  0.83484288  -0.00138953  1
  Te2-  Te156  1  0.32285993  0.83423440  0.33223765  1
  Te2-  Te157  1  0.33534225  0.83402117  0.66675736  1
  Te2-  Te158  1  0.66242278  0.16765359  -0.00008624  1
  Te2-  Te159  1  0.66725901  0.16490277  0.33784191  1
  Te2-  Te160  1  0.66946122  0.16945032  0.67440585  1
  Te2-  Te161  1  0.65905657  0.49763610  0.00238360  1
  Te2-  Te162  1  0.66808271  0.49739729  0.33295871  1
  Te2-  Te163  1  0.67448777  0.49472028  0.66683663  1
  Te2-  Te164  1  0.65341956  0.83559848  -0.00632695  1
  Te2-  Te165  1  0.68158220  0.84307846  0.33528590  1
  Te2-  Te166  1  0.66452629  0.83697611  0.66915626  1
  Te2-  Te167  1  -0.00597326  0.00606646  0.16360705  1
  Te2-  Te168  1  -0.00694705  0.00147608  0.50898902  1
  Te2-  Te169  1  0.00175379  0.00147313  0.83595897  1
  Te2-  Te170  1  -0.01158296  0.34231815  0.16861373  1
  Te2-  Te171  1  -0.00019579  0.33407381  0.49890733  1
  Te2-  Te172  1  0.00733406  0.33150108  0.84620703  1
  Te2-  Te173  1  -0.00149424  0.65051889  0.16300587  1
  Te2-  Te174  1  -0.01533707  0.66413185  0.50334007  1
  Te2-  Te175  1  0.00051655  0.66388941  0.83403645  1
  Te2-  Te176  1  0.33676213  0.00712145  0.16085801  1
  Te2-  Te177  1  0.35271031  0.00659186  0.50209735  1
  Te2-  Te178  1  0.33353206  0.01301860  0.83583033  1
  Te2-  Te179  1  0.33423870  0.33103627  0.16327341  1
  Te2-  Te180  1  0.34512907  0.33456940  0.50310423  1
  Te2-  Te181  1  0.33736749  0.32930498  0.83545099  1
  Te2-  Te182  1  0.33695224  0.66240627  0.16114636  1
  Te2-  Te183  1  0.33252558  0.66480808  0.50218547  1
  Te2-  Te184  1  0.33066233  0.66236247  0.83219320  1
  Te2-  Te185  1  0.66739685  -0.00221008  0.15562663  1
  Te2-  Te186  1  0.65939202  0.00809173  0.50230705  1
  Te2-  Te187  1  0.66528471  0.00663669  0.83333779  1
  Te2-  Te188  1  0.67735044  0.33685284  0.16672047  1
  Te2-  Te189  1  0.65526758  0.33188705  0.50246356  1
  Te2-  Te190  1  0.65909901  0.33121635  0.83639391  1
  Te2-  Te191  1  0.66341023  0.66174515  0.16774369  1
  Te2-  Te192  1  0.68104230  0.66137958  0.51219464  1
  Te2-  Te193  1  0.66992786  0.66524485  0.82272424  1
  Pb2+  Pb194  1  0.16633202  0.66638202  0.16471388  1
  Pb2+  Pb195  1  -0.00203078  0.49618947  0.82475912  1
  Pb2+  Pb196  1  0.66769268  0.16577691  0.17154164  1
  Pb2+  Pb197  1  0.16941997  0.32881724  0.50365383  1
  Pb2+  Pb198  1  0.67264989  0.67160066  0.34425723  1
  Pb2+  Pb199  1  0.15759863  0.32978223  0.16470758  1
  Pb2+  Pb200  1  -0.00313395  0.82912219  0.16974600  1
  Pb2+  Pb201  1  0.15869791  0.67017379  0.50405749  1
  Pb2+  Pb202  1  0.15342682  0.83875805  0.33154144  1
  Pb2+  Pb203  1  0.33767061  0.83675665  0.16520869  1
  Pb2+  Pb204  1  0.33482976  0.33417754  0.33410564  1
  Pb2+  Pb205  1  0.34577752  0.00028100  0.33290490  1
  Pb2+  Pb206  1  0.83223141  0.66371036  0.16827198  1
  Pb2+  Pb207  1  0.33806143  0.83831208  0.49857933  1
  Pb2+  Pb208  1  0.82428052  0.83626452  0.00424376  1
  Pb2+  Pb209  1  0.50573440  0.49540776  0.66826188  1
  Pb2+  Pb210  1  -0.00351735  0.83119746  0.83307505  1
  Pb2+  Pb211  1  0.83192034  0.83196267  0.65907988  1
  Pb2+  Pb212  1  0.33937373  0.83819677  0.83371642  1
  Pb2+  Pb213  1  0.33141404  0.66905799  0.33372627  1
  Pb2+  Pb214  1  0.17254894  0.49034973  0.00113452  1
  Pb2+  Pb215  1  0.49986377  0.50449751  0.32907931  1
