# generated using pymatgen
data_In22Ag21Sn22Bi21(Te54Pb11)2
_symmetry_space_group_name_H-M   'P 1'
_cell_length_a   19.11909702
_cell_length_b   19.11723983
_cell_length_c   19.11148281
_cell_angle_alpha   89.99570437
_cell_angle_beta   89.98573381
_cell_angle_gamma   90.00424728
_symmetry_Int_Tables_number   1
_chemical_formula_structural   In22Ag21Sn22Bi21(Te54Pb11)2
_chemical_formula_sum   'In22 Ag21 Sn22 Bi21 Te108 Pb22'
_cell_volume   6985.33009727
_cell_formula_units_Z   1
loop_
 _symmetry_equiv_pos_site_id
 _symmetry_equiv_pos_as_xyz
  1  'x, y, z'
loop_
 _atom_type_symbol
 _atom_type_oxidation_number
  In3+  3.0
  Ag+  1.0
  Sn2+  2.0
  Bi3+  3.0
  Te2-  -2.0
  Pb2+  2.0
loop_
 _atom_site_type_symbol
 _atom_site_label
 _atom_site_symmetry_multiplicity
 _atom_site_fract_x
 _atom_site_fract_y
 _atom_site_fract_z
 _atom_site_occupancy
  In3+  In0  1  0.82584434  0.33346693  0.82318654  1
  In3+  In1  1  0.01476949  0.67429012  0.33562413  1
  In3+  In2  1  0.67187719  0.01391720  -0.00146171  1
  In3+  In3  1  0.32415334  0.15950631  0.50886106  1
  In3+  In4  1  0.01286024  0.00467865  0.00928061  1
  In3+  In5  1  0.50401103  0.16057775  0.00457692  1
  In3+  In6  1  0.66842340  0.00479414  0.65699252  1
  In3+  In7  1  -0.03328779  0.65767479  0.65934780  1
  In3+  In8  1  0.00715049  -0.00615445  0.64936621  1
  In3+  In9  1  0.66645074  0.66596285  -0.01042516  1
  In3+  In10  1  0.17772476  -0.00714602  0.18423993  1
  In3+  In11  1  0.01449929  0.17253258  0.16549786  1
  In3+  In12  1  0.01699224  -0.00628936  0.33426537  1
  In3+  In13  1  0.33107445  0.17581772  0.84044395  1
  In3+  In14  1  0.66574886  0.84038074  0.81754477  1
  In3+  In15  1  0.82973270  0.51638785  0.32871389  1
  In3+  In16  1  0.00718431  0.34266212  0.35999391  1
  In3+  In17  1  0.49843197  0.68923838  0.17530320  1
  In3+  In18  1  0.68881807  0.82965492  0.49836451  1
  In3+  In19  1  0.83397866  0.84250318  0.32973064  1
  In3+  In20  1  0.32673584  0.17108413  0.16427988  1
  In3+  In21  1  0.33711714  0.49554680  0.52032561  1
  Ag+  Ag22  1  0.17469874  0.33328749  0.52544042  1
  Ag+  Ag23  1  0.51974102  0.00146266  0.16503601  1
  Ag+  Ag24  1  0.86015357  0.17840513  0.66502616  1
  Ag+  Ag25  1  0.33576238  0.48082670  0.84744660  1
  Ag+  Ag26  1  0.66309731  0.64620026  0.68858448  1
  Ag+  Ag27  1  0.35165528  0.85027861  0.17251857  1
  Ag+  Ag28  1  0.33369503  0.31509801  0.68232447  1
  Ag+  Ag29  1  0.67165470  0.68492772  0.33256640  1
  Ag+  Ag30  1  0.36420819  0.83584297  0.80320893  1
  Ag+  Ag31  1  -0.02270272  0.35988459  0.66796505  1
  Ag+  Ag32  1  0.80676150  0.49958194  -0.03887476  1
  Ag+  Ag33  1  0.31437710  0.69337090  0.32251879  1
  Ag+  Ag34  1  0.00380245  0.83439697  0.48810353  1
  Ag+  Ag35  1  0.66233844  -0.01479815  0.35466946  1
  Ag+  Ag36  1  0.18956056  0.80891442  0.33446113  1
  Ag+  Ag37  1  0.80954003  0.47553561  0.66311314  1
  Ag+  Ag38  1  0.51206848  0.51251978  0.67190029  1
  Ag+  Ag39  1  0.18699420  0.16379576  -0.01523194  1
  Ag+  Ag40  1  0.16944743  0.35424476  0.15646154  1
  Ag+  Ag41  1  0.68748610  0.18270344  0.83157352  1
  Ag+  Ag42  1  0.16822246  -0.02458988  0.48434986  1
  Sn2+  Sn43  1  0.66513141  0.15977844  0.16369033  1
  Sn2+  Sn44  1  0.49457366  0.50381909  0.33316717  1
  Sn2+  Sn45  1  0.34779578  -0.00353288  0.33187222  1
  Sn2+  Sn46  1  0.83051098  0.00297037  0.17118829  1
  Sn2+  Sn47  1  0.16593072  0.48735612  -0.00128886  1
  Sn2+  Sn48  1  0.33833057  0.50302158  0.16347175  1
  Sn2+  Sn49  1  0.31787686  0.82935328  0.49212084  1
  Sn2+  Sn50  1  0.49378092  0.00395911  0.83389748  1
  Sn2+  Sn51  1  0.49879254  0.49739814  -0.00663400  1
  Sn2+  Sn52  1  0.16588256  0.83890565  0.66129444  1
  Sn2+  Sn53  1  0.66302767  0.83236764  0.17335350  1
  Sn2+  Sn54  1  0.65956546  0.50507864  0.17634184  1
  Sn2+  Sn55  1  0.16020352  0.33750670  0.83328134  1
  Sn2+  Sn56  1  0.00433632  0.16682188  0.83631539  1
  Sn2+  Sn57  1  0.50343912  0.83182083  0.33844006  1
  Sn2+  Sn58  1  0.82989986  0.82555433  0.00382451  1
  Sn2+  Sn59  1  0.33320323  0.00220066  0.67048134  1
  Sn2+  Sn60  1  0.17133950  0.49299622  0.33419779  1
  Sn2+  Sn61  1  0.15989652  0.17744148  0.66696289  1
  Sn2+  Sn62  1  0.50325162  0.82343021  0.65897686  1
  Sn2+  Sn63  1  0.66860814  0.51129639  0.50209362  1
  Sn2+  Sn64  1  0.16923221  0.66513938  0.50490742  1
  Bi3+  Bi65  1  0.17230600  0.50283798  0.66562635  1
  Bi3+  Bi66  1  0.00428385  0.50606780  0.50058297  1
  Bi3+  Bi67  1  0.83395214  0.83733560  0.66733893  1
  Bi3+  Bi68  1  0.49712025  0.33172950  0.82990331  1
  Bi3+  Bi69  1  0.49803577  0.66406207  0.49423432  1
  Bi3+  Bi70  1  0.16656276  -0.00095588  0.82996093  1
  Bi3+  Bi71  1  0.16555852  0.17236817  0.33283799  1
  Bi3+  Bi72  1  0.83991672  0.33141876  0.16562972  1
  Bi3+  Bi73  1  0.67468395  0.33046441  0.33362159  1
  Bi3+  Bi74  1  0.49544766  0.16347280  0.66911126  1
  Bi3+  Bi75  1  0.33681359  0.67179477  0.66012951  1
  Bi3+  Bi76  1  0.49909801  0.16403219  0.32938293  1
  Bi3+  Bi77  1  -0.00234330  0.83664195  0.82717993  1
  Bi3+  Bi78  1  0.32877920  0.33143919  0.33148010  1
  Bi3+  Bi79  1  0.33742383  0.67042312  0.00527126  1
  Bi3+  Bi80  1  0.00049435  0.33141955  -0.00716878  1
  Bi3+  Bi81  1  0.49089019  0.33370612  0.50103546  1
  Bi3+  Bi82  1  0.17058556  0.66958059  0.83138455  1
  Bi3+  Bi83  1  -0.00308576  0.83635340  0.17038774  1
  Bi3+  Bi84  1  0.83836262  0.33221161  0.50062821  1
  Bi3+  Bi85  1  -0.00122297  0.66784930  0.00186092  1
  Te2-  Te86  1  0.16723277  0.15097434  0.16961868  1
  Te2-  Te87  1  0.17102736  0.18436424  0.49724219  1
  Te2-  Te88  1  0.17344061  0.16315453  0.83590607  1
  Te2-  Te89  1  0.16853535  0.50185993  0.16445004  1
  Te2-  Te90  1  0.16555567  0.48905717  0.49997566  1
  Te2-  Te91  1  0.18232757  0.50467890  0.83216169  1
  Te2-  Te92  1  0.15670382  0.83991304  0.18435179  1
  Te2-  Te93  1  0.15986657  0.82699712  0.48873071  1
  Te2-  Te94  1  0.15948541  0.83528801  0.83417499  1
  Te2-  Te95  1  0.49632142  0.15611268  0.16437114  1
  Te2-  Te96  1  0.49111017  0.16799421  0.49978473  1
  Te2-  Te97  1  0.48694866  0.16672475  0.83530944  1
  Te2-  Te98  1  0.50031639  0.49082185  0.16163196  1
  Te2-  Te99  1  0.49775453  0.49625977  0.50494652  1
  Te2-  Te100  1  0.48917796  0.49404580  0.82365692  1
  Te2-  Te101  1  0.50090094  0.84421463  0.17104205  1
  Te2-  Te102  1  0.49241643  0.82996866  0.49796289  1
  Te2-  Te103  1  0.51001577  0.83447253  0.83145207  1
  Te2-  Te104  1  0.83109483  0.17071850  0.16309735  1
  Te2-  Te105  1  0.83387081  0.16980990  0.51023205  1
  Te2-  Te106  1  0.83503854  0.17557980  0.82210540  1
  Te2-  Te107  1  0.83151700  0.49369113  0.17521253  1
  Te2-  Te108  1  0.83964686  0.49331020  0.51621730  1
  Te2-  Te109  1  0.83470409  0.48984963  0.81639127  1
  Te2-  Te110  1  0.83397217  0.83251442  0.17049218  1
  Te2-  Te111  1  0.84334080  0.83364376  0.49903358  1
  Te2-  Te112  1  0.83048972  0.83377967  0.83395362  1
  Te2-  Te113  1  0.16463768  0.01099546  -0.00356194  1
  Te2-  Te114  1  0.16982035  0.00858483  0.33889078  1
  Te2-  Te115  1  0.16257192  0.00198435  0.66875586  1
  Te2-  Te116  1  0.16138097  0.32005153  0.00378433  1
  Te2-  Te117  1  0.16125370  0.33198272  0.31402403  1
  Te2-  Te118  1  0.18302299  0.33821036  0.67355077  1
  Te2-  Te119  1  0.16526794  0.66652645  -0.00287799  1
  Te2-  Te120  1  0.16931423  0.66242126  0.33591878  1
  Te2-  Te121  1  0.17127546  0.66985436  0.66798412  1
  Te2-  Te122  1  0.50347057  0.00551794  0.00787735  1
  Te2-  Te123  1  0.51231830  0.00360643  0.32553882  1
  Te2-  Te124  1  0.50035516  -0.00042828  0.66732970  1
  Te2-  Te125  1  0.49911041  0.32744891  -0.00357117  1
  Te2-  Te126  1  0.50151837  0.32993932  0.33695074  1
  Te2-  Te127  1  0.48392104  0.32747035  0.66397667  1
  Te2-  Te128  1  0.50124793  0.66420376  0.00886456  1
  Te2-  Te129  1  0.50291352  0.66234585  0.33021018  1
  Te2-  Te130  1  0.50491807  0.66122355  0.66083219  1
  Te2-  Te131  1  0.82494038  -0.00136756  0.00187090  1
  Te2-  Te132  1  0.81382369  -0.00401105  0.33333810  1
  Te2-  Te133  1  0.82511425  -0.00129946  0.66637994  1
  Te2-  Te134  1  0.83926958  0.34897225  -0.00025836  1
  Te2-  Te135  1  0.84233071  0.33271116  0.33472965  1
  Te2-  Te136  1  0.83301990  0.32531887  0.66671924  1
  Te2-  Te137  1  0.83685796  0.64953405  -0.00179904  1
  Te2-  Te138  1  0.82137515  0.66745257  0.33308385  1
  Te2-  Te139  1  0.81139739  0.67575701  0.66492547  1
  Te2-  Te140  1  -0.00118545  0.16515922  0.00427622  1
  Te2-  Te141  1  0.00086779  0.15259741  0.32698155  1
  Te2-  Te142  1  0.00310525  0.14826359  0.66716934  1
  Te2-  Te143  1  0.00618367  0.50202544  0.00043351  1
  Te2-  Te144  1  -0.00486854  0.50925599  0.33982914  1
  Te2-  Te145  1  0.00885981  0.50485230  0.66520884  1
  Te2-  Te146  1  -0.00296272  0.83098294  -0.00013591  1
  Te2-  Te147  1  -0.00916192  0.83541462  0.33687184  1
  Te2-  Te148  1  -0.00261624  0.83761785  0.66549620  1
  Te2-  Te149  1  0.33409860  0.16572751  0.00380891  1
  Te2-  Te150  1  0.33467405  0.16760275  0.32715440  1
  Te2-  Te151  1  0.33213672  0.16455572  0.66896880  1
  Te2-  Te152  1  0.33414349  0.50949830  -0.00512230  1
  Te2-  Te153  1  0.33398086  0.49177334  0.32500584  1
  Te2-  Te154  1  0.33313443  0.51311429  0.67005257  1
  Te2-  Te155  1  0.33138660  0.82826188  0.02336234  1
  Te2-  Te156  1  0.33511862  0.83859059  0.32813860  1
  Te2-  Te157  1  0.33297874  0.83276297  0.65652078  1
  Te2-  Te158  1  0.66314711  0.16852871  -0.01401902  1
  Te2-  Te159  1  0.66188497  0.16855635  0.33372026  1
  Te2-  Te160  1  0.65710928  0.15812293  0.68088672  1
  Te2-  Te161  1  0.66565824  0.50937584  0.00303983  1
  Te2-  Te162  1  0.67031846  0.49167828  0.33908226  1
  Te2-  Te163  1  0.66074562  0.50058058  0.66224435  1
  Te2-  Te164  1  0.67097479  0.81670229  0.00896024  1
  Te2-  Te165  1  0.67029568  0.83582794  0.33609969  1
  Te2-  Te166  1  0.66778789  0.84205724  0.66211418  1
  Te2-  Te167  1  -0.00515970  -0.00162848  0.16880444  1
  Te2-  Te168  1  0.01397292  -0.01007441  0.49311136  1
  Te2-  Te169  1  0.00054575  -0.00244016  0.84728319  1
  Te2-  Te170  1  0.00456750  0.32690984  0.15812470  1
  Te2-  Te171  1  0.00210282  0.33708688  0.51808946  1
  Te2-  Te172  1  0.00058660  0.32930683  0.82537539  1
  Te2-  Te173  1  -0.00208944  0.67024202  0.16841074  1
  Te2-  Te174  1  0.00135766  0.67251085  0.49687127  1
  Te2-  Te175  1  0.00401307  0.67161528  0.83592309  1
  Te2-  Te176  1  0.32820464  -0.00224894  0.16995001  1
  Te2-  Te177  1  0.31765581  0.00460391  0.50071813  1
  Te2-  Te178  1  0.32918811  -0.02002841  0.83215790  1
  Te2-  Te179  1  0.32161613  0.32913619  0.16690291  1
  Te2-  Te180  1  0.32754037  0.33887596  0.49229250  1
  Te2-  Te181  1  0.33213145  0.33242267  0.83163261  1
  Te2-  Te182  1  0.34385763  0.66615464  0.17594263  1
  Te2-  Te183  1  0.33612923  0.65783107  0.49232169  1
  Te2-  Te184  1  0.33076270  0.69013007  0.83370755  1
  Te2-  Te185  1  0.66725585  0.00192402  0.15304706  1
  Te2-  Te186  1  0.66226169  -0.00557461  0.50202724  1
  Te2-  Te187  1  0.66055344  -0.00907903  0.84643093  1
  Te2-  Te188  1  0.67109020  0.32882692  0.17110646  1
  Te2-  Te189  1  0.66533429  0.33490363  0.49773584  1
  Te2-  Te190  1  0.66361076  0.33073110  0.83329842  1
  Te2-  Te191  1  0.65322337  0.66371715  0.18199281  1
  Te2-  Te192  1  0.65965470  0.67724664  0.48658719  1
  Te2-  Te193  1  0.66285216  0.67107144  0.83492440  1
  Pb2+  Pb194  1  0.83389770  0.66231672  0.83086145  1
  Pb2+  Pb195  1  0.65736329  0.32890090  0.66521171  1
  Pb2+  Pb196  1  0.49273260  0.66286974  0.83369066  1
  Pb2+  Pb197  1  0.00810908  0.49899439  0.83400077  1
  Pb2+  Pb198  1  0.48658325  -0.00375350  0.49523795  1
  Pb2+  Pb199  1  0.33494512  -0.00264358  0.00065218  1
  Pb2+  Pb200  1  0.66053918  0.49949862  0.83198706  1
  Pb2+  Pb201  1  0.83042313  0.00545247  0.83374169  1
  Pb2+  Pb202  1  0.83325124  0.17290774  -0.00649138  1
  Pb2+  Pb203  1  0.49464769  0.32540861  0.16799461  1
  Pb2+  Pb204  1  0.17424140  0.67061096  0.16664848  1
  Pb2+  Pb205  1  0.00104919  0.49574484  0.17108244  1
  Pb2+  Pb206  1  0.83210178  0.16458012  0.33246170  1
  Pb2+  Pb207  1  0.67055751  0.33888546  0.00359415  1
  Pb2+  Pb208  1  0.83039387  0.65975389  0.49855645  1
  Pb2+  Pb209  1  0.32903157  0.33804327  -0.00162197  1
  Pb2+  Pb210  1  0.00543767  0.16512373  0.49749275  1
  Pb2+  Pb211  1  0.84068291  0.00186663  0.49876930  1
  Pb2+  Pb212  1  0.82261254  0.66349549  0.16497500  1
  Pb2+  Pb213  1  0.16679406  0.83900720  0.00700742  1
  Pb2+  Pb214  1  0.66197589  0.16652962  0.50579974  1
  Pb2+  Pb215  1  0.50162878  0.83602729  0.00086688  1
