# generated using pymatgen
data_In22Ag21Sn22Bi21(Te54Pb11)2
_symmetry_space_group_name_H-M   'P 1'
_cell_length_a   19.13146132
_cell_length_b   19.13475073
_cell_length_c   19.14554125
_cell_angle_alpha   90.00247426
_cell_angle_beta   90.00459537
_cell_angle_gamma   89.98606985
_symmetry_Int_Tables_number   1
_chemical_formula_structural   In22Ag21Sn22Bi21(Te54Pb11)2
_chemical_formula_sum   'In22 Ag21 Sn22 Bi21 Te108 Pb22'
_cell_volume   7008.71801314
_cell_formula_units_Z   1
loop_
 _symmetry_equiv_pos_site_id
 _symmetry_equiv_pos_as_xyz
  1  'x, y, z'
loop_
 _atom_type_symbol
 _atom_type_oxidation_number
  In3+  3.0
  Ag+  1.0
  Sn2+  2.0
  Bi3+  3.0
  Te2-  -2.0
  Pb2+  2.0
loop_
 _atom_site_type_symbol
 _atom_site_label
 _atom_site_symmetry_multiplicity
 _atom_site_fract_x
 _atom_site_fract_y
 _atom_site_fract_z
 _atom_site_occupancy
  In3+  In0  1  0.85003036  0.32764102  0.82874439  1
  In3+  In1  1  0.66987935  0.50436406  0.81846193  1
  In3+  In2  1  0.50441380  0.49415944  0.33989133  1
  In3+  In3  1  0.50494897  0.33072467  0.50979975  1
  In3+  In4  1  0.50282618  0.66846818  0.18197539  1
  In3+  In5  1  0.65296887  -0.00001940  0.34422966  1
  In3+  In6  1  0.68624338  0.34692544  -0.00305473  1
  In3+  In7  1  0.33198859  0.31859177  0.33749142  1
  In3+  In8  1  0.66250948  -0.01532793  0.67021809  1
  In3+  In9  1  0.65556826  0.16474590  0.50461214  1
  In3+  In10  1  0.16461744  0.14866375  0.33038001  1
  In3+  In11  1  0.16529814  -0.00579396  0.15271595  1
  In3+  In12  1  0.32531351  0.66700395  0.32955560  1
  In3+  In13  1  0.34395769  -0.00131154  -0.01339665  1
  In3+  In14  1  0.49800307  0.17417076  0.02278391  1
  In3+  In15  1  -0.00268445  0.00694745  -0.00828248  1
  In3+  In16  1  -0.00286238  0.50523163  0.84427486  1
  In3+  In17  1  0.14930864  0.84607720  -0.00452463  1
  In3+  In18  1  0.14713740  0.49583791  -0.01478251  1
  In3+  In19  1  -0.00393879  0.68099248  0.32422317  1
  In3+  In20  1  0.84156924  0.82860130  0.68135265  1
  In3+  In21  1  0.83117702  0.67292935  0.51027139  1
  Ag+  Ag22  1  0.16975989  0.84696418  0.36078102  1
  Ag+  Ag23  1  0.30882449  0.83218260  0.18451280  1
  Ag+  Ag24  1  -0.00643019  0.85396885  0.85619341  1
  Ag+  Ag25  1  0.02364492  0.65525714  0.66300274  1
  Ag+  Ag26  1  0.31257368  0.14407874  0.49692890  1
  Ag+  Ag27  1  0.14121020  0.30948626  0.80867160  1
  Ag+  Ag28  1  0.80832554  0.81458792  0.32886079  1
  Ag+  Ag29  1  0.31068335  0.29952014  0.69369271  1
  Ag+  Ag30  1  0.69023585  0.48396667  0.48819335  1
  Ag+  Ag31  1  0.85138043  0.66707338  0.19109592  1
  Ag+  Ag32  1  0.02402667  0.16920996  0.13846802  1
  Ag+  Ag33  1  0.16592869  0.01700803  0.82826818  1
  Ag+  Ag34  1  0.67131161  0.68417483  0.64856454  1
  Ag+  Ag35  1  0.48516849  -0.02857102  0.50896408  1
  Ag+  Ag36  1  0.48003017  0.85203751  0.63419827  1
  Ag+  Ag37  1  0.01049228  0.66608940  0.02209512  1
  Ag+  Ag38  1  0.34002598  0.19257492  0.86072321  1
  Ag+  Ag39  1  0.67036579  0.52707465  0.19291262  1
  Ag+  Ag40  1  0.14311079  0.50551972  0.68825462  1
  Ag+  Ag41  1  0.52165926  0.14848255  0.34380023  1
  Ag+  Ag42  1  0.01513173  0.30978253  0.00213055  1
  Sn2+  Sn43  1  0.65560484  0.16769462  0.82634755  1
  Sn2+  Sn44  1  0.33393894  0.00564719  0.66858255  1
  Sn2+  Sn45  1  0.83881731  0.82406006  0.01083146  1
  Sn2+  Sn46  1  0.67541617  0.83132721  0.50206711  1
  Sn2+  Sn47  1  0.83304183  0.34280440  0.16943912  1
  Sn2+  Sn48  1  0.15891647  0.66544010  0.49812640  1
  Sn2+  Sn49  1  0.00191662  0.33849877  0.32251417  1
  Sn2+  Sn50  1  0.00428530  -0.01538162  0.67091823  1
  Sn2+  Sn51  1  0.83588545  0.16014612  0.33144680  1
  Sn2+  Sn52  1  0.32588351  0.67639514  0.00359577  1
  Sn2+  Sn53  1  -0.00700949  0.48860611  0.16835251  1
  Sn2+  Sn54  1  0.66888587  0.66722106  -0.00240878  1
  Sn2+  Sn55  1  0.01549939  0.17121436  0.82606156  1
  Sn2+  Sn56  1  0.66149815  0.33971612  0.66840623  1
  Sn2+  Sn57  1  0.83247868  0.50914143  0.32824211  1
  Sn2+  Sn58  1  0.66640996  0.00153517  -0.00139928  1
  Sn2+  Sn59  1  0.84484949  0.66234650  0.83183469  1
  Sn2+  Sn60  1  0.48517853  0.00365952  0.82297370  1
  Sn2+  Sn61  1  0.50740939  0.66343532  0.50635198  1
  Sn2+  Sn62  1  0.48791922  0.83376252  0.32966393  1
  Sn2+  Sn63  1  -0.00062514  0.16961410  0.49631657  1
  Sn2+  Sn64  1  0.33782760  0.66112407  0.66235226  1
  Bi3+  Bi65  1  0.16717772  0.50456523  0.33403805  1
  Bi3+  Bi66  1  0.49891272  0.50610114  0.66601881  1
  Bi3+  Bi67  1  0.33858450  0.50157707  0.82918382  1
  Bi3+  Bi68  1  0.16845281  0.16851846  0.66695915  1
  Bi3+  Bi69  1  0.50280675  0.83237554  -0.00323462  1
  Bi3+  Bi70  1  0.33421256  0.50508611  0.49964098  1
  Bi3+  Bi71  1  0.50235802  0.50007806  0.00214852  1
  Bi3+  Bi72  1  0.83092608  0.50634321  0.00385603  1
  Bi3+  Bi73  1  0.00073118  0.00265262  0.33345493  1
  Bi3+  Bi74  1  0.33297833  -0.00423223  0.33342503  1
  Bi3+  Bi75  1  0.83419191  -0.00273240  0.49614027  1
  Bi3+  Bi76  1  0.66694257  0.83399645  0.16421956  1
  Bi3+  Bi77  1  0.16524992  0.66135583  0.83244846  1
  Bi3+  Bi78  1  0.66655146  0.16535703  0.16603099  1
  Bi3+  Bi79  1  0.33244903  0.83085513  0.83654469  1
  Bi3+  Bi80  1  0.16380050  0.33685774  0.16941484  1
  Bi3+  Bi81  1  0.49932324  0.32608670  0.83013290  1
  Bi3+  Bi82  1  -0.00254448  0.83109328  0.49887282  1
  Bi3+  Bi83  1  0.50055828  0.33908242  0.16331804  1
  Bi3+  Bi84  1  0.50644486  0.66968237  0.83237221  1
  Bi3+  Bi85  1  -0.00117903  0.50259816  0.49779043  1
  Te2-  Te86  1  0.16694869  0.17203198  0.17295213  1
  Te2-  Te87  1  0.16469284  0.16859606  0.50012003  1
  Te2-  Te88  1  0.17888292  0.16888186  0.83108518  1
  Te2-  Te89  1  0.16563631  0.49959691  0.17099355  1
  Te2-  Te90  1  0.16651670  0.50380951  0.49618465  1
  Te2-  Te91  1  0.17311829  0.49639037  0.83236336  1
  Te2-  Te92  1  0.16529016  0.83792983  0.15026830  1
  Te2-  Te93  1  0.16289804  0.82945483  0.50802998  1
  Te2-  Te94  1  0.16074380  0.82376078  0.84290598  1
  Te2-  Te95  1  0.50164086  0.16951165  0.18080678  1
  Te2-  Te96  1  0.50632283  0.17926224  0.48754948  1
  Te2-  Te97  1  0.48524435  0.16357344  0.82646852  1
  Te2-  Te98  1  0.51329195  0.50446895  0.16367056  1
  Te2-  Te99  1  0.49718636  0.50229367  0.50032778  1
  Te2-  Te100  1  0.50511522  0.49916072  0.83550071  1
  Te2-  Te101  1  0.50239848  0.82912477  0.16041209  1
  Te2-  Te102  1  0.50941980  0.82731367  0.49324442  1
  Te2-  Te103  1  0.50025295  0.83456215  0.83480849  1
  Te2-  Te104  1  0.82751326  0.16884170  0.16975756  1
  Te2-  Te105  1  0.83303170  0.16320438  0.49591077  1
  Te2-  Te106  1  0.83195340  0.17358373  0.83414726  1
  Te2-  Te107  1  0.82221458  0.51274621  0.16763518  1
  Te2-  Te108  1  0.83544853  0.50416705  0.49680489  1
  Te2-  Te109  1  0.83120202  0.48840287  0.83803469  1
  Te2-  Te110  1  0.82979800  0.82175916  0.17568818  1
  Te2-  Te111  1  0.83598525  0.83201393  0.48061532  1
  Te2-  Te112  1  0.84623059  0.83356237  0.83410931  1
  Te2-  Te113  1  0.15900866  0.00032241  -0.00384632  1
  Te2-  Te114  1  0.16618768  -0.00544039  0.33366441  1
  Te2-  Te115  1  0.16411487  0.00161806  0.67671193  1
  Te2-  Te116  1  0.16043140  0.34272344  0.00618219  1
  Te2-  Te117  1  0.17067614  0.34072498  0.33132560  1
  Te2-  Te118  1  0.16996071  0.33485268  0.66677891  1
  Te2-  Te119  1  0.15859752  0.65156455  -0.00498247  1
  Te2-  Te120  1  0.16601970  0.66698524  0.33378845  1
  Te2-  Te121  1  0.17334278  0.65382618  0.66846556  1
  Te2-  Te122  1  0.49783015  -0.00253058  -0.00429634  1
  Te2-  Te123  1  0.49695113  0.00139824  0.33934106  1
  Te2-  Te124  1  0.50767693  -0.00529583  0.65610059  1
  Te2-  Te125  1  0.49678523  0.33310437  -0.00205436  1
  Te2-  Te126  1  0.49326143  0.34196620  0.32309816  1
  Te2-  Te127  1  0.49884282  0.33891405  0.66719755  1
  Te2-  Te128  1  0.49927656  0.66660561  -0.00573285  1
  Te2-  Te129  1  0.49764581  0.66602380  0.33392027  1
  Te2-  Te130  1  0.50795399  0.66839928  0.67141979  1
  Te2-  Te131  1  0.84179596  -0.00411992  -0.00035018  1
  Te2-  Te132  1  0.84041905  -0.00178077  0.33374383  1
  Te2-  Te133  1  0.82991453  -0.00965767  0.66002508  1
  Te2-  Te134  1  0.83738551  0.33990357  0.00066867  1
  Te2-  Te135  1  0.83636851  0.33590949  0.32781458  1
  Te2-  Te136  1  0.83118050  0.33357957  0.67302803  1
  Te2-  Te137  1  0.83286429  0.66608830  -0.00901904  1
  Te2-  Te138  1  0.83890220  0.66936106  0.33779661  1
  Te2-  Te139  1  0.82136843  0.67456834  0.66542282  1
  Te2-  Te140  1  -0.00140662  0.16218443  -0.00678143  1
  Te2-  Te141  1  0.00491107  0.16662437  0.33680387  1
  Te2-  Te142  1  0.00282954  0.16414170  0.66852970  1
  Te2-  Te143  1  -0.00625035  0.51370157  0.00217138  1
  Te2-  Te144  1  0.00175355  0.50525997  0.33345249  1
  Te2-  Te145  1  -0.00063328  0.50428414  0.66075928  1
  Te2-  Te146  1  -0.00134818  0.81687361  -0.00140125  1
  Te2-  Te147  1  0.01781526  0.83431866  0.33430270  1
  Te2-  Te148  1  -0.00437398  0.82615178  0.66137977  1
  Te2-  Te149  1  0.33742752  0.15574293  0.00367311  1
  Te2-  Te150  1  0.32278056  0.16295033  0.34513399  1
  Te2-  Te151  1  0.32987717  0.16195976  0.64790208  1
  Te2-  Te152  1  0.34023316  0.50741831  -0.00183483  1
  Te2-  Te153  1  0.33584090  0.51343013  0.33224617  1
  Te2-  Te154  1  0.33798157  0.49966869  0.66471654  1
  Te2-  Te155  1  0.33773615  0.83798671  -0.00260423  1
  Te2-  Te156  1  0.32164992  0.83241824  0.33202953  1
  Te2-  Te157  1  0.33825233  0.83516298  0.67339205  1
  Te2-  Te158  1  0.65802180  0.15853911  -0.00097616  1
  Te2-  Te159  1  0.66842609  0.16151464  0.33205792  1
  Te2-  Te160  1  0.66490028  0.17218517  0.65910982  1
  Te2-  Te161  1  0.66535628  0.49874511  -0.00285749  1
  Te2-  Te162  1  0.66149651  0.50211755  0.33855633  1
  Te2-  Te163  1  0.66274847  0.49934130  0.66307047  1
  Te2-  Te164  1  0.66902715  0.83768297  -0.00176025  1
  Te2-  Te165  1  0.66139627  0.84377125  0.32802443  1
  Te2-  Te166  1  0.67409790  0.83147538  0.66375101  1
  Te2-  Te167  1  0.00991656  0.01527085  0.16846370  1
  Te2-  Te168  1  -0.00128857  -0.00166431  0.50039515  1
  Te2-  Te169  1  0.01004858  -0.00024745  0.83652456  1
  Te2-  Te170  1  0.00086918  0.32386695  0.15707056  1
  Te2-  Te171  1  -0.00046811  0.33657783  0.49721701  1
  Te2-  Te172  1  0.00312082  0.33950718  0.84754611  1
  Te2-  Te173  1  -0.00280684  0.66372936  0.17073172  1
  Te2-  Te174  1  -0.00805601  0.66696035  0.51103629  1
  Te2-  Te175  1  0.00305341  0.65392337  0.81447702  1
  Te2-  Te176  1  0.32282681  -0.01107233  0.17099132  1
  Te2-  Te177  1  0.33986924  -0.00139306  0.49760987  1
  Te2-  Te178  1  0.31796638  -0.00785856  0.83456885  1
  Te2-  Te179  1  0.33469189  0.33471126  0.17117501  1
  Te2-  Te180  1  0.34838328  0.34455431  0.48978513  1
  Te2-  Te181  1  0.33758676  0.33795169  0.83354002  1
  Te2-  Te182  1  0.33780986  0.68042909  0.17007604  1
  Te2-  Te183  1  0.33427250  0.66654472  0.49451490  1
  Te2-  Te184  1  0.33616679  0.66626987  0.83438200  1
  Te2-  Te185  1  0.66539513  0.00037568  0.16671629  1
  Te2-  Te186  1  0.67203372  0.00594803  0.49754843  1
  Te2-  Te187  1  0.66516524  0.00412959  0.82350180  1
  Te2-  Te188  1  0.66422083  0.32759282  0.15573968  1
  Te2-  Te189  1  0.66153003  0.34103692  0.49692499  1
  Te2-  Te190  1  0.65967878  0.32778790  0.83865568  1
  Te2-  Te191  1  0.65945971  0.67222029  0.16551326  1
  Te2-  Te192  1  0.67463693  0.66433343  0.50274860  1
  Te2-  Te193  1  0.66928353  0.66068074  0.83304286  1
  Pb2+  Pb194  1  0.16726977  0.17074185  -0.00255004  1
  Pb2+  Pb195  1  -0.00299335  0.84106845  0.16697575  1
  Pb2+  Pb196  1  0.49562800  0.16343644  0.65721762  1
  Pb2+  Pb197  1  0.33332171  0.16039361  0.17657929  1
  Pb2+  Pb198  1  0.17025675  0.00090521  0.50771606  1
  Pb2+  Pb199  1  0.33982190  0.50809579  0.16514832  1
  Pb2+  Pb200  1  0.17691670  0.33534951  0.50083454  1
  Pb2+  Pb201  1  0.16776583  0.82548507  0.67613500  1
  Pb2+  Pb202  1  0.66526667  0.33197567  0.32718641  1
  Pb2+  Pb203  1  0.83240148  0.16159564  0.66476698  1
  Pb2+  Pb204  1  0.83321284  0.50609978  0.66730615  1
  Pb2+  Pb205  1  0.32700775  0.33638635  0.00128316  1
  Pb2+  Pb206  1  0.83049422  0.33185456  0.49840361  1
  Pb2+  Pb207  1  0.00399727  0.33682189  0.67012708  1
  Pb2+  Pb208  1  0.16584601  0.66862432  0.16408245  1
  Pb2+  Pb209  1  0.83772129  0.00292622  0.83069349  1
  Pb2+  Pb210  1  0.49502410  -0.00337259  0.16778725  1
  Pb2+  Pb211  1  0.33801673  0.83182060  0.50184533  1
  Pb2+  Pb212  1  0.67439998  0.83011182  0.83018137  1
  Pb2+  Pb213  1  0.83517643  -0.00233136  0.16701580  1
  Pb2+  Pb214  1  0.66707042  0.67191405  0.33719723  1
  Pb2+  Pb215  1  0.82803336  0.16926216  0.00346981  1
