# generated using pymatgen
data_In22Ag21Sn22Bi21(Te54Pb11)2
_symmetry_space_group_name_H-M   'P 1'
_cell_length_a   19.13930470
_cell_length_b   19.15837374
_cell_length_c   19.12443892
_cell_angle_alpha   90.00972489
_cell_angle_beta   90.01151509
_cell_angle_gamma   90.00231249
_symmetry_Int_Tables_number   1
_chemical_formula_structural   In22Ag21Sn22Bi21(Te54Pb11)2
_chemical_formula_sum   'In22 Ag21 Sn22 Bi21 Te108 Pb22'
_cell_volume   7012.50986172
_cell_formula_units_Z   1
loop_
 _symmetry_equiv_pos_site_id
 _symmetry_equiv_pos_as_xyz
  1  'x, y, z'
loop_
 _atom_type_symbol
 _atom_type_oxidation_number
  In3+  3.0
  Ag+  1.0
  Sn2+  2.0
  Bi3+  3.0
  Te2-  -2.0
  Pb2+  2.0
loop_
 _atom_site_type_symbol
 _atom_site_label
 _atom_site_symmetry_multiplicity
 _atom_site_fract_x
 _atom_site_fract_y
 _atom_site_fract_z
 _atom_site_occupancy
  In3+  In0  1  0.51561447  0.16303464  0.68244286  1
  In3+  In1  1  0.48137072  0.50689905  0.01384923  1
  In3+  In2  1  0.65175083  0.50846953  0.50105681  1
  In3+  In3  1  0.83342258  0.36078397  0.51126195  1
  In3+  In4  1  0.83729657  0.84094365  0.67611107  1
  In3+  In5  1  0.67282009  0.18698882  0.15651667  1
  In3+  In6  1  0.00233766  0.15012322  0.48438367  1
  In3+  In7  1  0.32120534  0.16182181  0.16824354  1
  In3+  In8  1  0.00923360  0.83814032  0.14869632  1
  In3+  In9  1  0.32240903  0.68076314  0.00077442  1
  In3+  In10  1  0.48318513  0.82279953  0.66574339  1
  In3+  In11  1  -0.00477419  0.01242678  0.68119625  1
  In3+  In12  1  0.18083801  0.49913101  0.67065860  1
  In3+  In13  1  0.66266684  0.67393322  0.31509990  1
  In3+  In14  1  0.83468589  0.66630877  0.83634890  1
  In3+  In15  1  -0.00138670  0.50812685  0.49650821  1
  In3+  In16  1  0.83504493  0.83644609  -0.01621964  1
  In3+  In17  1  0.00236738  0.51049116  0.14761584  1
  In3+  In18  1  0.16069084  0.84418361  -0.01095446  1
  In3+  In19  1  0.00091951  0.83299972  0.49422893  1
  In3+  In20  1  0.32197091  0.50384783  0.48988611  1
  In3+  In21  1  0.67089421  0.67608521  0.66609665  1
  Ag+  Ag22  1  0.64199029  0.85652451  0.80623784  1
  Ag+  Ag23  1  0.83601383  0.31262217  0.83937427  1
  Ag+  Ag24  1  0.48150755  0.64699336  0.17018631  1
  Ag+  Ag25  1  0.18611599  0.52975903  0.02161243  1
  Ag+  Ag26  1  0.36031029  -0.02106843  0.00347533  1
  Ag+  Ag27  1  0.63643524  -0.03269254  0.70298744  1
  Ag+  Ag28  1  0.16312480  0.15132253  0.30744173  1
  Ag+  Ag29  1  0.69492809  0.14383971  0.83395089  1
  Ag+  Ag30  1  0.16427299  0.49931337  0.31693151  1
  Ag+  Ag31  1  -0.02686837  0.20177094  0.14559557  1
  Ag+  Ag32  1  0.01077664  0.02186369  0.01351748  1
  Ag+  Ag33  1  0.83572084  0.66874144  0.52319535  1
  Ag+  Ag34  1  0.01911679  0.68489300  0.00413198  1
  Ag+  Ag35  1  0.30692693  0.33897489  0.35816482  1
  Ag+  Ag36  1  0.15430564  0.85517928  0.33601381  1
  Ag+  Ag37  1  0.81653937  0.01571951  0.83291345  1
  Ag+  Ag38  1  0.48249348  0.52703414  0.66501580  1
  Ag+  Ag39  1  0.19626886  0.13909532  0.64579013  1
  Ag+  Ag40  1  0.30864754  0.67022686  0.63870051  1
  Ag+  Ag41  1  0.63782805  0.48511075  0.19852987  1
  Ag+  Ag42  1  0.52396897  -0.01792394  0.82010102  1
  Sn2+  Sn43  1  0.51188775  0.33011881  0.83180717  1
  Sn2+  Sn44  1  0.17115597  0.00164376  0.49644968  1
  Sn2+  Sn45  1  0.32834428  0.83161187  0.49578959  1
  Sn2+  Sn46  1  0.32560456  0.49764076  0.17326597  1
  Sn2+  Sn47  1  0.83843045  0.82972554  0.33982968  1
  Sn2+  Sn48  1  0.16704353  -0.00585300  0.16423643  1
  Sn2+  Sn49  1  0.00162468  0.83382363  0.82621735  1
  Sn2+  Sn50  1  0.33985459  0.50371412  0.82792999  1
  Sn2+  Sn51  1  0.00098747  0.16238052  0.83540214  1
  Sn2+  Sn52  1  0.16050926  0.33428008  0.83863329  1
  Sn2+  Sn53  1  -0.00076687  0.33777123  0.00123203  1
  Sn2+  Sn54  1  0.32620841  0.65959778  0.32982922  1
  Sn2+  Sn55  1  0.49594069  0.32629302  0.16830317  1
  Sn2+  Sn56  1  0.49708284  0.00128301  0.51140245  1
  Sn2+  Sn57  1  -0.00481822  0.66607968  0.67235041  1
  Sn2+  Sn58  1  0.49819881  -0.00296128  0.15913880  1
  Sn2+  Sn59  1  0.33410696  0.33895130  0.66448688  1
  Sn2+  Sn60  1  0.34002845  0.83677537  0.83108994  1
  Sn2+  Sn61  1  0.84149566  0.50267759  0.33302560  1
  Sn2+  Sn62  1  0.49040928  0.82972502  0.33576010  1
  Sn2+  Sn63  1  0.33540143  0.00064684  0.68288020  1
  Sn2+  Sn64  1  0.83017732  0.49890266  0.66825665  1
  Bi3+  Bi65  1  0.00045906  0.33286923  0.34111616  1
  Bi3+  Bi66  1  0.83277241  0.66536941  0.16404409  1
  Bi3+  Bi67  1  0.67043440  0.82852054  0.16248252  1
  Bi3+  Bi68  1  0.50415845  0.33181644  0.50088886  1
  Bi3+  Bi69  1  0.83464183  0.50205688  -0.00091911  1
  Bi3+  Bi70  1  0.16255805  0.33195337  0.50607195  1
  Bi3+  Bi71  1  0.16552875  0.00269168  0.83193123  1
  Bi3+  Bi72  1  0.32976955  0.16729667  0.83378660  1
  Bi3+  Bi73  1  0.66682618  0.33639584  -0.00569804  1
  Bi3+  Bi74  1  0.33166886  0.33296441  -0.00697511  1
  Bi3+  Bi75  1  0.83725744  0.16346800  0.66475327  1
  Bi3+  Bi76  1  0.66845953  -0.00166750  0.00470337  1
  Bi3+  Bi77  1  0.49672147  0.16565780  0.32923643  1
  Bi3+  Bi78  1  -0.00098749  0.33191918  0.67047026  1
  Bi3+  Bi79  1  0.67111587  0.66384518  -0.00280052  1
  Bi3+  Bi80  1  0.66856859  0.33323974  0.33260855  1
  Bi3+  Bi81  1  0.66530457  0.00008530  0.33482664  1
  Bi3+  Bi82  1  -0.00069245  0.50034982  0.82880371  1
  Bi3+  Bi83  1  0.66808871  0.33139887  0.66717547  1
  Bi3+  Bi84  1  0.66598902  0.49971894  0.82981692  1
  Bi3+  Bi85  1  0.16592303  0.16659508  -0.00537950  1
  Te2-  Te86  1  0.16679955  0.16190518  0.16092030  1
  Te2-  Te87  1  0.15812978  0.17114489  0.50733358  1
  Te2-  Te88  1  0.16660140  0.16736075  0.83061492  1
  Te2-  Te89  1  0.15834353  0.49870219  0.16227964  1
  Te2-  Te90  1  0.16926529  0.49542419  0.51253246  1
  Te2-  Te91  1  0.16407797  0.49570676  0.82836482  1
  Te2-  Te92  1  0.16201235  0.83789810  0.18424388  1
  Te2-  Te93  1  0.15974079  0.83446640  0.49089682  1
  Te2-  Te94  1  0.17130835  0.83470989  0.83502720  1
  Te2-  Te95  1  0.50965729  0.16592017  0.16808188  1
  Te2-  Te96  1  0.49730920  0.16896453  0.49257721  1
  Te2-  Te97  1  0.49187337  0.16455286  0.83221404  1
  Te2-  Te98  1  0.49582263  0.49990438  0.16801054  1
  Te2-  Te99  1  0.49843914  0.49548370  0.51415594  1
  Te2-  Te100  1  0.50464719  0.49619339  0.81542945  1
  Te2-  Te101  1  0.50466519  0.83785914  0.16842076  1
  Te2-  Te102  1  0.49819230  0.83486604  0.50729183  1
  Te2-  Te103  1  0.49843624  0.83566391  0.82438625  1
  Te2-  Te104  1  0.83386295  0.16438893  0.16672591  1
  Te2-  Te105  1  0.84211316  0.16088325  0.50280327  1
  Te2-  Te106  1  0.84099089  0.16513379  0.82961771  1
  Te2-  Te107  1  0.84158332  0.50374596  0.16364217  1
  Te2-  Te108  1  0.83938158  0.51350709  0.49882557  1
  Te2-  Te109  1  0.83287892  0.50659909  0.83606772  1
  Te2-  Te110  1  0.83610049  0.82627496  0.17527551  1
  Te2-  Te111  1  0.84167323  0.82105743  0.49721090  1
  Te2-  Te112  1  0.83688182  0.82565126  0.83069369  1
  Te2-  Te113  1  0.15706051  -0.00247930  -0.00232352  1
  Te2-  Te114  1  0.17016095  0.00583746  0.33670638  1
  Te2-  Te115  1  0.16079614  -0.00060075  0.66851392  1
  Te2-  Te116  1  0.16662312  0.32919739  0.00033552  1
  Te2-  Te117  1  0.16183566  0.34229453  0.34357909  1
  Te2-  Te118  1  0.16438944  0.34161447  0.66852400  1
  Te2-  Te119  1  0.16687923  0.67388632  0.00207512  1
  Te2-  Te120  1  0.16934963  0.64931869  0.33591805  1
  Te2-  Te121  1  0.16399670  0.66303648  0.66668308  1
  Te2-  Te122  1  0.50581472  -0.00126767  -0.00693720  1
  Te2-  Te123  1  0.50192867  0.00069577  0.33615018  1
  Te2-  Te124  1  0.49917352  0.00388666  0.67148808  1
  Te2-  Te125  1  0.50160113  0.34507967  -0.00173537  1
  Te2-  Te126  1  0.50614434  0.33090168  0.33621002  1
  Te2-  Te127  1  0.50496392  0.32204864  0.66243621  1
  Te2-  Te128  1  0.50569243  0.65996384  0.01151553  1
  Te2-  Te129  1  0.50227990  0.66776630  0.32280871  1
  Te2-  Te130  1  0.51459061  0.67183572  0.66595910  1
  Te2-  Te131  1  0.83328323  -0.00911273  -0.01465982  1
  Te2-  Te132  1  0.83055246  -0.00285513  0.33515048  1
  Te2-  Te133  1  0.84101673  -0.00218504  0.68121495  1
  Te2-  Te134  1  0.82997169  0.33566072  -0.00903839  1
  Te2-  Te135  1  0.83214607  0.33516057  0.33705768  1
  Te2-  Te136  1  0.83330556  0.32730425  0.67192135  1
  Te2-  Te137  1  0.83483943  0.66863554  -0.00248842  1
  Te2-  Te138  1  0.82431025  0.66412258  0.32724862  1
  Te2-  Te139  1  0.83222274  0.66839886  0.67207525  1
  Te2-  Te140  1  0.00258669  0.16885161  0.00471545  1
  Te2-  Te141  1  0.01326835  0.16839108  0.33184514  1
  Te2-  Te142  1  -0.00051660  0.16780733  0.66901311  1
  Te2-  Te143  1  -0.00027468  0.49840258  -0.00752582  1
  Te2-  Te144  1  0.00873314  0.49578095  0.34218038  1
  Te2-  Te145  1  -0.00646385  0.49649029  0.66666324  1
  Te2-  Te146  1  0.00270190  0.83010436  -0.00371080  1
  Te2-  Te147  1  0.00788714  0.82989559  0.34032983  1
  Te2-  Te148  1  -0.00718599  0.83164730  0.66134887  1
  Te2-  Te149  1  0.32893187  0.16956485  0.00213622  1
  Te2-  Te150  1  0.33188767  0.17386104  0.32335884  1
  Te2-  Te151  1  0.33719753  0.16538999  0.67059740  1
  Te2-  Te152  1  0.32766506  0.49552128  -0.00225608  1
  Te2-  Te153  1  0.32440750  0.48846629  0.33486427  1
  Te2-  Te154  1  0.33411277  0.51495870  0.66936417  1
  Te2-  Te155  1  0.32893506  0.83483602  0.00119760  1
  Te2-  Te156  1  0.33131162  0.82996020  0.33760078  1
  Te2-  Te157  1  0.33273102  0.81954351  0.66373786  1
  Te2-  Te158  1  0.66630458  0.17009790  -0.00889265  1
  Te2-  Te159  1  0.66537950  0.16783699  0.33230923  1
  Te2-  Te160  1  0.67048640  0.16607831  0.67930957  1
  Te2-  Te161  1  0.67060150  0.49933573  -0.00505832  1
  Te2-  Te162  1  0.66749384  0.49731501  0.34229363  1
  Te2-  Te163  1  0.67077364  0.49301591  0.66388844  1
  Te2-  Te164  1  0.67414247  0.82966828  -0.00055083  1
  Te2-  Te165  1  0.66341384  0.83335719  0.33008535  1
  Te2-  Te166  1  0.68355361  0.83175662  0.66675231  1
  Te2-  Te167  1  0.00040432  -0.00930286  0.15721174  1
  Te2-  Te168  1  0.00221318  -0.00390184  0.50130709  1
  Te2-  Te169  1  0.00390475  -0.00496488  0.83238243  1
  Te2-  Te170  1  0.00143118  0.34196086  0.17412181  1
  Te2-  Te171  1  -0.00396671  0.33968964  0.50662773  1
  Te2-  Te172  1  -0.00973611  0.33519771  0.83220455  1
  Te2-  Te173  1  -0.00216117  0.66821082  0.15548588  1
  Te2-  Te174  1  -0.00923139  0.66279366  0.50287266  1
  Te2-  Te175  1  -0.00375773  0.66392350  0.83847669  1
  Te2-  Te176  1  0.33723211  0.00505753  0.15337545  1
  Te2-  Te177  1  0.33228004  -0.00318939  0.50789445  1
  Te2-  Te178  1  0.32723628  0.00190425  0.84279340  1
  Te2-  Te179  1  0.33772171  0.33316520  0.15585144  1
  Te2-  Te180  1  0.33562457  0.33860507  0.50297022  1
  Te2-  Te181  1  0.33603055  0.33290336  0.83046161  1
  Te2-  Te182  1  0.33586633  0.66403713  0.16117660  1
  Te2-  Te183  1  0.33821183  0.65939062  0.49502628  1
  Te2-  Te184  1  0.33738987  0.66850272  0.84711329  1
  Te2-  Te185  1  0.66639039  -0.00805735  0.16795993  1
  Te2-  Te186  1  0.66558790  0.00014846  0.49774026  1
  Te2-  Te187  1  0.66869207  -0.00005102  0.84400250  1
  Te2-  Te188  1  0.66599630  0.34473141  0.16551880  1
  Te2-  Te189  1  0.67039186  0.33459781  0.49944716  1
  Te2-  Te190  1  0.67480805  0.33656167  0.83185092  1
  Te2-  Te191  1  0.66797551  0.66397939  0.16222299  1
  Te2-  Te192  1  0.67896543  0.66041948  0.50867939  1
  Te2-  Te193  1  0.67325802  0.66486466  0.83270735  1
  Pb2+  Pb194  1  0.50879055  0.66770821  0.49503298  1
  Pb2+  Pb195  1  0.83412547  -0.00768286  0.15773741  1
  Pb2+  Pb196  1  0.66711252  0.16581109  0.50796272  1
  Pb2+  Pb197  1  0.16778114  0.66218406  0.83381547  1
  Pb2+  Pb198  1  0.83545372  0.33656639  0.16177520  1
  Pb2+  Pb199  1  0.32776578  0.16621598  0.49641555  1
  Pb2+  Pb200  1  0.16293453  0.83403276  0.66210375  1
  Pb2+  Pb201  1  0.49404154  0.49968021  0.33959473  1
  Pb2+  Pb202  1  0.66954140  0.83215032  0.49877075  1
  Pb2+  Pb203  1  0.50370980  0.83129411  -0.00090150  1
  Pb2+  Pb204  1  0.17048081  0.32982016  0.17570063  1
  Pb2+  Pb205  1  0.83982357  0.16713305  0.33486679  1
  Pb2+  Pb206  1  0.33404883  0.83458055  0.16999124  1
  Pb2+  Pb207  1  -0.00306642  0.66454971  0.33001409  1
  Pb2+  Pb208  1  0.00085073  -0.00334501  0.32556641  1
  Pb2+  Pb209  1  0.16792771  0.67001985  0.17185302  1
  Pb2+  Pb210  1  0.83318920  0.16131664  -0.00187411  1
  Pb2+  Pb211  1  0.83417120  -0.00826781  0.50939335  1
  Pb2+  Pb212  1  0.50369148  0.66060962  0.83952702  1
  Pb2+  Pb213  1  0.16132895  0.66703048  0.49890097  1
  Pb2+  Pb214  1  0.33484082  0.00285834  0.33028846  1
  Pb2+  Pb215  1  0.49845466  0.17108717  -0.00132055  1
