# generated using pymatgen
data_In22Ag21Sn22Bi21(Te54Pb11)2
_symmetry_space_group_name_H-M   'P 1'
_cell_length_a   19.12824926
_cell_length_b   19.11661435
_cell_length_c   19.12793256
_cell_angle_alpha   90.00457088
_cell_angle_beta   90.00156768
_cell_angle_gamma   90.00629446
_symmetry_Int_Tables_number   1
_chemical_formula_structural   In22Ag21Sn22Bi21(Te54Pb11)2
_chemical_formula_sum   'In22 Ag21 Sn22 Bi21 Te108 Pb22'
_cell_volume   6994.46061696
_cell_formula_units_Z   1
loop_
 _symmetry_equiv_pos_site_id
 _symmetry_equiv_pos_as_xyz
  1  'x, y, z'
loop_
 _atom_type_symbol
 _atom_type_oxidation_number
  In3+  3.0
  Ag+  1.0
  Sn2+  2.0
  Bi3+  3.0
  Te2-  -2.0
  Pb2+  2.0
loop_
 _atom_site_type_symbol
 _atom_site_label
 _atom_site_symmetry_multiplicity
 _atom_site_fract_x
 _atom_site_fract_y
 _atom_site_fract_z
 _atom_site_occupancy
  In3+  In0  1  0.51807183  0.83225088  0.68013805  1
  In3+  In1  1  0.14731726  0.85752123  0.33518805  1
  In3+  In2  1  0.49303243  0.50011012  -0.01477054  1
  In3+  In3  1  0.31832206  0.84894123  0.17348973  1
  In3+  In4  1  0.33013609  0.35734497  0.67059391  1
  In3+  In5  1  0.16114851  0.65714000  0.82616187  1
  In3+  In6  1  0.32184918  -0.00814564  0.66583474  1
  In3+  In7  1  0.17473217  0.19014019  0.67952336  1
  In3+  In8  1  0.00620949  0.67073169  0.00770251  1
  In3+  In9  1  0.68577556  0.67476035  -0.00314163  1
  In3+  In10  1  0.17066112  0.48993368  0.00149538  1
  In3+  In11  1  0.51162951  0.66748752  0.49976318  1
  In3+  In12  1  0.16449567  0.01585970  0.49878865  1
  In3+  In13  1  0.32952621  0.49933121  0.49177999  1
  In3+  In14  1  0.31724221  0.66662109  0.67001986  1
  In3+  In15  1  0.81899048  -0.01651631  0.49771353  1
  In3+  In16  1  0.16482321  0.16793210  0.33340365  1
  In3+  In17  1  0.82178626  0.30943629  0.83009439  1
  In3+  In18  1  0.86068780  0.52626492  0.66738690  1
  In3+  In19  1  -0.00483762  0.33982260  -0.00271676  1
  In3+  In20  1  0.32898574  0.50564758  0.17866880  1
  In3+  In21  1  0.15082424  0.16754718  -0.00486505  1
  Ag+  Ag22  1  0.51700277  0.35873647  0.80872091  1
  Ag+  Ag23  1  0.16797869  0.35233186  0.83615190  1
  Ag+  Ag24  1  0.18189747  0.49119966  0.35379164  1
  Ag+  Ag25  1  0.68996132  -0.00652154  0.31525476  1
  Ag+  Ag26  1  0.69272267  0.84988832  0.80282815  1
  Ag+  Ag27  1  0.84180058  0.14901073  0.02811043  1
  Ag+  Ag28  1  0.84519538  0.84059638  0.33476974  1
  Ag+  Ag29  1  0.32273601  -0.00237532  0.35961422  1
  Ag+  Ag30  1  0.16886998  0.35354673  0.47732345  1
  Ag+  Ag31  1  0.00951766  0.64620251  0.65624317  1
  Ag+  Ag32  1  0.15382580  0.00252097  0.14996829  1
  Ag+  Ag33  1  0.16788344  0.49171597  0.65311933  1
  Ag+  Ag34  1  0.48088468  0.47611795  0.33695315  1
  Ag+  Ag35  1  0.30849907  0.47719335  0.83488913  1
  Ag+  Ag36  1  0.68230252  0.83542327  0.50995122  1
  Ag+  Ag37  1  0.82242105  -0.02765035  0.86813655  1
  Ag+  Ag38  1  -0.02356893  0.83584243  0.14830272  1
  Ag+  Ag39  1  0.84834457  0.83898299  0.68425121  1
  Ag+  Ag40  1  0.02601704  0.47248861  0.16855097  1
  Ag+  Ag41  1  -0.01364261  -0.00173072  0.31875476  1
  Ag+  Ag42  1  0.83802540  0.85805300  -0.01985974  1
  Sn2+  Sn43  1  0.32755327  0.16875847  0.49853206  1
  Sn2+  Sn44  1  0.00298612  0.14687722  0.16626690  1
  Sn2+  Sn45  1  0.51127750  -0.00005621  0.82921324  1
  Sn2+  Sn46  1  -0.00641985  0.83800514  0.50047297  1
  Sn2+  Sn47  1  0.66050353  0.33169154  0.34002202  1
  Sn2+  Sn48  1  0.16208569  -0.00400432  0.83061701  1
  Sn2+  Sn49  1  0.49453741  0.00024054  0.17451473  1
  Sn2+  Sn50  1  -0.00154868  0.16237547  0.49851029  1
  Sn2+  Sn51  1  0.50059748  0.34716098  0.15577600  1
  Sn2+  Sn52  1  0.33880202  0.82975200  0.49671653  1
  Sn2+  Sn53  1  0.16030203  0.67155687  0.17216633  1
  Sn2+  Sn54  1  0.66985035  0.00113832  0.66684036  1
  Sn2+  Sn55  1  0.51111551  0.82814158  0.00005051  1
  Sn2+  Sn56  1  0.00051477  0.83817690  0.83260650  1
  Sn2+  Sn57  1  0.49886960  -0.00703768  0.49487109  1
  Sn2+  Sn58  1  0.83753844  0.67521785  0.17134910  1
  Sn2+  Sn59  1  -0.00314117  0.16913027  0.83801418  1
  Sn2+  Sn60  1  0.15901424  0.83296575  0.00705664  1
  Sn2+  Sn61  1  0.66215718  0.14710980  0.49655955  1
  Sn2+  Sn62  1  0.33256716  0.17325084  0.83285141  1
  Sn2+  Sn63  1  0.83864493  0.34438759  0.16095284  1
  Sn2+  Sn64  1  0.84021633  -0.00697736  0.17340714  1
  Bi3+  Bi65  1  0.49686651  0.66816200  0.16970270  1
  Bi3+  Bi66  1  0.33322259  0.00013423  -0.00438946  1
  Bi3+  Bi67  1  0.00086605  0.00132829  0.66527708  1
  Bi3+  Bi68  1  0.83784421  0.16438911  0.33508749  1
  Bi3+  Bi69  1  0.84157568  0.33273884  0.50195872  1
  Bi3+  Bi70  1  0.66895851  0.83421656  0.16805255  1
  Bi3+  Bi71  1  0.66809911  0.50547551  0.83361822  1
  Bi3+  Bi72  1  0.32696647  0.66753464  -0.00110228  1
  Bi3+  Bi73  1  0.33288645  0.33415762  -0.00413790  1
  Bi3+  Bi74  1  0.49856249  0.16485947  0.33449943  1
  Bi3+  Bi75  1  0.84043948  0.66779292  0.83552099  1
  Bi3+  Bi76  1  0.83485966  0.50172119  -0.00109912  1
  Bi3+  Bi77  1  0.33106454  0.16599645  0.16584044  1
  Bi3+  Bi78  1  0.83854113  0.16027060  0.66153902  1
  Bi3+  Bi79  1  0.32920762  0.83729854  0.83332204  1
  Bi3+  Bi80  1  0.66969464  0.33577257  0.00199179  1
  Bi3+  Bi81  1  0.16837242  0.66611345  0.49609770  1
  Bi3+  Bi82  1  0.66817176  0.15821138  0.83186893  1
  Bi3+  Bi83  1  0.66547645  0.49932412  0.50072370  1
  Bi3+  Bi84  1  0.83551924  0.49812516  0.32956793  1
  Bi3+  Bi85  1  0.49997889  0.83666399  0.33115332  1
  Te2-  Te86  1  0.16911784  0.15313170  0.17450859  1
  Te2-  Te87  1  0.16961485  0.16805664  0.49504566  1
  Te2-  Te88  1  0.16476750  0.15625482  0.83003705  1
  Te2-  Te89  1  0.17176175  0.49897943  0.15495734  1
  Te2-  Te90  1  0.17414449  0.49930140  0.50492198  1
  Te2-  Te91  1  0.16307521  0.50442026  0.84827379  1
  Te2-  Te92  1  0.16772172  0.84077856  0.17903735  1
  Te2-  Te93  1  0.17190871  0.82459544  0.48760843  1
  Te2-  Te94  1  0.16628943  0.83639483  0.83551183  1
  Te2-  Te95  1  0.49628322  0.17007026  0.17009814  1
  Te2-  Te96  1  0.49578876  0.16810267  0.49736618  1
  Te2-  Te97  1  0.50508791  0.15976391  0.83312855  1
  Te2-  Te98  1  0.48867319  0.50556541  0.18412994  1
  Te2-  Te99  1  0.49971287  0.50409466  0.48810299  1
  Te2-  Te100  1  0.50556968  0.50292984  0.82791133  1
  Te2-  Te101  1  0.50048524  0.83111006  0.16403250  1
  Te2-  Te102  1  0.49569911  0.82510020  0.49503294  1
  Te2-  Te103  1  0.49573000  0.83437272  0.83384962  1
  Te2-  Te104  1  0.83823231  0.17000208  0.17473525  1
  Te2-  Te105  1  0.83101129  0.17073512  0.49879469  1
  Te2-  Te106  1  0.83022615  0.15634516  0.82125564  1
  Te2-  Te107  1  0.83050883  0.50568712  0.16343906  1
  Te2-  Te108  1  0.83184779  0.49420453  0.50446969  1
  Te2-  Te109  1  0.82969644  0.50368067  0.82974871  1
  Te2-  Te110  1  0.83296807  0.83452733  0.18488960  1
  Te2-  Te111  1  0.82520464  0.83460889  0.48070895  1
  Te2-  Te112  1  0.83440204  0.82915202  0.83413075  1
  Te2-  Te113  1  0.17111287  0.00227659  0.00141319  1
  Te2-  Te114  1  0.17517727  0.00481810  0.34532617  1
  Te2-  Te115  1  0.16658073  -0.00199418  0.65959862  1
  Te2-  Te116  1  0.17030352  0.33024121  -0.00957998  1
  Te2-  Te117  1  0.16630811  0.33903973  0.33139575  1
  Te2-  Te118  1  0.17565799  0.34010267  0.68323997  1
  Te2-  Te119  1  0.16500384  0.67173739  -0.00039165  1
  Te2-  Te120  1  0.16780033  0.64392986  0.33293931  1
  Te2-  Te121  1  0.16015079  0.66278249  0.66906580  1
  Te2-  Te122  1  0.49635856  -0.00422379  0.00197514  1
  Te2-  Te123  1  0.49242412  0.00269113  0.33322221  1
  Te2-  Te124  1  0.50134300  -0.01236205  0.66438298  1
  Te2-  Te125  1  0.49962534  0.33639682  -0.00286473  1
  Te2-  Te126  1  0.49934887  0.33077325  0.33128326  1
  Te2-  Te127  1  0.48436685  0.33106926  0.66929602  1
  Te2-  Te128  1  0.49014812  0.66277471  0.00539309  1
  Te2-  Te129  1  0.49663833  0.67186059  0.33459882  1
  Te2-  Te130  1  0.49874147  0.67709806  0.66047757  1
  Te2-  Te131  1  0.83618608  0.00202843  0.01206295  1
  Te2-  Te132  1  0.83675376  0.00362169  0.34300976  1
  Te2-  Te133  1  0.83637322  -0.00376734  0.65275564  1
  Te2-  Te134  1  0.83544265  0.33951037  -0.00776274  1
  Te2-  Te135  1  0.83057903  0.33052220  0.33653197  1
  Te2-  Te136  1  0.83476005  0.32590998  0.66601380  1
  Te2-  Te137  1  0.84441015  0.66373912  0.00091721  1
  Te2-  Te138  1  0.83513768  0.66131420  0.33377807  1
  Te2-  Te139  1  0.84554554  0.68258218  0.67240389  1
  Te2-  Te140  1  -0.01121929  0.16953689  -0.00132728  1
  Te2-  Te141  1  0.00374889  0.15316449  0.33435069  1
  Te2-  Te142  1  0.00689289  0.16555003  0.66637473  1
  Te2-  Te143  1  -0.00223577  0.49899304  0.01612418  1
  Te2-  Te144  1  -0.00604071  0.49899627  0.31555484  1
  Te2-  Te145  1  0.01306987  0.49937467  0.66841524  1
  Te2-  Te146  1  -0.00704610  0.82745229  0.00161188  1
  Te2-  Te147  1  -0.00189695  0.84552820  0.34290395  1
  Te2-  Te148  1  -0.00665638  0.84126807  0.66193627  1
  Te2-  Te149  1  0.33600904  0.16788111  0.00208597  1
  Te2-  Te150  1  0.33274614  0.15459883  0.33124234  1
  Te2-  Te151  1  0.32412522  0.15280766  0.66516941  1
  Te2-  Te152  1  0.33056211  0.50071626  -0.01463718  1
  Te2-  Te153  1  0.33100934  0.49859640  0.33526014  1
  Te2-  Te154  1  0.31967811  0.50949679  0.68626368  1
  Te2-  Te155  1  0.33112109  0.83348536  0.00094847  1
  Te2-  Te156  1  0.33626724  0.84698872  0.32723386  1
  Te2-  Te157  1  0.32860819  0.83151686  0.66959899  1
  Te2-  Te158  1  0.68248550  0.17213658  -0.00548538  1
  Te2-  Te159  1  0.66457011  0.15792174  0.33685858  1
  Te2-  Te160  1  0.66731968  0.16560967  0.66699411  1
  Te2-  Te161  1  0.66814672  0.49979744  -0.00303416  1
  Te2-  Te162  1  0.67202070  0.50035039  0.33886433  1
  Te2-  Te163  1  0.65948820  0.50008662  0.66649341  1
  Te2-  Te164  1  0.68022253  0.82879419  0.00509805  1
  Te2-  Te165  1  0.65991034  0.84465906  0.32862449  1
  Te2-  Te166  1  0.66661483  0.83377386  0.65937124  1
  Te2-  Te167  1  0.00769444  -0.01038408  0.17192499  1
  Te2-  Te168  1  0.01045758  0.00123733  0.50146479  1
  Te2-  Te169  1  -0.00544538  -0.00041576  0.83010993  1
  Te2-  Te170  1  -0.00143310  0.32546127  0.15528285  1
  Te2-  Te171  1  0.00785387  0.33294904  0.50013614  1
  Te2-  Te172  1  0.01331201  0.33048640  0.84344077  1
  Te2-  Te173  1  0.00243275  0.68519166  0.16336055  1
  Te2-  Te174  1  0.00553219  0.66613583  0.50732107  1
  Te2-  Te175  1  0.00513533  0.67039047  0.83274843  1
  Te2-  Te176  1  0.32932109  0.00235700  0.15824742  1
  Te2-  Te177  1  0.33223064  -0.00290803  0.50898015  1
  Te2-  Te178  1  0.33600700  -0.00040502  0.83130182  1
  Te2-  Te179  1  0.33396928  0.33537630  0.16084205  1
  Te2-  Te180  1  0.31984394  0.34257930  0.51076186  1
  Te2-  Te181  1  0.32453055  0.32844996  0.83367811  1
  Te2-  Te182  1  0.33160091  0.66365277  0.16170314  1
  Te2-  Te183  1  0.33035376  0.65805941  0.50698039  1
  Te2-  Te184  1  0.32358911  0.67477600  0.83298607  1
  Te2-  Te185  1  0.66631056  -0.00164958  0.17030606  1
  Te2-  Te186  1  0.66375666  -0.01205833  0.49991283  1
  Te2-  Te187  1  0.67709870  -0.00552267  0.83361093  1
  Te2-  Te188  1  0.66767451  0.33299127  0.16456314  1
  Te2-  Te189  1  0.67009935  0.33365284  0.50044997  1
  Te2-  Te190  1  0.66167992  0.33339384  0.83824223  1
  Te2-  Te191  1  0.66227191  0.66814151  0.15809401  1
  Te2-  Te192  1  0.66614720  0.66545908  0.50109175  1
  Te2-  Te193  1  0.66872265  0.66934682  0.84107068  1
  Pb2+  Pb194  1  0.33030132  0.32356666  0.33625741  1
  Pb2+  Pb195  1  0.49436060  0.33619071  0.50220543  1
  Pb2+  Pb196  1  0.67515669  0.66635962  0.67128671  1
  Pb2+  Pb197  1  -0.00049581  0.33090086  0.32991316  1
  Pb2+  Pb198  1  0.32952264  0.67779414  0.33337907  1
  Pb2+  Pb199  1  0.66581284  -0.00259845  0.00217915  1
  Pb2+  Pb200  1  0.16571603  0.32389285  0.16129933  1
  Pb2+  Pb201  1  0.15912713  0.83007002  0.66083707  1
  Pb2+  Pb202  1  -0.00300405  0.50083181  0.84327978  1
  Pb2+  Pb203  1  0.50689530  0.16645068  0.00066045  1
  Pb2+  Pb204  1  0.65965703  0.49956556  0.16942400  1
  Pb2+  Pb205  1  0.66476505  0.33444311  0.66894822  1
  Pb2+  Pb206  1  0.66878129  0.16480122  0.16689571  1
  Pb2+  Pb207  1  0.00379037  0.67393559  0.33323072  1
  Pb2+  Pb208  1  0.49295292  0.15684188  0.66609049  1
  Pb2+  Pb209  1  0.00259244  0.49934402  0.48746263  1
  Pb2+  Pb210  1  0.48725019  0.50760815  0.65770435  1
  Pb2+  Pb211  1  0.00261898  -0.00184629  0.00047103  1
  Pb2+  Pb212  1  0.83780579  0.67022311  0.50314927  1
  Pb2+  Pb213  1  0.66656829  0.67706730  0.33054740  1
  Pb2+  Pb214  1  0.49440711  0.66794697  0.83379834  1
  Pb2+  Pb215  1  0.00205990  0.33446191  0.67272546  1
