# generated using pymatgen
data_In22Ag21Sn22Bi21(Te54Pb11)2
_symmetry_space_group_name_H-M   'P 1'
_cell_length_a   19.12202053
_cell_length_b   19.13432989
_cell_length_c   19.13466468
_cell_angle_alpha   90.00981932
_cell_angle_beta   89.99092691
_cell_angle_gamma   90.00388681
_symmetry_Int_Tables_number   1
_chemical_formula_structural   In22Ag21Sn22Bi21(Te54Pb11)2
_chemical_formula_sum   'In22 Ag21 Sn22 Bi21 Te108 Pb22'
_cell_volume   7001.12578714
_cell_formula_units_Z   1
loop_
 _symmetry_equiv_pos_site_id
 _symmetry_equiv_pos_as_xyz
  1  'x, y, z'
loop_
 _atom_type_symbol
 _atom_type_oxidation_number
  In3+  3.0
  Ag+  1.0
  Sn2+  2.0
  Bi3+  3.0
  Te2-  -2.0
  Pb2+  2.0
loop_
 _atom_site_type_symbol
 _atom_site_label
 _atom_site_symmetry_multiplicity
 _atom_site_fract_x
 _atom_site_fract_y
 _atom_site_fract_z
 _atom_site_occupancy
  In3+  In0  1  0.00464495  0.00350308  0.34271662  1
  In3+  In1  1  0.49486218  0.31912119  0.83669400  1
  In3+  In2  1  0.84079910  -0.00971332  0.15918126  1
  In3+  In3  1  0.18977239  0.32194086  0.82571511  1
  In3+  In4  1  0.65727615  0.00140760  0.69561309  1
  In3+  In5  1  0.00657824  0.81994125  0.51121903  1
  In3+  In6  1  0.50072520  0.33469539  0.14914814  1
  In3+  In7  1  0.16706070  0.51639877  0.65901545  1
  In3+  In8  1  0.65773749  0.51272570  0.16605336  1
  In3+  In9  1  0.81549678  0.18072803  0.00090515  1
  In3+  In10  1  0.02705687  0.17471680  0.83616991  1
  In3+  In11  1  0.49766335  0.68442527  0.16513936  1
  In3+  In12  1  0.14867950  0.66877362  0.17323413  1
  In3+  In13  1  0.49319675  0.50295020  -0.00621003  1
  In3+  In14  1  0.47370514  0.17643264  0.66896394  1
  In3+  In15  1  0.67243874  -0.00231371  0.31186170  1
  In3+  In16  1  0.66678057  0.14568656  0.51863530  1
  In3+  In17  1  0.49954021  0.14370269  0.33918603  1
  In3+  In18  1  0.15326258  0.83621603  0.34914675  1
  In3+  In19  1  0.18038979  0.83413288  -0.00093094  1
  In3+  In20  1  0.34482445  0.50027081  0.48612910  1
  In3+  In21  1  0.00514262  0.50156538  0.49050440  1
  Ag+  Ag22  1  0.01821054  0.68614153  0.66776643  1
  Ag+  Ag23  1  0.16615279  0.16503206  0.64656392  1
  Ag+  Ag24  1  0.32291069  0.81120500  0.82990516  1
  Ag+  Ag25  1  0.47622671  0.80392809  0.01750871  1
  Ag+  Ag26  1  0.32714124  0.34630364  0.64687380  1
  Ag+  Ag27  1  0.32395733  0.31214641  0.00228100  1
  Ag+  Ag28  1  0.02605105  0.84124177  0.18964322  1
  Ag+  Ag29  1  0.00109661  0.69003860  0.02657378  1
  Ag+  Ag30  1  0.51741254  0.67110066  0.86341255  1
  Ag+  Ag31  1  0.66607091  0.81684070  0.18495023  1
  Ag+  Ag32  1  0.64202315  -0.02657018  0.00689075  1
  Ag+  Ag33  1  0.16643408  0.02632651  0.51865659  1
  Ag+  Ag34  1  0.47648959  0.68110031  0.52081988  1
  Ag+  Ag35  1  0.18471218  0.66438643  0.47282270  1
  Ag+  Ag36  1  0.16781970  0.47737978  0.35927968  1
  Ag+  Ag37  1  0.33167129  0.15509229  0.82856552  1
  Ag+  Ag38  1  0.01997273  -0.01665867  0.64131661  1
  Ag+  Ag39  1  0.64587185  0.32599486  -0.01393738  1
  Ag+  Ag40  1  0.15041917  0.19936696  0.00581239  1
  Ag+  Ag41  1  0.03425632  0.30242178  0.02047435  1
  Ag+  Ag42  1  0.49888702  0.83064994  0.30574779  1
  Sn2+  Sn43  1  0.33386405  0.50169839  0.17122319  1
  Sn2+  Sn44  1  -0.00032589  0.50437170  0.15583672  1
  Sn2+  Sn45  1  0.49295439  -0.01738621  0.83253189  1
  Sn2+  Sn46  1  0.32065478  0.66503785  -0.00284149  1
  Sn2+  Sn47  1  0.84112364  0.00141483  0.50157253  1
  Sn2+  Sn48  1  0.82599155  0.83332521  0.32607790  1
  Sn2+  Sn49  1  0.66217526  0.49662325  0.49055776  1
  Sn2+  Sn50  1  0.49516733  0.50566606  0.67245614  1
  Sn2+  Sn51  1  0.66382166  0.83482435  0.48658309  1
  Sn2+  Sn52  1  0.85531445  0.49874943  0.33204922  1
  Sn2+  Sn53  1  0.85110358  0.16304244  0.67474647  1
  Sn2+  Sn54  1  0.66217853  0.66955594  0.66678966  1
  Sn2+  Sn55  1  0.33695745  0.67335671  0.33131785  1
  Sn2+  Sn56  1  0.32778830  0.16760994  0.15659128  1
  Sn2+  Sn57  1  0.66082572  0.66515213  0.34296182  1
  Sn2+  Sn58  1  0.49521632  0.16897286  0.00377779  1
  Sn2+  Sn59  1  0.00005019  0.67173975  0.34740128  1
  Sn2+  Sn60  1  0.00778360  0.83144282  0.83826313  1
  Sn2+  Sn61  1  0.49666502  0.50896548  0.33071658  1
  Sn2+  Sn62  1  0.16600705  0.00428681  0.82772979  1
  Sn2+  Sn63  1  0.00365090  0.33439355  0.31908012  1
  Sn2+  Sn64  1  0.66137652  0.33233100  0.32789962  1
  Bi3+  Bi65  1  0.83184928  0.83848135  0.65875406  1
  Bi3+  Bi66  1  0.33505721  0.00378226  -0.00347496  1
  Bi3+  Bi67  1  0.50110767  0.33678631  0.50188010  1
  Bi3+  Bi68  1  0.66276260  0.16860961  0.16879938  1
  Bi3+  Bi69  1  0.00680576  0.33040585  0.67308170  1
  Bi3+  Bi70  1  0.83773068  0.00155190  0.83294488  1
  Bi3+  Bi71  1  0.16421104  0.50763508  -0.00266376  1
  Bi3+  Bi72  1  0.16373243  0.66325535  0.83614260  1
  Bi3+  Bi73  1  0.83306231  0.66994228  0.16518542  1
  Bi3+  Bi74  1  0.00116332  0.49701642  0.83368571  1
  Bi3+  Bi75  1  0.50200379  0.83463759  0.66992637  1
  Bi3+  Bi76  1  0.50184430  0.00603459  0.16327543  1
  Bi3+  Bi77  1  0.66235053  0.83412243  0.82867991  1
  Bi3+  Bi78  1  0.83417702  0.83906306  -0.00518496  1
  Bi3+  Bi79  1  0.83343683  0.33454829  0.50030301  1
  Bi3+  Bi80  1  0.33156611  0.49853204  0.83550263  1
  Bi3+  Bi81  1  0.83285287  0.66909926  0.49708047  1
  Bi3+  Bi82  1  0.83453562  0.49866586  0.00202178  1
  Bi3+  Bi83  1  0.33067365  0.00234685  0.66927412  1
  Bi3+  Bi84  1  0.33506541  -0.00460105  0.33496545  1
  Bi3+  Bi85  1  0.00266156  -0.00390799  -0.00534268  1
  Te2-  Te86  1  0.16879370  0.16833465  0.15586140  1
  Te2-  Te87  1  0.16601073  0.17157899  0.49609934  1
  Te2-  Te88  1  0.17901466  0.17152058  0.85375783  1
  Te2-  Te89  1  0.16474097  0.51492577  0.16014259  1
  Te2-  Te90  1  0.16061432  0.51599507  0.50231222  1
  Te2-  Te91  1  0.16610603  0.49659478  0.83162231  1
  Te2-  Te92  1  0.16857684  0.82217912  0.15617472  1
  Te2-  Te93  1  0.16183962  0.81486041  0.49999574  1
  Te2-  Te94  1  0.17302568  0.82953272  0.83967939  1
  Te2-  Te95  1  0.49801844  0.16956533  0.17520593  1
  Te2-  Te96  1  0.50692087  0.17046567  0.50580700  1
  Te2-  Te97  1  0.48876183  0.16654209  0.82630596  1
  Te2-  Te98  1  0.50297554  0.49001725  0.16636890  1
  Te2-  Te99  1  0.49859740  0.50192441  0.50050825  1
  Te2-  Te100  1  0.49373624  0.51913905  0.83924768  1
  Te2-  Te101  1  0.51252834  0.83832039  0.15725395  1
  Te2-  Te102  1  0.50230892  0.82649612  0.50848710  1
  Te2-  Te103  1  0.50208731  0.82326247  0.83129745  1
  Te2-  Te104  1  0.82922509  0.16121425  0.16121184  1
  Te2-  Te105  1  0.82742395  0.16851934  0.50198501  1
  Te2-  Te106  1  0.82914870  0.16241375  0.84102800  1
  Te2-  Te107  1  0.83362024  0.50505086  0.16629841  1
  Te2-  Te108  1  0.83366915  0.50089305  0.49584973  1
  Te2-  Te109  1  0.83326261  0.50001442  0.83485727  1
  Te2-  Te110  1  0.81770988  0.83495273  0.15987666  1
  Te2-  Te111  1  0.83915419  0.83451582  0.49656599  1
  Te2-  Te112  1  0.83378417  0.83889009  0.82535181  1
  Te2-  Te113  1  0.17071899  -0.00893137  -0.00297454  1
  Te2-  Te114  1  0.16935622  -0.01058668  0.33188998  1
  Te2-  Te115  1  0.16527526  0.00831341  0.66463961  1
  Te2-  Te116  1  0.17423133  0.34615951  -0.00334941  1
  Te2-  Te117  1  0.16373606  0.33304066  0.33153173  1
  Te2-  Te118  1  0.17378931  0.31836964  0.67465641  1
  Te2-  Te119  1  0.15160789  0.67132413  -0.00042159  1
  Te2-  Te120  1  0.16688088  0.68143729  0.32712484  1
  Te2-  Te121  1  0.16433528  0.66945875  0.67144740  1
  Te2-  Te122  1  0.49663067  0.00538076  -0.00036884  1
  Te2-  Te123  1  0.49744758  -0.01434518  0.32960167  1
  Te2-  Te124  1  0.49843290  0.00636091  0.66618164  1
  Te2-  Te125  1  0.49943718  0.34274609  -0.00581899  1
  Te2-  Te126  1  0.50147609  0.34442710  0.34157301  1
  Te2-  Te127  1  0.48428329  0.33319876  0.66482106  1
  Te2-  Te128  1  0.50032147  0.66014731  0.01074009  1
  Te2-  Te129  1  0.50147585  0.67351519  0.32233979  1
  Te2-  Te130  1  0.50158916  0.66724787  0.66464302  1
  Te2-  Te131  1  0.83866837  0.00436657  -0.00123394  1
  Te2-  Te132  1  0.83091559  -0.00551700  0.32822490  1
  Te2-  Te133  1  0.84462625  0.00170087  0.66680982  1
  Te2-  Te134  1  0.83188364  0.33487796  0.00075132  1
  Te2-  Te135  1  0.83614003  0.33366916  0.33715074  1
  Te2-  Te136  1  0.83395734  0.33111816  0.66336333  1
  Te2-  Te137  1  0.84912133  0.66828065  0.00274438  1
  Te2-  Te138  1  0.83274712  0.66646200  0.33159908  1
  Te2-  Te139  1  0.82893833  0.67246355  0.66122621  1
  Te2-  Te140  1  0.00533722  0.16003751  -0.00903370  1
  Te2-  Te141  1  -0.00247898  0.15812366  0.33113816  1
  Te2-  Te142  1  0.01253908  0.16917689  0.67863221  1
  Te2-  Te143  1  -0.00134102  0.50126785  -0.00421391  1
  Te2-  Te144  1  0.01485917  0.50149136  0.33206303  1
  Te2-  Te145  1  0.00904497  0.49032790  0.66968722  1
  Te2-  Te146  1  -0.00423081  0.83461963  -0.00359228  1
  Te2-  Te147  1  0.00053561  0.83995326  0.33436362  1
  Te2-  Te148  1  -0.00350874  0.83738556  0.66517418  1
  Te2-  Te149  1  0.33841213  0.16500342  -0.00228828  1
  Te2-  Te150  1  0.33814015  0.16118626  0.33290431  1
  Te2-  Te151  1  0.32220535  0.16284269  0.67647589  1
  Te2-  Te152  1  0.33393498  0.50544843  0.00158092  1
  Te2-  Te153  1  0.31931064  0.50277837  0.33460263  1
  Te2-  Te154  1  0.32366359  0.49154980  0.67224603  1
  Te2-  Te155  1  0.33634827  0.83684767  -0.01291626  1
  Te2-  Te156  1  0.34570736  0.83388523  0.33298351  1
  Te2-  Te157  1  0.33868559  0.83863620  0.67769047  1
  Te2-  Te158  1  0.66149668  0.17819998  0.00468565  1
  Te2-  Te159  1  0.65828213  0.16184766  0.33095927  1
  Te2-  Te160  1  0.67512536  0.16055553  0.66751412  1
  Te2-  Te161  1  0.66904244  0.49855700  0.01015526  1
  Te2-  Te162  1  0.66776914  0.49886282  0.32362955  1
  Te2-  Te163  1  0.66282074  0.49885228  0.66526538  1
  Te2-  Te164  1  0.67366805  0.83147577  -0.01034702  1
  Te2-  Te165  1  0.65744695  0.83944406  0.32986634  1
  Te2-  Te166  1  0.66834106  0.84297723  0.66196053  1
  Te2-  Te167  1  -0.00439914  -0.01361849  0.16433254  1
  Te2-  Te168  1  0.01147262  -0.00244635  0.49641596  1
  Te2-  Te169  1  0.00086376  0.00164757  0.83335472  1
  Te2-  Te170  1  -0.00065969  0.33256873  0.16134907  1
  Te2-  Te171  1  -0.00387068  0.33921236  0.50197325  1
  Te2-  Te172  1  0.00234366  0.33005723  0.83440575  1
  Te2-  Te173  1  -0.00551773  0.67635409  0.17514708  1
  Te2-  Te174  1  -0.00599539  0.66279991  0.51381848  1
  Te2-  Te175  1  0.00244615  0.66229618  0.81825799  1
  Te2-  Te176  1  0.33695521  -0.00094884  0.16740049  1
  Te2-  Te177  1  0.32413395  -0.00131520  0.50021857  1
  Te2-  Te178  1  0.33353477  0.00526713  0.83349949  1
  Te2-  Te179  1  0.34320309  0.33263947  0.15550943  1
  Te2-  Te180  1  0.33493020  0.34158172  0.49886366  1
  Te2-  Te181  1  0.34202608  0.33777182  0.84979689  1
  Te2-  Te182  1  0.34338918  0.66290039  0.16368711  1
  Te2-  Te183  1  0.33338033  0.65516669  0.49862423  1
  Te2-  Te184  1  0.32731701  0.66362363  0.83639833  1
  Te2-  Te185  1  0.66400712  0.00536377  0.15671114  1
  Te2-  Te186  1  0.66970786  0.00006870  0.48714095  1
  Te2-  Te187  1  0.66751731  -0.00303412  0.85266490  1
  Te2-  Te188  1  0.65723631  0.33065381  0.16478490  1
  Te2-  Te189  1  0.66762221  0.33459759  0.49822357  1
  Te2-  Te190  1  0.65261912  0.33352244  0.83704239  1
  Te2-  Te191  1  0.66806286  0.66806106  0.16959629  1
  Te2-  Te192  1  0.67185109  0.66577162  0.50041251  1
  Te2-  Te193  1  0.66290453  0.66880748  0.83053180  1
  Pb2+  Pb194  1  0.16474246  0.34249493  0.50887715  1
  Pb2+  Pb195  1  0.67498797  0.66673709  0.00050407  1
  Pb2+  Pb196  1  0.82590239  0.16293131  0.33279735  1
  Pb2+  Pb197  1  0.33285775  0.82897122  0.50177601  1
  Pb2+  Pb198  1  0.65766204  0.16382965  0.83679135  1
  Pb2+  Pb199  1  0.83490479  0.32970721  0.83541185  1
  Pb2+  Pb200  1  0.16995332  0.34372042  0.16302399  1
  Pb2+  Pb201  1  0.65670315  0.33117960  0.66702840  1
  Pb2+  Pb202  1  0.33795059  0.33396091  0.32468997  1
  Pb2+  Pb203  1  0.83745741  0.50275677  0.66313277  1
  Pb2+  Pb204  1  -0.00170665  0.16582374  0.50664716  1
  Pb2+  Pb205  1  0.66051395  0.49989452  0.83624320  1
  Pb2+  Pb206  1  0.33730915  0.82944289  0.16327360  1
  Pb2+  Pb207  1  -0.00121621  0.15926448  0.16067910  1
  Pb2+  Pb208  1  0.33306716  0.66181837  0.66854311  1
  Pb2+  Pb209  1  0.33480992  0.16652057  0.50471987  1
  Pb2+  Pb210  1  0.49989022  -0.00640128  0.49930378  1
  Pb2+  Pb211  1  0.82648781  0.33436576  0.16636103  1
  Pb2+  Pb212  1  0.83719579  0.67022400  0.83215670  1
  Pb2+  Pb213  1  0.16461491  -0.00495789  0.16378429  1
  Pb2+  Pb214  1  0.16863792  0.16227671  0.32634157  1
  Pb2+  Pb215  1  0.16894078  0.84037153  0.67034260  1
