# generated using pymatgen
data_In22Ag21Sn22Bi21(Te54Pb11)2
_symmetry_space_group_name_H-M   'P 1'
_cell_length_a   19.12944488
_cell_length_b   19.15486776
_cell_length_c   19.12096947
_cell_angle_alpha   90.00052051
_cell_angle_beta   89.99690764
_cell_angle_gamma   89.98933265
_symmetry_Int_Tables_number   1
_chemical_formula_structural   In22Ag21Sn22Bi21(Te54Pb11)2
_chemical_formula_sum   'In22 Ag21 Sn22 Bi21 Te108 Pb22'
_cell_volume   7006.34349254
_cell_formula_units_Z   1
loop_
 _symmetry_equiv_pos_site_id
 _symmetry_equiv_pos_as_xyz
  1  'x, y, z'
loop_
 _atom_type_symbol
 _atom_type_oxidation_number
  In3+  3.0
  Ag+  1.0
  Sn2+  2.0
  Bi3+  3.0
  Te2-  -2.0
  Pb2+  2.0
loop_
 _atom_site_type_symbol
 _atom_site_label
 _atom_site_symmetry_multiplicity
 _atom_site_fract_x
 _atom_site_fract_y
 _atom_site_fract_z
 _atom_site_occupancy
  In3+  In0  1  0.15560031  0.66796466  0.49344555  1
  In3+  In1  1  0.32294184  0.66960327  0.00169112  1
  In3+  In2  1  0.16977045  0.16731379  0.66858090  1
  In3+  In3  1  -0.00239670  0.33215174  0.67782610  1
  In3+  In4  1  0.67457595  0.66971860  0.34652500  1
  In3+  In5  1  0.16268744  0.85283859  -0.00330900  1
  In3+  In6  1  0.15252375  0.67266176  0.83005480  1
  In3+  In7  1  0.50240984  0.83414775  0.66674371  1
  In3+  In8  1  0.67524594  0.49588331  0.51242890  1
  In3+  In9  1  0.51805353  0.00772418  0.83540214  1
  In3+  In10  1  0.49819440  0.32410959  0.50810694  1
  In3+  In11  1  0.69145227  0.67035002  0.66774467  1
  In3+  In12  1  0.83423174  0.49390628  0.01565353  1
  In3+  In13  1  0.16219428  0.19269204  0.33294186  1
  In3+  In14  1  0.16037352  -0.01099853  0.83449026  1
  In3+  In15  1  -0.00485269  0.49404855  0.49915466  1
  In3+  In16  1  0.65106861  0.31648719  -0.00332704  1
  In3+  In17  1  0.83865500  0.01192797  0.82888469  1
  In3+  In18  1  0.49667239  0.68165468  0.83117818  1
  In3+  In19  1  0.66427988  0.68161381  0.00088223  1
  In3+  In20  1  0.17223597  0.31621791  0.83101861  1
  In3+  In21  1  0.85779931  0.33750524  0.16180439  1
  Ag+  Ag22  1  -0.02139816  -0.02521625  0.00015736  1
  Ag+  Ag23  1  0.80544991  0.02845178  0.19453526  1
  Ag+  Ag24  1  0.69109643  0.13738686  0.83186144  1
  Ag+  Ag25  1  0.84777269  0.50024794  0.32272966  1
  Ag+  Ag26  1  0.18953108  0.50478258  0.36072607  1
  Ag+  Ag27  1  0.69141536  0.02322375  0.02280575  1
  Ag+  Ag28  1  0.68727792  0.03314064  0.66314180  1
  Ag+  Ag29  1  0.35702936  0.32033427  0.67440950  1
  Ag+  Ag30  1  -0.02284248  -0.02779238  0.70769331  1
  Ag+  Ag31  1  0.85961304  0.49677515  0.68075500  1
  Ag+  Ag32  1  0.82906522  0.68983275  0.13760055  1
  Ag+  Ag33  1  0.00370051  0.68140379  0.67627868  1
  Ag+  Ag34  1  0.17440250  0.36718337  0.19018263  1
  Ag+  Ag35  1  0.35649341  0.83117420  0.13727148  1
  Ag+  Ag36  1  0.32781085  0.13815480  0.85883513  1
  Ag+  Ag37  1  -0.00083272  0.31610917  -0.02127320  1
  Ag+  Ag38  1  0.69653389  0.13795375  0.54796790  1
  Ag+  Ag39  1  0.51959257  0.83403451  -0.01049590  1
  Ag+  Ag40  1  0.19024867  0.68720269  0.13603002  1
  Ag+  Ag41  1  -0.01003350  0.85122161  0.81420071  1
  Ag+  Ag42  1  0.66865583  0.85274918  0.52162628  1
  Sn2+  Sn43  1  0.82959175  0.82276633  0.33035538  1
  Sn2+  Sn44  1  0.51387860  0.51004994  -0.00406604  1
  Sn2+  Sn45  1  0.34298675  0.83366630  0.50064965  1
  Sn2+  Sn46  1  -0.00200563  0.50516699  0.83282471  1
  Sn2+  Sn47  1  0.67607608  0.33270719  0.66621375  1
  Sn2+  Sn48  1  -0.00152346  0.16792355  0.50461558  1
  Sn2+  Sn49  1  0.32662048  0.01085912  0.66859732  1
  Sn2+  Sn50  1  0.33466982  0.83610131  0.83171507  1
  Sn2+  Sn51  1  0.16210101  0.82258033  0.32623033  1
  Sn2+  Sn52  1  0.17050792  0.83662506  0.66857958  1
  Sn2+  Sn53  1  -0.00536396  0.83828422  0.51113023  1
  Sn2+  Sn54  1  0.33929790  -0.00425355  -0.00013892  1
  Sn2+  Sn55  1  0.82904434  0.17328583  0.33528381  1
  Sn2+  Sn56  1  0.15716341  -0.00721053  0.16637237  1
  Sn2+  Sn57  1  0.16356587  0.50465008  0.66822412  1
  Sn2+  Sn58  1  0.82297150  0.33891973  0.49694304  1
  Sn2+  Sn59  1  0.49950751  0.15398077  -0.00695761  1
  Sn2+  Sn60  1  0.49046090  0.33346244  0.16412579  1
  Sn2+  Sn61  1  0.67388379  0.83734710  0.82853152  1
  Sn2+  Sn62  1  0.16427937  0.17007019  0.00472438  1
  Sn2+  Sn63  1  0.67251664  0.00280250  0.33990158  1
  Sn2+  Sn64  1  0.50556268  -0.00283124  0.50715388  1
  Bi3+  Bi65  1  0.33336040  -0.00531536  0.33164094  1
  Bi3+  Bi66  1  0.50052832  0.66574459  0.50341789  1
  Bi3+  Bi67  1  0.32731853  0.15882090  0.16581285  1
  Bi3+  Bi68  1  0.32990486  0.16701815  0.49979164  1
  Bi3+  Bi69  1  -0.00127385  0.50247833  0.16950262  1
  Bi3+  Bi70  1  0.83158410  0.66510187  0.82867981  1
  Bi3+  Bi71  1  0.49827962  -0.00186782  0.15838410  1
  Bi3+  Bi72  1  0.66708032  0.33799015  0.32832687  1
  Bi3+  Bi73  1  0.66408255  0.49824927  0.16480216  1
  Bi3+  Bi74  1  -0.00271667  0.83083462  0.16746542  1
  Bi3+  Bi75  1  0.66542658  0.50222568  0.83243263  1
  Bi3+  Bi76  1  0.33051469  0.50279626  0.83399748  1
  Bi3+  Bi77  1  -0.00298759  0.66421315  0.33513743  1
  Bi3+  Bi78  1  0.32951670  0.66987962  0.33221777  1
  Bi3+  Bi79  1  0.00319096  0.16226042  0.16717908  1
  Bi3+  Bi80  1  0.16758459  -0.00732620  0.50171925  1
  Bi3+  Bi81  1  -0.00351471  0.33379977  0.33068155  1
  Bi3+  Bi82  1  0.83475883  0.66478847  0.50013265  1
  Bi3+  Bi83  1  0.50137082  0.50034855  0.33253746  1
  Bi3+  Bi84  1  0.49823781  0.50465122  0.66628299  1
  Bi3+  Bi85  1  0.16322765  0.49665961  -0.00428702  1
  Te2-  Te86  1  0.16533439  0.15946466  0.17237259  1
  Te2-  Te87  1  0.16596002  0.16040776  0.49501654  1
  Te2-  Te88  1  0.17939535  0.16414270  0.83127744  1
  Te2-  Te89  1  0.15901312  0.50887189  0.15655823  1
  Te2-  Te90  1  0.16145595  0.50597211  0.50547871  1
  Te2-  Te91  1  0.16671665  0.51242607  0.83451425  1
  Te2-  Te92  1  0.15773779  0.82829451  0.16055627  1
  Te2-  Te93  1  0.16652579  0.82890437  0.50139862  1
  Te2-  Te94  1  0.15941113  0.82879904  0.83579557  1
  Te2-  Te95  1  0.49339738  0.16289640  0.16142865  1
  Te2-  Te96  1  0.49545113  0.16812653  0.50106295  1
  Te2-  Te97  1  0.47612039  0.15666144  0.83503290  1
  Te2-  Te98  1  0.49786233  0.50039890  0.16441130  1
  Te2-  Te99  1  0.50279777  0.50155572  0.49961785  1
  Te2-  Te100  1  0.49924564  0.50212296  0.83183302  1
  Te2-  Te101  1  0.50147249  0.83620993  0.15646898  1
  Te2-  Te102  1  0.51350906  0.82816330  0.50507004  1
  Te2-  Te103  1  0.49901099  0.83334274  0.83748043  1
  Te2-  Te104  1  0.83773051  0.16886717  0.16833868  1
  Te2-  Te105  1  0.83054521  0.16933807  0.49547050  1
  Te2-  Te106  1  0.83769437  0.16705421  0.83054734  1
  Te2-  Te107  1  0.83137331  0.49493079  0.17181094  1
  Te2-  Te108  1  0.82980201  0.50247696  0.49799625  1
  Te2-  Te109  1  0.83004535  0.50348581  0.82681620  1
  Te2-  Te110  1  0.83603788  0.83462739  0.16857653  1
  Te2-  Te111  1  0.82073574  0.82772650  0.50014512  1
  Te2-  Te112  1  0.84296733  0.82532282  0.83088302  1
  Te2-  Te113  1  0.17133714  0.00377016  -0.00606798  1
  Te2-  Te114  1  0.17090556  -0.01261455  0.33661456  1
  Te2-  Te115  1  0.16382436  0.00632183  0.66301363  1
  Te2-  Te116  1  0.15485768  0.33627180  -0.01502976  1
  Te2-  Te117  1  0.16220506  0.35151757  0.33716474  1
  Te2-  Te118  1  0.15577247  0.33081644  0.67377968  1
  Te2-  Te119  1  0.16897995  0.65922222  -0.00744892  1
  Te2-  Te120  1  0.16451593  0.65499539  0.33844957  1
  Te2-  Te121  1  0.15581575  0.66953165  0.66908691  1
  Te2-  Te122  1  0.49837449  -0.01266864  -0.00813211  1
  Te2-  Te123  1  0.49892079  -0.00186794  0.32959069  1
  Te2-  Te124  1  0.49176481  -0.01035596  0.67336058  1
  Te2-  Te125  1  0.49678186  0.33323309  0.00392920  1
  Te2-  Te126  1  0.50130437  0.33642744  0.32937288  1
  Te2-  Te127  1  0.50227104  0.33886734  0.66309796  1
  Te2-  Te128  1  0.50723241  0.67632207  -0.00678992  1
  Te2-  Te129  1  0.49799605  0.66384555  0.33709269  1
  Te2-  Te130  1  0.49640220  0.66805875  0.66730539  1
  Te2-  Te131  1  0.82870784  -0.00026981  -0.01888645  1
  Te2-  Te132  1  0.82981762  -0.00248263  0.33451831  1
  Te2-  Te133  1  0.83578233  0.00090434  0.67338736  1
  Te2-  Te134  1  0.84899375  0.33795806  0.00600696  1
  Te2-  Te135  1  0.82972230  0.34288377  0.32656922  1
  Te2-  Te136  1  0.84072866  0.34485068  0.66208838  1
  Te2-  Te137  1  0.82727350  0.65784559  -0.00767616  1
  Te2-  Te138  1  0.83153560  0.65349633  0.33940399  1
  Te2-  Te139  1  0.84927287  0.65174135  0.66365378  1
  Te2-  Te140  1  0.00434368  0.16999428  0.00433539  1
  Te2-  Te141  1  -0.00037566  0.16753821  0.33186368  1
  Te2-  Te142  1  0.00777260  0.17317695  0.66395327  1
  Te2-  Te143  1  -0.00581951  0.49854030  0.00392495  1
  Te2-  Te144  1  -0.00334497  0.49976206  0.33614102  1
  Te2-  Te145  1  0.00464105  0.48886828  0.65827096  1
  Te2-  Te146  1  0.00974522  0.83023528  0.00306641  1
  Te2-  Te147  1  -0.00347100  0.82765156  0.33682095  1
  Te2-  Te148  1  0.00443651  0.83318340  0.66764636  1
  Te2-  Te149  1  0.33162333  0.16661026  0.00497839  1
  Te2-  Te150  1  0.32755640  0.16049955  0.33134531  1
  Te2-  Te151  1  0.32483650  0.17644351  0.66082098  1
  Te2-  Te152  1  0.33827706  0.50618583  -0.00281936  1
  Te2-  Te153  1  0.33593163  0.50280088  0.33125559  1
  Te2-  Te154  1  0.33377691  0.49968908  0.67144894  1
  Te2-  Te155  1  0.31773828  0.82644982  -0.00330583  1
  Te2-  Te156  1  0.32993605  0.83139323  0.33478675  1
  Te2-  Te157  1  0.33755036  0.83510069  0.66472849  1
  Te2-  Te158  1  0.66027929  0.16192053  -0.01953252  1
  Te2-  Te159  1  0.66882357  0.17347787  0.33076183  1
  Te2-  Te160  1  0.66185025  0.17767752  0.68383672  1
  Te2-  Te161  1  0.67290255  0.49357570  -0.00126150  1
  Te2-  Te162  1  0.66136717  0.50082153  0.32767855  1
  Te2-  Te163  1  0.66015174  0.49788562  0.66872912  1
  Te2-  Te164  1  0.66739165  0.83303371  -0.00736496  1
  Te2-  Te165  1  0.66952395  0.82789217  0.33399094  1
  Te2-  Te166  1  0.65866530  0.82456146  0.66618772  1
  Te2-  Te167  1  -0.00302227  -0.00180047  0.15083384  1
  Te2-  Te168  1  0.00536829  -0.00126805  0.49614595  1
  Te2-  Te169  1  0.00760643  -0.00472598  0.84817702  1
  Te2-  Te170  1  0.01173209  0.33211163  0.17087083  1
  Te2-  Te171  1  -0.00610573  0.33442269  0.49178468  1
  Te2-  Te172  1  0.00181038  0.33718412  0.83178643  1
  Te2-  Te173  1  -0.01921279  0.66575762  0.17324155  1
  Te2-  Te174  1  0.00071196  0.66761518  0.50054172  1
  Te2-  Te175  1  -0.00180992  0.66435240  0.82599385  1
  Te2-  Te176  1  0.33299954  -0.00876369  0.16766567  1
  Te2-  Te177  1  0.33418911  0.00070225  0.49799201  1
  Te2-  Te178  1  0.31493447  -0.00624637  0.82974245  1
  Te2-  Te179  1  0.31788021  0.32641235  0.16630334  1
  Te2-  Te180  1  0.33245319  0.32978966  0.50580627  1
  Te2-  Te181  1  0.32527217  0.33981441  0.82181048  1
  Te2-  Te182  1  0.33380709  0.67991762  0.16793387  1
  Te2-  Te183  1  0.33432142  0.66921592  0.49793948  1
  Te2-  Te184  1  0.33965739  0.66616371  0.84016007  1
  Te2-  Te185  1  0.66296890  0.00246549  0.16567832  1
  Te2-  Te186  1  0.66139257  0.00232706  0.50746829  1
  Te2-  Te187  1  0.66503230  -0.00528084  0.81307742  1
  Te2-  Te188  1  0.66204139  0.33575107  0.15682439  1
  Te2-  Te189  1  0.65922190  0.33539978  0.49221541  1
  Te2-  Te190  1  0.66246582  0.33990953  0.84282742  1
  Te2-  Te191  1  0.67907533  0.65977178  0.15552721  1
  Te2-  Te192  1  0.66485376  0.65733014  0.50483447  1
  Te2-  Te193  1  0.66488984  0.66400200  0.83003754  1
  Pb2+  Pb194  1  0.66907886  0.83084062  0.16545846  1
  Pb2+  Pb195  1  0.00077167  -0.00307469  0.32207323  1
  Pb2+  Pb196  1  0.66502961  0.17001889  0.16002665  1
  Pb2+  Pb197  1  0.50018144  0.83282228  0.33247416  1
  Pb2+  Pb198  1  0.83611615  -0.00307116  0.50295181  1
  Pb2+  Pb199  1  0.32450426  0.66845463  0.67098534  1
  Pb2+  Pb200  1  0.83600476  0.16502182  0.00161813  1
  Pb2+  Pb201  1  0.32311601  0.50523563  0.16381931  1
  Pb2+  Pb202  1  0.01015567  0.16386488  0.83449754  1
  Pb2+  Pb203  1  0.83661369  0.83393033  -0.00186963  1
  Pb2+  Pb204  1  0.50586035  0.66868076  0.16320212  1
  Pb2+  Pb205  1  0.16181960  0.33203631  0.50701861  1
  Pb2+  Pb206  1  0.82925563  0.33747484  0.83618689  1
  Pb2+  Pb207  1  0.49400972  0.32838746  0.83472420  1
  Pb2+  Pb208  1  0.32248246  0.33481869  -0.00533366  1
  Pb2+  Pb209  1  0.33367214  0.50005697  0.50406415  1
  Pb2+  Pb210  1  0.50253394  0.16539270  0.33399503  1
  Pb2+  Pb211  1  0.83672134  0.17316150  0.66221271  1
  Pb2+  Pb212  1  -0.00128476  0.66434568  0.00244532  1
  Pb2+  Pb213  1  0.33142502  0.33049303  0.33476453  1
  Pb2+  Pb214  1  0.83298674  0.82743179  0.66595027  1
  Pb2+  Pb215  1  0.49428826  0.15898265  0.66798584  1
