# generated using pymatgen
data_In22Ag21Sn22Bi21(Te54Pb11)2
_symmetry_space_group_name_H-M   'P 1'
_cell_length_a   19.17739272
_cell_length_b   19.15266793
_cell_length_c   19.18104112
_cell_angle_alpha   89.98823484
_cell_angle_beta   90.00239620
_cell_angle_gamma   90.01624321
_symmetry_Int_Tables_number   1
_chemical_formula_structural   In22Ag21Sn22Bi21(Te54Pb11)2
_chemical_formula_sum   'In22 Ag21 Sn22 Bi21 Te108 Pb22'
_cell_volume   7045.16210163
_cell_formula_units_Z   1
loop_
 _symmetry_equiv_pos_site_id
 _symmetry_equiv_pos_as_xyz
  1  'x, y, z'
loop_
 _atom_type_symbol
 _atom_type_oxidation_number
  In3+  3.0
  Ag+  1.0
  Sn2+  2.0
  Bi3+  3.0
  Te2-  -2.0
  Pb2+  2.0
loop_
 _atom_site_type_symbol
 _atom_site_label
 _atom_site_symmetry_multiplicity
 _atom_site_fract_x
 _atom_site_fract_y
 _atom_site_fract_z
 _atom_site_occupancy
  In3+  In0  1  0.34948041  0.16008446  0.50282080  1
  In3+  In1  1  0.81994186  -0.00475841  0.14694143  1
  In3+  In2  1  0.52021754  0.83857851  0.66754660  1
  In3+  In3  1  0.16673266  0.68108836  0.16487182  1
  In3+  In4  1  -0.00437660  0.85078491  0.16648378  1
  In3+  In5  1  0.16826431  0.83679976  0.66768460  1
  In3+  In6  1  0.30404529  0.83181190  0.49865119  1
  In3+  In7  1  0.51483099  0.50611969  0.32899171  1
  In3+  In8  1  0.16793417  0.00258525  0.85131689  1
  In3+  In9  1  0.83253048  0.14817259  0.00676622  1
  In3+  In10  1  0.00267535  -0.02311440  0.68104516  1
  In3+  In11  1  0.02348103  0.50812655  0.83135705  1
  In3+  In12  1  0.82122320  -0.00194279  0.83923985  1
  In3+  In13  1  0.81082317  0.52542734  0.67180562  1
  In3+  In14  1  0.01864315  0.16732984  0.14565055  1
  In3+  In15  1  0.68012389  0.33313888  0.33358697  1
  In3+  In16  1  0.50053540  0.48468313  0.67357348  1
  In3+  In17  1  -0.02683881  0.34396584  0.68713192  1
  In3+  In18  1  0.33325667  -0.00172522  0.67545475  1
  In3+  In19  1  0.67617694  0.50606824  0.17150510  1
  In3+  In20  1  0.14994329  0.52754870  0.33034385  1
  In3+  In21  1  0.83360734  0.82614177  0.66628671  1
  Ag+  Ag22  1  0.65736231  0.68788908  0.30782544  1
  Ag+  Ag23  1  0.36180944  0.30291075  -0.02797701  1
  Ag+  Ag24  1  0.63928101  0.85656992  0.14167784  1
  Ag+  Ag25  1  0.19030470  0.83058957  0.30845647  1
  Ag+  Ag26  1  0.46192928  -0.02620933  0.14023264  1
  Ag+  Ag27  1  0.35839934  0.12463338  0.13430398  1
  Ag+  Ag28  1  0.63682658  0.02670141  0.01812120  1
  Ag+  Ag29  1  0.35910014  0.47673808  0.86637843  1
  Ag+  Ag30  1  0.00162536  0.67287984  0.64881806  1
  Ag+  Ag31  1  0.65049486  0.19528730  0.47629459  1
  Ag+  Ag32  1  0.00009993  0.81755023  0.52393220  1
  Ag+  Ag33  1  0.63529544  0.13773685  0.85176279  1
  Ag+  Ag34  1  0.35694726  0.84559280  0.13614436  1
  Ag+  Ag35  1  0.81739423  0.49905318  0.30939142  1
  Ag+  Ag36  1  0.52217361  0.00235667  0.84972127  1
  Ag+  Ag37  1  0.81597100  0.85486248  0.02963840  1
  Ag+  Ag38  1  0.64365878  0.66733433  0.64711986  1
  Ag+  Ag39  1  -0.02237620  0.31173984  -0.00360990  1
  Ag+  Ag40  1  0.18381175  0.19449874  -0.00577243  1
  Ag+  Ag41  1  0.00368865  0.01403507  -0.01534646  1
  Ag+  Ag42  1  0.66717138  0.30561191  0.69429116  1
  Sn2+  Sn43  1  0.49616190  0.49692617  0.00218967  1
  Sn2+  Sn44  1  0.33369793  0.49402420  0.16632350  1
  Sn2+  Sn45  1  0.67284892  0.83201354  0.49038822  1
  Sn2+  Sn46  1  0.16577474  0.15820409  0.32480388  1
  Sn2+  Sn47  1  0.50335425  0.33889934  0.49747848  1
  Sn2+  Sn48  1  0.33336335  0.67189713  0.00359705  1
  Sn2+  Sn49  1  0.83828588  0.67327674  0.17177234  1
  Sn2+  Sn50  1  0.67644235  0.33179381  0.00067334  1
  Sn2+  Sn51  1  0.15929462  0.66712143  0.50548040  1
  Sn2+  Sn52  1  0.33760307  0.00157909  0.33911024  1
  Sn2+  Sn53  1  0.50073755  0.67805696  0.83216547  1
  Sn2+  Sn54  1  0.83731615  0.17237383  0.33238326  1
  Sn2+  Sn55  1  0.00166778  0.33592564  0.32668195  1
  Sn2+  Sn56  1  0.83607233  0.82997487  0.34216486  1
  Sn2+  Sn57  1  0.83327964  0.50303368  -0.01047972  1
  Sn2+  Sn58  1  0.33347897  0.16746808  0.83442641  1
  Sn2+  Sn59  1  0.83580290  0.32998975  0.50590669  1
  Sn2+  Sn60  1  0.83065977  0.66546160  0.49387742  1
  Sn2+  Sn61  1  0.33943144  0.83082350  0.83242682  1
  Sn2+  Sn62  1  0.32959670  0.00284890  0.00007953  1
  Sn2+  Sn63  1  0.15690660  0.83572573  0.00215321  1
  Sn2+  Sn64  1  0.83328617  0.66961039  0.83861731  1
  Bi3+  Bi65  1  0.17210551  0.50126215  0.66199791  1
  Bi3+  Bi66  1  0.16836917  0.33327511  0.16836881  1
  Bi3+  Bi67  1  0.00027888  0.00035136  0.33422917  1
  Bi3+  Bi68  1  -0.00804004  0.67149950  0.33447973  1
  Bi3+  Bi69  1  0.16566669  0.33250853  0.50039471  1
  Bi3+  Bi70  1  0.67341324  -0.00218936  0.66451790  1
  Bi3+  Bi71  1  0.16220690  0.00068272  0.16780495  1
  Bi3+  Bi72  1  0.16829011  0.49632245  0.00391224  1
  Bi3+  Bi73  1  -0.00036598  0.16839356  0.82781784  1
  Bi3+  Bi74  1  0.49475918  0.33321376  0.17154731  1
  Bi3+  Bi75  1  0.83431914  -0.00365808  0.50162516  1
  Bi3+  Bi76  1  0.83529437  0.16307593  0.66515312  1
  Bi3+  Bi77  1  0.67014380  0.66604196  0.00101247  1
  Bi3+  Bi78  1  0.49576883  0.16876193  0.33336473  1
  Bi3+  Bi79  1  0.66370875  0.50304083  0.83832594  1
  Bi3+  Bi80  1  0.16484100  0.00319341  0.49771103  1
  Bi3+  Bi81  1  -0.00155494  0.66333717  0.00368448  1
  Bi3+  Bi82  1  0.50016720  -0.00288966  0.50062269  1
  Bi3+  Bi83  1  0.33119963  0.33349295  0.33171098  1
  Bi3+  Bi84  1  0.33409437  0.50092219  0.49670316  1
  Bi3+  Bi85  1  -0.00534217  0.16650412  0.49883717  1
  Te2-  Te86  1  0.17075719  0.16650704  0.15828286  1
  Te2-  Te87  1  0.16001083  0.16697615  0.49748314  1
  Te2-  Te88  1  0.16316350  0.16129748  0.84338712  1
  Te2-  Te89  1  0.16607592  0.49463117  0.17128137  1
  Te2-  Te90  1  0.17002643  0.49763898  0.49574535  1
  Te2-  Te91  1  0.17661144  0.50301934  0.83000743  1
  Te2-  Te92  1  0.16444913  0.83436925  0.16408579  1
  Te2-  Te93  1  0.15113550  0.83810358  0.50827426  1
  Te2-  Te94  1  0.16827788  0.84432151  0.82937175  1
  Te2-  Te95  1  0.49412835  0.16781266  0.17100910  1
  Te2-  Te96  1  0.50815462  0.16325944  0.49776186  1
  Te2-  Te97  1  0.49113976  0.15349035  0.83451985  1
  Te2-  Te98  1  0.50137851  0.49757020  0.17200002  1
  Te2-  Te99  1  0.49675051  0.50007663  0.50128233  1
  Te2-  Te100  1  0.49812198  0.50466098  0.82829171  1
  Te2-  Te101  1  0.49792380  0.83317492  0.17207680  1
  Te2-  Te102  1  0.50416112  0.83644812  0.50921871  1
  Te2-  Te103  1  0.49684615  0.85091360  0.82527988  1
  Te2-  Te104  1  0.83164236  0.15464210  0.16264952  1
  Te2-  Te105  1  0.83215133  0.16236897  0.49976613  1
  Te2-  Te106  1  0.84009881  0.15536799  0.83094549  1
  Te2-  Te107  1  0.83005929  0.49824575  0.16194384  1
  Te2-  Te108  1  0.83554273  0.49854413  0.52265215  1
  Te2-  Te109  1  0.82801949  0.49987837  0.82375951  1
  Te2-  Te110  1  0.83926556  0.84173652  0.17285967  1
  Te2-  Te111  1  0.84615997  0.83516647  0.50817902  1
  Te2-  Te112  1  0.83843066  0.84036725  0.82372464  1
  Te2-  Te113  1  0.15447793  -0.00454573  0.00550094  1
  Te2-  Te114  1  0.16465449  -0.00985855  0.33561551  1
  Te2-  Te115  1  0.16284098  -0.00366754  0.65847863  1
  Te2-  Te116  1  0.17028951  0.33920068  0.00599539  1
  Te2-  Te117  1  0.16733649  0.32800485  0.33394583  1
  Te2-  Te118  1  0.17112918  0.33692880  0.66295636  1
  Te2-  Te119  1  0.16406559  0.66169562  0.00606673  1
  Te2-  Te120  1  0.15825390  0.68264008  0.33325323  1
  Te2-  Te121  1  0.15638513  0.66476676  0.66533472  1
  Te2-  Te122  1  0.49399863  -0.00123994  -0.00182022  1
  Te2-  Te123  1  0.50117958  0.00641580  0.33826575  1
  Te2-  Te124  1  0.49876527  -0.00657625  0.66164076  1
  Te2-  Te125  1  0.50132458  0.33579649  0.00687810  1
  Te2-  Te126  1  0.49568308  0.33259961  0.33517286  1
  Te2-  Te127  1  0.51842314  0.33184341  0.66367226  1
  Te2-  Te128  1  0.50293310  0.66374583  -0.00152277  1
  Te2-  Te129  1  0.51343863  0.66056002  0.33511309  1
  Te2-  Te130  1  0.49933960  0.68488124  0.67273126  1
  Te2-  Te131  1  0.84976216  -0.00612565  -0.00575406  1
  Te2-  Te132  1  0.83781038  0.00287469  0.33972110  1
  Te2-  Te133  1  0.84098998  -0.00328725  0.66543007  1
  Te2-  Te134  1  0.83290548  0.33616398  0.00280286  1
  Te2-  Te135  1  0.83449144  0.34484476  0.33576080  1
  Te2-  Te136  1  0.81633248  0.32673239  0.66446709  1
  Te2-  Te137  1  0.83580545  0.66476003  0.00259325  1
  Te2-  Te138  1  0.83286614  0.65368649  0.33187182  1
  Te2-  Te139  1  0.85027851  0.67139344  0.66936434  1
  Te2-  Te140  1  -0.01118038  0.16379017  -0.00420229  1
  Te2-  Te141  1  -0.00219371  0.16704814  0.33367724  1
  Te2-  Te142  1  -0.00236895  0.18158629  0.66452203  1
  Te2-  Te143  1  0.00324876  0.50123170  -0.00919350  1
  Te2-  Te144  1  -0.00372134  0.50465225  0.33486523  1
  Te2-  Te145  1  0.01146260  0.50017980  0.67616460  1
  Te2-  Te146  1  -0.00285395  0.82480393  0.01293044  1
  Te2-  Te147  1  -0.00522972  0.83445025  0.32285430  1
  Te2-  Te148  1  0.00411129  0.82436845  0.67128521  1
  Te2-  Te149  1  0.32647212  0.16221065  -0.00318099  1
  Te2-  Te150  1  0.33211256  0.16740048  0.33884178  1
  Te2-  Te151  1  0.33348818  0.16101246  0.66314824  1
  Te2-  Te152  1  0.33036150  0.50392378  0.00568133  1
  Te2-  Te153  1  0.33866674  0.49702940  0.33483971  1
  Te2-  Te154  1  0.33966206  0.50289408  0.65899802  1
  Te2-  Te155  1  0.32924511  0.83237014  -0.00580818  1
  Te2-  Te156  1  0.33142728  0.83237884  0.34706753  1
  Te2-  Te157  1  0.32230586  0.84012418  0.65997799  1
  Te2-  Te158  1  0.67869055  0.16397198  -0.00936174  1
  Te2-  Te159  1  0.66745900  0.17181828  0.33260916  1
  Te2-  Te160  1  0.67483396  0.15809662  0.67432536  1
  Te2-  Te161  1  0.66505615  0.50078702  0.00221132  1
  Te2-  Te162  1  0.66994060  0.49546352  0.32932027  1
  Te2-  Te163  1  0.65729111  0.51816627  0.67228994  1
  Te2-  Te164  1  0.67431889  0.82669609  0.00293654  1
  Te2-  Te165  1  0.67262851  0.83009585  0.33385831  1
  Te2-  Te166  1  0.67579007  0.82791507  0.66415775  1
  Te2-  Te167  1  0.00015630  0.00833377  0.17152620  1
  Te2-  Te168  1  -0.00053480  0.00463033  0.49728629  1
  Te2-  Te169  1  0.01051735  0.00396090  0.83569492  1
  Te2-  Te170  1  0.00199292  0.32224913  0.15699641  1
  Te2-  Te171  1  0.00348604  0.33060452  0.49339341  1
  Te2-  Te172  1  -0.00067100  0.33118534  0.84555582  1
  Te2-  Te173  1  0.00636969  0.66288738  0.17007066  1
  Te2-  Te174  1  -0.00106599  0.66996636  0.50007747  1
  Te2-  Te175  1  -0.00014320  0.66193908  0.84037230  1
  Te2-  Te176  1  0.32167291  -0.01170098  0.17263682  1
  Te2-  Te177  1  0.33122664  -0.00398948  0.50449562  1
  Te2-  Te178  1  0.32049232  0.00180098  0.82799596  1
  Te2-  Te179  1  0.33240618  0.33123776  0.17030798  1
  Te2-  Te180  1  0.33134141  0.33292754  0.49701411  1
  Te2-  Te181  1  0.33654084  0.33555537  0.83180449  1
  Te2-  Te182  1  0.32357003  0.66943059  0.16676452  1
  Te2-  Te183  1  0.32842290  0.66852529  0.49894765  1
  Te2-  Te184  1  0.33737457  0.67088273  0.83589724  1
  Te2-  Te185  1  0.67022897  -0.00171813  0.15796548  1
  Te2-  Te186  1  0.66874026  -0.00301742  0.50415412  1
  Te2-  Te187  1  0.66838917  -0.00262822  0.82788270  1
  Te2-  Te188  1  0.66063025  0.33983444  0.17158281  1
  Te2-  Te189  1  0.66674817  0.33885178  0.48885403  1
  Te2-  Te190  1  0.66631500  0.34031458  0.83843963  1
  Te2-  Te191  1  0.67242713  0.65972647  0.16455119  1
  Te2-  Te192  1  0.67393076  0.67180636  0.50373957  1
  Te2-  Te193  1  0.66827272  0.66414194  0.83657484  1
  Pb2+  Pb194  1  0.17058839  0.67479178  0.83743609  1
  Pb2+  Pb195  1  0.67093080  -0.00333562  0.32803103  1
  Pb2+  Pb196  1  0.00214159  0.83210002  0.84312761  1
  Pb2+  Pb197  1  0.50854867  0.16102161  0.66817787  1
  Pb2+  Pb198  1  -0.00235773  0.49575043  0.16245201  1
  Pb2+  Pb199  1  0.33478336  0.66436585  0.33098958  1
  Pb2+  Pb200  1  0.50278257  0.32794547  0.83549146  1
  Pb2+  Pb201  1  0.50410537  0.83185921  -0.00270307  1
  Pb2+  Pb202  1  0.49838991  0.66732010  0.16581454  1
  Pb2+  Pb203  1  0.34078622  0.33373258  0.66377861  1
  Pb2+  Pb204  1  0.66119784  0.16862953  0.16448877  1
  Pb2+  Pb205  1  0.32938305  0.67118185  0.66954882  1
  Pb2+  Pb206  1  0.50156394  0.66864363  0.50413388  1
  Pb2+  Pb207  1  0.66947193  0.50488176  0.50049929  1
  Pb2+  Pb208  1  -0.00028011  0.50212205  0.50619151  1
  Pb2+  Pb209  1  0.83110628  0.32545997  0.16941247  1
  Pb2+  Pb210  1  0.16586950  0.16433599  0.67067692  1
  Pb2+  Pb211  1  0.83138600  0.32678700  0.83381388  1
  Pb2+  Pb212  1  0.66899263  0.83033839  0.83678417  1
  Pb2+  Pb213  1  0.16645200  0.33365815  0.83774741  1
  Pb2+  Pb214  1  0.49885895  0.83540048  0.33952312  1
  Pb2+  Pb215  1  0.50058557  0.16653467  0.00330895  1
