# generated using pymatgen
data_In22Ag21Sn22Bi21(Te54Pb11)2
_symmetry_space_group_name_H-M   'P 1'
_cell_length_a   19.11550807
_cell_length_b   19.12631613
_cell_length_c   19.11311287
_cell_angle_alpha   89.99600698
_cell_angle_beta   90.01229053
_cell_angle_gamma   90.01907323
_symmetry_Int_Tables_number   1
_chemical_formula_structural   In22Ag21Sn22Bi21(Te54Pb11)2
_chemical_formula_sum   'In22 Ag21 Sn22 Bi21 Te108 Pb22'
_cell_volume   6987.93030401
_cell_formula_units_Z   1
loop_
 _symmetry_equiv_pos_site_id
 _symmetry_equiv_pos_as_xyz
  1  'x, y, z'
loop_
 _atom_type_symbol
 _atom_type_oxidation_number
  In3+  3.0
  Ag+  1.0
  Sn2+  2.0
  Bi3+  3.0
  Te2-  -2.0
  Pb2+  2.0
loop_
 _atom_site_type_symbol
 _atom_site_label
 _atom_site_symmetry_multiplicity
 _atom_site_fract_x
 _atom_site_fract_y
 _atom_site_fract_z
 _atom_site_occupancy
  In3+  In0  1  0.18071220  0.52416829  0.01809089  1
  In3+  In1  1  0.49544638  0.83405769  0.63685652  1
  In3+  In2  1  0.15729062  -0.00596516  0.49195110  1
  In3+  In3  1  0.00928112  0.33802748  0.33629373  1
  In3+  In4  1  0.65030606  0.50237927  0.16685525  1
  In3+  In5  1  0.85377684  0.83436173  0.00950789  1
  In3+  In6  1  0.01558818  0.52365665  0.83239514  1
  In3+  In7  1  0.66228458  0.67062958  0.02495336  1
  In3+  In8  1  0.15508655  0.83319554  0.32316119  1
  In3+  In9  1  0.32280294  0.83325099  0.85526699  1
  In3+  In10  1  0.16567443  0.16202838  0.65227774  1
  In3+  In11  1  0.49680261  0.34734835  0.16931416  1
  In3+  In12  1  0.48735967  0.68852425  0.18341623  1
  In3+  In13  1  0.84197484  0.68180583  0.49760594  1
  In3+  In14  1  0.65325126  -0.00779354  0.00207386  1
  In3+  In15  1  0.33622861  -0.01306172  0.00442558  1
  In3+  In16  1  0.84581436  0.32994373  0.16996248  1
  In3+  In17  1  -0.00251858  0.14652432  0.17944852  1
  In3+  In18  1  0.82566855  0.00085333  0.48223964  1
  In3+  In19  1  0.33982840  0.66078390  0.00918467  1
  In3+  In20  1  0.66483756  0.49594706  0.47389593  1
  In3+  In21  1  0.49645145  -0.01842365  0.83481491  1
  Ag+  Ag22  1  0.46646383  0.51555759  0.31201328  1
  Ag+  Ag23  1  0.69080821  0.14655503  0.49884751  1
  Ag+  Ag24  1  0.16579718  0.69267128  0.85834426  1
  Ag+  Ag25  1  0.32998221  0.13919965  0.51960194  1
  Ag+  Ag26  1  0.66309007  0.68622826  0.32836950  1
  Ag+  Ag27  1  0.85322954  0.17713771  0.33693362  1
  Ag+  Ag28  1  0.64253905  0.85522497  0.16293459  1
  Ag+  Ag29  1  0.51036873  0.30302536  0.80574387  1
  Ag+  Ag30  1  0.34990621  0.51618984  0.18830310  1
  Ag+  Ag31  1  0.34294043  0.85345105  0.17277900  1
  Ag+  Ag32  1  0.01753524  0.67173937  0.68818140  1
  Ag+  Ag33  1  0.01185000  0.82283856  0.80686254  1
  Ag+  Ag34  1  0.16137879  0.48025028  0.32527616  1
  Ag+  Ag35  1  0.15331335  0.83809961  -0.01037895  1
  Ag+  Ag36  1  0.47181449  0.85558228  0.32901286  1
  Ag+  Ag37  1  0.02951622  0.84735350  0.16674441  1
  Ag+  Ag38  1  0.50285219  0.50321424  0.01666267  1
  Ag+  Ag39  1  -0.00015597  -0.02304768  0.34171196  1
  Ag+  Ag40  1  0.01969190  0.83386741  0.51764004  1
  Ag+  Ag41  1  0.35145560  0.31811837  0.32946924  1
  Ag+  Ag42  1  0.50546815  0.00547144  0.18877801  1
  Sn2+  Sn43  1  0.66485332  0.16670148  0.17733555  1
  Sn2+  Sn44  1  0.66000688  0.17144073  0.82512435  1
  Sn2+  Sn45  1  0.49215985  0.66232713  0.83732396  1
  Sn2+  Sn46  1  0.33899214  0.66104175  0.33387483  1
  Sn2+  Sn47  1  0.17271056  0.33784111  0.49532488  1
  Sn2+  Sn48  1  0.82852711  -0.00875040  0.16986264  1
  Sn2+  Sn49  1  0.33149016  -0.00216085  0.66757348  1
  Sn2+  Sn50  1  0.17050949  0.16503996  0.33019499  1
  Sn2+  Sn51  1  0.17119826  -0.00713962  0.16604291  1
  Sn2+  Sn52  1  0.33211157  0.83483711  0.47895805  1
  Sn2+  Sn53  1  0.16714044  0.67291961  0.17205138  1
  Sn2+  Sn54  1  0.82766181  0.32950763  0.49037780  1
  Sn2+  Sn55  1  0.49683848  0.01016810  0.49379134  1
  Sn2+  Sn56  1  0.00128263  -0.01196619  0.65691407  1
  Sn2+  Sn57  1  0.67244208  0.66894922  0.65834402  1
  Sn2+  Sn58  1  0.16068406  -0.00080326  0.83485399  1
  Sn2+  Sn59  1  0.49947078  0.17302875  0.33117048  1
  Sn2+  Sn60  1  0.00219522  0.33771658  0.00034113  1
  Sn2+  Sn61  1  0.83702990  0.83408078  0.67453954  1
  Sn2+  Sn62  1  0.16640624  0.15855737  -0.00120759  1
  Sn2+  Sn63  1  -0.00397468  0.66952085  0.33116104  1
  Sn2+  Sn64  1  0.50329373  0.17599705  0.00759904  1
  Bi3+  Bi65  1  0.83081776  0.16171561  0.00885069  1
  Bi3+  Bi66  1  0.50178101  0.50814224  0.66773710  1
  Bi3+  Bi67  1  0.83237475  0.66520875  0.17031965  1
  Bi3+  Bi68  1  0.33172945  0.67023629  0.67138856  1
  Bi3+  Bi69  1  -0.00121981  0.16018778  0.83701512  1
  Bi3+  Bi70  1  0.50648458  0.66353230  0.49331063  1
  Bi3+  Bi71  1  0.33295410  0.33261137  0.00393720  1
  Bi3+  Bi72  1  0.33349108  0.16715262  0.16448335  1
  Bi3+  Bi73  1  0.66267960  0.32436836  0.33141023  1
  Bi3+  Bi74  1  0.00382972  0.50134954  0.16253209  1
  Bi3+  Bi75  1  0.33116623  0.50245460  0.83870167  1
  Bi3+  Bi76  1  0.17296819  0.33195589  0.83559614  1
  Bi3+  Bi77  1  0.49787431  0.82560937  0.00505230  1
  Bi3+  Bi78  1  0.33394151  0.50297032  0.49082346  1
  Bi3+  Bi79  1  0.66024213  0.50537039  0.83748247  1
  Bi3+  Bi80  1  0.49867103  0.33159562  0.49398356  1
  Bi3+  Bi81  1  0.83334090  -0.00266388  0.83898613  1
  Bi3+  Bi82  1  0.16562562  0.67173055  0.49457029  1
  Bi3+  Bi83  1  0.66710367  0.83138036  0.49308056  1
  Bi3+  Bi84  1  0.83174804  0.50268083  0.66643046  1
  Bi3+  Bi85  1  0.83351845  0.83110414  0.32911917  1
  Te2-  Te86  1  0.16219207  0.16208809  0.16352052  1
  Te2-  Te87  1  0.17769879  0.16526131  0.49918957  1
  Te2-  Te88  1  0.16282933  0.16595692  0.83457109  1
  Te2-  Te89  1  0.16551300  0.50285467  0.17082389  1
  Te2-  Te90  1  0.16779179  0.50678644  0.49055255  1
  Te2-  Te91  1  0.16661359  0.49482928  0.83727040  1
  Te2-  Te92  1  0.17904295  0.83495597  0.17078140  1
  Te2-  Te93  1  0.16604212  0.83612254  0.49596757  1
  Te2-  Te94  1  0.16341985  0.83978492  0.84062482  1
  Te2-  Te95  1  0.49891547  0.15441426  0.16443913  1
  Te2-  Te96  1  0.47938460  0.16916174  0.49750069  1
  Te2-  Te97  1  0.50411235  0.16141345  0.83526335  1
  Te2-  Te98  1  0.49594774  0.50214041  0.16566596  1
  Te2-  Te99  1  0.50182174  0.50093168  0.50371006  1
  Te2-  Te100  1  0.49514530  0.50293637  0.82965860  1
  Te2-  Te101  1  0.49649959  0.83676298  0.17456628  1
  Te2-  Te102  1  0.50309187  0.83077566  0.48245969  1
  Te2-  Te103  1  0.49513760  0.82915735  0.84182957  1
  Te2-  Te104  1  0.83510690  0.16722901  0.17068271  1
  Te2-  Te105  1  0.83832289  0.15779513  0.49023440  1
  Te2-  Te106  1  0.83230827  0.16352026  0.83877126  1
  Te2-  Te107  1  0.83876807  0.49632885  0.16520539  1
  Te2-  Te108  1  0.82691614  0.49385637  0.50446347  1
  Te2-  Te109  1  0.82783178  0.49926178  0.83251565  1
  Te2-  Te110  1  0.82700823  0.82776545  0.16460740  1
  Te2-  Te111  1  0.82816941  0.83874706  0.49778754  1
  Te2-  Te112  1  0.83913286  0.83500690  0.84399248  1
  Te2-  Te113  1  0.17799888  -0.01029206  0.00272387  1
  Te2-  Te114  1  0.15379219  -0.00175814  0.33678637  1
  Te2-  Te115  1  0.16610456  0.00302749  0.66345917  1
  Te2-  Te116  1  0.17033614  0.32811403  -0.00187211  1
  Te2-  Te117  1  0.16270560  0.33249869  0.33596697  1
  Te2-  Te118  1  0.16696014  0.33275140  0.66800070  1
  Te2-  Te119  1  0.17591738  0.67576667  0.00397559  1
  Te2-  Te120  1  0.16736678  0.67786903  0.33416221  1
  Te2-  Te121  1  0.16403232  0.66971826  0.65792946  1
  Te2-  Te122  1  0.49641483  -0.00541011  -0.00907449  1
  Te2-  Te123  1  0.49619684  0.00223378  0.33648914  1
  Te2-  Te124  1  0.49679119  -0.00849801  0.66776292  1
  Te2-  Te125  1  0.49279765  0.34433258  0.01185928  1
  Te2-  Te126  1  0.49944295  0.34052108  0.32945295  1
  Te2-  Te127  1  0.49756626  0.33812798  0.66082941  1
  Te2-  Te128  1  0.49872577  0.66113603  0.00525073  1
  Te2-  Te129  1  0.51002222  0.65677657  0.33126166  1
  Te2-  Te130  1  0.49821879  0.67263540  0.66195416  1
  Te2-  Te131  1  0.83022798  -0.00315774  0.00368228  1
  Te2-  Te132  1  0.84733305  -0.00310532  0.33045134  1
  Te2-  Te133  1  0.83625656  -0.00503555  0.67466105  1
  Te2-  Te134  1  0.83135899  0.32812494  0.00815435  1
  Te2-  Te135  1  0.82932526  0.32368466  0.32991425  1
  Te2-  Te136  1  0.83514017  0.33429700  0.66456345  1
  Te2-  Te137  1  0.82489893  0.67283725  0.00392307  1
  Te2-  Te138  1  0.82528661  0.66540293  0.33722590  1
  Te2-  Te139  1  0.83606468  0.66674307  0.65793347  1
  Te2-  Te140  1  -0.00439349  0.16839442  0.00310590  1
  Te2-  Te141  1  0.00025410  0.17779482  0.32734208  1
  Te2-  Te142  1  0.00609877  0.16257964  0.66799419  1
  Te2-  Te143  1  0.00161394  0.49891589  -0.00484114  1
  Te2-  Te144  1  0.00879199  0.49637230  0.32958310  1
  Te2-  Te145  1  -0.00411241  0.51309256  0.67290480  1
  Te2-  Te146  1  0.00762557  0.83501386  0.01764719  1
  Te2-  Te147  1  -0.00033746  0.82978099  0.31646987  1
  Te2-  Te148  1  -0.00342677  0.82531775  0.66323126  1
  Te2-  Te149  1  0.33439731  0.16702325  0.00161660  1
  Te2-  Te150  1  0.32994916  0.17336556  0.32476008  1
  Te2-  Te151  1  0.32591205  0.16465053  0.66657848  1
  Te2-  Te152  1  0.33475054  0.49998415  0.00025725  1
  Te2-  Te153  1  0.32126676  0.50302735  0.33218900  1
  Te2-  Te154  1  0.33591455  0.50537232  0.66657444  1
  Te2-  Te155  1  0.33610517  0.82879154  0.00776898  1
  Te2-  Te156  1  0.32882301  0.83155048  0.32123825  1
  Te2-  Te157  1  0.34097798  0.83107021  0.66351626  1
  Te2-  Te158  1  0.66853472  0.15999639  0.00151673  1
  Te2-  Te159  1  0.66233322  0.16319067  0.34397755  1
  Te2-  Te160  1  0.66791163  0.16579502  0.65427324  1
  Te2-  Te161  1  0.65485029  0.50650214  0.00188026  1
  Te2-  Te162  1  0.67049417  0.48843130  0.32058157  1
  Te2-  Te163  1  0.66603943  0.50554747  0.67356641  1
  Te2-  Te164  1  0.65897588  0.83144267  0.01335778  1
  Te2-  Te165  1  0.67208093  0.83399906  0.32886323  1
  Te2-  Te166  1  0.66185513  0.82937294  0.66315590  1
  Te2-  Te167  1  0.00006278  -0.00211369  0.17412313  1
  Te2-  Te168  1  0.00382218  -0.01189299  0.49469578  1
  Te2-  Te169  1  -0.00247000  -0.00145511  0.83239508  1
  Te2-  Te170  1  -0.00081674  0.33777155  0.16977568  1
  Te2-  Te171  1  0.00088357  0.33486562  0.49433693  1
  Te2-  Te172  1  0.00341746  0.32379876  0.83465690  1
  Te2-  Te173  1  -0.00461172  0.66251951  0.16941865  1
  Te2-  Te174  1  -0.00126987  0.68008868  0.49217128  1
  Te2-  Te175  1  0.01138938  0.67743331  0.83597421  1
  Te2-  Te176  1  0.34187077  0.00272538  0.15951907  1
  Te2-  Te177  1  0.33023540  -0.00715087  0.49971913  1
  Te2-  Te178  1  0.33527630  -0.00917763  0.83620540  1
  Te2-  Te179  1  0.33977515  0.33032029  0.17269392  1
  Te2-  Te180  1  0.33422780  0.34149233  0.48423971  1
  Te2-  Te181  1  0.33700380  0.33649792  0.83658141  1
  Te2-  Te182  1  0.33813892  0.66139416  0.16327164  1
  Te2-  Te183  1  0.33813107  0.66793431  0.50316177  1
  Te2-  Te184  1  0.31789464  0.66777145  0.83269732  1
  Te2-  Te185  1  0.65633524  0.00158429  0.15881508  1
  Te2-  Te186  1  0.66786830  -0.00116561  0.50020591  1
  Te2-  Te187  1  0.66646030  -0.00052361  0.84099424  1
  Te2-  Te188  1  0.65534942  0.33264384  0.16884706  1
  Te2-  Te189  1  0.66224495  0.33230886  0.49492377  1
  Te2-  Te190  1  0.65563129  0.33381211  0.83470107  1
  Te2-  Te191  1  0.67003650  0.65788107  0.17732635  1
  Te2-  Te192  1  0.66803876  0.66615204  0.48983359  1
  Te2-  Te193  1  0.66455662  0.66658389  0.82983950  1
  Pb2+  Pb194  1  0.66779978  0.83115258  0.84169445  1
  Pb2+  Pb195  1  0.83341780  0.33180403  0.83636838  1
  Pb2+  Pb196  1  0.00459786  -0.00039891  0.00389358  1
  Pb2+  Pb197  1  0.83504462  0.66799410  0.82894739  1
  Pb2+  Pb198  1  0.32568069  0.00316816  0.33007779  1
  Pb2+  Pb199  1  0.66701305  -0.00232618  0.66989666  1
  Pb2+  Pb200  1  0.16641014  0.50420574  0.66465698  1
  Pb2+  Pb201  1  0.33382467  0.16383968  0.83382210  1
  Pb2+  Pb202  1  0.00163946  0.33820295  0.66622260  1
  Pb2+  Pb203  1  0.33197825  0.33349969  0.65503334  1
  Pb2+  Pb204  1  0.17125776  0.33350781  0.16778188  1
  Pb2+  Pb205  1  0.00156986  0.66924760  0.00340357  1
  Pb2+  Pb206  1  0.83870933  0.49542595  0.33323958  1
  Pb2+  Pb207  1  0.67146779  -0.00200875  0.32797314  1
  Pb2+  Pb208  1  0.82738045  0.50286437  0.00118891  1
  Pb2+  Pb209  1  0.83504104  0.16245944  0.66282462  1
  Pb2+  Pb210  1  0.65963981  0.33067362  0.00180647  1
  Pb2+  Pb211  1  0.17150854  0.83529488  0.67196947  1
  Pb2+  Pb212  1  0.50033582  0.16071749  0.66236695  1
  Pb2+  Pb213  1  0.66684218  0.33727277  0.66338881  1
  Pb2+  Pb214  1  0.00824265  0.16151061  0.49560781  1
  Pb2+  Pb215  1  -0.00216341  0.50971206  0.49933457  1
