# generated using pymatgen
data_In22Ag21Sn22Bi21(Te54Pb11)2
_symmetry_space_group_name_H-M   'P 1'
_cell_length_a   19.16317081
_cell_length_b   19.14409720
_cell_length_c   19.15403259
_cell_angle_alpha   90.02237927
_cell_angle_beta   90.00160108
_cell_angle_gamma   89.99943382
_symmetry_Int_Tables_number   1
_chemical_formula_structural   In22Ag21Sn22Bi21(Te54Pb11)2
_chemical_formula_sum   'In22 Ag21 Sn22 Bi21 Te108 Pb22'
_cell_volume   7026.87858938
_cell_formula_units_Z   1
loop_
 _symmetry_equiv_pos_site_id
 _symmetry_equiv_pos_as_xyz
  1  'x, y, z'
loop_
 _atom_type_symbol
 _atom_type_oxidation_number
  In3+  3.0
  Ag+  1.0
  Sn2+  2.0
  Bi3+  3.0
  Te2-  -2.0
  Pb2+  2.0
loop_
 _atom_site_type_symbol
 _atom_site_label
 _atom_site_symmetry_multiplicity
 _atom_site_fract_x
 _atom_site_fract_y
 _atom_site_fract_z
 _atom_site_occupancy
  In3+  In0  1  0.16837709  0.65334557  0.16884188  1
  In3+  In1  1  0.49800493  0.69136066  0.49275648  1
  In3+  In2  1  0.33025248  0.16422548  0.52243690  1
  In3+  In3  1  0.01123808  0.35779305  0.32983116  1
  In3+  In4  1  0.32485351  0.85318529  0.16588220  1
  In3+  In5  1  0.83510976  0.16885895  -0.00090225  1
  In3+  In6  1  0.17415598  0.15861324  0.66512569  1
  In3+  In7  1  0.66750248  0.18191827  0.17083063  1
  In3+  In8  1  0.84847843  0.00103651  0.83361013  1
  In3+  In9  1  0.83225196  0.47442087  0.67348120  1
  In3+  In10  1  0.47906474  0.49800917  0.67505361  1
  In3+  In11  1  0.01639658  0.83427108  0.49532506  1
  In3+  In12  1  0.83818668  0.17037528  0.33050265  1
  In3+  In13  1  0.01090366  0.83355468  0.16027124  1
  In3+  In14  1  0.33642675  0.82709934  0.82150756  1
  In3+  In15  1  0.49996848  0.02369947  0.83541850  1
  In3+  In16  1  0.66867873  0.01257503  0.00125159  1
  In3+  In17  1  0.68307125  0.16637722  0.51395986  1
  In3+  In18  1  0.33231428  0.32194442  0.67811857  1
  In3+  In19  1  0.16434187  0.47983179  0.66004133  1
  In3+  In20  1  0.48354449  0.17508272  0.00029275  1
  In3+  In21  1  0.65366921  0.33614185  -0.00362023  1
  Ag+  Ag22  1  0.69648436  0.64295965  0.30313449  1
  Ag+  Ag23  1  0.64276058  0.49850390  0.83137979  1
  Ag+  Ag24  1  0.19231154  0.29430776  0.18651177  1
  Ag+  Ag25  1  0.51353769  0.31956730  0.80636698  1
  Ag+  Ag26  1  0.82081851  0.16598211  0.69499968  1
  Ag+  Ag27  1  0.19353401  -0.00013309  0.13499198  1
  Ag+  Ag28  1  0.18860993  0.47336756  0.32897197  1
  Ag+  Ag29  1  0.00079465  0.85521291  0.86246805  1
  Ag+  Ag30  1  0.35522211  -0.00514951  0.67185752  1
  Ag+  Ag31  1  0.34793081  0.48465100  0.86306182  1
  Ag+  Ag32  1  0.31362181  0.68355863  -0.00074017  1
  Ag+  Ag33  1  0.47951161  0.01741267  0.47389217  1
  Ag+  Ag34  1  0.19285284  0.02350630  0.48051201  1
  Ag+  Ag35  1  0.02235786  0.67205771  0.35342508  1
  Ag+  Ag36  1  0.66163549  0.30193061  0.35545515  1
  Ag+  Ag37  1  0.01874093  0.65480719  0.02736437  1
  Ag+  Ag38  1  0.48579131  0.31036021  0.16662984  1
  Ag+  Ag39  1  0.83422578  0.00912376  0.18553930  1
  Ag+  Ag40  1  0.17163029  0.35457028  0.47204788  1
  Ag+  Ag41  1  0.33199905  0.14249726  0.84889555  1
  Ag+  Ag42  1  0.30411970  0.19145816  0.17921552  1
  Sn2+  Sn43  1  0.66805748  -0.00239395  0.32810787  1
  Sn2+  Sn44  1  -0.00665231  -0.00677537  0.00978954  1
  Sn2+  Sn45  1  0.66839047  0.49454499  0.16676508  1
  Sn2+  Sn46  1  0.48963102  0.32472222  0.48660370  1
  Sn2+  Sn47  1  0.66738357  0.66648757  -0.00103472  1
  Sn2+  Sn48  1  0.00053192  0.66660096  0.66732380  1
  Sn2+  Sn49  1  0.49455919  0.83106893  -0.00087130  1
  Sn2+  Sn50  1  0.81546620  0.33459967  0.83571837  1
  Sn2+  Sn51  1  0.82619091  0.66713740  0.49473368  1
  Sn2+  Sn52  1  0.34629903  0.32705014  0.33792899  1
  Sn2+  Sn53  1  0.49653082  0.17178418  0.32820305  1
  Sn2+  Sn54  1  0.83816997  0.83839159  0.66985833  1
  Sn2+  Sn55  1  0.00479841  0.16247373  0.49967418  1
  Sn2+  Sn56  1  0.49894521  0.49932018  0.00191087  1
  Sn2+  Sn57  1  0.82525384  0.49888402  -0.00271470  1
  Sn2+  Sn58  1  0.17722094  0.00154483  0.82512235  1
  Sn2+  Sn59  1  0.00499283  0.50576299  0.16656141  1
  Sn2+  Sn60  1  -0.00041705  -0.00507849  0.33190717  1
  Sn2+  Sn61  1  0.83187726  -0.00352060  0.50412517  1
  Sn2+  Sn62  1  0.33350552  0.84367684  0.49724468  1
  Sn2+  Sn63  1  0.33043673  0.66570403  0.32673437  1
  Sn2+  Sn64  1  0.83418779  0.66814606  0.82711179  1
  Bi3+  Bi65  1  0.16292623  0.66934662  0.83086220  1
  Bi3+  Bi66  1  0.00434242  0.50074391  0.83278881  1
  Bi3+  Bi67  1  0.33550714  0.49419541  0.49710706  1
  Bi3+  Bi68  1  0.16435231  0.16732276  -0.00243981  1
  Bi3+  Bi69  1  0.00218665  0.50084807  0.49939509  1
  Bi3+  Bi70  1  0.33403545  0.50074199  0.16720820  1
  Bi3+  Bi71  1  0.50245553  0.49652165  0.33592960  1
  Bi3+  Bi72  1  0.50068114  0.83378921  0.33437177  1
  Bi3+  Bi73  1  0.16207116  0.83841657  0.66997045  1
  Bi3+  Bi74  1  0.16794266  0.83759714  0.33433264  1
  Bi3+  Bi75  1  0.83004164  0.49694193  0.33097334  1
  Bi3+  Bi76  1  0.66318585  0.84067378  0.49902527  1
  Bi3+  Bi77  1  0.66992716  0.66343760  0.66820736  1
  Bi3+  Bi78  1  0.82807728  0.83169467  -0.00008543  1
  Bi3+  Bi79  1  0.83429122  0.33275129  0.16533138  1
  Bi3+  Bi80  1  0.66662882  0.83302755  0.16825399  1
  Bi3+  Bi81  1  0.00355335  0.33115150  0.66218611  1
  Bi3+  Bi82  1  0.49406812  0.66620910  0.16768288  1
  Bi3+  Bi83  1  -0.00081036  0.00158317  0.66264175  1
  Bi3+  Bi84  1  0.49826802  0.66005534  0.83783756  1
  Bi3+  Bi85  1  0.16530769  0.33707790  0.83418143  1
  Te2-  Te86  1  0.16199193  0.15036558  0.15896670  1
  Te2-  Te87  1  0.17387678  0.16574494  0.50784186  1
  Te2-  Te88  1  0.17957381  0.17162930  0.83370381  1
  Te2-  Te89  1  0.16477897  0.50040848  0.17989800  1
  Te2-  Te90  1  0.16758108  0.50041806  0.48531065  1
  Te2-  Te91  1  0.16558403  0.50404003  0.82513697  1
  Te2-  Te92  1  0.16642405  0.85202660  0.17084464  1
  Te2-  Te93  1  0.17165448  0.83661203  0.50139471  1
  Te2-  Te94  1  0.15227009  0.83266988  0.83078426  1
  Te2-  Te95  1  0.51274152  0.16693219  0.15358468  1
  Te2-  Te96  1  0.48540582  0.16522030  0.49694473  1
  Te2-  Te97  1  0.48619121  0.17890792  0.84200012  1
  Te2-  Te98  1  0.50134698  0.50515753  0.17112462  1
  Te2-  Te99  1  0.49776813  0.49071301  0.49881813  1
  Te2-  Te100  1  0.49144106  0.49868980  0.83097573  1
  Te2-  Te101  1  0.49989983  0.82830140  0.16954783  1
  Te2-  Te102  1  0.49950418  0.85413013  0.49901971  1
  Te2-  Te103  1  0.49541653  0.82248233  0.83715364  1
  Te2-  Te104  1  0.82513717  0.16039737  0.16380580  1
  Te2-  Te105  1  0.83195153  0.16584667  0.48928590  1
  Te2-  Te106  1  0.83240555  0.16597064  0.84207870  1
  Te2-  Te107  1  0.83514392  0.50018063  0.16679279  1
  Te2-  Te108  1  0.83505955  0.49918463  0.49982090  1
  Te2-  Te109  1  0.84165269  0.49494337  0.82864175  1
  Te2-  Te110  1  0.82769057  0.84020458  0.16524735  1
  Te2-  Te111  1  0.82331597  0.83412852  0.50174803  1
  Te2-  Te112  1  0.84211584  0.83935068  0.83516715  1
  Te2-  Te113  1  0.16030881  0.00270569  -0.01015914  1
  Te2-  Te114  1  0.16193898  -0.00191668  0.33936071  1
  Te2-  Te115  1  0.16106447  0.00265204  0.66500929  1
  Te2-  Te116  1  0.16284053  0.33235561  0.00104672  1
  Te2-  Te117  1  0.16070776  0.32947041  0.32386449  1
  Te2-  Te118  1  0.16667900  0.32108282  0.66932442  1
  Te2-  Te119  1  0.16388366  0.66829433  -0.00090535  1
  Te2-  Te120  1  0.16812192  0.67558752  0.32396742  1
  Te2-  Te121  1  0.16750189  0.67578988  0.66714423  1
  Te2-  Te122  1  0.50446037  0.00350226  -0.00793757  1
  Te2-  Te123  1  0.49904740  -0.00203453  0.32958102  1
  Te2-  Te124  1  0.50183862  0.00237332  0.68296607  1
  Te2-  Te125  1  0.50281557  0.33014980  0.01328463  1
  Te2-  Te126  1  0.51432587  0.33445703  0.32015806  1
  Te2-  Te127  1  0.48977442  0.33863402  0.66211526  1
  Te2-  Te128  1  0.50325270  0.66330656  0.00200035  1
  Te2-  Te129  1  0.49780142  0.66773518  0.33223892  1
  Te2-  Te130  1  0.50308250  0.65791685  0.67229630  1
  Te2-  Te131  1  0.82887792  -0.00356704  -0.01192790  1
  Te2-  Te132  1  0.83329459  0.00699466  0.33439380  1
  Te2-  Te133  1  0.83655589  0.01249224  0.67475530  1
  Te2-  Te134  1  0.83194907  0.32965214  0.00129433  1
  Te2-  Te135  1  0.81192751  0.32914763  0.32589607  1
  Te2-  Te136  1  0.83914155  0.31834595  0.66589463  1
  Te2-  Te137  1  0.82833873  0.66969006  -0.00382930  1
  Te2-  Te138  1  0.83622351  0.66280462  0.33362705  1
  Te2-  Te139  1  0.83239312  0.67197655  0.66523053  1
  Te2-  Te140  1  -0.00384778  0.16532041  -0.00244172  1
  Te2-  Te141  1  -0.00797372  0.16335266  0.33668698  1
  Te2-  Te142  1  -0.00243644  0.16759775  0.66102005  1
  Te2-  Te143  1  -0.00518291  0.51069305  -0.00173732  1
  Te2-  Te144  1  -0.00782733  0.50912449  0.33540212  1
  Te2-  Te145  1  -0.00279501  0.49621297  0.66223629  1
  Te2-  Te146  1  -0.00822405  0.82626875  0.00588097  1
  Te2-  Te147  1  0.00324319  0.82464837  0.34066432  1
  Te2-  Te148  1  -0.00107001  0.83637185  0.65646858  1
  Te2-  Te149  1  0.33078187  0.16543384  -0.00554569  1
  Te2-  Te150  1  0.33583961  0.17040280  0.32062484  1
  Te2-  Te151  1  0.33279000  0.16418755  0.67686315  1
  Te2-  Te152  1  0.33246708  0.50408472  0.00668058  1
  Te2-  Te153  1  0.33735198  0.49725236  0.33359898  1
  Te2-  Te154  1  0.32613859  0.49983515  0.65739143  1
  Te2-  Te155  1  0.33451422  0.82873744  0.01241759  1
  Te2-  Te156  1  0.33493501  0.83367965  0.33288470  1
  Te2-  Te157  1  0.32921818  0.84250024  0.66811117  1
  Te2-  Te158  1  0.67405875  0.16730344  0.00316613  1
  Te2-  Te159  1  0.66147148  0.15904066  0.32243391  1
  Te2-  Te160  1  0.67529191  0.16765832  0.66853989  1
  Te2-  Te161  1  0.66791896  0.49455841  -0.00775800  1
  Te2-  Te162  1  0.66645882  0.50352456  0.33709096  1
  Te2-  Te163  1  0.67955287  0.50131308  0.67667656  1
  Te2-  Te164  1  0.66372500  0.83470659  0.00279270  1
  Te2-  Te165  1  0.66224414  0.82952188  0.33591403  1
  Te2-  Te166  1  0.66771033  0.82942015  0.66706267  1
  Te2-  Te167  1  -0.01541349  -0.01070244  0.16690629  1
  Te2-  Te168  1  -0.00473514  -0.00705765  0.50111702  1
  Te2-  Te169  1  0.00227974  -0.00056427  0.82940786  1
  Te2-  Te170  1  -0.00575822  0.33608830  0.17410516  1
  Te2-  Te171  1  0.01503780  0.33642686  0.49752179  1
  Te2-  Te172  1  0.00026272  0.33632196  0.82821153  1
  Te2-  Te173  1  0.01055714  0.67629896  0.17080293  1
  Te2-  Te174  1  -0.00157552  0.66531109  0.49900551  1
  Te2-  Te175  1  -0.00024014  0.66169151  0.82653866  1
  Te2-  Te176  1  0.33837702  0.00346210  0.16443067  1
  Te2-  Te177  1  0.33627314  0.00914530  0.51597378  1
  Te2-  Te178  1  0.33826701  -0.00681922  0.82550243  1
  Te2-  Te179  1  0.33774359  0.33718165  0.16759052  1
  Te2-  Te180  1  0.32071689  0.33145611  0.49773120  1
  Te2-  Te181  1  0.32482744  0.34370921  0.82687739  1
  Te2-  Te182  1  0.32807435  0.66421190  0.15840111  1
  Te2-  Te183  1  0.34214205  0.66594296  0.50012025  1
  Te2-  Te184  1  0.32937863  0.67376362  0.84442802  1
  Te2-  Te185  1  0.67976561  -0.00625449  0.15871702  1
  Te2-  Te186  1  0.66680865  0.00735517  0.49823402  1
  Te2-  Te187  1  0.65516151  -0.00144959  0.84195360  1
  Te2-  Te188  1  0.67321544  0.33595761  0.15297909  1
  Te2-  Te189  1  0.66415278  0.32102390  0.50125797  1
  Te2-  Te190  1  0.65562246  0.34393155  0.84003786  1
  Te2-  Te191  1  0.66179234  0.66768777  0.16417534  1
  Te2-  Te192  1  0.65753454  0.67338942  0.50643258  1
  Te2-  Te193  1  0.66445289  0.65382339  0.83214748  1
  Pb2+  Pb194  1  0.66444844  0.50035723  0.50513692  1
  Pb2+  Pb195  1  0.49876918  0.83259531  0.66751574  1
  Pb2+  Pb196  1  -0.00502728  0.16355228  0.16776527  1
  Pb2+  Pb197  1  -0.00201120  0.34105231  0.00221313  1
  Pb2+  Pb198  1  0.51018405  0.00123267  0.16184739  1
  Pb2+  Pb199  1  0.33476073  0.66755371  0.67415070  1
  Pb2+  Pb200  1  0.66307897  0.33691502  0.66797130  1
  Pb2+  Pb201  1  0.84299768  0.33217480  0.49184888  1
  Pb2+  Pb202  1  0.66961044  0.82611951  0.83731642  1
  Pb2+  Pb203  1  0.16579985  0.50188140  0.00192870  1
  Pb2+  Pb204  1  0.66861559  -0.00229974  0.66784614  1
  Pb2+  Pb205  1  0.16381888  0.83356801  -0.00003221  1
  Pb2+  Pb206  1  0.16414338  0.16502783  0.33548161  1
  Pb2+  Pb207  1  0.83993688  0.67327528  0.16476663  1
  Pb2+  Pb208  1  0.50176959  0.16709785  0.66478101  1
  Pb2+  Pb209  1  0.33074188  0.00491174  0.34041749  1
  Pb2+  Pb210  1  0.65925017  0.16855078  0.83837378  1
  Pb2+  Pb211  1  0.17044848  0.66540122  0.49611197  1
  Pb2+  Pb212  1  0.33366389  -0.00380508  -0.00524953  1
  Pb2+  Pb213  1  0.01135502  0.16664093  0.82800839  1
  Pb2+  Pb214  1  0.33240887  0.33538921  -0.00361617  1
  Pb2+  Pb215  1  0.83440798  0.83593700  0.33279144  1
