# generated using pymatgen
data_In22Ag21Sn22Bi21(Te54Pb11)2
_symmetry_space_group_name_H-M   'P 1'
_cell_length_a   19.11532339
_cell_length_b   19.13762314
_cell_length_c   19.11814507
_cell_angle_alpha   89.99205357
_cell_angle_beta   89.99901911
_cell_angle_gamma   89.99902407
_symmetry_Int_Tables_number   1
_chemical_formula_structural   In22Ag21Sn22Bi21(Te54Pb11)2
_chemical_formula_sum   'In22 Ag21 Sn22 Bi21 Te108 Pb22'
_cell_volume   6993.83522747
_cell_formula_units_Z   1
loop_
 _symmetry_equiv_pos_site_id
 _symmetry_equiv_pos_as_xyz
  1  'x, y, z'
loop_
 _atom_type_symbol
 _atom_type_oxidation_number
  In3+  3.0
  Ag+  1.0
  Sn2+  2.0
  Bi3+  3.0
  Te2-  -2.0
  Pb2+  2.0
loop_
 _atom_site_type_symbol
 _atom_site_label
 _atom_site_symmetry_multiplicity
 _atom_site_fract_x
 _atom_site_fract_y
 _atom_site_fract_z
 _atom_site_occupancy
  In3+  In0  1  -0.00950032  0.16272964  0.81704186  1
  In3+  In1  1  0.67434780  -0.00112292  0.32463831  1
  In3+  In2  1  0.13297363  0.33664734  0.16687408  1
  In3+  In3  1  0.84836351  0.32692802  0.50064487  1
  In3+  In4  1  0.17185075  0.49704437  0.33019700  1
  In3+  In5  1  0.51255787  0.83560562  0.68762017  1
  In3+  In6  1  -0.00396958  0.49597461  0.48292028  1
  In3+  In7  1  0.66482146  0.83197740  0.51656893  1
  In3+  In8  1  0.67316837  0.82373633  0.16473018  1
  In3+  In9  1  0.83861194  0.15650280  0.00260701  1
  In3+  In10  1  0.52640731  0.51444822  -0.00246377  1
  In3+  In11  1  0.82851443  0.33592485  0.83455540  1
  In3+  In12  1  0.68165575  0.68082499  -0.00077722  1
  In3+  In13  1  0.31666288  0.17011215  0.82977840  1
  In3+  In14  1  0.32769015  0.17558600  0.50458498  1
  In3+  In15  1  0.16010204  0.82545820  0.31335035  1
  In3+  In16  1  0.51289620  0.34655659  0.49292934  1
  In3+  In17  1  0.83641054  0.66629871  0.51367549  1
  In3+  In18  1  0.16028178  0.81403485  0.67204770  1
  In3+  In19  1  0.51404905  0.32554639  0.83754373  1
  In3+  In20  1  -0.00045854  0.63972983  0.32025787  1
  In3+  In21  1  0.00519776  0.83419043  0.16416163  1
  Ag+  Ag22  1  0.52448104  0.80693263  -0.00931085  1
  Ag+  Ag23  1  0.65159706  0.83003582  0.82953355  1
  Ag+  Ag24  1  0.66487194  0.68654046  0.64263931  1
  Ag+  Ag25  1  0.00447608  0.86264831  0.80972286  1
  Ag+  Ag26  1  0.83147346  0.47991519  0.01576173  1
  Ag+  Ag27  1  -0.00314240  0.33014095  0.34882410  1
  Ag+  Ag28  1  0.19133258  -0.01990739  0.16565515  1
  Ag+  Ag29  1  0.83777049  -0.01725726  0.81070161  1
  Ag+  Ag30  1  0.83139838  -0.02393604  0.18512663  1
  Ag+  Ag31  1  0.82711044  0.35934673  0.20217249  1
  Ag+  Ag32  1  0.35882205  0.64762833  0.33215215  1
  Ag+  Ag33  1  0.00312104  0.47498368  0.18075857  1
  Ag+  Ag34  1  0.47701865  -0.02154089  0.83209146  1
  Ag+  Ag35  1  0.83346497  0.69009298  0.85443836  1
  Ag+  Ag36  1  -0.02835290  0.33387985  0.68720605  1
  Ag+  Ag37  1  0.69643219  0.35025404  0.34539867  1
  Ag+  Ag38  1  0.82949949  0.49442792  0.31469212  1
  Ag+  Ag39  1  0.18865213  0.16772794  0.65803075  1
  Ag+  Ag40  1  0.16457923  0.66853465  0.16980483  1
  Ag+  Ag41  1  0.15275816  0.81262679  0.00971687  1
  Ag+  Ag42  1  0.83146735  0.14586576  0.69311305  1
  Sn2+  Sn43  1  0.47982089  0.66993521  0.16345055  1
  Sn2+  Sn44  1  0.32161174  0.33242197  0.32847707  1
  Sn2+  Sn45  1  0.67495799  0.51742703  0.83244966  1
  Sn2+  Sn46  1  0.66728612  0.15850040  0.50059895  1
  Sn2+  Sn47  1  0.49338486  0.66998339  0.50487724  1
  Sn2+  Sn48  1  0.16778034  -0.00055268  0.49257605  1
  Sn2+  Sn49  1  0.16589119  0.33256126  0.50452876  1
  Sn2+  Sn50  1  0.33845141  0.50683612  0.84003696  1
  Sn2+  Sn51  1  -0.01113342  0.65512840  0.67643979  1
  Sn2+  Sn52  1  0.31911183  -0.00382157  0.66703300  1
  Sn2+  Sn53  1  0.67230748  0.33384226  0.00946657  1
  Sn2+  Sn54  1  0.00371530  0.00125793  0.00688735  1
  Sn2+  Sn55  1  0.83423508  0.17718643  0.32102262  1
  Sn2+  Sn56  1  0.84004290  0.84514181  -0.01465869  1
  Sn2+  Sn57  1  0.66728893  0.00048375  0.67768493  1
  Sn2+  Sn58  1  0.33960203  0.66997872  0.65941614  1
  Sn2+  Sn59  1  0.67324985  0.14941599  0.83200271  1
  Sn2+  Sn60  1  0.49809506  0.49950040  0.67295834  1
  Sn2+  Sn61  1  -0.00399383  0.82814318  0.49919108  1
  Sn2+  Sn62  1  -0.00338405  0.17060311  0.50917999  1
  Sn2+  Sn63  1  0.83387725  0.01003975  0.49704876  1
  Sn2+  Sn64  1  0.32524767  0.67541623  0.00526854  1
  Bi3+  Bi65  1  0.67034596  0.00004485  -0.00416045  1
  Bi3+  Bi66  1  0.33385608  0.00081642  -0.00093301  1
  Bi3+  Bi67  1  0.33393915  0.83479583  0.50083892  1
  Bi3+  Bi68  1  0.66553207  0.33233311  0.66236066  1
  Bi3+  Bi69  1  0.50495435  0.16480190  -0.00073557  1
  Bi3+  Bi70  1  0.83657527  0.66537597  0.16563997  1
  Bi3+  Bi71  1  0.66917708  0.16880293  0.16684414  1
  Bi3+  Bi72  1  -0.00263023  0.66903169  0.00115319  1
  Bi3+  Bi73  1  0.33003714  -0.00175231  0.33588759  1
  Bi3+  Bi74  1  -0.00556136  0.33792038  -0.00259416  1
  Bi3+  Bi75  1  0.67177862  0.49766970  0.16610320  1
  Bi3+  Bi76  1  0.33466491  0.83334287  0.16405713  1
  Bi3+  Bi77  1  -0.00597798  0.16509779  0.16542152  1
  Bi3+  Bi78  1  0.50861710  0.33495953  0.16806054  1
  Bi3+  Bi79  1  0.83710324  0.83237968  0.66806695  1
  Bi3+  Bi80  1  0.83118993  0.50185104  0.66702209  1
  Bi3+  Bi81  1  -0.00102006  0.00985078  0.33142306  1
  Bi3+  Bi82  1  -0.00290023  0.49798001  0.83327555  1
  Bi3+  Bi83  1  0.16403801  0.16788377  0.00031966  1
  Bi3+  Bi84  1  0.50343188  -0.00265154  0.50775499  1
  Bi3+  Bi85  1  0.33561076  0.33551419  0.66495199  1
  Te2-  Te86  1  0.15961201  0.18005508  0.16574818  1
  Te2-  Te87  1  0.16855081  0.16518519  0.50918313  1
  Te2-  Te88  1  0.16045898  0.16673835  0.83453688  1
  Te2-  Te89  1  0.15079881  0.49356254  0.17657561  1
  Te2-  Te90  1  0.15611693  0.50312847  0.48954714  1
  Te2-  Te91  1  0.16497082  0.50030270  0.83106291  1
  Te2-  Te92  1  0.16377937  0.83524559  0.15841503  1
  Te2-  Te93  1  0.16946458  0.84005449  0.51550586  1
  Te2-  Te94  1  0.15492451  0.83472265  0.82531328  1
  Te2-  Te95  1  0.50318452  0.16928199  0.16461429  1
  Te2-  Te96  1  0.49902911  0.15804834  0.50520602  1
  Te2-  Te97  1  0.50972297  0.17168352  0.83812683  1
  Te2-  Te98  1  0.50436892  0.49806669  0.15775347  1
  Te2-  Te99  1  0.50087336  0.50154064  0.50144342  1
  Te2-  Te100  1  0.50430353  0.49439100  0.84203161  1
  Te2-  Te101  1  0.49910481  0.82872701  0.15501144  1
  Te2-  Te102  1  0.50164372  0.83562770  0.50135609  1
  Te2-  Te103  1  0.50291257  0.83307950  0.84072463  1
  Te2-  Te104  1  0.83049006  0.17638119  0.15755887  1
  Te2-  Te105  1  0.83272708  0.16957159  0.49032544  1
  Te2-  Te106  1  0.83489625  0.17712810  0.83801570  1
  Te2-  Te107  1  0.83407489  0.50295166  0.16381045  1
  Te2-  Te108  1  0.84214772  0.50855403  0.50254455  1
  Te2-  Te109  1  0.83371327  0.49398543  0.82733810  1
  Te2-  Te110  1  0.82937781  0.82873456  0.16363206  1
  Te2-  Te111  1  0.82639747  0.83254339  0.50277732  1
  Te2-  Te112  1  0.85373286  0.83424490  0.82686924  1
  Te2-  Te113  1  0.17094852  0.00938712  0.01509805  1
  Te2-  Te114  1  0.16496451  -0.00103312  0.31928198  1
  Te2-  Te115  1  0.16665880  0.01755745  0.66627718  1
  Te2-  Te116  1  0.16463091  0.33172303  0.00462599  1
  Te2-  Te117  1  0.16201398  0.34007838  0.33046112  1
  Te2-  Te118  1  0.17469451  0.32059719  0.66332938  1
  Te2-  Te119  1  0.16271964  0.66590763  0.01388397  1
  Te2-  Te120  1  0.15052782  0.66903606  0.32190143  1
  Te2-  Te121  1  0.16521427  0.66161808  0.66357086  1
  Te2-  Te122  1  0.50089634  0.00360660  -0.01300668  1
  Te2-  Te123  1  0.49880007  -0.00201825  0.33624176  1
  Te2-  Te124  1  0.49968049  -0.01007423  0.67628234  1
  Te2-  Te125  1  0.50615112  0.33175893  0.00185088  1
  Te2-  Te126  1  0.49357789  0.33359768  0.33485569  1
  Te2-  Te127  1  0.50085505  0.33409229  0.66042789  1
  Te2-  Te128  1  0.48997002  0.66511932  0.00171150  1
  Te2-  Te129  1  0.50450786  0.66653093  0.33132520  1
  Te2-  Te130  1  0.51122191  0.67135054  0.66363687  1
  Te2-  Te131  1  0.83266515  0.00356803  0.00014085  1
  Te2-  Te132  1  0.83268389  -0.00155345  0.33287552  1
  Te2-  Te133  1  0.83345902  -0.00012021  0.66183972  1
  Te2-  Te134  1  0.83225854  0.33250210  -0.01015181  1
  Te2-  Te135  1  0.84213043  0.34106518  0.34773143  1
  Te2-  Te136  1  0.82719169  0.33743477  0.65139512  1
  Te2-  Te137  1  0.83562491  0.67339590  0.00348848  1
  Te2-  Te138  1  0.84502722  0.65689116  0.32879828  1
  Te2-  Te139  1  0.81899601  0.66734761  0.66598616  1
  Te2-  Te140  1  -0.00015651  0.17150578  0.00008405  1
  Te2-  Te141  1  -0.00244426  0.17483993  0.33167353  1
  Te2-  Te142  1  -0.02019010  0.18057926  0.66620759  1
  Te2-  Te143  1  -0.01412830  0.50168172  -0.00295104  1
  Te2-  Te144  1  -0.00918878  0.48861488  0.32893932  1
  Te2-  Te145  1  -0.00481437  0.48758792  0.66955639  1
  Te2-  Te146  1  0.00613731  0.83342433  0.00825294  1
  Te2-  Te147  1  0.00655200  0.84440781  0.33322092  1
  Te2-  Te148  1  0.00106473  0.82876205  0.66350636  1
  Te2-  Te149  1  0.33499093  0.16683306  -0.00421918  1
  Te2-  Te150  1  0.33144544  0.16278402  0.33857074  1
  Te2-  Te151  1  0.33895384  0.16862594  0.66941330  1
  Te2-  Te152  1  0.32712991  0.50552812  -0.00229653  1
  Te2-  Te153  1  0.32714263  0.50375635  0.33229360  1
  Te2-  Te154  1  0.33541630  0.50161423  0.66851016  1
  Te2-  Te155  1  0.32256565  0.83818449  0.00281210  1
  Te2-  Te156  1  0.31929900  0.83723236  0.33505824  1
  Te2-  Te157  1  0.33168479  0.82768847  0.66313242  1
  Te2-  Te158  1  0.66961110  0.16608973  0.00039746  1
  Te2-  Te159  1  0.67139967  0.15561393  0.33064276  1
  Te2-  Te160  1  0.68141836  0.16999231  0.66512154  1
  Te2-  Te161  1  0.67962968  0.50186525  0.00053508  1
  Te2-  Te162  1  0.67621070  0.49648068  0.33166595  1
  Te2-  Te163  1  0.66472271  0.49495557  0.66789933  1
  Te2-  Te164  1  0.66841719  0.83625108  0.00326944  1
  Te2-  Te165  1  0.66609121  0.83954836  0.31790188  1
  Te2-  Te166  1  0.66986702  0.83174550  0.67932753  1
  Te2-  Te167  1  -0.01696744  0.00260154  0.17009382  1
  Te2-  Te168  1  0.00153752  0.00187799  0.49356977  1
  Te2-  Te169  1  -0.01219346  0.00878524  0.83600680  1
  Te2-  Te170  1  -0.02182952  0.33052130  0.15962739  1
  Te2-  Te171  1  0.00479652  0.33876891  0.49576778  1
  Te2-  Te172  1  -0.00493766  0.33124970  0.83348582  1
  Te2-  Te173  1  0.00337279  0.67594905  0.16767447  1
  Te2-  Te174  1  -0.00818366  0.66844632  0.50496540  1
  Te2-  Te175  1  -0.01151232  0.66172253  0.83678187  1
  Te2-  Te176  1  0.34035114  -0.00149862  0.16951661  1
  Te2-  Te177  1  0.33686703  -0.00178276  0.49982050  1
  Te2-  Te178  1  0.33162017  0.00652177  0.83424695  1
  Te2-  Te179  1  0.34380447  0.33665918  0.16856301  1
  Te2-  Te180  1  0.33356792  0.33081795  0.49957936  1
  Te2-  Te181  1  0.34057329  0.33167362  0.82755062  1
  Te2-  Te182  1  0.32009038  0.67286039  0.18008127  1
  Te2-  Te183  1  0.33218833  0.67191777  0.48598889  1
  Te2-  Te184  1  0.33261535  0.66590221  0.83010248  1
  Te2-  Te185  1  0.67998594  0.00456374  0.16427826  1
  Te2-  Te186  1  0.66423446  -0.00974908  0.50062698  1
  Te2-  Te187  1  0.68509972  -0.01075281  0.83543621  1
  Te2-  Te188  1  0.67275963  0.33374738  0.17865057  1
  Te2-  Te189  1  0.66331254  0.32927096  0.49222421  1
  Te2-  Te190  1  0.66725185  0.33440785  0.82906590  1
  Te2-  Te191  1  0.66418149  0.66335154  0.15594073  1
  Te2-  Te192  1  0.66906758  0.67690916  0.49543955  1
  Te2-  Te193  1  0.67913675  0.67829000  0.84737047  1
  Pb2+  Pb194  1  0.32798011  0.83318814  0.83478702  1
  Pb2+  Pb195  1  0.16322744  0.16840531  0.34126936  1
  Pb2+  Pb196  1  0.50512514  0.49930250  0.32935279  1
  Pb2+  Pb197  1  0.15343337  0.50048266  0.00398705  1
  Pb2+  Pb198  1  0.16675166  0.33317270  0.83058007  1
  Pb2+  Pb199  1  0.83851736  0.82646173  0.33235175  1
  Pb2+  Pb200  1  0.50535160  0.16679346  0.33880377  1
  Pb2+  Pb201  1  0.33907511  0.33831057  -0.00302102  1
  Pb2+  Pb202  1  0.51268111  -0.00436852  0.15738814  1
  Pb2+  Pb203  1  0.51039884  0.66367698  0.83140392  1
  Pb2+  Pb204  1  0.67330532  0.50123569  0.50069321  1
  Pb2+  Pb205  1  0.51065382  0.16187161  0.67191947  1
  Pb2+  Pb206  1  0.16150230  0.49002627  0.66154299  1
  Pb2+  Pb207  1  0.16090367  0.67408458  0.49055084  1
  Pb2+  Pb208  1  0.32613032  0.50457693  0.16353984  1
  Pb2+  Pb209  1  0.00203904  0.00724129  0.66469427  1
  Pb2+  Pb210  1  0.32963654  0.50001554  0.50053673  1
  Pb2+  Pb211  1  0.15850885  0.66800068  0.83818941  1
  Pb2+  Pb212  1  0.49312015  0.83191349  0.32926563  1
  Pb2+  Pb213  1  0.32652676  0.16926593  0.16637027  1
  Pb2+  Pb214  1  0.15928490  -0.00069285  0.84095279  1
  Pb2+  Pb215  1  0.67510506  0.66575366  0.32656306  1
