# generated using pymatgen
data_In22Ag21Sn22Bi21(Te54Pb11)2
_symmetry_space_group_name_H-M   'P 1'
_cell_length_a   19.18091778
_cell_length_b   19.15073194
_cell_length_c   19.16323716
_cell_angle_alpha   89.99305055
_cell_angle_beta   90.00228020
_cell_angle_gamma   89.99952150
_symmetry_Int_Tables_number   1
_chemical_formula_structural   In22Ag21Sn22Bi21(Te54Pb11)2
_chemical_formula_sum   'In22 Ag21 Sn22 Bi21 Te108 Pb22'
_cell_volume   7039.20530187
_cell_formula_units_Z   1
loop_
 _symmetry_equiv_pos_site_id
 _symmetry_equiv_pos_as_xyz
  1  'x, y, z'
loop_
 _atom_type_symbol
 _atom_type_oxidation_number
  In3+  3.0
  Ag+  1.0
  Sn2+  2.0
  Bi3+  3.0
  Te2-  -2.0
  Pb2+  2.0
loop_
 _atom_site_type_symbol
 _atom_site_label
 _atom_site_symmetry_multiplicity
 _atom_site_fract_x
 _atom_site_fract_y
 _atom_site_fract_z
 _atom_site_occupancy
  In3+  In0  1  0.33011209  0.65315969  0.66582756  1
  In3+  In1  1  0.33798923  0.83602178  0.51989552  1
  In3+  In2  1  -0.00550057  0.65772390  0.66873577  1
  In3+  In3  1  -0.00062232  0.48461102  0.16650489  1
  In3+  In4  1  0.32861723  0.51365005  0.83644902  1
  In3+  In5  1  0.64760772  0.16341727  0.82656240  1
  In3+  In6  1  -0.01496477  0.33722396  0.34064873  1
  In3+  In7  1  0.82899234  0.17089588  0.34283930  1
  In3+  In8  1  0.83270518  0.20200157  0.65634429  1
  In3+  In9  1  0.82110367  0.00585563  0.17875659  1
  In3+  In10  1  0.65892550  0.33830122  0.66058158  1
  In3+  In11  1  0.81270368  0.47698942  0.33476725  1
  In3+  In12  1  0.02579987  0.83478432  0.81959378  1
  In3+  In13  1  0.66997316  0.18679260  0.16689636  1
  In3+  In14  1  0.66125567  0.83538098  0.17888520  1
  In3+  In15  1  -0.00483639  0.17250055  0.16674707  1
  In3+  In16  1  0.50211055  0.64920284  0.15861805  1
  In3+  In17  1  0.49843765  -0.00696640  0.80999227  1
  In3+  In18  1  0.81967933  -0.01412204  0.50180622  1
  In3+  In19  1  0.34094829  0.80544695  0.16074923  1
  In3+  In20  1  0.19346908  0.00503121  0.81950697  1
  In3+  In21  1  0.17194105  0.35495652  0.17039641  1
  Ag+  Ag22  1  -0.02467664  0.82608333  0.52424861  1
  Ag+  Ag23  1  0.32869849  0.81726256  0.81965239  1
  Ag+  Ag24  1  0.81414367  0.35716370  0.16318536  1
  Ag+  Ag25  1  0.69620862  0.50513200  0.52337208  1
  Ag+  Ag26  1  0.80678246  0.50261003  0.69399299  1
  Ag+  Ag27  1  -0.03137334  0.47400850  0.80070852  1
  Ag+  Ag28  1  0.32779599  0.16494487  0.85955872  1
  Ag+  Ag29  1  0.46320701  0.03969720  0.51520415  1
  Ag+  Ag30  1  0.52855200  0.48784532  0.02677917  1
  Ag+  Ag31  1  0.69697952  0.69350240  0.67085841  1
  Ag+  Ag32  1  0.34728218  0.49063692  0.18729443  1
  Ag+  Ag33  1  0.64433913  0.51820696  0.16017611  1
  Ag+  Ag34  1  0.68840265  0.80964578  0.82851982  1
  Ag+  Ag35  1  0.36237840  0.19466735  0.51065963  1
  Ag+  Ag36  1  0.34019143  0.64066165  0.02202488  1
  Ag+  Ag37  1  0.52404222  0.34423160  0.51668554  1
  Ag+  Ag38  1  0.81979089  0.34027529  0.51988894  1
  Ag+  Ag39  1  0.66506993  -0.02046928  0.34112601  1
  Ag+  Ag40  1  0.52320886  0.35479501  0.13591085  1
  Ag+  Ag41  1  0.15098877  0.48332316  0.64740069  1
  Ag+  Ag42  1  0.15499828  0.82000182  0.64537690  1
  Sn2+  Sn43  1  0.82568144  0.65934943  0.16483997  1
  Sn2+  Sn44  1  0.33602433  0.34140969  -0.00589751  1
  Sn2+  Sn45  1  0.65511055  0.33558257  0.34280859  1
  Sn2+  Sn46  1  0.16350995  0.66910302  0.16567855  1
  Sn2+  Sn47  1  0.00076430  -0.00036965  0.66303575  1
  Sn2+  Sn48  1  0.16865863  0.83595267  0.34453154  1
  Sn2+  Sn49  1  0.82475207  0.83029346  -0.00531317  1
  Sn2+  Sn50  1  0.34015235  0.49705672  0.50178644  1
  Sn2+  Sn51  1  0.50010170  0.49289190  0.33602988  1
  Sn2+  Sn52  1  0.34525599  0.00072525  0.33170562  1
  Sn2+  Sn53  1  0.16739102  -0.00119247  0.50076714  1
  Sn2+  Sn54  1  0.16495202  0.33022072  0.49890999  1
  Sn2+  Sn55  1  0.33109145  0.00715704  0.66309271  1
  Sn2+  Sn56  1  0.01631090  0.66482526  -0.00153299  1
  Sn2+  Sn57  1  0.83052593  0.00472141  0.82945250  1
  Sn2+  Sn58  1  0.33604012  0.17719090  0.17352404  1
  Sn2+  Sn59  1  0.17309785  0.16496299  0.00346461  1
  Sn2+  Sn60  1  0.16249132  0.66555004  0.50994810  1
  Sn2+  Sn61  1  0.33400321  -0.00286701  0.00236833  1
  Sn2+  Sn62  1  0.16768072  0.49966427  0.34080707  1
  Sn2+  Sn63  1  0.83365552  0.49776165  0.00580051  1
  Sn2+  Sn64  1  0.33238197  0.32980526  0.66901243  1
  Bi3+  Bi65  1  0.49561462  0.83059039  0.66861388  1
  Bi3+  Bi66  1  -0.00139366  -0.00336205  -0.00238053  1
  Bi3+  Bi67  1  0.50093729  0.65745619  0.49782208  1
  Bi3+  Bi68  1  -0.00312995  0.83354677  0.16456509  1
  Bi3+  Bi69  1  0.16611979  0.66904004  0.83289251  1
  Bi3+  Bi70  1  -0.00226929  0.15856943  0.49851671  1
  Bi3+  Bi71  1  0.00311165  0.33894880  0.66184396  1
  Bi3+  Bi72  1  0.00200274  0.33388861  0.00096440  1
  Bi3+  Bi73  1  0.83579366  0.16225334  0.00072169  1
  Bi3+  Bi74  1  0.16569019  0.50155092  -0.00306280  1
  Bi3+  Bi75  1  0.83559244  0.66887813  0.83636776  1
  Bi3+  Bi76  1  0.16878667  -0.00146848  0.16294048  1
  Bi3+  Bi77  1  0.33173273  0.33162293  0.33218120  1
  Bi3+  Bi78  1  0.49848560  0.00398734  0.17048141  1
  Bi3+  Bi79  1  0.00139974  0.66725244  0.33217795  1
  Bi3+  Bi80  1  0.83610184  0.83605225  0.32609246  1
  Bi3+  Bi81  1  0.49733379  0.83167260  -0.00133230  1
  Bi3+  Bi82  1  0.49981705  0.16918644  0.33087172  1
  Bi3+  Bi83  1  0.16773095  0.83315358  0.00382870  1
  Bi3+  Bi84  1  0.49530363  0.49968987  0.66505757  1
  Bi3+  Bi85  1  0.49720920  0.33326976  0.82916341  1
  Te2-  Te86  1  0.16413880  0.15956691  0.16401378  1
  Te2-  Te87  1  0.15769381  0.16190262  0.49625430  1
  Te2-  Te88  1  0.17469363  0.15868703  0.83322404  1
  Te2-  Te89  1  0.16224666  0.50777413  0.16229666  1
  Te2-  Te90  1  0.16982249  0.50457160  0.50317712  1
  Te2-  Te91  1  0.17253202  0.50662943  0.83570233  1
  Te2-  Te92  1  0.16513957  0.83582534  0.16546020  1
  Te2-  Te93  1  0.18245840  0.83243820  0.50206282  1
  Te2-  Te94  1  0.17799339  0.83877816  0.84155607  1
  Te2-  Te95  1  0.50717566  0.16870746  0.16955589  1
  Te2-  Te96  1  0.50651357  0.17767448  0.49386377  1
  Te2-  Te97  1  0.49524857  0.16670817  0.83301578  1
  Te2-  Te98  1  0.49364738  0.49609217  0.16894366  1
  Te2-  Te99  1  0.49918876  0.49370900  0.50147221  1
  Te2-  Te100  1  0.48819300  0.49810906  0.82767626  1
  Te2-  Te101  1  0.49988228  0.83814988  0.16119123  1
  Te2-  Te102  1  0.49297839  0.82521800  0.50045342  1
  Te2-  Te103  1  0.48096810  0.84095716  0.83403744  1
  Te2-  Te104  1  0.83265312  0.15668083  0.16392324  1
  Te2-  Te105  1  0.83781279  0.18831845  0.49761414  1
  Te2-  Te106  1  0.83354212  0.16350731  0.83721402  1
  Te2-  Te107  1  0.84499266  0.50165066  0.17295801  1
  Te2-  Te108  1  0.83530051  0.48599576  0.48178514  1
  Te2-  Te109  1  0.83256043  0.50384512  0.84142430  1
  Te2-  Te110  1  0.82948233  0.83286734  0.16357367  1
  Te2-  Te111  1  0.83196502  0.83131722  0.49642268  1
  Te2-  Te112  1  0.83494745  0.83254574  0.83354292  1
  Te2-  Te113  1  0.16305916  -0.00264768  -0.00291776  1
  Te2-  Te114  1  0.16805767  -0.00270642  0.32752504  1
  Te2-  Te115  1  0.16414899  -0.00674523  0.67137985  1
  Te2-  Te116  1  0.16328559  0.33413724  0.00631411  1
  Te2-  Te117  1  0.16508069  0.33637137  0.32698451  1
  Te2-  Te118  1  0.16383186  0.33804237  0.66774899  1
  Te2-  Te119  1  0.18365749  0.66957965  -0.00262065  1
  Te2-  Te120  1  0.16242670  0.66796290  0.33394445  1
  Te2-  Te121  1  0.17659410  0.67491603  0.67186227  1
  Te2-  Te122  1  0.49777893  0.00008108  0.00812130  1
  Te2-  Te123  1  0.51222345  0.00468571  0.33104503  1
  Te2-  Te124  1  0.50066093  -0.00396257  0.65261333  1
  Te2-  Te125  1  0.49953009  0.34436801  -0.00809841  1
  Te2-  Te126  1  0.49306902  0.33141537  0.33187776  1
  Te2-  Te127  1  0.50020238  0.33316991  0.66338190  1
  Te2-  Te128  1  0.48928096  0.66672818  0.00490321  1
  Te2-  Te129  1  0.50000985  0.66363007  0.33289385  1
  Te2-  Te130  1  0.49113138  0.66531416  0.66270400  1
  Te2-  Te131  1  0.83646883  -0.00249667  -0.00033717  1
  Te2-  Te132  1  0.82544762  0.00050414  0.33871964  1
  Te2-  Te133  1  0.83962823  -0.00345836  0.66002983  1
  Te2-  Te134  1  0.84157486  0.32830082  0.01429959  1
  Te2-  Te135  1  0.83730551  0.32644783  0.31032458  1
  Te2-  Te136  1  0.84266787  0.35525198  0.66747429  1
  Te2-  Te137  1  0.83893775  0.66795048  -0.00158549  1
  Te2-  Te138  1  0.83905747  0.67154639  0.33047017  1
  Te2-  Te139  1  0.83794759  0.65264621  0.66943487  1
  Te2-  Te140  1  0.00017993  0.16440227  0.00175162  1
  Te2-  Te141  1  -0.00886756  0.17090306  0.33269657  1
  Te2-  Te142  1  -0.00812110  0.17300591  0.66337461  1
  Te2-  Te143  1  0.00318784  0.49886645  0.00416867  1
  Te2-  Te144  1  0.00400121  0.50109313  0.32459567  1
  Te2-  Te145  1  0.00723148  0.50531738  0.66409085  1
  Te2-  Te146  1  0.00166193  0.83216758  0.00188456  1
  Te2-  Te147  1  -0.00143143  0.83201187  0.32846217  1
  Te2-  Te148  1  0.00984912  0.82969751  0.66567399  1
  Te2-  Te149  1  0.33223466  0.17017426  0.00786723  1
  Te2-  Te150  1  0.33534598  0.16815766  0.33948221  1
  Te2-  Te151  1  0.33074989  0.16441771  0.65074639  1
  Te2-  Te152  1  0.32650251  0.49748929  -0.00950185  1
  Te2-  Te153  1  0.32861255  0.49518126  0.33349669  1
  Te2-  Te154  1  0.33285391  0.49618363  0.67089676  1
  Te2-  Te155  1  0.33312048  0.83484386  0.01091817  1
  Te2-  Te156  1  0.33175287  0.83252076  0.31399206  1
  Te2-  Te157  1  0.33679381  0.84645684  0.67304667  1
  Te2-  Te158  1  0.67210209  0.16611890  0.00553805  1
  Te2-  Te159  1  0.67383470  0.17284466  0.32524973  1
  Te2-  Te160  1  0.67684073  0.17193447  0.66902586  1
  Te2-  Te161  1  0.67258275  0.50228716  0.00893041  1
  Te2-  Te162  1  0.66684196  0.49654070  0.31281249  1
  Te2-  Te163  1  0.66082048  0.49133805  0.66581898  1
  Te2-  Te164  1  0.65846113  0.83331719  -0.02213329  1
  Te2-  Te165  1  0.67195804  0.83007090  0.33526856  1
  Te2-  Te166  1  0.66099336  0.83470013  0.67838071  1
  Te2-  Te167  1  0.00275421  -0.00383017  0.16234603  1
  Te2-  Te168  1  0.00146833  -0.00356135  0.50133236  1
  Te2-  Te169  1  -0.00338195  -0.00960264  0.83517507  1
  Te2-  Te170  1  0.01020464  0.33140791  0.16595783  1
  Te2-  Te171  1  0.00333145  0.32910505  0.49506901  1
  Te2-  Te172  1  0.00300788  0.33366818  0.83388811  1
  Te2-  Te173  1  -0.00185922  0.67246608  0.16608744  1
  Te2-  Te174  1  0.00265278  0.67868341  0.49828598  1
  Te2-  Te175  1  0.00215407  0.67403474  0.83053501  1
  Te2-  Te176  1  0.33305007  0.00947037  0.16768559  1
  Te2-  Te177  1  0.33088327  -0.01044753  0.49038417  1
  Te2-  Te178  1  0.34262993  0.01624877  0.83403878  1
  Te2-  Te179  1  0.32508246  0.34119391  0.16774459  1
  Te2-  Te180  1  0.32274054  0.33615813  0.49690863  1
  Te2-  Te181  1  0.33750798  0.31360606  0.82892209  1
  Te2-  Te182  1  0.33658968  0.65201618  0.16907527  1
  Te2-  Te183  1  0.33593782  0.66903198  0.50686141  1
  Te2-  Te184  1  0.33089012  0.66959024  0.82465169  1
  Te2-  Te185  1  0.66465767  -0.00802632  0.17798001  1
  Te2-  Te186  1  0.67102731  -0.00039899  0.49114659  1
  Te2-  Te187  1  0.65707801  0.01210206  0.83369440  1
  Te2-  Te188  1  0.66545750  0.33544650  0.16905258  1
  Te2-  Te189  1  0.66961060  0.34435234  0.50362100  1
  Te2-  Te190  1  0.66369867  0.32581872  0.82636980  1
  Te2-  Te191  1  0.65766696  0.66717041  0.16472070  1
  Te2-  Te192  1  0.66431906  0.65487326  0.50961922  1
  Te2-  Te193  1  0.67102791  0.66371035  0.81962034  1
  Pb2+  Pb194  1  0.49945242  0.67135226  0.83460952  1
  Pb2+  Pb195  1  0.00186374  0.50398874  0.49467005  1
  Pb2+  Pb196  1  0.83179297  0.65467709  0.49755387  1
  Pb2+  Pb197  1  0.65780562  0.49951780  0.83395599  1
  Pb2+  Pb198  1  0.33182766  0.66523205  0.33898190  1
  Pb2+  Pb199  1  0.00363285  0.15826493  0.83234114  1
  Pb2+  Pb200  1  0.83442418  0.33050376  0.84010515  1
  Pb2+  Pb201  1  0.66558934  -0.00401248  0.00880570  1
  Pb2+  Pb202  1  0.67224379  0.00114831  0.66251381  1
  Pb2+  Pb203  1  0.66429249  0.66934729  -0.00351465  1
  Pb2+  Pb204  1  0.16557019  0.16834592  0.32971125  1
  Pb2+  Pb205  1  0.67067796  0.16992442  0.49606570  1
  Pb2+  Pb206  1  0.17308302  0.33616128  0.83677639  1
  Pb2+  Pb207  1  0.83891363  0.82837391  0.66843222  1
  Pb2+  Pb208  1  0.50033135  0.17173856  0.00194102  1
  Pb2+  Pb209  1  0.49842994  0.16377131  0.66393577  1
  Pb2+  Pb210  1  -0.00283261  0.00077696  0.33364341  1
  Pb2+  Pb211  1  0.16584560  0.16520836  0.66324481  1
  Pb2+  Pb212  1  0.67012400  0.33409641  -0.00002582  1
  Pb2+  Pb213  1  0.49649522  0.83612715  0.33229181  1
  Pb2+  Pb214  1  0.66812968  0.66015139  0.33926744  1
  Pb2+  Pb215  1  0.66012817  0.82705457  0.50960103  1
