# generated using pymatgen
data_In22Ag21Sn22Bi21(Te54Pb11)2
_symmetry_space_group_name_H-M   'P 1'
_cell_length_a   19.13040642
_cell_length_b   19.14557703
_cell_length_c   19.14322141
_cell_angle_alpha   89.98439579
_cell_angle_beta   90.00006329
_cell_angle_gamma   89.98609713
_symmetry_Int_Tables_number   1
_chemical_formula_structural   In22Ag21Sn22Bi21(Te54Pb11)2
_chemical_formula_sum   'In22 Ag21 Sn22 Bi21 Te108 Pb22'
_cell_volume   7011.44691284
_cell_formula_units_Z   1
loop_
 _symmetry_equiv_pos_site_id
 _symmetry_equiv_pos_as_xyz
  1  'x, y, z'
loop_
 _atom_type_symbol
 _atom_type_oxidation_number
  In3+  3.0
  Ag+  1.0
  Sn2+  2.0
  Bi3+  3.0
  Te2-  -2.0
  Pb2+  2.0
loop_
 _atom_site_type_symbol
 _atom_site_label
 _atom_site_symmetry_multiplicity
 _atom_site_fract_x
 _atom_site_fract_y
 _atom_site_fract_z
 _atom_site_occupancy
  In3+  In0  1  0.84370421  -0.00303374  0.16393214  1
  In3+  In1  1  0.18089137  0.65529754  0.49535116  1
  In3+  In2  1  0.03590405  0.51494417  0.16426306  1
  In3+  In3  1  0.83303810  0.85493154  0.65990585  1
  In3+  In4  1  0.32178628  -0.00473910  0.32743457  1
  In3+  In5  1  -0.00220052  -0.00795197  0.00293360  1
  In3+  In6  1  0.32780729  0.35228194  0.65820341  1
  In3+  In7  1  0.32727350  0.16653464  0.49915680  1
  In3+  In8  1  0.47376948  0.33150845  0.84790008  1
  In3+  In9  1  0.64802701  0.49474145  0.84184593  1
  In3+  In10  1  0.48850893  0.83352154  0.66741361  1
  In3+  In11  1  0.63956368  0.33475416  0.67864356  1
  In3+  In12  1  0.34973649  0.66170265  0.33907838  1
  In3+  In13  1  0.48360358  0.00218815  0.50373853  1
  In3+  In14  1  0.83827611  0.82134097  0.33550557  1
  In3+  In15  1  0.51803359  0.16670561  0.01237488  1
  In3+  In16  1  0.14305802  -0.00832987  0.50511692  1
  In3+  In17  1  0.65717169  0.84032373  0.50002293  1
  In3+  In18  1  0.83906387  0.14897409  0.32922472  1
  In3+  In19  1  0.81470570  0.66522512  0.18504311  1
  In3+  In20  1  0.66842042  0.18039561  0.50218974  1
  In3+  In21  1  0.00460093  0.66552069  0.64677496  1
  Ag+  Ag22  1  0.14344085  -0.00002938  0.14591393  1
  Ag+  Ag23  1  0.69640132  0.33358133  -0.02589691  1
  Ag+  Ag24  1  0.32420057  0.52097106  0.48814857  1
  Ag+  Ag25  1  0.84864429  0.16651615  0.01652663  1
  Ag+  Ag26  1  0.33446652  0.35936418  0.36467525  1
  Ag+  Ag27  1  0.00835393  0.64272953  0.34938318  1
  Ag+  Ag28  1  0.17012417  0.35493128  0.81020400  1
  Ag+  Ag29  1  0.47824165  0.63858820  0.16139938  1
  Ag+  Ag30  1  0.00714166  -0.03156672  0.69143279  1
  Ag+  Ag31  1  0.18945157  0.83695194  -0.02264987  1
  Ag+  Ag32  1  0.31300942  0.50897850  0.83040204  1
  Ag+  Ag33  1  0.47837444  -0.00326731  0.13698852  1
  Ag+  Ag34  1  0.82799268  -0.01747952  0.46702825  1
  Ag+  Ag35  1  0.02179960  -0.01544542  0.33243203  1
  Ag+  Ag36  1  0.33826548  0.52895984  0.18886492  1
  Ag+  Ag37  1  0.83293792  0.68792600  0.49465455  1
  Ag+  Ag38  1  0.17065239  0.68597903  0.86506642  1
  Ag+  Ag39  1  0.30671600  0.85979226  0.49236020  1
  Ag+  Ag40  1  0.82950995  0.80663618  0.02739409  1
  Ag+  Ag41  1  0.47885142  0.35233269  0.49981313  1
  Ag+  Ag42  1  0.18406667  0.51251201  0.68480579  1
  Sn2+  Sn43  1  0.16340215  0.82923233  0.32848788  1
  Sn2+  Sn44  1  0.16707380  0.34080670  0.49867277  1
  Sn2+  Sn45  1  0.33301892  0.82059189  0.82834715  1
  Sn2+  Sn46  1  0.00868764  0.32824489  0.32821438  1
  Sn2+  Sn47  1  0.67728310  0.00754576  0.00390001  1
  Sn2+  Sn48  1  0.32683743  -0.00229885  0.00070669  1
  Sn2+  Sn49  1  0.66187401  0.00001796  0.33470035  1
  Sn2+  Sn50  1  0.00118313  0.17017382  0.16201426  1
  Sn2+  Sn51  1  0.49748935  0.16370150  0.66567572  1
  Sn2+  Sn52  1  0.82932115  0.33713176  0.16966274  1
  Sn2+  Sn53  1  0.49185754  0.32555969  0.17896930  1
  Sn2+  Sn54  1  0.32812568  0.16928018  0.83312417  1
  Sn2+  Sn55  1  0.65835412  0.33268221  0.33366129  1
  Sn2+  Sn56  1  0.66450085  0.50207450  0.50994791  1
  Sn2+  Sn57  1  0.49416500  0.50105527  0.65978499  1
  Sn2+  Sn58  1  0.16764472  0.67865344  0.17277372  1
  Sn2+  Sn59  1  0.16755306  0.16672637  0.33200079  1
  Sn2+  Sn60  1  0.17167865  0.50547931  -0.01066148  1
  Sn2+  Sn61  1  -0.00079715  0.32982934  -0.00150292  1
  Sn2+  Sn62  1  0.32497065  0.00001709  0.66815424  1
  Sn2+  Sn63  1  0.49517153  0.00675165  0.82989869  1
  Sn2+  Sn64  1  0.84812561  0.66592503  0.82520143  1
  Bi3+  Bi65  1  0.67457306  0.66418256  0.66813528  1
  Bi3+  Bi66  1  0.16908442  0.32638306  0.16935894  1
  Bi3+  Bi67  1  0.33298094  0.16371269  0.16866638  1
  Bi3+  Bi68  1  0.33378603  0.66565917  0.66474275  1
  Bi3+  Bi69  1  0.83540993  0.16992083  0.66210544  1
  Bi3+  Bi70  1  0.50176155  0.16557378  0.33640468  1
  Bi3+  Bi71  1  0.82943808  0.33253093  0.49554582  1
  Bi3+  Bi72  1  0.66842074  0.82909325  0.83181077  1
  Bi3+  Bi73  1  0.00410714  0.33747402  0.66438573  1
  Bi3+  Bi74  1  0.66928682  0.16681125  0.17132015  1
  Bi3+  Bi75  1  0.83256711  0.49656214  0.33224378  1
  Bi3+  Bi76  1  0.32457877  0.32769165  -0.00206941  1
  Bi3+  Bi77  1  0.83542579  0.50010212  0.66499248  1
  Bi3+  Bi78  1  0.66745797  0.84027765  0.16537210  1
  Bi3+  Bi79  1  -0.00090529  0.66849434  0.00352059  1
  Bi3+  Bi80  1  0.00074336  0.16702836  0.49500540  1
  Bi3+  Bi81  1  0.00392754  0.50152692  0.83601536  1
  Bi3+  Bi82  1  0.00158487  0.83398834  0.16796698  1
  Bi3+  Bi83  1  0.33210190  0.83882857  0.17338481  1
  Bi3+  Bi84  1  0.83006892  -0.00029907  0.83470200  1
  Bi3+  Bi85  1  -0.00036801  0.83706907  0.49678547  1
  Te2-  Te86  1  0.16908511  0.15323364  0.16976789  1
  Te2-  Te87  1  0.16704189  0.17044751  0.49637929  1
  Te2-  Te88  1  0.16867638  0.16498289  0.83309762  1
  Te2-  Te89  1  0.18663551  0.50099619  0.16272465  1
  Te2-  Te90  1  0.17660434  0.50124887  0.49880238  1
  Te2-  Te91  1  0.16429686  0.50067833  0.83172490  1
  Te2-  Te92  1  0.16697766  0.84844692  0.17077052  1
  Te2-  Te93  1  0.16127795  0.83452592  0.49684204  1
  Te2-  Te94  1  0.17146169  0.83047650  0.83168234  1
  Te2-  Te95  1  0.50014145  0.15245774  0.17024390  1
  Te2-  Te96  1  0.51360761  0.15567118  0.49965901  1
  Te2-  Te97  1  0.49526758  0.17793188  0.82687952  1
  Te2-  Te98  1  0.48505661  0.49233730  0.16774873  1
  Te2-  Te99  1  0.49612254  0.49961793  0.50413039  1
  Te2-  Te100  1  0.49759652  0.48883511  0.82814190  1
  Te2-  Te101  1  0.50267545  0.85105333  0.16606212  1
  Te2-  Te102  1  0.50670220  0.83712981  0.50473181  1
  Te2-  Te103  1  0.50272665  0.83167677  0.82890346  1
  Te2-  Te104  1  0.83120382  0.16957864  0.16941870  1
  Te2-  Te105  1  0.83346859  0.16850814  0.49568860  1
  Te2-  Te106  1  0.83044471  0.16565211  0.82742250  1
  Te2-  Te107  1  0.82538866  0.50307607  0.16965837  1
  Te2-  Te108  1  0.83264041  0.49516993  0.49876595  1
  Te2-  Te109  1  0.84016108  0.50012471  0.83047708  1
  Te2-  Te110  1  0.83236766  0.83346077  0.17268133  1
  Te2-  Te111  1  0.83903839  0.83792016  0.50361502  1
  Te2-  Te112  1  0.82956336  0.83451960  0.82007182  1
  Te2-  Te113  1  0.15622483  -0.01380110  -0.00025143  1
  Te2-  Te114  1  0.16933559  0.00128852  0.35033524  1
  Te2-  Te115  1  0.15216983  -0.00141589  0.65909228  1
  Te2-  Te116  1  0.16306403  0.33169618  0.00887338  1
  Te2-  Te117  1  0.18382416  0.33182138  0.33001839  1
  Te2-  Te118  1  0.17069863  0.34234358  0.66188379  1
  Te2-  Te119  1  0.16410546  0.68005712  0.01209791  1
  Te2-  Te120  1  0.15561206  0.66880840  0.33911416  1
  Te2-  Te121  1  0.16764765  0.65672631  0.65142712  1
  Te2-  Te122  1  0.50333623  0.01156413  -0.00816423  1
  Te2-  Te123  1  0.50196117  0.00376021  0.34865508  1
  Te2-  Te124  1  0.50348130  -0.00807558  0.66160613  1
  Te2-  Te125  1  0.49032678  0.32158352  0.00090503  1
  Te2-  Te126  1  0.48615487  0.32530812  0.34738152  1
  Te2-  Te127  1  0.49245496  0.33233265  0.65156162  1
  Te2-  Te128  1  0.49738554  0.66445335  0.00874106  1
  Te2-  Te129  1  0.50111105  0.66771472  0.32459394  1
  Te2-  Te130  1  0.50259478  0.67046832  0.66775342  1
  Te2-  Te131  1  0.83752290  0.01423280  -0.00021684  1
  Te2-  Te132  1  0.83007120  -0.00061125  0.32148918  1
  Te2-  Te133  1  0.84823861  0.00785776  0.67012271  1
  Te2-  Te134  1  0.84031706  0.32145320  0.00267846  1
  Te2-  Te135  1  0.83312782  0.33464224  0.33318552  1
  Te2-  Te136  1  0.83790463  0.33523213  0.66103648  1
  Te2-  Te137  1  0.83666541  0.66373201  -0.00859971  1
  Te2-  Te138  1  0.84395294  0.66417090  0.34053521  1
  Te2-  Te139  1  0.83943766  0.65983903  0.66355724  1
  Te2-  Te140  1  -0.00447107  0.16035207  0.00427912  1
  Te2-  Te141  1  -0.00436965  0.16971181  0.33318660  1
  Te2-  Te142  1  0.00003661  0.17488772  0.65991645  1
  Te2-  Te143  1  0.00426622  0.50098067  0.00530987  1
  Te2-  Te144  1  -0.00424390  0.49781245  0.32293266  1
  Te2-  Te145  1  0.00038718  0.50154086  0.66677168  1
  Te2-  Te146  1  -0.01974982  0.83700203  0.00820249  1
  Te2-  Te147  1  -0.00831528  0.83959458  0.33007929  1
  Te2-  Te148  1  -0.00347950  0.82384691  0.66328371  1
  Te2-  Te149  1  0.33319747  0.16136306  0.00219299  1
  Te2-  Te150  1  0.33874923  0.15420830  0.33572805  1
  Te2-  Te151  1  0.33709401  0.15867913  0.66191073  1
  Te2-  Te152  1  0.32805553  0.49248347  -0.01837114  1
  Te2-  Te153  1  0.33325611  0.50678038  0.33854165  1
  Te2-  Te154  1  0.33275964  0.50228070  0.67656782  1
  Te2-  Te155  1  0.33564005  0.83777640  0.00292172  1
  Te2-  Te156  1  0.33283392  0.84128973  0.34428335  1
  Te2-  Te157  1  0.33573518  0.82851345  0.65415604  1
  Te2-  Te158  1  0.66815527  0.18134812  0.00561385  1
  Te2-  Te159  1  0.66913490  0.16667225  0.33634252  1
  Te2-  Te160  1  0.67008006  0.17248702  0.66360201  1
  Te2-  Te161  1  0.66640566  0.48373664  -0.00437168  1
  Te2-  Te162  1  0.66939445  0.49953868  0.33729772  1
  Te2-  Te163  1  0.66930439  0.49808935  0.67255871  1
  Te2-  Te164  1  0.68040082  0.83592119  -0.00177616  1
  Te2-  Te165  1  0.67784607  0.83341264  0.33174270  1
  Te2-  Te166  1  0.67475235  0.82792940  0.66568172  1
  Te2-  Te167  1  -0.00204867  -0.00005595  0.17828957  1
  Te2-  Te168  1  -0.00747744  0.00391551  0.48479522  1
  Te2-  Te169  1  -0.00531666  -0.00315541  0.83598711  1
  Te2-  Te170  1  0.00716810  0.33693318  0.16826853  1
  Te2-  Te171  1  -0.00088144  0.33330180  0.49859452  1
  Te2-  Te172  1  0.01578267  0.33692427  0.82901636  1
  Te2-  Te173  1  0.00078433  0.66820226  0.16450198  1
  Te2-  Te174  1  -0.01229446  0.67201295  0.49396006  1
  Te2-  Te175  1  0.01741834  0.66261267  0.84122602  1
  Te2-  Te176  1  0.33421957  -0.00051075  0.17045467  1
  Te2-  Te177  1  0.33224203  0.00269747  0.50853211  1
  Te2-  Te178  1  0.33801284  -0.00541281  0.82954607  1
  Te2-  Te179  1  0.33134830  0.32362819  0.16190274  1
  Te2-  Te180  1  0.33369643  0.31949749  0.50663248  1
  Te2-  Te181  1  0.32226935  0.33077213  0.82971521  1
  Te2-  Te182  1  0.33693762  0.67925294  0.17890894  1
  Te2-  Te183  1  0.33625781  0.66834124  0.49734525  1
  Te2-  Te184  1  0.32189608  0.66339781  0.82808149  1
  Te2-  Te185  1  0.67463775  0.00330994  0.16332811  1
  Te2-  Te186  1  0.68214581  -0.01142831  0.49760556  1
  Te2-  Te187  1  0.66646490  -0.00585087  0.83139183  1
  Te2-  Te188  1  0.65753991  0.32917370  0.17509489  1
  Te2-  Te189  1  0.66740968  0.33461213  0.50100657  1
  Te2-  Te190  1  0.66627026  0.33631369  0.82948607  1
  Te2-  Te191  1  0.66300769  0.67414964  0.16532453  1
  Te2-  Te192  1  0.68002096  0.67160347  0.50734294  1
  Te2-  Te193  1  0.66737789  0.66324657  0.83001464  1
  Pb2+  Pb194  1  -0.00267845  0.82826565  0.83966630  1
  Pb2+  Pb195  1  0.83677634  0.49537844  0.00249105  1
  Pb2+  Pb196  1  0.66276530  0.16369333  0.83693589  1
  Pb2+  Pb197  1  0.50813076  0.83726819  0.00064428  1
  Pb2+  Pb198  1  0.66668464  0.66279124  -0.00116654  1
  Pb2+  Pb199  1  0.50025392  0.49292276  0.33529445  1
  Pb2+  Pb200  1  0.00445649  0.50423275  0.49728496  1
  Pb2+  Pb201  1  0.67470075  0.00265246  0.66082887  1
  Pb2+  Pb202  1  0.16991471  0.17042803  0.66457274  1
  Pb2+  Pb203  1  -0.00124347  0.16551627  0.83244587  1
  Pb2+  Pb204  1  0.50793494  0.66710615  0.49832191  1
  Pb2+  Pb205  1  0.16446992  0.16024814  0.00124339  1
  Pb2+  Pb206  1  0.49291303  0.66127413  0.83597116  1
  Pb2+  Pb207  1  0.16877766  -0.00027523  0.83069597  1
  Pb2+  Pb208  1  0.49342554  0.49448157  0.00050879  1
  Pb2+  Pb209  1  0.50253416  0.83685964  0.33168647  1
  Pb2+  Pb210  1  0.16802939  0.82528610  0.66546934  1
  Pb2+  Pb211  1  0.33032939  0.66362852  0.00333528  1
  Pb2+  Pb212  1  0.67247761  0.66678226  0.33883200  1
  Pb2+  Pb213  1  0.16556934  0.49959453  0.33009953  1
  Pb2+  Pb214  1  0.65718055  0.49831403  0.16640420  1
  Pb2+  Pb215  1  0.84295511  0.33329364  0.83086162  1
