# generated using pymatgen
data_In22Ag21Sn22Bi21(Te54Pb11)2
_symmetry_space_group_name_H-M   'P 1'
_cell_length_a   19.12169600
_cell_length_b   19.13774453
_cell_length_c   19.11263987
_cell_angle_alpha   89.98491655
_cell_angle_beta   89.98669979
_cell_angle_gamma   90.00111495
_symmetry_Int_Tables_number   1
_chemical_formula_structural   In22Ag21Sn22Bi21(Te54Pb11)2
_chemical_formula_sum   'In22 Ag21 Sn22 Bi21 Te108 Pb22'
_cell_volume   6994.19622179
_cell_formula_units_Z   1
loop_
 _symmetry_equiv_pos_site_id
 _symmetry_equiv_pos_as_xyz
  1  'x, y, z'
loop_
 _atom_type_symbol
 _atom_type_oxidation_number
  In3+  3.0
  Ag+  1.0
  Sn2+  2.0
  Bi3+  3.0
  Te2-  -2.0
  Pb2+  2.0
loop_
 _atom_site_type_symbol
 _atom_site_label
 _atom_site_symmetry_multiplicity
 _atom_site_fract_x
 _atom_site_fract_y
 _atom_site_fract_z
 _atom_site_occupancy
  In3+  In0  1  -0.00872525  0.16557269  0.16640979  1
  In3+  In1  1  0.50871720  -0.00374386  0.49343200  1
  In3+  In2  1  0.49894549  0.01531858  0.17489706  1
  In3+  In3  1  0.83760051  0.02198679  0.83040429  1
  In3+  In4  1  0.00214726  0.17602006  0.83510289  1
  In3+  In5  1  0.17601126  0.16787656  0.00741115  1
  In3+  In6  1  0.47498280  0.16849516  0.66908638  1
  In3+  In7  1  0.81560859  0.83034488  0.00194187  1
  In3+  In8  1  -0.01397065  -0.00064424  0.33264813  1
  In3+  In9  1  0.33547526  0.19261205  0.84434062  1
  In3+  In10  1  0.66593419  0.17570393  0.85776164  1
  In3+  In11  1  0.17055146  0.83102825  -0.00112156  1
  In3+  In12  1  0.48855095  0.82650711  0.00222674  1
  In3+  In13  1  0.01280673  0.49120247  0.16547650  1
  In3+  In14  1  -0.00076945  0.65717026  0.32660674  1
  In3+  In15  1  0.18213955  -0.00164240  0.49831229  1
  In3+  In16  1  0.36390267  0.63265377  0.66402779  1
  In3+  In17  1  -0.00346286  0.84511387  0.83237512  1
  In3+  In18  1  0.83393507  0.48140110  0.00639819  1
  In3+  In19  1  0.00166817  0.01306761  0.64679789  1
  In3+  In20  1  0.48914765  0.32833349  0.16229124  1
  In3+  In21  1  0.49523257  0.48067056  0.66492392  1
  Ag+  Ag22  1  0.15331230  0.19223573  0.69855530  1
  Ag+  Ag23  1  0.32868611  0.64167333  0.02641426  1
  Ag+  Ag24  1  0.86050923  0.49587212  0.64400118  1
  Ag+  Ag25  1  0.85580453  -0.00329826  0.18611641  1
  Ag+  Ag26  1  0.66781343  0.00547235  0.30866052  1
  Ag+  Ag27  1  0.19324364  0.46655498  0.00351557  1
  Ag+  Ag28  1  0.00173350  0.35680437  0.35341399  1
  Ag+  Ag29  1  0.65533998  0.64072141  0.64199712  1
  Ag+  Ag30  1  0.31155802  0.33132079  0.64031472  1
  Ag+  Ag31  1  0.66015659  0.18300364  0.16802931  1
  Ag+  Ag32  1  0.31239132  0.01480443  0.32870835  1
  Ag+  Ag33  1  0.30495770  0.34632795  0.01439498  1
  Ag+  Ag34  1  0.66542292  0.47661176  0.14248928  1
  Ag+  Ag35  1  0.83585261  0.35153684  0.83916386  1
  Ag+  Ag36  1  0.31531169  0.51590424  0.49438358  1
  Ag+  Ag37  1  0.32276650  0.49554785  0.85415759  1
  Ag+  Ag38  1  0.14561578  0.35065413  0.16964641  1
  Ag+  Ag39  1  0.31336743  0.17661595  0.14708688  1
  Ag+  Ag40  1  0.65851924  0.36482963  0.03198300  1
  Ag+  Ag41  1  0.67147818  0.81265953  0.51400843  1
  Ag+  Ag42  1  0.02111043  0.50021268  0.46794056  1
  Sn2+  Sn43  1  0.67043140  0.33119274  0.66779624  1
  Sn2+  Sn44  1  0.67212634  0.67382277  0.33267928  1
  Sn2+  Sn45  1  0.67664801  0.33143161  0.33133367  1
  Sn2+  Sn46  1  0.17378547  0.49098515  0.33351918  1
  Sn2+  Sn47  1  0.32914677  0.84986257  0.16480184  1
  Sn2+  Sn48  1  0.16829383  0.83012993  0.67033968  1
  Sn2+  Sn49  1  0.01296850  0.66755623  0.00019580  1
  Sn2+  Sn50  1  0.66974564  0.16376081  0.49729312  1
  Sn2+  Sn51  1  0.82873457  0.83197536  0.32856448  1
  Sn2+  Sn52  1  0.83052447  0.66211245  0.16522407  1
  Sn2+  Sn53  1  0.66908914  0.83413742  0.81963783  1
  Sn2+  Sn54  1  0.83812753  0.66307317  0.51005323  1
  Sn2+  Sn55  1  0.82904127  0.49674726  0.33258731  1
  Sn2+  Sn56  1  0.16910281  0.65781784  0.15768661  1
  Sn2+  Sn57  1  0.00577831  0.17879065  0.49501726  1
  Sn2+  Sn58  1  0.16861087  0.66119802  0.83464294  1
  Sn2+  Sn59  1  0.65983566  0.66507866  0.00037902  1
  Sn2+  Sn60  1  0.32656514  0.67461133  0.33350202  1
  Sn2+  Sn61  1  0.82448055  -0.00717465  0.49824296  1
  Sn2+  Sn62  1  0.17465892  0.00217955  0.16962589  1
  Sn2+  Sn63  1  0.49647994  0.49799161  -0.00172531  1
  Sn2+  Sn64  1  0.17066474  0.33186667  0.49389722  1
  Bi3+  Bi65  1  0.16794918  0.83493590  0.33107772  1
  Bi3+  Bi66  1  0.66470318  0.83319523  0.16729253  1
  Bi3+  Bi67  1  0.67192405  0.00679725  0.66775709  1
  Bi3+  Bi68  1  -0.00518477  0.66619438  0.66796053  1
  Bi3+  Bi69  1  0.16761320  0.16648951  0.33155852  1
  Bi3+  Bi70  1  0.33121254  0.16626010  0.49831914  1
  Bi3+  Bi71  1  0.83599240  0.33437067  0.50157750  1
  Bi3+  Bi72  1  0.00405834  0.50216345  0.84326519  1
  Bi3+  Bi73  1  0.50541901  0.16747046  0.00047755  1
  Bi3+  Bi74  1  0.50271515  0.83503314  0.33009674  1
  Bi3+  Bi75  1  0.49968140  0.84193854  0.66499522  1
  Bi3+  Bi76  1  0.83375416  0.16582818  0.33354232  1
  Bi3+  Bi77  1  0.66446185  -0.00070000  -0.00116069  1
  Bi3+  Bi78  1  -0.00736789  0.33190917  0.00030842  1
  Bi3+  Bi79  1  0.50377783  0.33482162  0.84020580  1
  Bi3+  Bi80  1  0.49838612  0.66313766  0.83572247  1
  Bi3+  Bi81  1  0.50704735  0.16696057  0.33616716  1
  Bi3+  Bi82  1  0.83213696  0.66275225  0.83766850  1
  Bi3+  Bi83  1  0.66915735  0.49734871  0.49800200  1
  Bi3+  Bi84  1  0.83481014  0.16275833  0.00138524  1
  Bi3+  Bi85  1  0.50050836  0.66414674  0.16408187  1
  Te2-  Te86  1  0.16811663  0.16142552  0.16670796  1
  Te2-  Te87  1  0.16497243  0.16054070  0.49434096  1
  Te2-  Te88  1  0.17115619  0.16698632  0.84254007  1
  Te2-  Te89  1  0.16782394  0.49804723  0.15704643  1
  Te2-  Te90  1  0.16577764  0.49228541  0.49560727  1
  Te2-  Te91  1  0.16977691  0.50208277  0.85288890  1
  Te2-  Te92  1  0.16738509  0.83285133  0.17006158  1
  Te2-  Te93  1  0.16386582  0.83793417  0.49421252  1
  Te2-  Te94  1  0.16193852  0.83004621  0.83570637  1
  Te2-  Te95  1  0.50987330  0.17063414  0.16866889  1
  Te2-  Te96  1  0.49887899  0.16170493  0.50040712  1
  Te2-  Te97  1  0.49816626  0.16874020  0.83366260  1
  Te2-  Te98  1  0.51291565  0.50165386  0.16226370  1
  Te2-  Te99  1  0.50456593  0.49675806  0.50565678  1
  Te2-  Te100  1  0.49235113  0.50043847  0.82675475  1
  Te2-  Te101  1  0.49754986  0.82835311  0.16658672  1
  Te2-  Te102  1  0.51294201  0.83699074  0.49734278  1
  Te2-  Te103  1  0.50075335  0.82954439  0.83075979  1
  Te2-  Te104  1  0.83759700  0.15085979  0.16760350  1
  Te2-  Te105  1  0.84058737  0.16948106  0.49766409  1
  Te2-  Te106  1  0.83363860  0.17445873  0.83603318  1
  Te2-  Te107  1  0.81704473  0.50264335  0.16146112  1
  Te2-  Te108  1  0.83074776  0.49635210  0.49902543  1
  Te2-  Te109  1  0.83607605  0.49999149  0.84906278  1
  Te2-  Te110  1  0.82976727  0.84745336  0.16001183  1
  Te2-  Te111  1  0.82290258  0.83261763  0.49878613  1
  Te2-  Te112  1  0.83766279  0.82587564  0.84128879  1
  Te2-  Te113  1  0.16528838  0.00398494  0.00281924  1
  Te2-  Te114  1  0.16532148  -0.00010491  0.33753847  1
  Te2-  Te115  1  0.15609731  -0.00662346  0.65689599  1
  Te2-  Te116  1  0.15758597  0.32240892  0.01337729  1
  Te2-  Te117  1  0.15238887  0.32796065  0.32226643  1
  Te2-  Te118  1  0.16695008  0.33455769  0.66833116  1
  Te2-  Te119  1  0.18328833  0.67561377  0.00091224  1
  Te2-  Te120  1  0.15984762  0.66939552  0.32962311  1
  Te2-  Te121  1  0.15994131  0.67107546  0.66630781  1
  Te2-  Te122  1  0.50149143  0.00448341  0.00239746  1
  Te2-  Te123  1  0.51477851  0.00038287  0.33354068  1
  Te2-  Te124  1  0.50353266  0.00685896  0.66364558  1
  Te2-  Te125  1  0.51549282  0.32925658  0.00291935  1
  Te2-  Te126  1  0.50316727  0.32902378  0.32497351  1
  Te2-  Te127  1  0.49998462  0.32352625  0.67457125  1
  Te2-  Te128  1  0.48231813  0.66637821  -0.00186876  1
  Te2-  Te129  1  0.49858327  0.67088055  0.33061710  1
  Te2-  Te130  1  0.51304653  0.67851977  0.67027082  1
  Te2-  Te131  1  0.82959682  -0.00263630  -0.01217973  1
  Te2-  Te132  1  0.82590190  0.00242683  0.33273250  1
  Te2-  Te133  1  0.83911241  0.00063575  0.67218576  1
  Te2-  Te134  1  0.82558266  0.32687506  -0.00852887  1
  Te2-  Te135  1  0.84815998  0.32806974  0.33582616  1
  Te2-  Te136  1  0.83118045  0.34693492  0.66628977  1
  Te2-  Te137  1  0.83700582  0.67826872  0.00165001  1
  Te2-  Te138  1  0.84210651  0.67028462  0.33201355  1
  Te2-  Te139  1  0.82982568  0.65365893  0.67422314  1
  Te2-  Te140  1  -0.00299179  0.16706869  0.00120506  1
  Te2-  Te141  1  0.00096666  0.15875940  0.32811362  1
  Te2-  Te142  1  0.00957654  0.16238135  0.67010918  1
  Te2-  Te143  1  -0.00692063  0.49873227  0.00699273  1
  Te2-  Te144  1  0.00051072  0.50075531  0.32057532  1
  Te2-  Te145  1  0.00344172  0.50541472  0.67943049  1
  Te2-  Te146  1  0.01453739  0.82926218  -0.00396436  1
  Te2-  Te147  1  0.00077400  0.84151726  0.33452470  1
  Te2-  Te148  1  -0.00130469  0.82928280  0.67220658  1
  Te2-  Te149  1  0.34032634  0.17591219  0.00074978  1
  Te2-  Te150  1  0.33769432  0.16096912  0.33495564  1
  Te2-  Te151  1  0.32388357  0.17787328  0.66476680  1
  Te2-  Te152  1  0.33846559  0.49574904  0.00170289  1
  Te2-  Te153  1  0.33029849  0.50177251  0.34152603  1
  Te2-  Te154  1  0.33909256  0.48385643  0.64841558  1
  Te2-  Te155  1  0.32818275  0.83906281  0.00156783  1
  Te2-  Te156  1  0.33490297  0.83831172  0.33211867  1
  Te2-  Te157  1  0.33627198  0.83998222  0.66332111  1
  Te2-  Te158  1  0.67092994  0.16257211  0.01528108  1
  Te2-  Te159  1  0.66974525  0.15868818  0.32519497  1
  Te2-  Te160  1  0.67008573  0.16646881  0.66086847  1
  Te2-  Te161  1  0.66915884  0.50691650  -0.00355869  1
  Te2-  Te162  1  0.67053423  0.50280496  0.33686331  1
  Te2-  Te163  1  0.65376098  0.49673185  0.66252215  1
  Te2-  Te164  1  0.65924614  0.83454270  -0.00262952  1
  Te2-  Te165  1  0.66494433  0.84005572  0.32989285  1
  Te2-  Te166  1  0.66406216  0.84228431  0.66010620  1
  Te2-  Te167  1  0.00298760  0.00138966  0.17299606  1
  Te2-  Te168  1  -0.00985699  0.00190658  0.49614276  1
  Te2-  Te169  1  -0.00446567  -0.00236471  0.83180660  1
  Te2-  Te170  1  -0.00133272  0.33527656  0.16168217  1
  Te2-  Te171  1  -0.00062841  0.34729361  0.49990703  1
  Te2-  Te172  1  -0.00963405  0.33720808  0.83831180  1
  Te2-  Te173  1  -0.00069425  0.65926176  0.16827727  1
  Te2-  Te174  1  -0.00360409  0.65316564  0.49873717  1
  Te2-  Te175  1  -0.00105194  0.66430440  0.83496896  1
  Te2-  Te176  1  0.34074223  0.01136731  0.17702850  1
  Te2-  Te177  1  0.33667213  0.00313304  0.49022643  1
  Te2-  Te178  1  0.33380652  -0.00291675  0.83138188  1
  Te2-  Te179  1  0.33838764  0.32431544  0.15830947  1
  Te2-  Te180  1  0.33187968  0.32724723  0.49348677  1
  Te2-  Te181  1  0.33986256  0.34185648  0.84545040  1
  Te2-  Te182  1  0.33777742  0.66883439  0.17341739  1
  Te2-  Te183  1  0.33383019  0.66107629  0.50868027  1
  Te2-  Te184  1  0.33726310  0.65200667  0.81436994  1
  Te2-  Te185  1  0.65440746  -0.00756039  0.16011447  1
  Te2-  Te186  1  0.66478529  0.00584682  0.50569573  1
  Te2-  Te187  1  0.67474697  0.00201082  0.83227347  1
  Te2-  Te188  1  0.66853663  0.33104717  0.17499341  1
  Te2-  Te189  1  0.67034708  0.33123756  0.49505030  1
  Te2-  Te190  1  0.66838231  0.32946012  0.82985786  1
  Te2-  Te191  1  0.66389404  0.67215180  0.16665607  1
  Te2-  Te192  1  0.67321159  0.66514835  0.49751395  1
  Te2-  Te193  1  0.66532458  0.66979138  0.83903936  1
  Pb2+  Pb194  1  0.33898394  0.83144859  0.49824752  1
  Pb2+  Pb195  1  0.16739268  -0.00057438  0.83009868  1
  Pb2+  Pb196  1  0.83436890  0.17439513  0.66723638  1
  Pb2+  Pb197  1  0.33975549  0.49476399  0.17006759  1
  Pb2+  Pb198  1  0.50111018  -0.00120962  0.83295773  1
  Pb2+  Pb199  1  0.17217511  0.50318747  0.67519361  1
  Pb2+  Pb200  1  -0.00015578  0.33588680  0.66697271  1
  Pb2+  Pb201  1  0.66429493  0.49747306  0.82904519  1
  Pb2+  Pb202  1  0.32473688  0.32662732  0.32495791  1
  Pb2+  Pb203  1  0.49964535  0.32963520  0.50164104  1
  Pb2+  Pb204  1  0.33230476  0.00765391  0.00316850  1
  Pb2+  Pb205  1  0.50326521  0.66464080  0.50027529  1
  Pb2+  Pb206  1  -0.00258519  -0.00228449  0.00406373  1
  Pb2+  Pb207  1  -0.00392263  0.82804890  0.16667634  1
  Pb2+  Pb208  1  0.50333646  0.49970532  0.33178579  1
  Pb2+  Pb209  1  0.16420727  0.66479378  0.49799135  1
  Pb2+  Pb210  1  -0.00910943  0.82957041  0.50178011  1
  Pb2+  Pb211  1  0.83090991  0.82548434  0.67030257  1
  Pb2+  Pb212  1  0.83275839  0.33042534  0.16487314  1
  Pb2+  Pb213  1  0.32862824  0.00828198  0.66527236  1
  Pb2+  Pb214  1  0.33111818  0.82248286  0.83072101  1
  Pb2+  Pb215  1  0.16964145  0.33541841  0.83960732  1
