# generated using pymatgen
data_In22Ag21Sn22Bi21(Te54Pb11)2
_symmetry_space_group_name_H-M   'P 1'
_cell_length_a   19.15698110
_cell_length_b   19.17987407
_cell_length_c   19.15019552
_cell_angle_alpha   89.99520492
_cell_angle_beta   90.00685671
_cell_angle_gamma   90.00883565
_symmetry_Int_Tables_number   1
_chemical_formula_structural   In22Ag21Sn22Bi21(Te54Pb11)2
_chemical_formula_sum   'In22 Ag21 Sn22 Bi21 Te108 Pb22'
_cell_volume   7036.32717154
_cell_formula_units_Z   1
loop_
 _symmetry_equiv_pos_site_id
 _symmetry_equiv_pos_as_xyz
  1  'x, y, z'
loop_
 _atom_type_symbol
 _atom_type_oxidation_number
  In3+  3.0
  Ag+  1.0
  Sn2+  2.0
  Bi3+  3.0
  Te2-  -2.0
  Pb2+  2.0
loop_
 _atom_site_type_symbol
 _atom_site_label
 _atom_site_symmetry_multiplicity
 _atom_site_fract_x
 _atom_site_fract_y
 _atom_site_fract_z
 _atom_site_occupancy
  In3+  In0  1  0.85170713  0.81952613  0.65886196  1
  In3+  In1  1  0.85044484  0.34218152  0.17049741  1
  In3+  In2  1  0.00053703  0.82904532  0.47365083  1
  In3+  In3  1  0.15204923  0.83302777  0.00824021  1
  In3+  In4  1  0.66676831  0.17926609  0.17261838  1
  In3+  In5  1  0.33783284  0.49119978  0.82800378  1
  In3+  In6  1  0.83905890  0.66438939  0.16990684  1
  In3+  In7  1  0.50564725  0.35135950  0.49382718  1
  In3+  In8  1  0.50032745  0.16804502  0.02088403  1
  In3+  In9  1  -0.00032175  0.17389654  0.16270038  1
  In3+  In10  1  0.32471137  0.15825804  0.82961951  1
  In3+  In11  1  0.32658386  -0.00119222  0.00632082  1
  In3+  In12  1  0.49707803  0.48247380  0.64738889  1
  In3+  In13  1  0.32592529  0.82906550  0.48519092  1
  In3+  In14  1  0.65902445  0.18014290  0.82635019  1
  In3+  In15  1  0.66479953  0.33766517  0.00627820  1
  In3+  In16  1  0.49954564  0.32298610  0.82851753  1
  In3+  In17  1  0.48294114  0.00309954  0.50501237  1
  In3+  In18  1  0.53346668  0.66700806  0.50080556  1
  In3+  In19  1  0.86004758  0.16640771  0.33905460  1
  In3+  In20  1  0.64954403  0.49489097  0.82723111  1
  In3+  In21  1  0.83086049  0.66063024  0.84279038  1
  Ag+  Ag22  1  0.14098572  0.03790843  0.52132307  1
  Ag+  Ag23  1  0.84083323  0.64831633  0.47214851  1
  Ag+  Ag24  1  0.17140585  0.47608379  0.30191092  1
  Ag+  Ag25  1  0.00279104  0.48167344  0.47067295  1
  Ag+  Ag26  1  0.48863824  0.02013303  0.14122778  1
  Ag+  Ag27  1  0.66362005  0.34740492  0.64779369  1
  Ag+  Ag28  1  0.16908417  0.18479677  0.30916746  1
  Ag+  Ag29  1  0.49505586  0.36228232  0.19500388  1
  Ag+  Ag30  1  -0.01953746  0.64590548  0.00699253  1
  Ag+  Ag31  1  0.68465890  0.63931125  0.00265733  1
  Ag+  Ag32  1  0.31417114  0.80756502  0.13901089  1
  Ag+  Ag33  1  0.48384508  0.18893880  0.66141878  1
  Ag+  Ag34  1  0.85490255  0.80488512  0.02116806  1
  Ag+  Ag35  1  -0.02795820  0.80992755  0.15461944  1
  Ag+  Ag36  1  0.32899487  0.47011350  0.20033345  1
  Ag+  Ag37  1  0.02860327  0.35267681  0.00519728  1
  Ag+  Ag38  1  0.33795455  0.00042261  0.64645965  1
  Ag+  Ag39  1  0.19046698  0.14371450  0.65321857  1
  Ag+  Ag40  1  0.13794460  0.46971736  0.64276641  1
  Ag+  Ag41  1  0.81606019  0.52159281  0.33385344  1
  Ag+  Ag42  1  0.45568393  0.46259567  0.30416723  1
  Sn2+  Sn43  1  0.00866410  0.50568257  0.16883584  1
  Sn2+  Sn44  1  0.32896794  0.32306121  0.66444808  1
  Sn2+  Sn45  1  0.00615353  0.33988055  0.33553928  1
  Sn2+  Sn46  1  0.17041224  0.00229272  0.81702410  1
  Sn2+  Sn47  1  0.16456916  0.33776420  0.50890438  1
  Sn2+  Sn48  1  0.33338732  0.16885102  0.16240566  1
  Sn2+  Sn49  1  0.50973504  0.83415817  0.01063254  1
  Sn2+  Sn50  1  0.49090451  0.16113197  0.34227779  1
  Sn2+  Sn51  1  0.30949169  0.50240222  0.50777753  1
  Sn2+  Sn52  1  0.16962988  0.50431201  -0.00301624  1
  Sn2+  Sn53  1  0.00568916  0.65869755  0.33722425  1
  Sn2+  Sn54  1  0.82761524  0.00017440  0.16127394  1
  Sn2+  Sn55  1  0.17471836  0.83594653  0.66776298  1
  Sn2+  Sn56  1  0.83697385  0.34868652  0.49907557  1
  Sn2+  Sn57  1  0.49520562  0.49749711  0.01135392  1
  Sn2+  Sn58  1  0.65969905  0.16463684  0.50036748  1
  Sn2+  Sn59  1  0.66406111  0.00578808  0.32993285  1
  Sn2+  Sn60  1  0.00460779  0.66220000  0.67295240  1
  Sn2+  Sn61  1  0.00037773  -0.00073198  0.00890764  1
  Sn2+  Sn62  1  0.65811884  0.00859535  0.66203601  1
  Sn2+  Sn63  1  -0.00775014  0.33458662  0.67694573  1
  Sn2+  Sn64  1  0.50255610  0.00800786  0.82783858  1
  Bi3+  Bi65  1  0.66829169  0.83312837  0.83595811  1
  Bi3+  Bi66  1  0.33888155  0.67023590  -0.00245058  1
  Bi3+  Bi67  1  0.16976122  0.00087568  0.17087915  1
  Bi3+  Bi68  1  0.83317764  -0.00164113  0.83453195  1
  Bi3+  Bi69  1  0.83256311  0.33391759  0.83662910  1
  Bi3+  Bi70  1  0.66198532  0.83490078  0.16439498  1
  Bi3+  Bi71  1  0.50240992  0.66961587  0.83376301  1
  Bi3+  Bi72  1  0.00222528  0.50273735  0.83731586  1
  Bi3+  Bi73  1  0.66401558  0.00018213  0.00094957  1
  Bi3+  Bi74  1  -0.00493147  0.83271556  0.84110682  1
  Bi3+  Bi75  1  0.16844258  0.83719386  0.33279704  1
  Bi3+  Bi76  1  0.82580527  0.16386795  0.00562402  1
  Bi3+  Bi77  1  0.50225167  0.67298691  0.16767237  1
  Bi3+  Bi78  1  0.00474284  -0.00068436  0.33105900  1
  Bi3+  Bi79  1  0.33260644  0.00192683  0.33199814  1
  Bi3+  Bi80  1  0.50233777  0.83079903  0.33895417  1
  Bi3+  Bi81  1  0.83131703  0.16953707  0.66414919  1
  Bi3+  Bi82  1  0.15640773  0.66876357  0.50421902  1
  Bi3+  Bi83  1  0.50120548  0.83239384  0.66942180  1
  Bi3+  Bi84  1  0.33102733  0.83797757  0.83588268  1
  Bi3+  Bi85  1  0.16414447  0.66981507  0.83419484  1
  Te2-  Te86  1  0.16405295  0.16330901  0.16264759  1
  Te2-  Te87  1  0.16804557  0.18003250  0.51093666  1
  Te2-  Te88  1  0.17084661  0.16448711  0.83049018  1
  Te2-  Te89  1  0.18151545  0.50068395  0.15748980  1
  Te2-  Te90  1  0.15214584  0.50716786  0.50342094  1
  Te2-  Te91  1  0.16760069  0.50807537  0.83192445  1
  Te2-  Te92  1  0.17305524  0.83929755  0.16460716  1
  Te2-  Te93  1  0.16284295  0.83073377  0.49840402  1
  Te2-  Te94  1  0.16495170  0.83531732  0.83971750  1
  Te2-  Te95  1  0.50149532  0.16169659  0.17090112  1
  Te2-  Te96  1  0.50204916  0.15822776  0.51263150  1
  Te2-  Te97  1  0.50578337  0.17080082  0.81458256  1
  Te2-  Te98  1  0.49044527  0.51025631  0.16883559  1
  Te2-  Te99  1  0.49969565  0.50358565  0.49834525  1
  Te2-  Te100  1  0.49840878  0.50795190  0.83814095  1
  Te2-  Te101  1  0.50127122  0.83338917  0.17607670  1
  Te2-  Te102  1  0.49432185  0.82814713  0.50462758  1
  Te2-  Te103  1  0.50106991  0.83382501  0.83554346  1
  Te2-  Te104  1  0.82162899  0.17003186  0.16713598  1
  Te2-  Te105  1  0.83130464  0.17521207  0.49737524  1
  Te2-  Te106  1  0.82702650  0.16842446  0.83689295  1
  Te2-  Te107  1  0.83627295  0.49329042  0.18038766  1
  Te2-  Te108  1  0.84973608  0.50162201  0.48517448  1
  Te2-  Te109  1  0.83631475  0.49927807  0.83541405  1
  Te2-  Te110  1  0.82633931  0.83355191  0.16309519  1
  Te2-  Te111  1  0.84227589  0.83486082  0.50620520  1
  Te2-  Te112  1  0.83294999  0.83566378  0.83159785  1
  Te2-  Te113  1  0.16989633  -0.00564164  0.00552973  1
  Te2-  Te114  1  0.16862545  -0.00179892  0.33415771  1
  Te2-  Te115  1  0.17396160  -0.00149382  0.66025518  1
  Te2-  Te116  1  0.17314061  0.33232573  -0.00097690  1
  Te2-  Te117  1  0.16289952  0.33101486  0.33954121  1
  Te2-  Te118  1  0.16627410  0.33053943  0.66744507  1
  Te2-  Te119  1  0.17407460  0.67596480  -0.00241666  1
  Te2-  Te120  1  0.16578362  0.67592386  0.33670463  1
  Te2-  Te121  1  0.16603040  0.66962388  0.67082387  1
  Te2-  Te122  1  0.50193892  0.00778250  -0.00429562  1
  Te2-  Te123  1  0.49673411  -0.00470408  0.34703519  1
  Te2-  Te124  1  0.49480285  -0.00701715  0.66085710  1
  Te2-  Te125  1  0.50771157  0.32369187  -0.01589252  1
  Te2-  Te126  1  0.50196354  0.32670022  0.34220878  1
  Te2-  Te127  1  0.51326159  0.33297473  0.67636891  1
  Te2-  Te128  1  0.49970829  0.66744895  -0.00162684  1
  Te2-  Te129  1  0.50231670  0.66910043  0.33980310  1
  Te2-  Te130  1  0.50238071  0.66834285  0.66773323  1
  Te2-  Te131  1  0.83050334  0.00240232  -0.00257320  1
  Te2-  Te132  1  0.83889267  0.01138402  0.32908451  1
  Te2-  Te133  1  0.83102019  0.00564019  0.67237234  1
  Te2-  Te134  1  0.82320444  0.32539389  0.00763177  1
  Te2-  Te135  1  0.84352059  0.31991659  0.32666386  1
  Te2-  Te136  1  0.82233927  0.33199606  0.67155889  1
  Te2-  Te137  1  0.83119525  0.66215539  -0.00137874  1
  Te2-  Te138  1  0.84077358  0.66721903  0.32427966  1
  Te2-  Te139  1  0.83578668  0.66749761  0.68500621  1
  Te2-  Te140  1  -0.00863059  0.16412752  0.00752667  1
  Te2-  Te141  1  0.01408131  0.16516923  0.32784154  1
  Te2-  Te142  1  -0.00602581  0.16982455  0.67007484  1
  Te2-  Te143  1  0.00243107  0.49788596  0.00123934  1
  Te2-  Te144  1  0.02032015  0.49934884  0.32464871  1
  Te2-  Te145  1  -0.00191960  0.49696299  0.67602499  1
  Te2-  Te146  1  -0.00259009  0.83612378  0.00647842  1
  Te2-  Te147  1  0.00378351  0.83387295  0.31471275  1
  Te2-  Te148  1  0.00181041  0.83185019  0.67821511  1
  Te2-  Te149  1  0.34371292  0.16402124  -0.00908973  1
  Te2-  Te150  1  0.32204733  0.16293129  0.33422125  1
  Te2-  Te151  1  0.33748616  0.15453626  0.67754582  1
  Te2-  Te152  1  0.33502385  0.50561663  -0.01302826  1
  Te2-  Te153  1  0.31831774  0.50006361  0.34393571  1
  Te2-  Te154  1  0.34650159  0.49828809  0.67257715  1
  Te2-  Te155  1  0.34179696  0.84047399  -0.00188923  1
  Te2-  Te156  1  0.33599080  0.83904086  0.32862256  1
  Te2-  Te157  1  0.33620399  0.84755564  0.67545973  1
  Te2-  Te158  1  0.66046260  0.16316780  -0.00166430  1
  Te2-  Te159  1  0.65955100  0.16322625  0.32773507  1
  Te2-  Te160  1  0.67090098  0.16566086  0.67152025  1
  Te2-  Te161  1  0.66229702  0.49325233  -0.00311590  1
  Te2-  Te162  1  0.66922952  0.49807385  0.33231032  1
  Te2-  Te163  1  0.66031102  0.49408746  0.67232902  1
  Te2-  Te164  1  0.66924258  0.83862759  -0.00115198  1
  Te2-  Te165  1  0.66759643  0.83493693  0.33403117  1
  Te2-  Te166  1  0.66481089  0.83556975  0.67276641  1
  Te2-  Te167  1  0.00196615  0.00977305  0.16947411  1
  Te2-  Te168  1  0.00306547  -0.00539994  0.49479764  1
  Te2-  Te169  1  -0.00047453  -0.00315364  0.83743905  1
  Te2-  Te170  1  0.00198333  0.33102181  0.15559220  1
  Te2-  Te171  1  -0.00575525  0.33885784  0.50668501  1
  Te2-  Te172  1  -0.00508989  0.33731959  0.84807723  1
  Te2-  Te173  1  -0.00627225  0.66449356  0.15610401  1
  Te2-  Te174  1  -0.00807998  0.67821634  0.50402411  1
  Te2-  Te175  1  0.00193644  0.66901665  0.84843311  1
  Te2-  Te176  1  0.33926531  0.00803842  0.16356518  1
  Te2-  Te177  1  0.32984297  -0.00677910  0.49778191  1
  Te2-  Te178  1  0.33288001  0.00068396  0.84509047  1
  Te2-  Te179  1  0.34790468  0.32776996  0.16740140  1
  Te2-  Te180  1  0.34857430  0.33677195  0.51073248  1
  Te2-  Te181  1  0.34157586  0.33335277  0.82919877  1
  Te2-  Te182  1  0.33821747  0.66546090  0.15976112  1
  Te2-  Te183  1  0.32229095  0.67072504  0.50089352  1
  Te2-  Te184  1  0.33353250  0.67356614  0.83320243  1
  Te2-  Te185  1  0.65957509  -0.00291022  0.16485428  1
  Te2-  Te186  1  0.66910792  0.00066733  0.49780307  1
  Te2-  Te187  1  0.66967631  -0.00317926  0.83419331  1
  Te2-  Te188  1  0.64038993  0.32947018  0.16039191  1
  Te2-  Te189  1  0.66069551  0.33327860  0.50131123  1
  Te2-  Te190  1  0.67044327  0.33664695  0.84085637  1
  Te2-  Te191  1  0.66780364  0.66895074  0.15381952  1
  Te2-  Te192  1  0.69023317  0.66694901  0.50261890  1
  Te2-  Te193  1  0.66614445  0.66785806  0.84855720  1
  Pb2+  Pb194  1  0.00119103  0.00022881  0.66655331  1
  Pb2+  Pb195  1  0.33477524  0.67268016  0.66341931  1
  Pb2+  Pb196  1  0.83318411  0.49907735  0.65931654  1
  Pb2+  Pb197  1  0.16759983  0.33935411  0.83177806  1
  Pb2+  Pb198  1  0.83513767  0.00557060  0.50293753  1
  Pb2+  Pb199  1  0.66263781  0.49827157  0.16761909  1
  Pb2+  Pb200  1  0.16865675  0.16300182  -0.00248165  1
  Pb2+  Pb201  1  0.66782438  0.66506586  0.32643350  1
  Pb2+  Pb202  1  0.67526538  0.33253566  0.33104549  1
  Pb2+  Pb203  1  0.66873978  0.66530288  0.67653823  1
  Pb2+  Pb204  1  0.33314230  0.16457297  0.50542676  1
  Pb2+  Pb205  1  0.67337414  0.50071321  0.49657869  1
  Pb2+  Pb206  1  0.17458239  0.33497742  0.16930496  1
  Pb2+  Pb207  1  0.34096028  0.33633946  0.00077818  1
  Pb2+  Pb208  1  0.16501437  0.66746875  0.16768614  1
  Pb2+  Pb209  1  0.33074806  0.33142925  0.34085797  1
  Pb2+  Pb210  1  0.83291725  0.49383725  0.00638327  1
  Pb2+  Pb211  1  0.66437473  0.83464309  0.50461672  1
  Pb2+  Pb212  1  -0.00345838  0.16739106  0.83713138  1
  Pb2+  Pb213  1  0.00297340  0.17176071  0.50099205  1
  Pb2+  Pb214  1  0.83712187  0.84000828  0.33147710  1
  Pb2+  Pb215  1  0.33563344  0.66649748  0.33015533  1
