# generated using pymatgen
data_In22Ag21Sn22Bi21(Te54Pb11)2
_symmetry_space_group_name_H-M   'P 1'
_cell_length_a   19.19323189
_cell_length_b   19.18222998
_cell_length_c   19.13801816
_cell_angle_alpha   89.99918115
_cell_angle_beta   90.00293275
_cell_angle_gamma   89.99567278
_symmetry_Int_Tables_number   1
_chemical_formula_structural   In22Ag21Sn22Bi21(Te54Pb11)2
_chemical_formula_sum   'In22 Ag21 Sn22 Bi21 Te108 Pb22'
_cell_volume   7046.02475341
_cell_formula_units_Z   1
loop_
 _symmetry_equiv_pos_site_id
 _symmetry_equiv_pos_as_xyz
  1  'x, y, z'
loop_
 _atom_type_symbol
 _atom_type_oxidation_number
  In3+  3.0
  Ag+  1.0
  Sn2+  2.0
  Bi3+  3.0
  Te2-  -2.0
  Pb2+  2.0
loop_
 _atom_site_type_symbol
 _atom_site_label
 _atom_site_symmetry_multiplicity
 _atom_site_fract_x
 _atom_site_fract_y
 _atom_site_fract_z
 _atom_site_occupancy
  In3+  In0  1  0.15964946  0.17958221  0.35248645  1
  In3+  In1  1  0.85106248  0.32531663  0.16382404  1
  In3+  In2  1  0.48038881  0.66405795  0.49201182  1
  In3+  In3  1  0.16378069  0.49410281  0.34163786  1
  In3+  In4  1  0.16759053  0.85300741  -0.01895794  1
  In3+  In5  1  0.66313836  0.50700423  0.52319437  1
  In3+  In6  1  -0.00446333  0.68811572  0.33119291  1
  In3+  In7  1  0.67054551  0.66673116  -0.00027637  1
  In3+  In8  1  0.16480601  0.30799178  0.51710845  1
  In3+  In9  1  0.68236769  0.33373906  0.33209900  1
  In3+  In10  1  0.86562325  0.33152615  0.83510676  1
  In3+  In11  1  0.32660299  0.16629984  0.84981689  1
  In3+  In12  1  0.01378640  -0.00518026  0.66665266  1
  In3+  In13  1  0.51960091  0.85793703  0.34018596  1
  In3+  In14  1  0.32380159  0.84992729  0.49745068  1
  In3+  In15  1  0.16034205  0.00102202  0.80445544  1
  In3+  In16  1  0.15993951  0.31503918  0.16800312  1
  In3+  In17  1  0.48611658  0.15158528  0.66061773  1
  In3+  In18  1  0.81595204  -0.00813229  0.50433219  1
  In3+  In19  1  0.51303303  0.00097643  0.15780905  1
  In3+  In20  1  0.16073153  0.00081869  0.17756359  1
  In3+  In21  1  0.83042434  0.50265616  0.01323033  1
  Ag+  Ag22  1  0.83597674  0.69427675  0.52338747  1
  Ag+  Ag23  1  0.85119628  0.87080936  0.70077153  1
  Ag+  Ag24  1  0.52839407  0.31329283  0.49886713  1
  Ag+  Ag25  1  0.66466938  0.02179224  0.68469534  1
  Ag+  Ag26  1  0.64206167  0.16966480  0.17085250  1
  Ag+  Ag27  1  0.81025436  0.69648668  0.17143608  1
  Ag+  Ag28  1  0.50756674  0.01546984  0.49795797  1
  Ag+  Ag29  1  0.36359919  0.68873083  0.33591716  1
  Ag+  Ag30  1  0.13713924  0.81397587  0.68623826  1
  Ag+  Ag31  1  0.00554263  0.14462970  0.18963190  1
  Ag+  Ag32  1  0.17369681  0.35614823  0.84539180  1
  Ag+  Ag33  1  0.31704511  0.53858254  0.85762357  1
  Ag+  Ag34  1  0.68272578  0.83311058  0.81428837  1
  Ag+  Ag35  1  0.36023536  0.14843657  0.49468154  1
  Ag+  Ag36  1  -0.01282395  0.33232838  0.32005959  1
  Ag+  Ag37  1  0.14411527  -0.00275541  0.49469317  1
  Ag+  Ag38  1  -0.02571989  0.81011507  0.82105557  1
  Ag+  Ag39  1  0.69005566  0.46714278  0.83680743  1
  Ag+  Ag40  1  0.02303044  0.14489090  0.83338906  1
  Ag+  Ag41  1  -0.00333497  0.14419995  0.48441042  1
  Ag+  Ag42  1  0.80723351  0.79557836  0.36112942  1
  Sn2+  Sn43  1  0.33209894  -0.00261212  0.33733734  1
  Sn2+  Sn44  1  0.50561475  0.16571815  -0.01043745  1
  Sn2+  Sn45  1  0.66046637  0.32470950  0.66945750  1
  Sn2+  Sn46  1  -0.00497491  0.67580894  0.00184422  1
  Sn2+  Sn47  1  0.67369379  0.00805810  0.33849867  1
  Sn2+  Sn48  1  0.83602098  0.82823664  -0.00171117  1
  Sn2+  Sn49  1  0.16398157  0.16468097  0.66492502  1
  Sn2+  Sn50  1  0.00050183  0.83144639  0.15499588  1
  Sn2+  Sn51  1  0.49790024  0.16558770  0.33450473  1
  Sn2+  Sn52  1  0.50675086  0.65931177  0.82898214  1
  Sn2+  Sn53  1  0.83760399  0.50579550  0.33390819  1
  Sn2+  Sn54  1  0.32545388  0.16360716  0.18744089  1
  Sn2+  Sn55  1  0.00234395  0.50375738  0.17508969  1
  Sn2+  Sn56  1  0.15545944  0.16840200  -0.00254483  1
  Sn2+  Sn57  1  0.84161563  0.33129153  0.50341938  1
  Sn2+  Sn58  1  0.00178553  0.00918711  0.34153974  1
  Sn2+  Sn59  1  0.50205038  0.83157205  -0.00274051  1
  Sn2+  Sn60  1  0.67111566  0.83729807  0.16601124  1
  Sn2+  Sn61  1  0.50698949  -0.00672218  0.82155411  1
  Sn2+  Sn62  1  0.66359385  0.16014972  0.84160059  1
  Sn2+  Sn63  1  0.66859946  0.82858202  0.51249585  1
  Sn2+  Sn64  1  0.00490563  0.49842861  0.83919621  1
  Bi3+  Bi65  1  0.16241784  0.83907819  0.33180844  1
  Bi3+  Bi66  1  0.50010807  0.49349865  0.33678130  1
  Bi3+  Bi67  1  0.33251441  0.33454397  0.33393276  1
  Bi3+  Bi68  1  0.50259163  0.49962952  -0.00831291  1
  Bi3+  Bi69  1  0.50376584  0.83261208  0.65933561  1
  Bi3+  Bi70  1  0.83495750  0.16663130  0.66503325  1
  Bi3+  Bi71  1  0.33432876  0.33173231  0.66018421  1
  Bi3+  Bi72  1  0.66645568  0.66283051  0.66863422  1
  Bi3+  Bi73  1  0.83381328  0.17070607  -0.00176857  1
  Bi3+  Bi74  1  0.49896621  0.49729941  0.66768555  1
  Bi3+  Bi75  1  0.33076658  0.49860275  0.49743390  1
  Bi3+  Bi76  1  0.33283115  0.50048040  0.16749839  1
  Bi3+  Bi77  1  0.83752341  0.16895631  0.33317255  1
  Bi3+  Bi78  1  0.16316354  0.66662670  0.16616005  1
  Bi3+  Bi79  1  0.49599491  0.32973342  0.17736433  1
  Bi3+  Bi80  1  -0.00408975  0.49851437  0.49675436  1
  Bi3+  Bi81  1  -0.00020350  0.32631264  0.66358740  1
  Bi3+  Bi82  1  0.83169702  0.49547162  0.66378722  1
  Bi3+  Bi83  1  0.33854479  0.84230306  0.83079031  1
  Bi3+  Bi84  1  0.33107142  0.83601409  0.17350167  1
  Bi3+  Bi85  1  0.16258077  0.49987452  0.00177754  1
  Te2-  Te86  1  0.15559703  0.16319805  0.16179422  1
  Te2-  Te87  1  0.14909602  0.15433932  0.50175921  1
  Te2-  Te88  1  0.17267450  0.15173896  0.83243980  1
  Te2-  Te89  1  0.17168499  0.50138368  0.16365114  1
  Te2-  Te90  1  0.16369027  0.50591134  0.49783512  1
  Te2-  Te91  1  0.17352207  0.50462233  0.83740184  1
  Te2-  Te92  1  0.16913104  0.83219456  0.16800530  1
  Te2-  Te93  1  0.17106572  0.84626230  0.49389279  1
  Te2-  Te94  1  0.17701561  0.84780657  0.82420064  1
  Te2-  Te95  1  0.49204248  0.16649755  0.16731492  1
  Te2-  Te96  1  0.50694280  0.16776822  0.50467001  1
  Te2-  Te97  1  0.49830166  0.15976427  0.82187686  1
  Te2-  Te98  1  0.49553252  0.49676923  0.16332698  1
  Te2-  Te99  1  0.49986116  0.50295528  0.50061033  1
  Te2-  Te100  1  0.48951607  0.49752139  0.83130629  1
  Te2-  Te101  1  0.49379128  0.84291976  0.17489130  1
  Te2-  Te102  1  0.50273285  0.81850929  0.49278247  1
  Te2-  Te103  1  0.49624992  0.83340418  0.83066040  1
  Te2-  Te104  1  0.85344130  0.17270934  0.16499695  1
  Te2-  Te105  1  0.84668805  0.17083938  0.49883537  1
  Te2-  Te106  1  0.82323167  0.17551388  0.83429570  1
  Te2-  Te107  1  0.83250392  0.48480542  0.16354964  1
  Te2-  Te108  1  0.83197236  0.49146188  0.50050685  1
  Te2-  Te109  1  0.83555396  0.48741328  0.82683335  1
  Te2-  Te110  1  0.84060411  0.83833805  0.15535975  1
  Te2-  Te111  1  0.82999151  0.83896680  0.49787051  1
  Te2-  Te112  1  0.83037925  0.83552218  0.84215861  1
  Te2-  Te113  1  0.16681633  0.00252000  0.00997086  1
  Te2-  Te114  1  0.16294122  0.00352127  0.33732069  1
  Te2-  Te115  1  0.16745458  -0.00063058  0.64920624  1
  Te2-  Te116  1  0.16678070  0.33651511  -0.00666225  1
  Te2-  Te117  1  0.17029188  0.33029505  0.32262042  1
  Te2-  Te118  1  0.16594295  0.33036743  0.67074422  1
  Te2-  Te119  1  0.16283745  0.66271521  0.00370267  1
  Te2-  Te120  1  0.15191660  0.67177948  0.32689077  1
  Te2-  Te121  1  0.16477558  0.67306321  0.66251213  1
  Te2-  Te122  1  0.50154559  0.00216483  0.00437712  1
  Te2-  Te123  1  0.50317804  0.00660979  0.34246468  1
  Te2-  Te124  1  0.51329989  -0.00320255  0.65341524  1
  Te2-  Te125  1  0.49871125  0.33409589  0.00473429  1
  Te2-  Te126  1  0.49508376  0.33143492  0.34390027  1
  Te2-  Te127  1  0.49720896  0.33682875  0.64892913  1
  Te2-  Te128  1  0.50074656  0.66306222  -0.00106636  1
  Te2-  Te129  1  0.50751634  0.65608345  0.33632535  1
  Te2-  Te130  1  0.50229106  0.66361093  0.65775649  1
  Te2-  Te131  1  0.83447383  0.00535492  -0.00015938  1
  Te2-  Te132  1  0.83783918  0.00884319  0.34245385  1
  Te2-  Te133  1  0.81379384  0.00595471  0.65830279  1
  Te2-  Te134  1  0.83248272  0.33647455  -0.00514823  1
  Te2-  Te135  1  0.83776198  0.33161251  0.32994658  1
  Te2-  Te136  1  0.83328328  0.33159104  0.67274962  1
  Te2-  Te137  1  0.82915893  0.65760655  0.00500484  1
  Te2-  Te138  1  0.84332268  0.66374519  0.31291223  1
  Te2-  Te139  1  0.82966742  0.65995366  0.66749327  1
  Te2-  Te140  1  -0.00500725  0.16969860  -0.02043787  1
  Te2-  Te141  1  0.00540484  0.17751297  0.33605975  1
  Te2-  Te142  1  -0.00538959  0.16754395  0.68321581  1
  Te2-  Te143  1  -0.00235341  0.50228460  0.00090685  1
  Te2-  Te144  1  0.00207374  0.48389608  0.33584443  1
  Te2-  Te145  1  -0.00333613  0.49606124  0.66354036  1
  Te2-  Te146  1  0.00780720  0.83215505  -0.01459761  1
  Te2-  Te147  1  0.00047012  0.84208824  0.32769525  1
  Te2-  Te148  1  -0.00611480  0.84105580  0.67381772  1
  Te2-  Te149  1  0.33352559  0.16748151  0.00402002  1
  Te2-  Te150  1  0.32392900  0.17094454  0.34679223  1
  Te2-  Te151  1  0.33488263  0.17011253  0.64465961  1
  Te2-  Te152  1  0.33436537  0.50247441  -0.00192369  1
  Te2-  Te153  1  0.33433752  0.49779067  0.33180530  1
  Te2-  Te154  1  0.33595243  0.49731624  0.66202580  1
  Te2-  Te155  1  0.33253597  0.83437960  0.00495847  1
  Te2-  Te156  1  0.32829819  0.83169876  0.33683358  1
  Te2-  Te157  1  0.34226999  0.83497435  0.65747292  1
  Te2-  Te158  1  0.66938440  0.16559726  0.01320705  1
  Te2-  Te159  1  0.67347920  0.17467712  0.32399193  1
  Te2-  Te160  1  0.67109489  0.16842159  0.66645763  1
  Te2-  Te161  1  0.66420372  0.50351105  -0.01623656  1
  Te2-  Te162  1  0.66483118  0.49051918  0.32732936  1
  Te2-  Te163  1  0.66475170  0.49807348  0.68263762  1
  Te2-  Te164  1  0.66079494  0.82626443  0.01005178  1
  Te2-  Te165  1  0.67088162  0.83283274  0.32327876  1
  Te2-  Te166  1  0.66273634  0.82385297  0.66937804  1
  Te2-  Te167  1  0.00535767  -0.00068717  0.16850168  1
  Te2-  Te168  1  -0.00513239  0.00063901  0.51288598  1
  Te2-  Te169  1  0.00723420  -0.00184620  0.82340860  1
  Te2-  Te170  1  0.00678662  0.33615118  0.17176857  1
  Te2-  Te171  1  0.01353984  0.33744250  0.50351159  1
  Te2-  Te172  1  0.01861925  0.33852444  0.82671720  1
  Te2-  Te173  1  0.00190968  0.66561319  0.16744694  1
  Te2-  Te174  1  -0.01724315  0.66286367  0.48881689  1
  Te2-  Te175  1  -0.00145412  0.66571249  0.83214832  1
  Te2-  Te176  1  0.32773599  -0.00128762  0.17404499  1
  Te2-  Te177  1  0.35334031  -0.00004884  0.49521330  1
  Te2-  Te178  1  0.33757525  0.00618320  0.83142467  1
  Te2-  Te179  1  0.33099072  0.33479789  0.16809320  1
  Te2-  Te180  1  0.31546894  0.33777266  0.49708887  1
  Te2-  Te181  1  0.32121619  0.31897459  0.82235636  1
  Te2-  Te182  1  0.33102573  0.66583109  0.18190179  1
  Te2-  Te183  1  0.32691898  0.66090564  0.48313164  1
  Te2-  Te184  1  0.33486874  0.68035087  0.83155195  1
  Te2-  Te185  1  0.66170022  0.00985279  0.17117788  1
  Te2-  Te186  1  0.66223561  -0.00381686  0.49294628  1
  Te2-  Te187  1  0.66461953  -0.01100271  0.82893565  1
  Te2-  Te188  1  0.65494489  0.32211971  0.17574748  1
  Te2-  Te189  1  0.67313583  0.33775471  0.49513475  1
  Te2-  Te190  1  0.65419146  0.32459558  0.83071592  1
  Te2-  Te191  1  0.66864445  0.66410411  0.15889865  1
  Te2-  Te192  1  0.68670895  0.66012384  0.50377591  1
  Te2-  Te193  1  0.66219420  0.68013949  0.83615092  1
  Pb2+  Pb194  1  0.83094183  0.00449925  0.17195391  1
  Pb2+  Pb195  1  0.33201671  0.33500584  -0.00669228  1
  Pb2+  Pb196  1  0.00088404  0.00155210  -0.00146003  1
  Pb2+  Pb197  1  0.33852347  0.00252316  0.66205254  1
  Pb2+  Pb198  1  0.33242850  0.66820449  0.65871316  1
  Pb2+  Pb199  1  0.66566700  0.33119201  -0.00227701  1
  Pb2+  Pb200  1  0.15695849  0.67584801  0.49322122  1
  Pb2+  Pb201  1  -0.00171895  0.83606210  0.49869522  1
  Pb2+  Pb202  1  -0.00410634  0.66863090  0.66242883  1
  Pb2+  Pb203  1  0.83632664  0.00583855  0.82874423  1
  Pb2+  Pb204  1  0.16645072  0.49895553  0.66598699  1
  Pb2+  Pb205  1  0.48964358  0.32834878  0.82391691  1
  Pb2+  Pb206  1  0.66608529  0.49193882  0.15996972  1
  Pb2+  Pb207  1  0.82849455  0.65956522  0.83470822  1
  Pb2+  Pb208  1  0.50298994  0.67500587  0.16794890  1
  Pb2+  Pb209  1  0.66896577  -0.00353176  -0.00393903  1
  Pb2+  Pb210  1  0.00119334  0.33363781  0.00190746  1
  Pb2+  Pb211  1  0.16524822  0.67515648  0.83531665  1
  Pb2+  Pb212  1  0.33307172  0.00117831  0.00303019  1
  Pb2+  Pb213  1  0.67556802  0.16830155  0.49524464  1
  Pb2+  Pb214  1  0.67571656  0.66146416  0.33792250  1
  Pb2+  Pb215  1  0.33092045  0.66975510  0.00946344  1
