# generated using pymatgen
data_In22Ag21Sn22Bi21(Te54Pb11)2
_symmetry_space_group_name_H-M   'P 1'
_cell_length_a   19.16130932
_cell_length_b   19.15600977
_cell_length_c   19.16637249
_cell_angle_alpha   89.98642580
_cell_angle_beta   90.00520560
_cell_angle_gamma   89.99152126
_symmetry_Int_Tables_number   1
_chemical_formula_structural   In22Ag21Sn22Bi21(Te54Pb11)2
_chemical_formula_sum   'In22 Ag21 Sn22 Bi21 Te108 Pb22'
_cell_volume   7035.09776748
_cell_formula_units_Z   1
loop_
 _symmetry_equiv_pos_site_id
 _symmetry_equiv_pos_as_xyz
  1  'x, y, z'
loop_
 _atom_type_symbol
 _atom_type_oxidation_number
  In3+  3.0
  Ag+  1.0
  Sn2+  2.0
  Bi3+  3.0
  Te2-  -2.0
  Pb2+  2.0
loop_
 _atom_site_type_symbol
 _atom_site_label
 _atom_site_symmetry_multiplicity
 _atom_site_fract_x
 _atom_site_fract_y
 _atom_site_fract_z
 _atom_site_occupancy
  In3+  In0  1  0.51435620  0.33788543  0.49655525  1
  In3+  In1  1  0.18139291  0.49379878  0.32642334  1
  In3+  In2  1  0.66976120  0.35650515  0.00613359  1
  In3+  In3  1  0.83274064  -0.00004931  0.15089507  1
  In3+  In4  1  0.18163381  0.82726565  0.31750140  1
  In3+  In5  1  -0.01434908  0.48429356  0.83639922  1
  In3+  In6  1  -0.00475960  0.35219547  0.35078217  1
  In3+  In7  1  0.52020586  0.83310669  0.65887111  1
  In3+  In8  1  0.00057657  0.19155410  0.48080386  1
  In3+  In9  1  0.33714331  0.02460970  0.32679656  1
  In3+  In10  1  0.16749184  0.49161735  0.67204883  1
  In3+  In11  1  0.32036266  0.65801452  0.33725559  1
  In3+  In12  1  0.33522971  0.66841380  0.66561040  1
  In3+  In13  1  -0.00989827  0.66786349  0.01504440  1
  In3+  In14  1  0.33717710  0.66361332  0.02325513  1
  In3+  In15  1  0.33082418  0.18591940  0.15974985  1
  In3+  In16  1  0.84168154  0.02155150  0.83692124  1
  In3+  In17  1  0.83539049  0.17817370  0.65771304  1
  In3+  In18  1  0.67562847  0.50059472  0.48970131  1
  In3+  In19  1  0.84746954  0.82964070  0.32895230  1
  In3+  In20  1  0.52272178  0.33794400  0.83570045  1
  In3+  In21  1  0.50534043  0.65420491  0.49468339  1
  Ag+  Ag22  1  0.69550111  -0.02749485  0.66394755  1
  Ag+  Ag23  1  0.02809906  0.36789632  0.02334200  1
  Ag+  Ag24  1  0.19222222  0.03153848  0.86294056  1
  Ag+  Ag25  1  0.30185643  0.32686050  0.33832107  1
  Ag+  Ag26  1  -0.00647410  0.81091688  0.19184597  1
  Ag+  Ag27  1  0.02081987  0.31808388  0.69216252  1
  Ag+  Ag28  1  0.81492941  0.87380899  0.69453529  1
  Ag+  Ag29  1  0.85490818  0.19125237  0.32866533  1
  Ag+  Ag30  1  0.69394916  0.65211691  -0.02743202  1
  Ag+  Ag31  1  0.81297801  0.30795992  0.49176160  1
  Ag+  Ag32  1  0.64117735  0.30880209  0.30429466  1
  Ag+  Ag33  1  0.16494527  0.35692452  0.49397738  1
  Ag+  Ag34  1  0.18501999  0.66560745  0.14918829  1
  Ag+  Ag35  1  0.30808051  0.48466737  0.15964758  1
  Ag+  Ag36  1  0.18929401  0.19382335  0.01845942  1
  Ag+  Ag37  1  0.51831327  0.51487315  0.33469946  1
  Ag+  Ag38  1  0.02382553  0.64763476  0.31003405  1
  Ag+  Ag39  1  0.30530300  0.02489973  0.03395932  1
  Ag+  Ag40  1  0.84954282  0.49128592  0.02113915  1
  Ag+  Ag41  1  0.66589477  0.64054794  0.31758234  1
  Ag+  Ag42  1  0.84308003  0.33124168  0.85531222  1
  Sn2+  Sn43  1  0.50226209  0.50298137  0.01600496  1
  Sn2+  Sn44  1  0.67409007  0.82901027  0.17343372  1
  Sn2+  Sn45  1  0.49821102  0.66099678  0.83102417  1
  Sn2+  Sn46  1  0.15776624  0.33359721  0.82928949  1
  Sn2+  Sn47  1  0.33325641  0.48872779  0.48871203  1
  Sn2+  Sn48  1  0.82630654  0.50385536  0.33280351  1
  Sn2+  Sn49  1  0.66905306  0.66294750  0.66323429  1
  Sn2+  Sn50  1  0.15254362  0.83143732  0.66365446  1
  Sn2+  Sn51  1  0.67009913  0.83465258  0.49079921  1
  Sn2+  Sn52  1  0.67286170  0.49789249  0.82856793  1
  Sn2+  Sn53  1  0.49181083  0.00166060  0.83322461  1
  Sn2+  Sn54  1  0.83681765  0.18390943  0.00738266  1
  Sn2+  Sn55  1  -0.00280537  -0.00491561  0.33160608  1
  Sn2+  Sn56  1  0.16890586  0.66906419  0.83678100  1
  Sn2+  Sn57  1  0.82872461  0.66719169  0.17231363  1
  Sn2+  Sn58  1  0.32328546  0.16932403  0.83341406  1
  Sn2+  Sn59  1  0.83730033  0.48856304  0.66532658  1
  Sn2+  Sn60  1  0.66008370  -0.00625615  -0.01256193  1
  Sn2+  Sn61  1  0.49759403  0.82179292  0.33087040  1
  Sn2+  Sn62  1  0.66997488  0.00606101  0.34061267  1
  Sn2+  Sn63  1  0.32496522  0.83323567  0.16082672  1
  Sn2+  Sn64  1  0.33471662  0.49132913  0.83691871  1
  Bi3+  Bi65  1  0.66440357  0.16105552  0.83393452  1
  Bi3+  Bi66  1  0.16734065  0.66702775  0.50330283  1
  Bi3+  Bi67  1  0.66814278  0.50537676  0.16963520  1
  Bi3+  Bi68  1  0.49732026  0.83039359  -0.00460838  1
  Bi3+  Bi69  1  -0.00328993  0.16670037  0.83773755  1
  Bi3+  Bi70  1  0.16600693  0.82917126  -0.00137478  1
  Bi3+  Bi71  1  0.50196491  0.16958699  0.33563243  1
  Bi3+  Bi72  1  0.33218994  -0.00421772  0.66530514  1
  Bi3+  Bi73  1  0.66844495  0.33604373  0.66563844  1
  Bi3+  Bi74  1  -0.00119378  0.82858432  0.83034696  1
  Bi3+  Bi75  1  0.00099762  0.16191362  0.16124678  1
  Bi3+  Bi76  1  -0.00092773  0.66623611  0.66335830  1
  Bi3+  Bi77  1  0.83040998  0.66934559  0.49818488  1
  Bi3+  Bi78  1  0.66460487  0.83371273  0.83701973  1
  Bi3+  Bi79  1  0.32638007  0.16920131  0.49853208  1
  Bi3+  Bi80  1  0.16679526  -0.00294459  0.50047876  1
  Bi3+  Bi81  1  0.00088087  -0.00345529  -0.00263829  1
  Bi3+  Bi82  1  -0.00078811  0.50515248  0.50517493  1
  Bi3+  Bi83  1  -0.00303670  0.83555780  0.50083802  1
  Bi3+  Bi84  1  0.83487616  0.00017359  0.49714529  1
  Bi3+  Bi85  1  0.33160182  0.83059251  0.83027501  1
  Te2-  Te86  1  0.17091633  0.16439029  0.16157774  1
  Te2-  Te87  1  0.16062897  0.15958816  0.49808678  1
  Te2-  Te88  1  0.16078657  0.17064411  0.83719423  1
  Te2-  Te89  1  0.16429954  0.51438805  0.17404349  1
  Te2-  Te90  1  0.16355075  0.50628355  0.49369488  1
  Te2-  Te91  1  0.16859716  0.50001919  0.82728164  1
  Te2-  Te92  1  0.15282608  0.81674493  0.16649132  1
  Te2-  Te93  1  0.16316467  0.83176368  0.49727017  1
  Te2-  Te94  1  0.16556613  0.83290507  0.83217602  1
  Te2-  Te95  1  0.49147051  0.16569778  0.16969688  1
  Te2-  Te96  1  0.49404794  0.17136162  0.49939148  1
  Te2-  Te97  1  0.49949418  0.17535429  0.83276817  1
  Te2-  Te98  1  0.50784330  0.50122889  0.18104139  1
  Te2-  Te99  1  0.49827797  0.50010992  0.48952620  1
  Te2-  Te100  1  0.49789260  0.49268959  0.83586128  1
  Te2-  Te101  1  0.49814545  0.83174193  0.16100806  1
  Te2-  Te102  1  0.50282709  0.82755058  0.50451663  1
  Te2-  Te103  1  0.49797759  0.83041359  0.82782372  1
  Te2-  Te104  1  0.83559048  0.15640799  0.17865488  1
  Te2-  Te105  1  0.84649281  0.16194742  0.48403030  1
  Te2-  Te106  1  0.83041610  0.17686988  0.83810598  1
  Te2-  Te107  1  0.82879706  0.49961756  0.16664880  1
  Te2-  Te108  1  0.83519136  0.50725012  0.49902560  1
  Te2-  Te109  1  0.83219544  0.48502049  0.82792178  1
  Te2-  Te110  1  0.84275428  0.83744254  0.17106075  1
  Te2-  Te111  1  0.83302550  0.83483698  0.49880507  1
  Te2-  Te112  1  0.82940795  0.82950984  0.83354911  1
  Te2-  Te113  1  0.16602046  -0.00842336  0.00068392  1
  Te2-  Te114  1  0.17265118  -0.01060979  0.33618356  1
  Te2-  Te115  1  0.16953784  -0.00246326  0.66385695  1
  Te2-  Te116  1  0.16881516  0.33638697  -0.00376838  1
  Te2-  Te117  1  0.15497334  0.34117836  0.33831042  1
  Te2-  Te118  1  0.16358818  0.33860662  0.66323800  1
  Te2-  Te119  1  0.16857384  0.66811721  0.00187395  1
  Te2-  Te120  1  0.16525384  0.67144391  0.34044352  1
  Te2-  Te121  1  0.16453394  0.66547977  0.66452530  1
  Te2-  Te122  1  0.49494484  -0.00699198  -0.00456937  1
  Te2-  Te123  1  0.49689923  0.00302046  0.33264633  1
  Te2-  Te124  1  0.49315992  -0.00987439  0.66578341  1
  Te2-  Te125  1  0.50876279  0.33553786  -0.00360592  1
  Te2-  Te126  1  0.50279747  0.33065296  0.34503337  1
  Te2-  Te127  1  0.50235603  0.33485522  0.66116196  1
  Te2-  Te128  1  0.49030538  0.66877971  -0.00190243  1
  Te2-  Te129  1  0.51516564  0.66229970  0.34391736  1
  Te2-  Te130  1  0.49449869  0.67189888  0.65926652  1
  Te2-  Te131  1  0.83412992  -0.00062106  -0.00427270  1
  Te2-  Te132  1  0.82926010  -0.01295794  0.33673977  1
  Te2-  Te133  1  0.83506162  0.01653145  0.66333436  1
  Te2-  Te134  1  0.82234026  0.34294286  0.00235909  1
  Te2-  Te135  1  0.84448796  0.33716698  0.34521644  1
  Te2-  Te136  1  0.82814466  0.33031033  0.64396613  1
  Te2-  Te137  1  0.83686191  0.65581134  0.00085605  1
  Te2-  Te138  1  0.81616104  0.67666325  0.33871197  1
  Te2-  Te139  1  0.83614306  0.65925975  0.66189187  1
  Te2-  Te140  1  -0.00472642  0.15987495  -0.00069255  1
  Te2-  Te141  1  -0.00043806  0.16153464  0.32690774  1
  Te2-  Te142  1  -0.00884732  0.17533098  0.67434482  1
  Te2-  Te143  1  -0.00684385  0.50560692  -0.00966376  1
  Te2-  Te144  1  -0.00660793  0.50646569  0.33982167  1
  Te2-  Te145  1  0.00553529  0.50199973  0.66792406  1
  Te2-  Te146  1  0.00133426  0.82787455  -0.00721710  1
  Te2-  Te147  1  0.00037622  0.83254918  0.33763478  1
  Te2-  Te148  1  -0.01327556  0.83123420  0.66633923  1
  Te2-  Te149  1  0.33334100  0.16575637  0.00326759  1
  Te2-  Te150  1  0.33335621  0.17944055  0.33426162  1
  Te2-  Te151  1  0.33343484  0.16336692  0.66342088  1
  Te2-  Te152  1  0.33570764  0.50812907  0.01287955  1
  Te2-  Te153  1  0.33124413  0.50622434  0.32701231  1
  Te2-  Te154  1  0.32706552  0.50606271  0.66406094  1
  Te2-  Te155  1  0.33136831  0.82516765  -0.00712910  1
  Te2-  Te156  1  0.33401030  0.82123633  0.33205284  1
  Te2-  Te157  1  0.32555222  0.82928835  0.66870703  1
  Te2-  Te158  1  0.67073189  0.15517312  -0.00404297  1
  Te2-  Te159  1  0.66451825  0.16663770  0.33442455  1
  Te2-  Te160  1  0.67359215  0.17250923  0.67070679  1
  Te2-  Te161  1  0.65992310  0.51080339  0.00000569  1
  Te2-  Te162  1  0.66701980  0.49299304  0.33697166  1
  Te2-  Te163  1  0.66432821  0.49792775  0.66719661  1
  Te2-  Te164  1  0.66069940  0.82852993  -0.00113415  1
  Te2-  Te165  1  0.65366799  0.84617043  0.33331130  1
  Te2-  Te166  1  0.67363556  0.82828642  0.67086232  1
  Te2-  Te167  1  -0.00786521  -0.00018851  0.16202265  1
  Te2-  Te168  1  0.00146933  -0.00243748  0.49795106  1
  Te2-  Te169  1  -0.00051180  -0.00461066  0.83489412  1
  Te2-  Te170  1  -0.00023627  0.32584400  0.16009215  1
  Te2-  Te171  1  0.01276790  0.33997456  0.50351738  1
  Te2-  Te172  1  -0.00956915  0.33198876  0.83482244  1
  Te2-  Te173  1  -0.01078190  0.66578393  0.16885090  1
  Te2-  Te174  1  -0.00170714  0.67084597  0.49811346  1
  Te2-  Te175  1  0.00338631  0.66725941  0.82616200  1
  Te2-  Te176  1  0.33168550  -0.00976369  0.17352585  1
  Te2-  Te177  1  0.33122830  0.00370129  0.49518755  1
  Te2-  Te178  1  0.33097506  -0.00223525  0.82793159  1
  Te2-  Te179  1  0.33065465  0.33996699  0.17674203  1
  Te2-  Te180  1  0.31466578  0.33051647  0.49038198  1
  Te2-  Te181  1  0.32642809  0.33262919  0.83059641  1
  Te2-  Te182  1  0.33008528  0.66879928  0.17787513  1
  Te2-  Te183  1  0.33222166  0.66142928  0.49840518  1
  Te2-  Te184  1  0.33411572  0.66441642  0.82223446  1
  Te2-  Te185  1  0.67592426  -0.00595236  0.16208906  1
  Te2-  Te186  1  0.67128243  0.00163257  0.51376693  1
  Te2-  Te187  1  0.66236608  -0.00246694  0.82134167  1
  Te2-  Te188  1  0.66773260  0.33491441  0.16149423  1
  Te2-  Te189  1  0.67001555  0.34282780  0.49933799  1
  Te2-  Te190  1  0.67331508  0.32763324  0.83170660  1
  Te2-  Te191  1  0.66801384  0.66829225  0.17137162  1
  Te2-  Te192  1  0.66450196  0.66201035  0.50315723  1
  Te2-  Te193  1  0.66348462  0.66814397  0.83041810  1
  Pb2+  Pb194  1  -0.00130267  0.49750970  0.16926309  1
  Pb2+  Pb195  1  0.66743200  0.16155317  0.16484555  1
  Pb2+  Pb196  1  0.16440937  0.33736759  0.16812085  1
  Pb2+  Pb197  1  0.50358466  0.16378990  -0.00110666  1
  Pb2+  Pb198  1  0.33245978  0.33689686  0.65814789  1
  Pb2+  Pb199  1  0.16441225  0.16440927  0.32993639  1
  Pb2+  Pb200  1  0.50484548  0.16127752  0.66765669  1
  Pb2+  Pb201  1  0.33432785  0.83034322  0.49914266  1
  Pb2+  Pb202  1  0.50423300  -0.00230336  0.49739392  1
  Pb2+  Pb203  1  0.16070501  -0.00978545  0.16696706  1
  Pb2+  Pb204  1  0.83065108  0.82667575  0.00228483  1
  Pb2+  Pb205  1  0.00142658  0.00515959  0.66632077  1
  Pb2+  Pb206  1  0.50524569  -0.00374553  0.16472893  1
  Pb2+  Pb207  1  0.16338079  0.16810776  0.67001532  1
  Pb2+  Pb208  1  0.83619057  0.65835729  0.83000000  1
  Pb2+  Pb209  1  0.49592768  0.50350543  0.66403230  1
  Pb2+  Pb210  1  0.16488797  0.50182969  -0.00387268  1
  Pb2+  Pb211  1  0.33973943  0.33896621  -0.00138435  1
  Pb2+  Pb212  1  0.67049996  0.16932354  0.50091449  1
  Pb2+  Pb213  1  0.49849963  0.66592604  0.17282304  1
  Pb2+  Pb214  1  0.83586932  0.32963621  0.17702745  1
  Pb2+  Pb215  1  0.49727556  0.33705937  0.17579891  1
