# generated using pymatgen
data_In22Ag21Sn22Bi21(Te54Pb11)2
_symmetry_space_group_name_H-M   'P 1'
_cell_length_a   19.16592736
_cell_length_b   19.18463546
_cell_length_c   19.14767779
_cell_angle_alpha   90.00074930
_cell_angle_beta   89.98672223
_cell_angle_gamma   90.00584829
_symmetry_Int_Tables_number   1
_chemical_formula_structural   In22Ag21Sn22Bi21(Te54Pb11)2
_chemical_formula_sum   'In22 Ag21 Sn22 Bi21 Te108 Pb22'
_cell_volume   7040.43487644
_cell_formula_units_Z   1
loop_
 _symmetry_equiv_pos_site_id
 _symmetry_equiv_pos_as_xyz
  1  'x, y, z'
loop_
 _atom_type_symbol
 _atom_type_oxidation_number
  In3+  3.0
  Ag+  1.0
  Sn2+  2.0
  Bi3+  3.0
  Te2-  -2.0
  Pb2+  2.0
loop_
 _atom_site_type_symbol
 _atom_site_label
 _atom_site_symmetry_multiplicity
 _atom_site_fract_x
 _atom_site_fract_y
 _atom_site_fract_z
 _atom_site_occupancy
  In3+  In0  1  0.84514534  0.48749068  0.01087139  1
  In3+  In1  1  -0.01590968  0.66290154  0.66524756  1
  In3+  In2  1  0.82837934  0.66282054  0.17087972  1
  In3+  In3  1  0.84829037  0.00051248  0.82475783  1
  In3+  In4  1  0.30612457  0.50595141  0.47662648  1
  In3+  In5  1  0.68611008  0.16357572  0.82107872  1
  In3+  In6  1  0.83766891  0.49562286  0.68568328  1
  In3+  In7  1  0.33353172  0.83815372  0.51508886  1
  In3+  In8  1  0.51029066  0.15541990  0.00043360  1
  In3+  In9  1  0.31475697  0.83984007  0.16660633  1
  In3+  In10  1  -0.00498379  0.65674923  0.00169150  1
  In3+  In11  1  0.16525270  0.83242512  0.33720221  1
  In3+  In12  1  0.16325210  0.64602160  0.16847614  1
  In3+  In13  1  0.51315883  0.65567176  0.51238967  1
  In3+  In14  1  0.49650127  0.31047334  0.50161102  1
  In3+  In15  1  0.68274213  0.48216052  0.49990558  1
  In3+  In16  1  0.16307492  0.00268301  0.16725605  1
  In3+  In17  1  0.17328546  0.83537211  0.00654373  1
  In3+  In18  1  0.33917664  0.00033477  0.34955800  1
  In3+  In19  1  -0.00227158  0.83378562  0.16360781  1
  In3+  In20  1  0.00053027  0.82997636  0.84421409  1
  In3+  In21  1  0.00920440  0.31215025  -0.00328293  1
  Ag+  Ag22  1  0.63215148  0.83460498  0.47458684  1
  Ag+  Ag23  1  0.35179203  0.01939901  0.01810057  1
  Ag+  Ag24  1  -0.00191439  0.48452893  0.16305013  1
  Ag+  Ag25  1  0.85298650  0.19909431  0.69292773  1
  Ag+  Ag26  1  0.85921708  0.19830609  0.29688130  1
  Ag+  Ag27  1  0.52565451  -0.01956332  0.49984857  1
  Ag+  Ag28  1  -0.01206805  0.47276135  0.46715999  1
  Ag+  Ag29  1  0.86265141  0.29935223  0.16922422  1
  Ag+  Ag30  1  0.13773521  0.47349381  0.34155903  1
  Ag+  Ag31  1  0.29962674  0.47422384  0.16872582  1
  Ag+  Ag32  1  0.01645978  0.47312818  0.81601515  1
  Ag+  Ag33  1  0.69427588  0.86675043  0.83446002  1
  Ag+  Ag34  1  0.18051829  0.02428938  0.46963446  1
  Ag+  Ag35  1  0.13369838  0.19426518  0.69915043  1
  Ag+  Ag36  1  0.30934820  0.81407376  0.81255554  1
  Ag+  Ag37  1  0.80609641  0.86051047  0.31117619  1
  Ag+  Ag38  1  0.00967773  0.19078621  0.19278596  1
  Ag+  Ag39  1  0.01829455  0.18206445  0.80758931  1
  Ag+  Ag40  1  0.33528355  0.63731871  0.63810944  1
  Ag+  Ag41  1  0.69478295  0.31035557  0.00046620  1
  Ag+  Ag42  1  0.13857427  0.36397721  0.81678966  1
  Sn2+  Sn43  1  0.65751250  0.67686325  0.66908282  1
  Sn2+  Sn44  1  0.16407060  0.16065325  -0.00164644  1
  Sn2+  Sn45  1  0.66886589  -0.00190588  0.66471781  1
  Sn2+  Sn46  1  0.67498697  0.49214308  0.83403003  1
  Sn2+  Sn47  1  0.50897503  0.33801820  0.16613335  1
  Sn2+  Sn48  1  0.67393774  0.33816531  0.67997759  1
  Sn2+  Sn49  1  0.83554018  0.83758554  0.00143154  1
  Sn2+  Sn50  1  0.33345775  0.33458190  -0.00594303  1
  Sn2+  Sn51  1  0.67777828  0.49238433  0.16457068  1
  Sn2+  Sn52  1  0.48842027  0.50272223  0.34224940  1
  Sn2+  Sn53  1  0.83019751  0.83449282  0.65653318  1
  Sn2+  Sn54  1  0.16570990  0.16690047  0.33886161  1
  Sn2+  Sn55  1  0.00616756  -0.00484381  0.66425604  1
  Sn2+  Sn56  1  0.83385427  -0.00151298  0.17482697  1
  Sn2+  Sn57  1  0.83220974  0.32482300  0.48677696  1
  Sn2+  Sn58  1  0.83530713  0.16693604  0.00267161  1
  Sn2+  Sn59  1  0.32115741  0.16472828  0.15994641  1
  Sn2+  Sn60  1  0.00598016  0.33740196  0.67161852  1
  Sn2+  Sn61  1  0.49482084  0.66584447  0.16895885  1
  Sn2+  Sn62  1  0.49809466  0.83239147  0.32904119  1
  Sn2+  Sn63  1  0.49112296  -0.00498067  0.82466835  1
  Sn2+  Sn64  1  0.49463096  0.83222509  -0.00451130  1
  Bi3+  Bi65  1  0.00211658  0.83237757  0.50375111  1
  Bi3+  Bi66  1  0.67006216  0.66462881  -0.00311471  1
  Bi3+  Bi67  1  0.66173819  0.16850697  0.16571048  1
  Bi3+  Bi68  1  0.49939580  0.16820742  0.32971788  1
  Bi3+  Bi69  1  0.16888863  0.32696866  0.16137009  1
  Bi3+  Bi70  1  0.00015376  -0.00003926  -0.00033777  1
  Bi3+  Bi71  1  0.49817168  0.33324129  0.83637342  1
  Bi3+  Bi72  1  0.32673223  0.16248029  0.83371797  1
  Bi3+  Bi73  1  0.33119241  0.00276395  0.67277539  1
  Bi3+  Bi74  1  0.83091517  0.50415039  0.33162542  1
  Bi3+  Bi75  1  0.49856923  0.67262985  0.83571065  1
  Bi3+  Bi76  1  0.16852241  0.66978162  0.49693838  1
  Bi3+  Bi77  1  0.16564756  0.83356752  0.66437619  1
  Bi3+  Bi78  1  0.33431645  0.67301388  0.33136591  1
  Bi3+  Bi79  1  0.83838115  -0.00048338  0.50309117  1
  Bi3+  Bi80  1  0.67025764  0.16245272  0.50339286  1
  Bi3+  Bi81  1  0.50347481  0.49956228  0.00792088  1
  Bi3+  Bi82  1  0.33036379  0.67058023  0.00595028  1
  Bi3+  Bi83  1  -0.00362294  0.16535574  0.50268312  1
  Bi3+  Bi84  1  0.16635886  0.00131381  0.83250141  1
  Bi3+  Bi85  1  0.33777722  0.33410742  0.66666903  1
  Te2-  Te86  1  0.15546822  0.16291938  0.16709111  1
  Te2-  Te87  1  0.16189449  0.16586051  0.49851496  1
  Te2-  Te88  1  0.16215154  0.16324801  0.83844450  1
  Te2-  Te89  1  0.15369561  0.49483141  0.17673613  1
  Te2-  Te90  1  0.15236683  0.50384357  0.48842624  1
  Te2-  Te91  1  0.16047371  0.50587347  0.83690696  1
  Te2-  Te92  1  0.16041868  0.84030848  0.16907967  1
  Te2-  Te93  1  0.16875281  0.83223412  0.49813047  1
  Te2-  Te94  1  0.16370063  0.83786561  0.83283853  1
  Te2-  Te95  1  0.49684053  0.16778106  0.16406407  1
  Te2-  Te96  1  0.50583035  0.15719736  0.49555699  1
  Te2-  Te97  1  0.49094505  0.16865510  0.84410957  1
  Te2-  Te98  1  0.50920302  0.50087585  0.16944660  1
  Te2-  Te99  1  0.51760919  0.50733035  0.49998049  1
  Te2-  Te100  1  0.50150659  0.49887319  0.84003078  1
  Te2-  Te101  1  0.50300033  0.83117298  0.16372981  1
  Te2-  Te102  1  0.48712572  0.83748229  0.49453556  1
  Te2-  Te103  1  0.49761949  0.83348891  0.83707647  1
  Te2-  Te104  1  0.82409631  0.15716824  0.16217663  1
  Te2-  Te105  1  0.83097583  0.16436989  0.50110116  1
  Te2-  Te106  1  0.83683795  0.15860313  0.83317713  1
  Te2-  Te107  1  0.84515103  0.50954594  0.16557208  1
  Te2-  Te108  1  0.83895430  0.49604948  0.49309611  1
  Te2-  Te109  1  0.84311113  0.50130455  0.83834895  1
  Te2-  Te110  1  0.84108284  0.83069259  0.17102708  1
  Te2-  Te111  1  0.84141882  0.83640374  0.49891850  1
  Te2-  Te112  1  0.84122638  0.84229285  0.83292901  1
  Te2-  Te113  1  0.16430604  -0.00823031  -0.00084646  1
  Te2-  Te114  1  0.17429783  -0.00047996  0.32511746  1
  Te2-  Te115  1  0.16864150  -0.00476281  0.66961465  1
  Te2-  Te116  1  0.16346058  0.33276301  0.00015008  1
  Te2-  Te117  1  0.16751262  0.32966371  0.33028260  1
  Te2-  Te118  1  0.16689575  0.33567545  0.67445887  1
  Te2-  Te119  1  0.16540961  0.67528878  0.00822034  1
  Te2-  Te120  1  0.17253513  0.67275284  0.33042315  1
  Te2-  Te121  1  0.18754315  0.67171719  0.65995025  1
  Te2-  Te122  1  0.49572926  0.00135373  -0.00190051  1
  Te2-  Te123  1  0.49316470  0.00305751  0.34257751  1
  Te2-  Te124  1  0.49599747  0.00002689  0.65437590  1
  Te2-  Te125  1  0.49402270  0.33979400  -0.00166130  1
  Te2-  Te126  1  0.49934172  0.33177732  0.33713193  1
  Te2-  Te127  1  0.50315047  0.33349154  0.67057166  1
  Te2-  Te128  1  0.50144043  0.66415813  0.00160453  1
  Te2-  Te129  1  0.49664958  0.66896883  0.33474403  1
  Te2-  Te130  1  0.48387167  0.66762337  0.66723183  1
  Te2-  Te131  1  0.83538866  -0.00467895  -0.00235350  1
  Te2-  Te132  1  0.83480115  0.00064735  0.33637703  1
  Te2-  Te133  1  0.83540320  -0.00198908  0.66977133  1
  Te2-  Te134  1  0.83903288  0.33713487  0.01348941  1
  Te2-  Te135  1  0.83272931  0.34011153  0.31758996  1
  Te2-  Te136  1  0.83395710  0.34138010  0.66735822  1
  Te2-  Te137  1  0.83613862  0.67187323  0.00704567  1
  Te2-  Te138  1  0.83471110  0.66977655  0.32819308  1
  Te2-  Te139  1  0.83014963  0.66438179  0.66877924  1
  Te2-  Te140  1  -0.00501534  0.16065225  0.00195434  1
  Te2-  Te141  1  -0.00318257  0.16694859  0.33763847  1
  Te2-  Te142  1  -0.00557504  0.16436271  0.66302150  1
  Te2-  Te143  1  -0.00428557  0.50718371  0.01169850  1
  Te2-  Te144  1  -0.00509002  0.50292379  0.32308826  1
  Te2-  Te145  1  -0.00594862  0.50783671  0.67468644  1
  Te2-  Te146  1  0.00328375  0.83620933  0.00296421  1
  Te2-  Te147  1  0.00987520  0.83237315  0.33713872  1
  Te2-  Te148  1  0.00371443  0.82279635  0.66885713  1
  Te2-  Te149  1  0.32993863  0.16433871  -0.00186370  1
  Te2-  Te150  1  0.33625695  0.16220797  0.33098855  1
  Te2-  Te151  1  0.33398478  0.16863272  0.66819541  1
  Te2-  Te152  1  0.33542301  0.50604340  0.01801975  1
  Te2-  Te153  1  0.33254574  0.50715326  0.31908841  1
  Te2-  Te154  1  0.33434756  0.49478796  0.67306305  1
  Te2-  Te155  1  0.32791910  0.83298240  0.01064690  1
  Te2-  Te156  1  0.32964992  0.83984548  0.32446761  1
  Te2-  Te157  1  0.33137395  0.83833360  0.66966723  1
  Te2-  Te158  1  0.66279646  0.16668638  0.00080215  1
  Te2-  Te159  1  0.66169121  0.16863087  0.33507380  1
  Te2-  Te160  1  0.67326374  0.17036387  0.66722426  1
  Te2-  Te161  1  0.67031624  0.50418383  -0.00118432  1
  Te2-  Te162  1  0.66771339  0.50086813  0.33929791  1
  Te2-  Te163  1  0.67847107  0.50120717  0.66212342  1
  Te2-  Te164  1  0.66718873  0.82717854  -0.01660813  1
  Te2-  Te165  1  0.66382566  0.83336434  0.33002834  1
  Te2-  Te166  1  0.67190417  0.83393454  0.68795082  1
  Te2-  Te167  1  0.00186821  -0.00647723  0.16218201  1
  Te2-  Te168  1  0.00268880  -0.00206398  0.50200470  1
  Te2-  Te169  1  0.00069761  -0.00244000  0.83406403  1
  Te2-  Te170  1  0.00509601  0.33147273  0.15385453  1
  Te2-  Te171  1  -0.00329405  0.33207335  0.50710806  1
  Te2-  Te172  1  -0.00171370  0.32702252  0.84168931  1
  Te2-  Te173  1  0.01054978  0.67881269  0.15909000  1
  Te2-  Te174  1  0.00395298  0.66941086  0.50931830  1
  Te2-  Te175  1  -0.00197803  0.67620995  0.84411552  1
  Te2-  Te176  1  0.32207154  -0.00200007  0.16007660  1
  Te2-  Te177  1  0.32289040  -0.00275813  0.50218717  1
  Te2-  Te178  1  0.33044238  0.00123327  0.83541413  1
  Te2-  Te179  1  0.33061502  0.33167895  0.16238914  1
  Te2-  Te180  1  0.33670789  0.34241755  0.50375987  1
  Te2-  Te181  1  0.33425456  0.33002384  0.83196920  1
  Te2-  Te182  1  0.32713850  0.67967413  0.16813055  1
  Te2-  Te183  1  0.33309953  0.66497597  0.49239605  1
  Te2-  Te184  1  0.33674685  0.67389595  0.84453481  1
  Te2-  Te185  1  0.66477475  0.00233284  0.16398114  1
  Te2-  Te186  1  0.67227693  -0.00520321  0.50457176  1
  Te2-  Te187  1  0.65840561  0.01117583  0.82844039  1
  Te2-  Te188  1  0.66657386  0.32981515  0.15164714  1
  Te2-  Te189  1  0.66572879  0.32920735  0.50421850  1
  Te2-  Te190  1  0.66340740  0.32474381  0.84646642  1
  Te2-  Te191  1  0.67178716  0.66316812  0.16171814  1
  Te2-  Te192  1  0.65995044  0.69055294  0.50804098  1
  Te2-  Te193  1  0.66010431  0.65704311  0.83294115  1
  Pb2+  Pb194  1  0.67054056  0.83132103  0.15502426  1
  Pb2+  Pb195  1  0.16369612  0.50165263  0.00495499  1
  Pb2+  Pb196  1  0.33137206  0.50194015  0.84293478  1
  Pb2+  Pb197  1  0.16498162  0.50804498  0.65971695  1
  Pb2+  Pb198  1  0.16505339  0.67053032  0.83140262  1
  Pb2+  Pb199  1  0.50509991  0.16394400  0.67430224  1
  Pb2+  Pb200  1  0.83080505  0.67074119  0.83678896  1
  Pb2+  Pb201  1  0.50576700  0.83476935  0.66650576  1
  Pb2+  Pb202  1  0.00184877  -0.00150539  0.33083597  1
  Pb2+  Pb203  1  0.49196862  -0.00297177  0.17200025  1
  Pb2+  Pb204  1  0.83073896  0.66633894  0.49978525  1
  Pb2+  Pb205  1  0.66726156  0.00143851  0.33508966  1
  Pb2+  Pb206  1  0.66706444  0.33398880  0.32566882  1
  Pb2+  Pb207  1  0.50533442  0.50164357  0.66731352  1
  Pb2+  Pb208  1  0.00237414  0.66732070  0.33237184  1
  Pb2+  Pb209  1  -0.00106912  0.33619400  0.33158465  1
  Pb2+  Pb210  1  0.66643574  0.66718587  0.33701202  1
  Pb2+  Pb211  1  0.33381330  0.33764328  0.33064754  1
  Pb2+  Pb212  1  0.16552738  0.33094059  0.50614730  1
  Pb2+  Pb213  1  0.66623204  -0.00405664  -0.00564446  1
  Pb2+  Pb214  1  0.83274928  0.33308910  0.84370707  1
  Pb2+  Pb215  1  0.33307026  0.16763156  0.50048436  1
