# generated using pymatgen
data_In22Ag21Sn22Bi21(Te54Pb11)2
_symmetry_space_group_name_H-M   'P 1'
_cell_length_a   19.14901191
_cell_length_b   19.14627968
_cell_length_c   19.13857973
_cell_angle_alpha   89.99597319
_cell_angle_beta   90.00978046
_cell_angle_gamma   89.98069304
_symmetry_Int_Tables_number   1
_chemical_formula_structural   In22Ag21Sn22Bi21(Te54Pb11)2
_chemical_formula_sum   'In22 Ag21 Sn22 Bi21 Te108 Pb22'
_cell_volume   7016.82170959
_cell_formula_units_Z   1
loop_
 _symmetry_equiv_pos_site_id
 _symmetry_equiv_pos_as_xyz
  1  'x, y, z'
loop_
 _atom_type_symbol
 _atom_type_oxidation_number
  In3+  3.0
  Ag+  1.0
  Sn2+  2.0
  Bi3+  3.0
  Te2-  -2.0
  Pb2+  2.0
loop_
 _atom_site_type_symbol
 _atom_site_label
 _atom_site_symmetry_multiplicity
 _atom_site_fract_x
 _atom_site_fract_y
 _atom_site_fract_z
 _atom_site_occupancy
  In3+  In0  1  0.31890828  0.00105950  0.35172900  1
  In3+  In1  1  0.00463662  -0.01397297  0.66714786  1
  In3+  In2  1  0.14617103  0.66550984  0.16724431  1
  In3+  In3  1  -0.01679697  0.66872273  -0.00106949  1
  In3+  In4  1  0.83909305  0.49420244  0.32270545  1
  In3+  In5  1  0.83617207  0.34384646  0.47620395  1
  In3+  In6  1  0.50110400  0.51823196  -0.01053710  1
  In3+  In7  1  0.17071792  0.15228496  0.67239902  1
  In3+  In8  1  0.15829767  0.33279088  0.48611184  1
  In3+  In9  1  0.33540418  0.66299856  0.01217773  1
  In3+  In10  1  -0.00568664  0.66604420  0.34991831  1
  In3+  In11  1  0.50593822  0.18896065  0.67049959  1
  In3+  In12  1  0.15708425  0.50121306  0.65531262  1
  In3+  In13  1  0.66767740  0.31678707  0.02102398  1
  In3+  In14  1  0.15569376  0.33807135  0.83525222  1
  In3+  In15  1  0.31868438  0.65217074  0.32828610  1
  In3+  In16  1  0.51087658  0.35174457  0.16865517  1
  In3+  In17  1  0.33446710  0.51195155  0.81569228  1
  In3+  In18  1  0.70209989  0.83421645  0.46798787  1
  In3+  In19  1  0.33439965  0.83970330  0.83998185  1
  In3+  In20  1  0.68549922  0.49420117  0.83452249  1
  In3+  In21  1  0.00036318  0.49897096  0.82640722  1
  Ag+  Ag22  1  0.52192520  0.48773024  0.67447827  1
  Ag+  Ag23  1  0.49771604  0.83468233  0.02393438  1
  Ag+  Ag24  1  0.84550861  0.69474222  0.17106628  1
  Ag+  Ag25  1  0.81868737  0.49761310  0.64754643  1
  Ag+  Ag26  1  0.01689396  0.30975140  0.33018182  1
  Ag+  Ag27  1  0.03228157  0.85585113  0.83618579  1
  Ag+  Ag28  1  0.68272090  0.35859295  0.33931376  1
  Ag+  Ag29  1  0.30726261  0.49558902  0.51624829  1
  Ag+  Ag30  1  0.85679400  0.85263791  -0.00563891  1
  Ag+  Ag31  1  0.14612175  -0.03168512  0.83156362  1
  Ag+  Ag32  1  0.16492693  0.03002229  0.18338859  1
  Ag+  Ag33  1  0.15860238  -0.02664210  0.47999808  1
  Ag+  Ag34  1  0.00878036  0.50508312  0.47504899  1
  Ag+  Ag35  1  0.14432605  0.13029020  0.03730720  1
  Ag+  Ag36  1  0.68931727  0.19691370  0.83569631  1
  Ag+  Ag37  1  0.48375641  0.68459976  0.16889514  1
  Ag+  Ag38  1  0.84161231  0.19563132  0.31025487  1
  Ag+  Ag39  1  0.00599931  0.86435298  0.47169468  1
  Ag+  Ag40  1  0.85606871  0.34822617  0.14957183  1
  Ag+  Ag41  1  0.69820858  0.80369977  0.15145542  1
  Ag+  Ag42  1  0.18748561  0.49950443  0.35419646  1
  Sn2+  Sn43  1  0.83074425  0.82917119  0.32824423  1
  Sn2+  Sn44  1  0.66490707  -0.00330826  0.67823340  1
  Sn2+  Sn45  1  0.66875741  0.50213779  0.16257156  1
  Sn2+  Sn46  1  0.16176582  0.66139697  0.83578547  1
  Sn2+  Sn47  1  -0.00020627  0.83589998  0.15601221  1
  Sn2+  Sn48  1  0.51551267  0.17051282  0.33146651  1
  Sn2+  Sn49  1  -0.00128265  0.66801025  0.66989829  1
  Sn2+  Sn50  1  -0.00311049  0.33714306  0.65355489  1
  Sn2+  Sn51  1  0.33729791  0.33164442  -0.00252820  1
  Sn2+  Sn52  1  0.83063688  0.50524015  0.00843279  1
  Sn2+  Sn53  1  0.66793309  -0.01058029  0.00592432  1
  Sn2+  Sn54  1  0.33377318  0.66501122  0.66026992  1
  Sn2+  Sn55  1  0.83819070  -0.00079079  0.17331616  1
  Sn2+  Sn56  1  0.16408003  0.34496999  0.15962413  1
  Sn2+  Sn57  1  0.16033315  0.83246864  0.66159911  1
  Sn2+  Sn58  1  0.83083852  0.32901658  0.83531139  1
  Sn2+  Sn59  1  0.00041773  0.49582010  0.17093689  1
  Sn2+  Sn60  1  0.33241499  0.83545932  0.16635211  1
  Sn2+  Sn61  1  0.48903400  -0.00780388  0.16330055  1
  Sn2+  Sn62  1  0.49323077  0.16608446  -0.00330231  1
  Sn2+  Sn63  1  0.50094184  0.33369932  0.84374959  1
  Sn2+  Sn64  1  0.49384169  0.00030968  0.83340430  1
  Bi3+  Bi65  1  0.33525025  0.16961677  0.83238531  1
  Bi3+  Bi66  1  0.49818043  0.83084680  0.66442640  1
  Bi3+  Bi67  1  0.66549162  -0.00141890  0.33246555  1
  Bi3+  Bi68  1  0.83427751  0.17412783  0.66743588  1
  Bi3+  Bi69  1  0.33267422  -0.00141580  0.00021974  1
  Bi3+  Bi70  1  0.00598023  -0.00337653  -0.00075829  1
  Bi3+  Bi71  1  0.33121558  0.17433304  0.49991293  1
  Bi3+  Bi72  1  0.33252532  -0.00274527  0.67079217  1
  Bi3+  Bi73  1  0.83140156  0.66366831  0.84018597  1
  Bi3+  Bi74  1  0.49874614  0.66625283  0.49459174  1
  Bi3+  Bi75  1  0.66528189  0.66660436  0.00382087  1
  Bi3+  Bi76  1  0.66375030  0.16066012  0.16382322  1
  Bi3+  Bi77  1  0.16923190  0.49980512  0.00186913  1
  Bi3+  Bi78  1  -0.00261111  0.17364020  0.50263937  1
  Bi3+  Bi79  1  0.66801865  0.50002907  0.50016392  1
  Bi3+  Bi80  1  0.49991507  0.83587043  0.33365507  1
  Bi3+  Bi81  1  0.83803201  -0.00036654  0.50417588  1
  Bi3+  Bi82  1  0.66869166  0.66879849  0.32852056  1
  Bi3+  Bi83  1  0.33658564  0.16293819  0.16333698  1
  Bi3+  Bi84  1  0.66020522  0.83116155  0.84187187  1
  Bi3+  Bi85  1  0.33540765  0.49599077  0.16118001  1
  Te2-  Te86  1  0.17271368  0.17789880  0.17241382  1
  Te2-  Te87  1  0.16783330  0.17778486  0.50786045  1
  Te2-  Te88  1  0.17406614  0.18173283  0.82646429  1
  Te2-  Te89  1  0.17166296  0.50592597  0.16329735  1
  Te2-  Te90  1  0.15774059  0.48994289  0.50008147  1
  Te2-  Te91  1  0.17563535  0.49630372  0.84142802  1
  Te2-  Te92  1  0.16777140  0.81855406  0.16786846  1
  Te2-  Te93  1  0.15240540  0.82882492  0.50326914  1
  Te2-  Te94  1  0.17757783  0.82164547  0.83034050  1
  Te2-  Te95  1  0.49824967  0.16034392  0.16626862  1
  Te2-  Te96  1  0.49545931  0.16818421  0.50427735  1
  Te2-  Te97  1  0.49592521  0.16610404  0.82721351  1
  Te2-  Te98  1  0.49795747  0.50151888  0.16092443  1
  Te2-  Te99  1  0.50825680  0.50497614  0.50872956  1
  Te2-  Te100  1  0.48843600  0.49938793  0.82291080  1
  Te2-  Te101  1  0.49219271  0.83301456  0.17183512  1
  Te2-  Te102  1  0.49677352  0.83049981  0.49897603  1
  Te2-  Te103  1  0.49455861  0.83192244  0.82672059  1
  Te2-  Te104  1  0.82555094  0.15976249  0.16903084  1
  Te2-  Te105  1  0.83447381  0.16499812  0.50745275  1
  Te2-  Te106  1  0.83279574  0.16566136  0.82906243  1
  Te2-  Te107  1  0.83031222  0.49185508  0.16788385  1
  Te2-  Te108  1  0.83024545  0.49473629  0.50196109  1
  Te2-  Te109  1  0.84020348  0.50044599  0.84282311  1
  Te2-  Te110  1  0.83941270  0.84111271  0.15506481  1
  Te2-  Te111  1  0.85624026  0.83644514  0.50539293  1
  Te2-  Te112  1  0.82350159  0.82499867  0.84671700  1
  Te2-  Te113  1  0.16753374  -0.00289267  -0.01817458  1
  Te2-  Te114  1  0.16488100  -0.00061455  0.33318180  1
  Te2-  Te115  1  0.16593344  -0.00125653  0.68162167  1
  Te2-  Te116  1  0.16627816  0.33771324  -0.00565438  1
  Te2-  Te117  1  0.16019911  0.34746373  0.33321888  1
  Te2-  Te118  1  0.15937702  0.34726525  0.67767368  1
  Te2-  Te119  1  0.18124568  0.66292838  0.00579878  1
  Te2-  Te120  1  0.16318166  0.64946843  0.32690416  1
  Te2-  Te121  1  0.16650599  0.65784984  0.67039142  1
  Te2-  Te122  1  0.49453651  -0.00523724  0.00119350  1
  Te2-  Te123  1  0.50183106  -0.00037914  0.33223030  1
  Te2-  Te124  1  0.49578361  -0.00592670  0.66457006  1
  Te2-  Te125  1  0.50799268  0.32957442  0.00900820  1
  Te2-  Te126  1  0.50082375  0.33061360  0.32523245  1
  Te2-  Te127  1  0.49721552  0.34240376  0.66749573  1
  Te2-  Te128  1  0.49755472  0.67009014  0.01318493  1
  Te2-  Te129  1  0.50344367  0.67319906  0.32700497  1
  Te2-  Te130  1  0.49386838  0.66889349  0.66019332  1
  Te2-  Te131  1  0.84022753  -0.00193671  0.00355069  1
  Te2-  Te132  1  0.83048597  -0.00883225  0.34156555  1
  Te2-  Te133  1  0.83587733  0.00306563  0.66530215  1
  Te2-  Te134  1  0.82289321  0.33513365  0.00547488  1
  Te2-  Te135  1  0.82815186  0.33998556  0.32614451  1
  Te2-  Te136  1  0.83675980  0.34028807  0.67523668  1
  Te2-  Te137  1  0.82798089  0.66577123  0.01017262  1
  Te2-  Te138  1  0.83332908  0.66976943  0.32068570  1
  Te2-  Te139  1  0.83451766  0.65441642  0.67391697  1
  Te2-  Te140  1  0.00548347  0.16681967  0.00112279  1
  Te2-  Te141  1  -0.01150387  0.16388112  0.33807768  1
  Te2-  Te142  1  0.00121388  0.17212453  0.66402189  1
  Te2-  Te143  1  0.00567896  0.50946288  0.00304005  1
  Te2-  Te144  1  -0.01000372  0.51307775  0.33010953  1
  Te2-  Te145  1  0.00501422  0.50031835  0.67419626  1
  Te2-  Te146  1  0.00324075  0.82665006  -0.01299140  1
  Te2-  Te147  1  -0.00149320  0.81979002  0.32957441  1
  Te2-  Te148  1  0.00138248  0.83316081  0.68735334  1
  Te2-  Te149  1  0.32854114  0.16342984  -0.00093026  1
  Te2-  Te150  1  0.33574929  0.15851480  0.33629215  1
  Te2-  Te151  1  0.33566746  0.16300304  0.66316501  1
  Te2-  Te152  1  0.34006858  0.50047342  -0.00026274  1
  Te2-  Te153  1  0.33350972  0.49914944  0.32595597  1
  Te2-  Te154  1  0.32115384  0.50462501  0.66194263  1
  Te2-  Te155  1  0.34659198  0.83245418  -0.00345929  1
  Te2-  Te156  1  0.33490926  0.84399295  0.33625347  1
  Te2-  Te157  1  0.33178275  0.83420634  0.66952145  1
  Te2-  Te158  1  0.66242364  0.16681954  -0.01000722  1
  Te2-  Te159  1  0.67341160  0.15922522  0.33139152  1
  Te2-  Te160  1  0.66669181  0.16578292  0.67954008  1
  Te2-  Te161  1  0.65537374  0.50222141  -0.00687901  1
  Te2-  Te162  1  0.66983249  0.50554499  0.33502108  1
  Te2-  Te163  1  0.67109095  0.50028735  0.66908105  1
  Te2-  Te164  1  0.65007890  0.82871971  0.00590243  1
  Te2-  Te165  1  0.66449142  0.83324970  0.30920401  1
  Te2-  Te166  1  0.66441798  0.83493993  0.67489434  1
  Te2-  Te167  1  0.01646690  -0.00415173  0.16146958  1
  Te2-  Te168  1  0.01045811  0.00688155  0.51159135  1
  Te2-  Te169  1  0.00112287  0.00152802  0.83312422  1
  Te2-  Te170  1  -0.00070628  0.33483303  0.17824156  1
  Te2-  Te171  1  -0.00552822  0.33618332  0.48391105  1
  Te2-  Te172  1  -0.00153019  0.34163405  0.83759710  1
  Te2-  Te173  1  -0.00672575  0.66682760  0.15429463  1
  Te2-  Te174  1  -0.00113383  0.65208976  0.50209822  1
  Te2-  Te175  1  -0.00653293  0.65625625  0.84123666  1
  Te2-  Te176  1  0.31565131  0.00282484  0.16097411  1
  Te2-  Te177  1  0.31405541  0.00421333  0.50627814  1
  Te2-  Te178  1  0.32858055  0.00321681  0.83290759  1
  Te2-  Te179  1  0.33449260  0.32925087  0.16210809  1
  Te2-  Te180  1  0.32605665  0.34007903  0.50000031  1
  Te2-  Te181  1  0.33671435  0.33133828  0.83539424  1
  Te2-  Te182  1  0.33806377  0.66240853  0.17130387  1
  Te2-  Te183  1  0.33509170  0.65166461  0.48663557  1
  Te2-  Te184  1  0.33121261  0.66348833  0.83360637  1
  Te2-  Te185  1  0.66442196  0.00210855  0.16681538  1
  Te2-  Te186  1  0.67009811  -0.00651645  0.49946608  1
  Te2-  Te187  1  0.66126917  -0.00751782  0.83945252  1
  Te2-  Te188  1  0.66297590  0.32676120  0.17372079  1
  Te2-  Te189  1  0.67101469  0.33521609  0.48801060  1
  Te2-  Te190  1  0.66427958  0.34109749  0.83412464  1
  Te2-  Te191  1  0.67086109  0.66059102  0.16653689  1
  Te2-  Te192  1  0.66696248  0.67206932  0.49419109  1
  Te2-  Te193  1  0.66539489  0.65895835  0.83794030  1
  Pb2+  Pb194  1  0.16722019  0.82330327  0.33381438  1
  Pb2+  Pb195  1  0.67134138  0.33307562  0.66109040  1
  Pb2+  Pb196  1  0.50158406  0.50427852  0.33582146  1
  Pb2+  Pb197  1  0.83063725  -0.00785265  0.83606093  1
  Pb2+  Pb198  1  0.00742070  0.16803078  0.83318540  1
  Pb2+  Pb199  1  -0.00323768  -0.00532413  0.33322271  1
  Pb2+  Pb200  1  0.66730518  0.16300904  0.50243145  1
  Pb2+  Pb201  1  0.83452949  0.82751240  0.67528059  1
  Pb2+  Pb202  1  0.49897532  0.33798264  0.49698447  1
  Pb2+  Pb203  1  0.16101267  0.17110053  0.33961119  1
  Pb2+  Pb204  1  0.83155587  0.16533013  0.00145909  1
  Pb2+  Pb205  1  0.17300785  0.83336611  0.00147056  1
  Pb2+  Pb206  1  0.66477108  0.66792378  0.66563310  1
  Pb2+  Pb207  1  0.49559274  0.66517818  0.83773619  1
  Pb2+  Pb208  1  0.16637000  0.66149795  0.50103059  1
  Pb2+  Pb209  1  -0.00199876  0.34084996  0.00593730  1
  Pb2+  Pb210  1  0.32821840  0.82669499  0.50331014  1
  Pb2+  Pb211  1  0.33007001  0.32951147  0.33006449  1
  Pb2+  Pb212  1  -0.00440657  0.16516159  0.16780646  1
  Pb2+  Pb213  1  0.83479525  0.66364481  0.49611906  1
  Pb2+  Pb214  1  0.49218569  -0.00041279  0.49783410  1
  Pb2+  Pb215  1  0.32469684  0.33404990  0.66762963  1
