# generated using pymatgen
data_In22Ag21Sn22Bi21(Te54Pb11)2
_symmetry_space_group_name_H-M   'P 1'
_cell_length_a   19.12845757
_cell_length_b   19.14196209
_cell_length_c   19.12729524
_cell_angle_alpha   90.00222789
_cell_angle_beta   90.00792546
_cell_angle_gamma   89.98682464
_symmetry_Int_Tables_number   1
_chemical_formula_structural   In22Ag21Sn22Bi21(Te54Pb11)2
_chemical_formula_sum   'In22 Ag21 Sn22 Bi21 Te108 Pb22'
_cell_volume   7003.57766963
_cell_formula_units_Z   1
loop_
 _symmetry_equiv_pos_site_id
 _symmetry_equiv_pos_as_xyz
  1  'x, y, z'
loop_
 _atom_type_symbol
 _atom_type_oxidation_number
  In3+  3.0
  Ag+  1.0
  Sn2+  2.0
  Bi3+  3.0
  Te2-  -2.0
  Pb2+  2.0
loop_
 _atom_site_type_symbol
 _atom_site_label
 _atom_site_symmetry_multiplicity
 _atom_site_fract_x
 _atom_site_fract_y
 _atom_site_fract_z
 _atom_site_occupancy
  In3+  In0  1  0.50312057  0.01065069  0.83190686  1
  In3+  In1  1  0.66518593  0.67511760  0.66587352  1
  In3+  In2  1  0.82729695  0.66982354  0.15652565  1
  In3+  In3  1  0.34131485  0.17260954  0.16055885  1
  In3+  In4  1  0.66862024  0.18628435  0.51734057  1
  In3+  In5  1  0.17988929  0.83854746  0.66754233  1
  In3+  In6  1  0.50851968  0.83557269  -0.02596571  1
  In3+  In7  1  0.16293745  0.34080071  0.83248544  1
  In3+  In8  1  0.50693451  0.66806869  0.15289913  1
  In3+  In9  1  0.33380776  0.34051945  0.32823224  1
  In3+  In10  1  0.50183217  0.49645071  0.34727763  1
  In3+  In11  1  0.84050331  0.31770397  0.83181517  1
  In3+  In12  1  -0.01575048  0.66360317  0.31058463  1
  In3+  In13  1  0.67124666  0.49162731  0.83827165  1
  In3+  In14  1  -0.01955854  -0.00051868  0.66567647  1
  In3+  In15  1  0.36507224  0.82881571  0.16518652  1
  In3+  In16  1  0.83728817  0.83216706  -0.00683036  1
  In3+  In17  1  0.50686994  0.35448972  0.83338875  1
  In3+  In18  1  0.50583804  -0.00373606  0.52124791  1
  In3+  In19  1  0.67212431  0.66595266  -0.00941109  1
  In3+  In20  1  0.33902556  0.65485567  0.33592260  1
  In3+  In21  1  -0.00385018  -0.01997850  0.32315921  1
  Ag+  Ag22  1  0.86099785  0.19296566  0.66362461  1
  Ag+  Ag23  1  0.33640651  0.31818162  0.68063016  1
  Ag+  Ag24  1  0.30982953  0.47473926  0.84609039  1
  Ag+  Ag25  1  0.67131925  0.31345055  0.01413570  1
  Ag+  Ag26  1  0.83268057  0.65949505  0.81327103  1
  Ag+  Ag27  1  0.49909043  0.18777324  -0.02121956  1
  Ag+  Ag28  1  0.80585061  0.83371716  0.31152882  1
  Ag+  Ag29  1  0.33768292  -0.02002155  0.66270973  1
  Ag+  Ag30  1  0.48414271  0.81287267  0.66239640  1
  Ag+  Ag31  1  0.64819940  0.48364914  0.53222142  1
  Ag+  Ag32  1  0.13530157  0.51804771  0.02395897  1
  Ag+  Ag33  1  0.63737378  0.01866869  0.00310505  1
  Ag+  Ag34  1  0.83503140  0.84024237  0.68624148  1
  Ag+  Ag35  1  0.02889561  0.63491540  0.01478781  1
  Ag+  Ag36  1  -0.02541928  0.19714581  0.86026155  1
  Ag+  Ag37  1  0.52007390  0.64426831  0.48337226  1
  Ag+  Ag38  1  0.66751265  0.81736520  0.14310663  1
  Ag+  Ag39  1  -0.02820249  0.29940302  0.66478513  1
  Ag+  Ag40  1  0.50196841  0.48469609  0.00462952  1
  Ag+  Ag41  1  0.02922949  0.49317913  0.13377431  1
  Ag+  Ag42  1  0.67770616  0.36190511  0.67992016  1
  Sn2+  Sn43  1  0.32888620  0.17204993  0.83015886  1
  Sn2+  Sn44  1  0.33711299  0.83140925  0.83898521  1
  Sn2+  Sn45  1  0.17408459  0.33430468  0.51559338  1
  Sn2+  Sn46  1  0.33243582  0.00377448  0.33752630  1
  Sn2+  Sn47  1  0.49742798  0.32976535  0.51366432  1
  Sn2+  Sn48  1  0.34019209  0.49872859  0.14674174  1
  Sn2+  Sn49  1  0.65975639  -0.00425111  0.67547560  1
  Sn2+  Sn50  1  -0.00745374  0.67129218  0.67402584  1
  Sn2+  Sn51  1  0.83585827  0.34324273  0.16201335  1
  Sn2+  Sn52  1  0.16646110  0.49762457  0.32607653  1
  Sn2+  Sn53  1  0.33989121  0.16595158  0.50546957  1
  Sn2+  Sn54  1  0.50117626  0.83118785  0.34850554  1
  Sn2+  Sn55  1  0.34764929  0.33645221  -0.01093335  1
  Sn2+  Sn56  1  0.17793406  0.17946371  -0.00787232  1
  Sn2+  Sn57  1  0.16730414  0.16909590  0.66641059  1
  Sn2+  Sn58  1  0.49732465  0.16559031  0.33282840  1
  Sn2+  Sn59  1  0.83151998  0.67318777  0.50585841  1
  Sn2+  Sn60  1  0.83009386  -0.00637750  0.50350288  1
  Sn2+  Sn61  1  0.17347893  0.00397807  0.50743555  1
  Sn2+  Sn62  1  -0.00039540  0.34164038  0.34162097  1
  Sn2+  Sn63  1  0.49672713  0.50232648  0.67435832  1
  Sn2+  Sn64  1  0.17370396  -0.00398098  0.16941776  1
  Bi3+  Bi65  1  0.49648863  0.17178811  0.66734766  1
  Bi3+  Bi66  1  0.17087998  0.00492855  0.83030178  1
  Bi3+  Bi67  1  -0.00490135  0.50292687  0.82560058  1
  Bi3+  Bi68  1  0.16926551  0.66707972  0.50093712  1
  Bi3+  Bi69  1  -0.00255030  0.50055581  0.49934025  1
  Bi3+  Bi70  1  -0.00021271  0.83305150  0.83170948  1
  Bi3+  Bi71  1  0.83104993  -0.00222286  0.16845310  1
  Bi3+  Bi72  1  -0.00327887  0.83345094  0.50504837  1
  Bi3+  Bi73  1  0.33000845  0.00054029  -0.00274245  1
  Bi3+  Bi74  1  0.16837129  0.16633683  0.33055596  1
  Bi3+  Bi75  1  0.17116665  0.50278244  0.66528127  1
  Bi3+  Bi76  1  0.33546599  0.66598367  0.66678318  1
  Bi3+  Bi77  1  0.17013068  0.83398054  0.33347147  1
  Bi3+  Bi78  1  -0.00150556  0.16657248  0.49910482  1
  Bi3+  Bi79  1  0.66476291  0.16359234  0.16510107  1
  Bi3+  Bi80  1  0.66835627  0.83386773  0.83269749  1
  Bi3+  Bi81  1  0.66464531  0.50452569  0.16381488  1
  Bi3+  Bi82  1  0.50479474  0.66953050  0.82852888  1
  Bi3+  Bi83  1  0.83160317  0.50370239  0.33440699  1
  Bi3+  Bi84  1  0.00018359  -0.00219661  -0.00497168  1
  Bi3+  Bi85  1  0.66910358  0.83383966  0.50554336  1
  Te2-  Te86  1  0.17160940  0.16360171  0.16820476  1
  Te2-  Te87  1  0.16450178  0.16807161  0.49445541  1
  Te2-  Te88  1  0.16668534  0.16762391  0.83280711  1
  Te2-  Te89  1  0.17475086  0.49908471  0.16579303  1
  Te2-  Te90  1  0.16449532  0.50194773  0.49802296  1
  Te2-  Te91  1  0.16351662  0.49564772  0.83069334  1
  Te2-  Te92  1  0.15753026  0.83416986  0.17122680  1
  Te2-  Te93  1  0.16293077  0.83353685  0.50036717  1
  Te2-  Te94  1  0.16555335  0.83595940  0.82954561  1
  Te2-  Te95  1  0.49809868  0.16788637  0.17151668  1
  Te2-  Te96  1  0.50905891  0.16491768  0.50055370  1
  Te2-  Te97  1  0.49766519  0.16229748  0.83302615  1
  Te2-  Te98  1  0.50087381  0.51039703  0.15594173  1
  Te2-  Te99  1  0.50442432  0.49876795  0.50017203  1
  Te2-  Te100  1  0.51313687  0.50859321  0.84160834  1
  Te2-  Te101  1  0.51567818  0.82431336  0.17593809  1
  Te2-  Te102  1  0.50425004  0.84178022  0.51474762  1
  Te2-  Te103  1  0.50431822  0.83293000  0.81472437  1
  Te2-  Te104  1  0.83101580  0.16708460  0.16900258  1
  Te2-  Te105  1  0.83258987  0.16389898  0.51070591  1
  Te2-  Te106  1  0.83679221  0.16512315  0.81892664  1
  Te2-  Te107  1  0.82812680  0.50966163  0.17303902  1
  Te2-  Te108  1  0.83480858  0.50385149  0.49531211  1
  Te2-  Te109  1  0.82780898  0.51133378  0.83433303  1
  Te2-  Te110  1  0.82036442  0.82975566  0.16498038  1
  Te2-  Te111  1  0.83675556  0.83335680  0.49407334  1
  Te2-  Te112  1  0.83435069  0.82484767  0.83653030  1
  Te2-  Te113  1  0.16558016  0.00539058  -0.00324179  1
  Te2-  Te114  1  0.16343201  0.00017247  0.33665728  1
  Te2-  Te115  1  0.18423740  -0.00328316  0.66801044  1
  Te2-  Te116  1  0.16926105  0.33534536  -0.01019473  1
  Te2-  Te117  1  0.16982898  0.33202032  0.33568713  1
  Te2-  Te118  1  0.18369465  0.33989819  0.67517484  1
  Te2-  Te119  1  0.17220474  0.66035091  -0.00041032  1
  Te2-  Te120  1  0.17771986  0.66751059  0.33895884  1
  Te2-  Te121  1  0.16856156  0.67138030  0.66422926  1
  Te2-  Te122  1  0.49317308  -0.01326134  -0.00316629  1
  Te2-  Te123  1  0.49271703  -0.00078279  0.33325501  1
  Te2-  Te124  1  0.48971334  0.00754332  0.67448513  1
  Te2-  Te125  1  0.51194391  0.33426279  -0.01211529  1
  Te2-  Te126  1  0.49077182  0.33682763  0.33399217  1
  Te2-  Te127  1  0.48872164  0.33357520  0.67547768  1
  Te2-  Te128  1  0.50526096  0.68101620  -0.00439207  1
  Te2-  Te129  1  0.49209236  0.66237841  0.34063953  1
  Te2-  Te130  1  0.50140851  0.66488087  0.66665743  1
  Te2-  Te131  1  0.83816361  -0.00615691  0.00295502  1
  Te2-  Te132  1  0.83591773  -0.01409961  0.32958160  1
  Te2-  Te133  1  0.82704889  -0.00899835  0.66577942  1
  Te2-  Te134  1  0.82023583  0.32965120  -0.01161555  1
  Te2-  Te135  1  0.83491076  0.33676027  0.33249371  1
  Te2-  Te136  1  0.82368181  0.33627795  0.67597125  1
  Te2-  Te137  1  0.82726650  0.67431917  0.00374546  1
  Te2-  Te138  1  0.83482801  0.67220865  0.33310418  1
  Te2-  Te139  1  0.82532220  0.67300828  0.66528835  1
  Te2-  Te140  1  0.00080850  0.16351317  0.00018597  1
  Te2-  Te141  1  0.00199020  0.17400355  0.33676109  1
  Te2-  Te142  1  0.00510942  0.15390098  0.66033818  1
  Te2-  Te143  1  -0.00842623  0.49493907  -0.01110595  1
  Te2-  Te144  1  -0.00198126  0.50518845  0.33665026  1
  Te2-  Te145  1  0.00588321  0.50411507  0.66317498  1
  Te2-  Te146  1  -0.00207721  0.83370143  -0.00424332  1
  Te2-  Te147  1  0.00673579  0.82135740  0.33940003  1
  Te2-  Te148  1  -0.01050446  0.83895620  0.66757001  1
  Te2-  Te149  1  0.34681356  0.16290458  0.00513377  1
  Te2-  Te150  1  0.33016933  0.16751369  0.33056307  1
  Te2-  Te151  1  0.33329037  0.17098793  0.66564062  1
  Te2-  Te152  1  0.34737105  0.49364669  -0.01072714  1
  Te2-  Te153  1  0.33779298  0.49694787  0.33007379  1
  Te2-  Te154  1  0.33167537  0.50580377  0.67766747  1
  Te2-  Te155  1  0.33501272  0.83442882  0.00838080  1
  Te2-  Te156  1  0.33124882  0.83743806  0.32276149  1
  Te2-  Te157  1  0.33627911  0.83132274  0.66582658  1
  Te2-  Te158  1  0.65414753  0.16646505  0.00252633  1
  Te2-  Te159  1  0.66649081  0.16601202  0.33048404  1
  Te2-  Te160  1  0.65903898  0.15838992  0.66426066  1
  Te2-  Te161  1  0.65487305  0.51001491  0.00008074  1
  Te2-  Te162  1  0.66191718  0.50029980  0.32842940  1
  Te2-  Te163  1  0.66196832  0.50811977  0.67490977  1
  Te2-  Te164  1  0.66285785  0.82700403  -0.00391925  1
  Te2-  Te165  1  0.66223792  0.83260380  0.34269531  1
  Te2-  Te166  1  0.68075927  0.83345543  0.66922870  1
  Te2-  Te167  1  -0.00300301  -0.00040993  0.16246177  1
  Te2-  Te168  1  0.00169620  -0.00035464  0.50545221  1
  Te2-  Te169  1  0.00685852  -0.00336735  0.82933391  1
  Te2-  Te170  1  -0.00552115  0.34663695  0.16466184  1
  Te2-  Te171  1  0.00278190  0.33306773  0.51385025  1
  Te2-  Te172  1  -0.00509732  0.33586217  0.81478278  1
  Te2-  Te173  1  -0.00365310  0.65630570  0.15735249  1
  Te2-  Te174  1  0.00403540  0.66731165  0.50619941  1
  Te2-  Te175  1  -0.01246016  0.66833873  0.83383521  1
  Te2-  Te176  1  0.33194404  -0.00671317  0.16299544  1
  Te2-  Te177  1  0.34218531  0.00393062  0.50833620  1
  Te2-  Te178  1  0.33298636  -0.00248625  0.83573613  1
  Te2-  Te179  1  0.33491669  0.32969272  0.16668062  1
  Te2-  Te180  1  0.33464623  0.33182717  0.49501892  1
  Te2-  Te181  1  0.34030737  0.33158542  0.83084353  1
  Te2-  Te182  1  0.34408988  0.66976593  0.17343255  1
  Te2-  Te183  1  0.33369362  0.66779718  0.50009228  1
  Te2-  Te184  1  0.33855397  0.67241503  0.82979098  1
  Te2-  Te185  1  0.67015125  0.00238779  0.15408057  1
  Te2-  Te186  1  0.66155014  -0.00351841  0.50283730  1
  Te2-  Te187  1  0.66047224  -0.00267977  0.84938200  1
  Te2-  Te188  1  0.66968134  0.33608826  0.16183404  1
  Te2-  Te189  1  0.66317370  0.33937505  0.50564241  1
  Te2-  Te190  1  0.66006981  0.33917654  0.82564491  1
  Te2-  Te191  1  0.66505379  0.66922875  0.16605285  1
  Te2-  Te192  1  0.66266642  0.66912999  0.50962407  1
  Te2-  Te193  1  0.67183019  0.67167475  0.83280821  1
  Pb2+  Pb194  1  0.16973609  0.66765621  0.17043200  1
  Pb2+  Pb195  1  0.66657092  0.16922375  0.83152539  1
  Pb2+  Pb196  1  0.15900621  0.66380568  0.83319476  1
  Pb2+  Pb197  1  -0.00043310  0.17329315  0.16791107  1
  Pb2+  Pb198  1  0.50189568  0.33891593  0.15825184  1
  Pb2+  Pb199  1  0.66482450  0.66592113  0.33847894  1
  Pb2+  Pb200  1  0.82404690  0.16231301  -0.00219799  1
  Pb2+  Pb201  1  0.82155543  0.49971853  0.00149698  1
  Pb2+  Pb202  1  -0.00255559  0.33021162  -0.00873515  1
  Pb2+  Pb203  1  -0.01255937  0.82708792  0.16589846  1
  Pb2+  Pb204  1  0.83317792  -0.00534617  0.83336930  1
  Pb2+  Pb205  1  0.33598738  0.83605837  0.49290061  1
  Pb2+  Pb206  1  0.33707499  0.49814230  0.50721415  1
  Pb2+  Pb207  1  0.33852638  0.66024158  0.00149135  1
  Pb2+  Pb208  1  0.66226113  -0.00107574  0.33123238  1
  Pb2+  Pb209  1  0.83319867  0.15720219  0.33972435  1
  Pb2+  Pb210  1  0.50282727  -0.00288742  0.16513533  1
  Pb2+  Pb211  1  0.16721051  0.83498259  0.00114228  1
  Pb2+  Pb212  1  0.66165719  0.33327157  0.33365189  1
  Pb2+  Pb213  1  0.16476848  0.33092565  0.16405852  1
  Pb2+  Pb214  1  0.83302645  0.50550022  0.66653324  1
  Pb2+  Pb215  1  0.83477790  0.33393790  0.50232754  1
