# generated using pymatgen
data_In22Ag21Sn22Bi21(Te54Pb11)2
_symmetry_space_group_name_H-M   'P 1'
_cell_length_a   19.15396107
_cell_length_b   19.19180711
_cell_length_c   19.15997036
_cell_angle_alpha   90.00170203
_cell_angle_beta   89.98825548
_cell_angle_gamma   89.97974974
_symmetry_Int_Tables_number   1
_chemical_formula_structural   In22Ag21Sn22Bi21(Te54Pb11)2
_chemical_formula_sum   'In22 Ag21 Sn22 Bi21 Te108 Pb22'
_cell_volume   7043.18776875
_cell_formula_units_Z   1
loop_
 _symmetry_equiv_pos_site_id
 _symmetry_equiv_pos_as_xyz
  1  'x, y, z'
loop_
 _atom_type_symbol
 _atom_type_oxidation_number
  In3+  3.0
  Ag+  1.0
  Sn2+  2.0
  Bi3+  3.0
  Te2-  -2.0
  Pb2+  2.0
loop_
 _atom_site_type_symbol
 _atom_site_label
 _atom_site_symmetry_multiplicity
 _atom_site_fract_x
 _atom_site_fract_y
 _atom_site_fract_z
 _atom_site_occupancy
  In3+  In0  1  0.33854622  0.66191783  0.35616670  1
  In3+  In1  1  0.17635026  0.00059031  0.81158844  1
  In3+  In2  1  0.48818590  0.67038284  0.51164547  1
  In3+  In3  1  0.02408501  0.49895294  0.50261572  1
  In3+  In4  1  0.00964877  0.83094413  0.18112996  1
  In3+  In5  1  0.67243676  0.50802333  0.15533709  1
  In3+  In6  1  0.01462590  0.68377943  0.66463231  1
  In3+  In7  1  0.81918699  0.32106489  0.83413032  1
  In3+  In8  1  0.66572343  0.15148283  0.50727494  1
  In3+  In9  1  0.32554076  0.48869681  0.51832324  1
  In3+  In10  1  0.66664799  0.35076598  0.32916742  1
  In3+  In11  1  0.66806970  0.68652209  -0.02201212  1
  In3+  In12  1  0.50617026  0.32056339  0.51365696  1
  In3+  In13  1  0.66960767  0.82834521  0.18638327  1
  In3+  In14  1  0.65463890  0.33623251  0.66836098  1
  In3+  In15  1  0.33450630  0.82902480  0.82524200  1
  In3+  In16  1  0.50175624  0.33085055  0.84363793  1
  In3+  In17  1  0.52222363  -0.00689048  0.17164435  1
  In3+  In18  1  0.66608896  0.14766066  0.81718278  1
  In3+  In19  1  0.16952275  0.66189658  0.19665798  1
  In3+  In20  1  0.18186879  0.83462008  0.34596815  1
  In3+  In21  1  0.33373630  0.18452604  0.83497686  1
  Ag+  Ag22  1  0.80518702  0.80662100  0.67293154  1
  Ag+  Ag23  1  0.17434044  0.81234409  0.64717233  1
  Ag+  Ag24  1  0.48016266  0.81052057  0.31366748  1
  Ag+  Ag25  1  0.84282709  -0.03163644  0.19646669  1
  Ag+  Ag26  1  0.34972624  0.65073591  0.68033918  1
  Ag+  Ag27  1  0.64525946  -0.01995257  0.66598842  1
  Ag+  Ag28  1  0.13464128  0.30224406  0.20076011  1
  Ag+  Ag29  1  0.17176211  0.48243008  0.32789665  1
  Ag+  Ag30  1  0.29963631  0.30193951  0.02646846  1
  Ag+  Ag31  1  0.49442053  0.15373994  0.67129858  1
  Ag+  Ag32  1  0.16874408  0.51648933  0.68804210  1
  Ag+  Ag33  1  0.18563222  0.68045967  0.50577485  1
  Ag+  Ag34  1  0.03212174  0.33592452  0.30845138  1
  Ag+  Ag35  1  0.16967883  -0.02310557  0.51456626  1
  Ag+  Ag36  1  0.85792240  0.63820659  0.85173758  1
  Ag+  Ag37  1  0.80016689  0.13919900  0.66381931  1
  Ag+  Ag38  1  0.83186756  0.15216194  0.02613805  1
  Ag+  Ag39  1  0.35496020  0.30918842  0.66413646  1
  Ag+  Ag40  1  0.86072254  0.53195751  -0.03572682  1
  Ag+  Ag41  1  0.69854978  0.82010367  0.80573237  1
  Ag+  Ag42  1  0.51311899  0.70359593  0.80933352  1
  Sn2+  Sn43  1  0.32979819  0.00269690  -0.00102016  1
  Sn2+  Sn44  1  0.51447538  0.16516664  -0.00733854  1
  Sn2+  Sn45  1  0.17322211  0.67493288  0.82007411  1
  Sn2+  Sn46  1  0.33574801  0.16199081  0.50872641  1
  Sn2+  Sn47  1  0.67132874  0.66203251  0.66492906  1
  Sn2+  Sn48  1  0.48944198  -0.00331109  0.50185550  1
  Sn2+  Sn49  1  0.33909867  -0.00267978  0.66702273  1
  Sn2+  Sn50  1  0.49815183  0.83073943  0.00048716  1
  Sn2+  Sn51  1  0.16321492  0.16128507  0.33468040  1
  Sn2+  Sn52  1  0.34088993  0.34298386  0.33314250  1
  Sn2+  Sn53  1  -0.00253797  0.50321075  0.17440731  1
  Sn2+  Sn54  1  0.16800883  0.49983986  0.00964741  1
  Sn2+  Sn55  1  0.66030614  0.66611669  0.33333626  1
  Sn2+  Sn56  1  0.49859672  0.00331977  0.83470717  1
  Sn2+  Sn57  1  0.32811098  0.50208506  0.83342045  1
  Sn2+  Sn58  1  0.85111881  0.49834249  0.33514161  1
  Sn2+  Sn59  1  0.49220643  0.16259887  0.33839902  1
  Sn2+  Sn60  1  0.16043257  -0.00609458  0.16748696  1
  Sn2+  Sn61  1  0.33734429  0.00081114  0.32831360  1
  Sn2+  Sn62  1  0.33569350  0.84090500  0.51017320  1
  Sn2+  Sn63  1  0.49247053  0.83973316  0.66280040  1
  Sn2+  Sn64  1  0.84527573  0.50089863  0.66442089  1
  Bi3+  Bi65  1  0.65876870  0.50380572  0.49970618  1
  Bi3+  Bi66  1  0.33507811  0.66623428  -0.00860459  1
  Bi3+  Bi67  1  -0.00500953  0.00123898  0.00003726  1
  Bi3+  Bi68  1  0.00087276  0.17240706  0.49968456  1
  Bi3+  Bi69  1  0.16585962  0.83187615  -0.00177725  1
  Bi3+  Bi70  1  0.66395482  0.83275593  0.50579880  1
  Bi3+  Bi71  1  0.83685131  -0.00059856  0.82894438  1
  Bi3+  Bi72  1  0.66793603  0.33244783  -0.00221444  1
  Bi3+  Bi73  1  0.49951648  0.50018578  -0.00122043  1
  Bi3+  Bi74  1  -0.00453352  0.33658379  -0.00395258  1
  Bi3+  Bi75  1  0.00715751  0.00391911  0.66387182  1
  Bi3+  Bi76  1  0.66493914  0.00173643  -0.01030964  1
  Bi3+  Bi77  1  0.82938924  0.33555826  0.16033043  1
  Bi3+  Bi78  1  0.66653651  0.00156368  0.34046771  1
  Bi3+  Bi79  1  0.17251649  0.33833792  0.83124551  1
  Bi3+  Bi80  1  0.32953110  0.50209509  0.16260513  1
  Bi3+  Bi81  1  0.00498986  0.33825793  0.66206601  1
  Bi3+  Bi82  1  0.49722920  0.33100031  0.16437506  1
  Bi3+  Bi83  1  0.00366829  0.83796918  0.83229447  1
  Bi3+  Bi84  1  0.82921126  0.66507275  0.50574769  1
  Bi3+  Bi85  1  0.17233618  0.33608599  0.50264358  1
  Te2-  Te86  1  0.16495377  0.16472647  0.16768387  1
  Te2-  Te87  1  0.16664837  0.17511271  0.49351687  1
  Te2-  Te88  1  0.17428995  0.16754859  0.83358156  1
  Te2-  Te89  1  0.16666951  0.50840982  0.17557418  1
  Te2-  Te90  1  0.17524820  0.49714296  0.48189626  1
  Te2-  Te91  1  0.16712985  0.50266659  0.83713567  1
  Te2-  Te92  1  0.16271968  0.82490590  0.16244323  1
  Te2-  Te93  1  0.16811876  0.83116662  0.49765415  1
  Te2-  Te94  1  0.16787564  0.84107645  0.83731515  1
  Te2-  Te95  1  0.49997899  0.16807274  0.16363870  1
  Te2-  Te96  1  0.50358062  0.16939176  0.51103684  1
  Te2-  Te97  1  0.50524582  0.17159189  0.82434650  1
  Te2-  Te98  1  0.49879595  0.49615863  0.16383661  1
  Te2-  Te99  1  0.49296095  0.51213847  0.50052234  1
  Te2-  Te100  1  0.49607647  0.49056154  0.83656528  1
  Te2-  Te101  1  0.50566480  0.83868568  0.17121280  1
  Te2-  Te102  1  0.50234142  0.82929389  0.49825343  1
  Te2-  Te103  1  0.48749282  0.84449467  0.83334692  1
  Te2-  Te104  1  0.82975570  0.17396092  0.17164965  1
  Te2-  Te105  1  0.83041208  0.17072962  0.51418925  1
  Te2-  Te106  1  0.82237772  0.16736462  0.81461456  1
  Te2-  Te107  1  0.82831025  0.49670801  0.16819946  1
  Te2-  Te108  1  0.82207060  0.50326406  0.49955096  1
  Te2-  Te109  1  0.82901140  0.49738795  0.82548895  1
  Te2-  Te110  1  0.82040598  0.82905144  0.16386121  1
  Te2-  Te111  1  0.82903592  0.82841932  0.51737558  1
  Te2-  Te112  1  0.84242514  0.83704543  0.81947008  1
  Te2-  Te113  1  0.15932829  -0.00353499  0.00733741  1
  Te2-  Te114  1  0.16836596  -0.00985561  0.32399367  1
  Te2-  Te115  1  0.16901116  0.00674808  0.65815326  1
  Te2-  Te116  1  0.16124409  0.33446009  -0.00516656  1
  Te2-  Te117  1  0.18117371  0.33279721  0.33737091  1
  Te2-  Te118  1  0.16705696  0.34266479  0.66592460  1
  Te2-  Te119  1  0.17087162  0.66923277  -0.01018115  1
  Te2-  Te120  1  0.16877202  0.68013892  0.34913947  1
  Te2-  Te121  1  0.16321556  0.66462031  0.65593953  1
  Te2-  Te122  1  0.50504938  0.00214739  0.00551666  1
  Te2-  Te123  1  0.50564754  0.00225177  0.33204677  1
  Te2-  Te124  1  0.49981948  0.00549962  0.66273762  1
  Te2-  Te125  1  0.50129756  0.33323465  -0.00106984  1
  Te2-  Te126  1  0.50602583  0.32872475  0.32804284  1
  Te2-  Te127  1  0.49910391  0.33582075  0.66505988  1
  Te2-  Te128  1  0.50069465  0.66411891  -0.00768148  1
  Te2-  Te129  1  0.49169782  0.66719788  0.33148611  1
  Te2-  Te130  1  0.49464837  0.67189912  0.66653263  1
  Te2-  Te131  1  0.82886842  0.00826688  -0.00676212  1
  Te2-  Te132  1  0.82949549  0.00204585  0.33837408  1
  Te2-  Te133  1  0.84638974  -0.00045530  0.67064375  1
  Te2-  Te134  1  0.83096320  0.33778864  -0.00641258  1
  Te2-  Te135  1  0.82178989  0.33920653  0.33162446  1
  Te2-  Te136  1  0.84288793  0.34084743  0.67791353  1
  Te2-  Te137  1  0.82083923  0.67078482  -0.00828965  1
  Te2-  Te138  1  0.83191119  0.66354679  0.33587158  1
  Te2-  Te139  1  0.82829523  0.66094749  0.66718655  1
  Te2-  Te140  1  -0.01398698  0.16690022  -0.00288290  1
  Te2-  Te141  1  0.00103172  0.18228917  0.33796456  1
  Te2-  Te142  1  0.00299291  0.17136949  0.66159568  1
  Te2-  Te143  1  -0.00158477  0.50175050  0.00269466  1
  Te2-  Te144  1  0.00974135  0.48658238  0.33138578  1
  Te2-  Te145  1  0.01537184  0.50070616  0.65718514  1
  Te2-  Te146  1  -0.00049878  0.83619674  -0.00089062  1
  Te2-  Te147  1  -0.00241108  0.83344976  0.33283879  1
  Te2-  Te148  1  0.02132867  0.83810124  0.66875523  1
  Te2-  Te149  1  0.33986916  0.16724080  -0.01098853  1
  Te2-  Te150  1  0.33417652  0.16816028  0.33965185  1
  Te2-  Te151  1  0.34397761  0.16208840  0.67120565  1
  Te2-  Te152  1  0.33526047  0.50248135  -0.00002967  1
  Te2-  Te153  1  0.32401229  0.51117038  0.32462224  1
  Te2-  Te154  1  0.31850010  0.50883824  0.66572419  1
  Te2-  Te155  1  0.33062601  0.83154290  -0.00377261  1
  Te2-  Te156  1  0.33514908  0.82940906  0.33545118  1
  Te2-  Te157  1  0.32052514  0.83923202  0.67024667  1
  Te2-  Te158  1  0.67720784  0.16688771  -0.00933044  1
  Te2-  Te159  1  0.66037496  0.15994046  0.34657542  1
  Te2-  Te160  1  0.65927448  0.18246040  0.66272320  1
  Te2-  Te161  1  0.66275321  0.49713151  0.00196955  1
  Te2-  Te162  1  0.66390424  0.50266250  0.33393932  1
  Te2-  Te163  1  0.66284029  0.49220918  0.66167870  1
  Te2-  Te164  1  0.65833436  0.83841971  -0.00598980  1
  Te2-  Te165  1  0.66285936  0.83883214  0.34073665  1
  Te2-  Te166  1  0.65742931  0.83292712  0.66577848  1
  Te2-  Te167  1  -0.01328161  -0.00904171  0.16256769  1
  Te2-  Te168  1  0.01379353  0.00697021  0.49835385  1
  Te2-  Te169  1  0.00943162  0.00245094  0.83511711  1
  Te2-  Te170  1  -0.00425570  0.33700056  0.16083198  1
  Te2-  Te171  1  0.00249563  0.33802456  0.49934689  1
  Te2-  Te172  1  0.00698843  0.33525878  0.83301721  1
  Te2-  Te173  1  0.00482839  0.67180471  0.16800438  1
  Te2-  Te174  1  -0.00888205  0.65930236  0.50797533  1
  Te2-  Te175  1  -0.00014414  0.67294622  0.82375115  1
  Te2-  Te176  1  0.32975061  0.00179437  0.16543920  1
  Te2-  Te177  1  0.32405794  0.00139543  0.49249172  1
  Te2-  Te178  1  0.32941365  -0.00215124  0.83931788  1
  Te2-  Te179  1  0.33507548  0.33845885  0.16407433  1
  Te2-  Te180  1  0.34035101  0.33640910  0.50896250  1
  Te2-  Te181  1  0.33408365  0.33322609  0.81739527  1
  Te2-  Te182  1  0.32638280  0.66719086  0.15685982  1
  Te2-  Te183  1  0.33341776  0.66900868  0.50637650  1
  Te2-  Te184  1  0.33573150  0.67229866  0.82763315  1
  Te2-  Te185  1  0.67332817  -0.00302120  0.16375980  1
  Te2-  Te186  1  0.66403380  -0.00176944  0.51362810  1
  Te2-  Te187  1  0.66850881  -0.00421323  0.82217770  1
  Te2-  Te188  1  0.66346391  0.33528836  0.16346610  1
  Te2-  Te189  1  0.65877947  0.34173263  0.49622327  1
  Te2-  Te190  1  0.66434693  0.33707952  0.83333294  1
  Te2-  Te191  1  0.66282372  0.66806536  0.17241938  1
  Te2-  Te192  1  0.66234129  0.66767378  0.49866228  1
  Te2-  Te193  1  0.65722420  0.67916146  0.82782778  1
  Pb2+  Pb194  1  0.49238942  0.49719163  0.33448300  1
  Pb2+  Pb195  1  0.82793572  0.84151073  -0.01091210  1
  Pb2+  Pb196  1  -0.00592488  0.16931432  0.82831321  1
  Pb2+  Pb197  1  0.48876170  0.50321486  0.66957573  1
  Pb2+  Pb198  1  0.83065503  0.82956158  0.34164455  1
  Pb2+  Pb199  1  0.00281845  0.00782956  0.33232892  1
  Pb2+  Pb200  1  0.17380491  0.17680291  0.66344584  1
  Pb2+  Pb201  1  0.83384948  0.66423193  0.16268913  1
  Pb2+  Pb202  1  0.66554097  0.16513113  0.16594137  1
  Pb2+  Pb203  1  -0.00103463  0.50258033  0.82528161  1
  Pb2+  Pb204  1  0.16292001  0.16564978  -0.00034847  1
  Pb2+  Pb205  1  0.00137525  0.65670795  0.33959114  1
  Pb2+  Pb206  1  0.66238577  0.51133809  0.83378430  1
  Pb2+  Pb207  1  0.83837353  0.00201253  0.50753198  1
  Pb2+  Pb208  1  0.33255795  0.83671469  0.16658840  1
  Pb2+  Pb209  1  0.49501509  0.66666722  0.15856543  1
  Pb2+  Pb210  1  -0.00440682  0.16402286  0.16562944  1
  Pb2+  Pb211  1  0.33341883  0.16893242  0.17042530  1
  Pb2+  Pb212  1  0.82915201  0.17455533  0.34290291  1
  Pb2+  Pb213  1  -0.00063090  0.83201597  0.50360702  1
  Pb2+  Pb214  1  0.83101121  0.33697245  0.50947112  1
  Pb2+  Pb215  1  0.00301145  0.66823732  -0.00294183  1
