# generated using pymatgen
data_In22Ag21Sn22Bi21(Te54Pb11)2
_symmetry_space_group_name_H-M   'P 1'
_cell_length_a   19.23700273
_cell_length_b   19.18389481
_cell_length_c   19.20258310
_cell_angle_alpha   89.99843895
_cell_angle_beta   90.00666045
_cell_angle_gamma   89.99858887
_symmetry_Int_Tables_number   1
_chemical_formula_structural   In22Ag21Sn22Bi21(Te54Pb11)2
_chemical_formula_sum   'In22 Ag21 Sn22 Bi21 Te108 Pb22'
_cell_volume   7086.53344493
_cell_formula_units_Z   1
loop_
 _symmetry_equiv_pos_site_id
 _symmetry_equiv_pos_as_xyz
  1  'x, y, z'
loop_
 _atom_type_symbol
 _atom_type_oxidation_number
  In3+  3.0
  Ag+  1.0
  Sn2+  2.0
  Bi3+  3.0
  Te2-  -2.0
  Pb2+  2.0
loop_
 _atom_site_type_symbol
 _atom_site_label
 _atom_site_symmetry_multiplicity
 _atom_site_fract_x
 _atom_site_fract_y
 _atom_site_fract_z
 _atom_site_occupancy
  In3+  In0  1  0.13459165  0.33420573  0.83056879  1
  In3+  In1  1  0.50291640  0.65673502  0.82325347  1
  In3+  In2  1  -0.00114149  0.66556889  -0.00610959  1
  In3+  In3  1  0.51795976  0.83910863  0.35047119  1
  In3+  In4  1  0.16540717  0.84669717  -0.00264636  1
  In3+  In5  1  0.00337405  0.66432647  0.66306852  1
  In3+  In6  1  0.67099566  -0.00371628  -0.02130926  1
  In3+  In7  1  0.67202492  0.14993567  0.83882318  1
  In3+  In8  1  -0.01807638  0.34426847  0.33186764  1
  In3+  In9  1  0.82209237  0.33877192  0.16636617  1
  In3+  In10  1  0.32891281  0.46755453  0.50139998  1
  In3+  In11  1  -0.01247783  0.83226326  0.17409317  1
  In3+  In12  1  -0.01886028  0.66001407  0.33435157  1
  In3+  In13  1  0.17725196  0.00362237  0.52896644  1
  In3+  In14  1  0.51324779  0.82863792  -0.00466749  1
  In3+  In15  1  0.66371526  0.49142130  0.84755230  1
  In3+  In16  1  0.15411810  0.67062602  0.15572124  1
  In3+  In17  1  0.68640160  0.67204466  0.66283479  1
  In3+  In18  1  0.16194027  0.15865209  0.00298978  1
  In3+  In19  1  -0.00469773  0.83540784  0.84171161  1
  In3+  In20  1  0.00389592  0.01724318  0.33335730  1
  In3+  In21  1  0.31474754  0.33245528  -0.00181871  1
  Ag+  Ag22  1  -0.00180036  0.19587967  0.13710691  1
  Ag+  Ag23  1  0.84174947  0.65290696  0.51794830  1
  Ag+  Ag24  1  0.68484992  0.30646985  0.36036999  1
  Ag+  Ag25  1  0.81200198  0.81805865  -0.00170515  1
  Ag+  Ag26  1  0.35589859  0.15175252  0.16148042  1
  Ag+  Ag27  1  0.80661720  0.52401413  0.33578963  1
  Ag+  Ag28  1  0.35659872  0.67799019  0.69147886  1
  Ag+  Ag29  1  0.63760240  0.02776076  0.64840502  1
  Ag+  Ag30  1  0.19493896  0.50365223  -0.02399150  1
  Ag+  Ag31  1  0.51793347  0.47231383  0.30085592  1
  Ag+  Ag32  1  0.79735064  0.46417084  0.69184351  1
  Ag+  Ag33  1  0.63500775  0.81507173  0.81606391  1
  Ag+  Ag34  1  0.64811245  0.18668565  0.19244017  1
  Ag+  Ag35  1  0.53071078  0.14317154  0.64831661  1
  Ag+  Ag36  1  -0.00758274  0.36314724  0.69080276  1
  Ag+  Ag37  1  0.18649766  -0.02632122  0.83718144  1
  Ag+  Ag38  1  0.64070326  0.13662546  0.54132180  1
  Ag+  Ag39  1  0.82730434  0.36298691  0.80152826  1
  Ag+  Ag40  1  0.35078186  0.15989081  0.53116678  1
  Ag+  Ag41  1  0.83595262  0.47194409  -0.02481333  1
  Ag+  Ag42  1  0.52597443  0.00230530  0.84776846  1
  Sn2+  Sn43  1  0.49860460  0.33349347  0.49573134  1
  Sn2+  Sn44  1  0.84003999  0.16435384  0.66333827  1
  Sn2+  Sn45  1  0.51104497  0.49870513  0.00131379  1
  Sn2+  Sn46  1  0.16588325  0.83340146  0.33287940  1
  Sn2+  Sn47  1  0.83391410  0.82666035  0.32407152  1
  Sn2+  Sn48  1  -0.00746486  0.82939502  0.49904581  1
  Sn2+  Sn49  1  0.50632753  0.00441145  0.15875221  1
  Sn2+  Sn50  1  0.33183665  0.83706286  0.49367043  1
  Sn2+  Sn51  1  0.33503312  -0.00132641  0.67692458  1
  Sn2+  Sn52  1  0.83160473  0.16424741  0.00788365  1
  Sn2+  Sn53  1  0.49570184  0.65943507  0.49779540  1
  Sn2+  Sn54  1  0.33720094  0.84030022  0.83340968  1
  Sn2+  Sn55  1  0.66723548  0.84315847  0.16692966  1
  Sn2+  Sn56  1  0.34235710  0.00343671  -0.00110531  1
  Sn2+  Sn57  1  0.33669097  0.16823376  0.83792074  1
  Sn2+  Sn58  1  0.33407062  0.49546352  0.82888478  1
  Sn2+  Sn59  1  0.66074769  0.66017631  0.33857176  1
  Sn2+  Sn60  1  0.67407355  0.83364838  0.51190086  1
  Sn2+  Sn61  1  -0.00562015  0.16372757  0.83067232  1
  Sn2+  Sn62  1  0.33355936  0.83493688  0.16365148  1
  Sn2+  Sn63  1  0.83177478  0.65861228  0.15987232  1
  Sn2+  Sn64  1  0.17381496  0.83299120  0.67133467  1
  Bi3+  Bi65  1  0.50324195  0.67507769  0.16395050  1
  Bi3+  Bi66  1  -0.00386971  0.16309713  0.49965192  1
  Bi3+  Bi67  1  0.83844730  0.00168432  0.83236662  1
  Bi3+  Bi68  1  0.49383003  0.00034151  0.50029683  1
  Bi3+  Bi69  1  0.83101787  0.34159826  0.49527852  1
  Bi3+  Bi70  1  0.66592660  0.50680807  0.50138453  1
  Bi3+  Bi71  1  0.49917722  0.16507693  -0.00778893  1
  Bi3+  Bi72  1  0.49520489  0.49940029  0.66263276  1
  Bi3+  Bi73  1  0.83349677  0.16034056  0.33041579  1
  Bi3+  Bi74  1  0.83428184  -0.00109535  0.16527762  1
  Bi3+  Bi75  1  -0.00343258  -0.00070856  0.66471785  1
  Bi3+  Bi76  1  0.16795853  0.16887367  0.67665345  1
  Bi3+  Bi77  1  0.33386386  0.33020362  0.33114852  1
  Bi3+  Bi78  1  0.16702634  0.33638781  0.16425732  1
  Bi3+  Bi79  1  0.84039746  0.83387565  0.67057169  1
  Bi3+  Bi80  1  0.67064574  0.32810749  -0.00044781  1
  Bi3+  Bi81  1  0.17643404  0.50236873  0.33656718  1
  Bi3+  Bi82  1  0.33415573  0.66951765  0.33396327  1
  Bi3+  Bi83  1  0.16579563  0.50213566  0.66734423  1
  Bi3+  Bi84  1  -0.00592092  0.50604893  0.83708020  1
  Bi3+  Bi85  1  -0.00186034  0.50088413  0.16771897  1
  Te2-  Te86  1  0.14987900  0.17302634  0.15472259  1
  Te2-  Te87  1  0.16090140  0.15670693  0.50543995  1
  Te2-  Te88  1  0.16554904  0.18345768  0.84015171  1
  Te2-  Te89  1  0.16187970  0.50140740  0.17260577  1
  Te2-  Te90  1  0.16752578  0.50073934  0.50271830  1
  Te2-  Te91  1  0.16069919  0.49236409  0.83001949  1
  Te2-  Te92  1  0.16686439  0.82392065  0.15920307  1
  Te2-  Te93  1  0.16616043  0.84483866  0.50038117  1
  Te2-  Te94  1  0.16540746  0.82747109  0.84004994  1
  Te2-  Te95  1  0.50570802  0.16269281  0.15780931  1
  Te2-  Te96  1  0.49999139  0.16469383  0.50523545  1
  Te2-  Te97  1  0.50405719  0.15421944  0.83327272  1
  Te2-  Te98  1  0.50203229  0.50798263  0.16020824  1
  Te2-  Te99  1  0.49578263  0.50064114  0.50256473  1
  Te2-  Te100  1  0.50669979  0.50050415  0.83074281  1
  Te2-  Te101  1  0.49856563  0.83763619  0.15095483  1
  Te2-  Te102  1  0.50031929  0.83481104  0.50359029  1
  Te2-  Te103  1  0.49550087  0.84919969  0.84392518  1
  Te2-  Te104  1  0.85101835  0.15961324  0.16930116  1
  Te2-  Te105  1  0.83405395  0.16907564  0.49473243  1
  Te2-  Te106  1  0.83186072  0.16207927  0.83729940  1
  Te2-  Te107  1  0.83799848  0.49362080  0.18823468  1
  Te2-  Te108  1  0.82798905  0.50652693  0.48747138  1
  Te2-  Te109  1  0.83243458  0.51097084  0.83036112  1
  Te2-  Te110  1  0.83637771  0.83470145  0.15284188  1
  Te2-  Te111  1  0.83421311  0.82803429  0.50293362  1
  Te2-  Te112  1  0.84050778  0.83951896  0.84398207  1
  Te2-  Te113  1  0.16703400  0.00443624  -0.01402889  1
  Te2-  Te114  1  0.15797112  -0.00217077  0.32514158  1
  Te2-  Te115  1  0.16148675  0.00277552  0.68450805  1
  Te2-  Te116  1  0.16489202  0.35529775  0.00028259  1
  Te2-  Te117  1  0.17320126  0.33740047  0.33167711  1
  Te2-  Te118  1  0.15597285  0.33704364  0.67105763  1
  Te2-  Te119  1  0.16285686  0.64743932  0.00477166  1
  Te2-  Te120  1  0.17370276  0.66553749  0.32808377  1
  Te2-  Te121  1  0.15787518  0.66646376  0.66252946  1
  Te2-  Te122  1  0.50608866  0.00213049  -0.00531191  1
  Te2-  Te123  1  0.49751140  -0.00734822  0.33392841  1
  Te2-  Te124  1  0.49417246  -0.00097925  0.66044558  1
  Te2-  Te125  1  0.50983070  0.33380328  -0.00374343  1
  Te2-  Te126  1  0.49454690  0.33267199  0.33277453  1
  Te2-  Te127  1  0.49459877  0.33860134  0.66511628  1
  Te2-  Te128  1  0.50128577  0.67187655  -0.00137105  1
  Te2-  Te129  1  0.49608311  0.68409801  0.32943880  1
  Te2-  Te130  1  0.49979508  0.66374629  0.66791067  1
  Te2-  Te131  1  0.82913403  0.00159304  -0.00039687  1
  Te2-  Te132  1  0.84358813  -0.00753621  0.33044455  1
  Te2-  Te133  1  0.83429060  -0.00298284  0.66764258  1
  Te2-  Te134  1  0.83191852  0.32883764  0.01133948  1
  Te2-  Te135  1  0.82737089  0.32483243  0.32934202  1
  Te2-  Te136  1  0.84727830  0.33116493  0.65514488  1
  Te2-  Te137  1  0.84301774  0.67521168  0.00479719  1
  Te2-  Te138  1  0.82880203  0.66942723  0.32604568  1
  Te2-  Te139  1  0.84181437  0.67256435  0.66357739  1
  Te2-  Te140  1  0.00556826  0.16655664  -0.00609680  1
  Te2-  Te141  1  -0.00041925  0.16922667  0.33643252  1
  Te2-  Te142  1  0.00642969  0.16198963  0.66452601  1
  Te2-  Te143  1  -0.01772601  0.50967604  0.00156930  1
  Te2-  Te144  1  0.01105969  0.50598373  0.33374534  1
  Te2-  Te145  1  0.00080767  0.50891309  0.67198774  1
  Te2-  Te146  1  0.01358013  0.82503395  0.00154940  1
  Te2-  Te147  1  0.00037917  0.81917339  0.32735179  1
  Te2-  Te148  1  0.00174396  0.83558928  0.66745668  1
  Te2-  Te149  1  0.33484421  0.17512279  0.00666347  1
  Te2-  Te150  1  0.33281544  0.16963226  0.30983034  1
  Te2-  Te151  1  0.32606839  0.16872887  0.67609069  1
  Te2-  Te152  1  0.34186883  0.49440824  -0.00348033  1
  Te2-  Te153  1  0.33693724  0.49909906  0.34094008  1
  Te2-  Te154  1  0.33049166  0.51114053  0.66357993  1
  Te2-  Te155  1  0.31882810  0.83576142  0.00113733  1
  Te2-  Te156  1  0.32749705  0.83499162  0.32801894  1
  Te2-  Te157  1  0.32962427  0.82390482  0.66679322  1
  Te2-  Te158  1  0.66385667  0.16372048  -0.00466042  1
  Te2-  Te159  1  0.66985403  0.16427062  0.33460014  1
  Te2-  Te160  1  0.67288416  0.17310839  0.68017362  1
  Te2-  Te161  1  0.68498644  0.49766102  -0.00076454  1
  Te2-  Te162  1  0.65692812  0.50365436  0.33795727  1
  Te2-  Te163  1  0.66291998  0.51473612  0.66626070  1
  Te2-  Te164  1  0.66662348  0.84130119  -0.00340136  1
  Te2-  Te165  1  0.66914626  0.83170045  0.33416072  1
  Te2-  Te166  1  0.67535903  0.82679795  0.67575942  1
  Te2-  Te167  1  -0.00060524  -0.01368642  0.16967645  1
  Te2-  Te168  1  0.00446251  -0.00197346  0.49951935  1
  Te2-  Te169  1  -0.00004097  -0.00477649  0.82995597  1
  Te2-  Te170  1  0.00252529  0.34012785  0.17244001  1
  Te2-  Te171  1  -0.00391781  0.32847521  0.49070782  1
  Te2-  Te172  1  -0.02049729  0.33902599  0.83415812  1
  Te2-  Te173  1  0.00095562  0.66464872  0.17273854  1
  Te2-  Te174  1  -0.00980978  0.66873870  0.49341197  1
  Te2-  Te175  1  0.00313550  0.67035260  0.83539892  1
  Te2-  Te176  1  0.33367062  0.00451564  0.15832799  1
  Te2-  Te177  1  0.33043970  0.00992501  0.50200969  1
  Te2-  Te178  1  0.32918259  0.00021718  0.83371430  1
  Te2-  Te179  1  0.32857382  0.33406162  0.16037054  1
  Te2-  Te180  1  0.33183617  0.31001569  0.49681778  1
  Te2-  Te181  1  0.33843191  0.33816818  0.84192336  1
  Te2-  Te182  1  0.34165135  0.66698930  0.16987820  1
  Te2-  Te183  1  0.33491148  0.67877817  0.49335224  1
  Te2-  Te184  1  0.34500015  0.66552675  0.83589165  1
  Te2-  Te185  1  0.67279628  -0.00045405  0.16285543  1
  Te2-  Te186  1  0.66257520  -0.00666198  0.50347466  1
  Te2-  Te187  1  0.67172282  -0.00112721  0.82555615  1
  Te2-  Te188  1  0.66991679  0.32852446  0.16370346  1
  Te2-  Te189  1  0.66714668  0.34226297  0.50022612  1
  Te2-  Te190  1  0.68140868  0.34170400  0.83568275  1
  Te2-  Te191  1  0.66401668  0.67307144  0.16818127  1
  Te2-  Te192  1  0.66900607  0.66836887  0.50678264  1
  Te2-  Te193  1  0.65593928  0.67081752  0.83388274  1
  Pb2+  Pb194  1  -0.00085573  0.34089616  0.00036608  1
  Pb2+  Pb195  1  0.17244970  0.66228611  0.83369747  1
  Pb2+  Pb196  1  0.16771984  -0.00002594  0.15859947  1
  Pb2+  Pb197  1  0.66859587  0.00158527  0.32986361  1
  Pb2+  Pb198  1  0.32723772  0.33883682  0.67221991  1
  Pb2+  Pb199  1  0.50853329  0.32042871  0.82931398  1
  Pb2+  Pb200  1  0.32894574  0.49840299  0.16844850  1
  Pb2+  Pb201  1  0.16706917  0.67490172  0.49437885  1
  Pb2+  Pb202  1  0.49916270  0.33187091  0.16303121  1
  Pb2+  Pb203  1  0.66926564  0.66772448  0.00139901  1
  Pb2+  Pb204  1  0.16898994  0.16734533  0.32808823  1
  Pb2+  Pb205  1  0.33038354  0.66850560  0.00189604  1
  Pb2+  Pb206  1  0.50180406  0.83249799  0.67428673  1
  Pb2+  Pb207  1  -0.00750290  0.49899482  0.50312638  1
  Pb2+  Pb208  1  0.33008379  0.00327849  0.33099758  1
  Pb2+  Pb209  1  0.82905311  0.67556066  0.83567273  1
  Pb2+  Pb210  1  0.16205003  0.32673851  0.50157275  1
  Pb2+  Pb211  1  0.67246795  0.49978373  0.17092739  1
  Pb2+  Pb212  1  0.50050070  0.16645426  0.33691200  1
  Pb2+  Pb213  1  0.83599508  -0.00042642  0.49945323  1
  Pb2+  Pb214  1  -0.00302564  -0.00351874  0.00146325  1
  Pb2+  Pb215  1  0.66779566  0.34309847  0.66487041  1
