# generated using pymatgen
data_In22Ag21Sn22Bi21(Te54Pb11)2
_symmetry_space_group_name_H-M   'P 1'
_cell_length_a   19.14831614
_cell_length_b   19.14691306
_cell_length_c   19.14697449
_cell_angle_alpha   89.99271618
_cell_angle_beta   90.01668388
_cell_angle_gamma   90.02197193
_symmetry_Int_Tables_number   1
_chemical_formula_structural   In22Ag21Sn22Bi21(Te54Pb11)2
_chemical_formula_sum   'In22 Ag21 Sn22 Bi21 Te108 Pb22'
_cell_volume   7019.87630164
_cell_formula_units_Z   1
loop_
 _symmetry_equiv_pos_site_id
 _symmetry_equiv_pos_as_xyz
  1  'x, y, z'
loop_
 _atom_type_symbol
 _atom_type_oxidation_number
  In3+  3.0
  Ag+  1.0
  Sn2+  2.0
  Bi3+  3.0
  Te2-  -2.0
  Pb2+  2.0
loop_
 _atom_site_type_symbol
 _atom_site_label
 _atom_site_symmetry_multiplicity
 _atom_site_fract_x
 _atom_site_fract_y
 _atom_site_fract_z
 _atom_site_occupancy
  In3+  In0  1  0.01378619  -0.00413037  0.66803854  1
  In3+  In1  1  0.50201160  0.50269593  0.65085594  1
  In3+  In2  1  0.33404501  0.66793701  0.32510767  1
  In3+  In3  1  0.50033916  0.84928053  0.00938173  1
  In3+  In4  1  0.50815220  0.66369710  0.15539779  1
  In3+  In5  1  0.68034817  0.51364818  0.50143256  1
  In3+  In6  1  0.85353281  0.32422570  0.15831120  1
  In3+  In7  1  0.67811068  0.84310874  0.83509730  1
  In3+  In8  1  0.50499870  0.50272653  0.33105763  1
  In3+  In9  1  0.85074760  0.52878652  0.00251798  1
  In3+  In10  1  0.32918979  0.32366649  0.00722377  1
  In3+  In11  1  0.49903083  0.49692540  0.01239437  1
  In3+  In12  1  0.49666977  0.32815888  0.50571072  1
  In3+  In13  1  -0.00063485  0.49597935  0.47739045  1
  In3+  In14  1  0.01853752  0.16231079  0.48257961  1
  In3+  In15  1  0.15080555  0.66475085  0.17314758  1
  In3+  In16  1  0.00665716  0.67445062  -0.00235219  1
  In3+  In17  1  0.49635700  0.66586044  0.49917980  1
  In3+  In18  1  0.64880420  0.49847889  0.85092773  1
  In3+  In19  1  0.15112381  0.83999791  -0.00004039  1
  In3+  In20  1  -0.01634097  0.83817713  0.49306726  1
  In3+  In21  1  0.16710542  -0.00560978  0.84083511  1
  Ag+  Ag22  1  -0.01923386  0.85658661  0.83653236  1
  Ag+  Ag23  1  0.14332455  0.31114985  0.14700037  1
  Ag+  Ag24  1  0.14516134  0.01639857  0.16577509  1
  Ag+  Ag25  1  0.33128536  0.85043929  0.48133821  1
  Ag+  Ag26  1  -0.01452547  0.50549767  0.17584235  1
  Ag+  Ag27  1  0.30690856  0.19320796  0.83415046  1
  Ag+  Ag28  1  0.86985546  0.80338273  0.30741727  1
  Ag+  Ag29  1  0.00375088  0.01962388  0.31565137  1
  Ag+  Ag30  1  0.64393325  0.14074350  0.85388485  1
  Ag+  Ag31  1  0.85850250  -0.02849876  0.13156824  1
  Ag+  Ag32  1  0.32379588  0.01697952  0.69481052  1
  Ag+  Ag33  1  -0.02820590  0.68252181  0.35578639  1
  Ag+  Ag34  1  0.68250031  0.65471985  0.67137043  1
  Ag+  Ag35  1  0.86177742  0.64855648  0.48773887  1
  Ag+  Ag36  1  -0.00412419  0.02009576  0.02803184  1
  Ag+  Ag37  1  0.17730505  0.30031400  0.85346994  1
  Ag+  Ag38  1  -0.01850000  0.13608473  0.16104450  1
  Ag+  Ag39  1  0.85770932  0.83173513  0.02582687  1
  Ag+  Ag40  1  0.32479220  0.14703803  0.47248113  1
  Ag+  Ag41  1  0.68534669  0.49919763  0.15106018  1
  Ag+  Ag42  1  0.50364063  0.02843983  0.14173514  1
  Sn2+  Sn43  1  -0.00496609  0.16566308  0.84062060  1
  Sn2+  Sn44  1  0.33504501  0.67601865  0.66113414  1
  Sn2+  Sn45  1  0.33142432  0.83382008  0.16814206  1
  Sn2+  Sn46  1  0.16464334  0.83649943  0.33381912  1
  Sn2+  Sn47  1  0.84552664  0.33456298  0.84023696  1
  Sn2+  Sn48  1  0.16811316  0.50094215  0.00056967  1
  Sn2+  Sn49  1  0.83721089  0.15713932  0.00174401  1
  Sn2+  Sn50  1  0.33621913  0.49437582  0.83471099  1
  Sn2+  Sn51  1  0.32700163  0.15973746  0.15599990  1
  Sn2+  Sn52  1  0.49066053  -0.00090380  0.83212301  1
  Sn2+  Sn53  1  0.50257822  0.33683852  0.16654257  1
  Sn2+  Sn54  1  0.49785810  0.32971024  0.83609598  1
  Sn2+  Sn55  1  0.16758745  0.67487710  0.49497704  1
  Sn2+  Sn56  1  0.17092245  -0.00563455  0.49085912  1
  Sn2+  Sn57  1  0.49795695  0.83705859  0.33425634  1
  Sn2+  Sn58  1  0.50519180  0.66789285  0.83155800  1
  Sn2+  Sn59  1  0.82863815  0.51050728  0.67634999  1
  Sn2+  Sn60  1  0.32930698  0.49635021  0.16648343  1
  Sn2+  Sn61  1  0.50239309  0.17239961  -0.00090977  1
  Sn2+  Sn62  1  0.66511565  0.32893577  0.00195115  1
  Sn2+  Sn63  1  0.66888022  0.66285975  -0.00467492  1
  Sn2+  Sn64  1  0.65952403  -0.00622034  0.66590258  1
  Bi3+  Bi65  1  0.83791742  0.00301186  0.49716000  1
  Bi3+  Bi66  1  0.83509325  0.16392609  0.33377382  1
  Bi3+  Bi67  1  0.33558182  0.82715070  0.83292507  1
  Bi3+  Bi68  1  0.16590162  0.16148214  0.00157474  1
  Bi3+  Bi69  1  0.33055912  0.49944007  0.50324114  1
  Bi3+  Bi70  1  0.83584744  0.16977828  0.66965787  1
  Bi3+  Bi71  1  0.66370819  0.33434660  0.33102375  1
  Bi3+  Bi72  1  0.66237340  0.16937717  0.50557344  1
  Bi3+  Bi73  1  0.83781808  0.00583969  0.82877874  1
  Bi3+  Bi74  1  0.16669301  0.66768630  0.83370784  1
  Bi3+  Bi75  1  0.16719760  0.33456168  0.49977227  1
  Bi3+  Bi76  1  0.49776370  0.82964343  0.66925846  1
  Bi3+  Bi77  1  0.67443110  -0.00041944  0.32987417  1
  Bi3+  Bi78  1  0.00125707  0.49858493  0.83375369  1
  Bi3+  Bi79  1  0.00029507  0.33096150  0.66978150  1
  Bi3+  Bi80  1  0.16741206  0.16298394  0.66627904  1
  Bi3+  Bi81  1  0.49834565  -0.00281969  0.50290504  1
  Bi3+  Bi82  1  0.83407150  0.83566470  0.66545699  1
  Bi3+  Bi83  1  0.16861311  0.83394843  0.66896088  1
  Bi3+  Bi84  1  0.16995008  0.50383159  0.33211226  1
  Bi3+  Bi85  1  0.32934787  -0.00382079  0.32893835  1
  Te2-  Te86  1  0.17037803  0.16704794  0.16230184  1
  Te2-  Te87  1  0.17966773  0.16936922  0.50438554  1
  Te2-  Te88  1  0.16241636  0.15371377  0.83494107  1
  Te2-  Te89  1  0.17206386  0.51187510  0.16870837  1
  Te2-  Te90  1  0.16403333  0.49924130  0.49910607  1
  Te2-  Te91  1  0.16523157  0.50618983  0.83732946  1
  Te2-  Te92  1  0.17228825  0.81845727  0.15846790  1
  Te2-  Te93  1  0.18045420  0.83519973  0.50731138  1
  Te2-  Te94  1  0.16998106  0.83234364  0.83576700  1
  Te2-  Te95  1  0.49894213  0.17538818  0.15931749  1
  Te2-  Te96  1  0.49806823  0.16521151  0.50418851  1
  Te2-  Te97  1  0.50318288  0.17037906  0.83783744  1
  Te2-  Te98  1  0.49532189  0.50446881  0.17145841  1
  Te2-  Te99  1  0.49437280  0.50076254  0.49810573  1
  Te2-  Te100  1  0.49964378  0.49857430  0.83169970  1
  Te2-  Te101  1  0.49899558  0.81961589  0.16344172  1
  Te2-  Te102  1  0.48537911  0.83143748  0.50548333  1
  Te2-  Te103  1  0.50018485  0.83182768  0.83127973  1
  Te2-  Te104  1  0.83871113  0.17057190  0.16849270  1
  Te2-  Te105  1  0.82889692  0.16754833  0.50417675  1
  Te2-  Te106  1  0.83185858  0.16835567  0.83153601  1
  Te2-  Te107  1  0.83460368  0.49626685  0.15284605  1
  Te2-  Te108  1  0.83584245  0.50362421  0.50254446  1
  Te2-  Te109  1  0.83886499  0.49729077  0.84542703  1
  Te2-  Te110  1  0.82866982  0.83386554  0.16980711  1
  Te2-  Te111  1  0.83194167  0.84066608  0.50423513  1
  Te2-  Te112  1  0.83262144  0.83717946  0.82696644  1
  Te2-  Te113  1  0.15279021  -0.00490936  0.01356618  1
  Te2-  Te114  1  0.16319471  -0.00316791  0.31967441  1
  Te2-  Te115  1  0.17496162  -0.00140598  0.66349661  1
  Te2-  Te116  1  0.17443154  0.33052589  0.00254866  1
  Te2-  Te117  1  0.16761947  0.33861350  0.33666791  1
  Te2-  Te118  1  0.16298997  0.32923203  0.66350236  1
  Te2-  Te119  1  0.16434075  0.67224875  -0.00117165  1
  Te2-  Te120  1  0.17425714  0.66508559  0.32844299  1
  Te2-  Te121  1  0.16624300  0.66939417  0.66790739  1
  Te2-  Te122  1  0.50155545  0.00163744  -0.00411965  1
  Te2-  Te123  1  0.50014325  -0.00183242  0.34127364  1
  Te2-  Te124  1  0.49289859  -0.00537835  0.66658251  1
  Te2-  Te125  1  0.49550623  0.34056640  -0.00301622  1
  Te2-  Te126  1  0.50187889  0.34001389  0.33616118  1
  Te2-  Te127  1  0.50015069  0.34160848  0.66860133  1
  Te2-  Te128  1  0.50193142  0.65095647  0.00054583  1
  Te2-  Te129  1  0.49224657  0.66496551  0.33999175  1
  Te2-  Te130  1  0.49532441  0.66521062  0.66569278  1
  Te2-  Te131  1  0.84643420  -0.00632466  -0.01143980  1
  Te2-  Te132  1  0.83649470  0.00395133  0.33764621  1
  Te2-  Te133  1  0.83100816  0.00209729  0.66522625  1
  Te2-  Te134  1  0.83189564  0.32461457  0.00444534  1
  Te2-  Te135  1  0.82977972  0.33301307  0.32795264  1
  Te2-  Te136  1  0.83719974  0.33532006  0.67015613  1
  Te2-  Te137  1  0.82972408  0.68123524  -0.00138765  1
  Te2-  Te138  1  0.82662634  0.66652271  0.34395805  1
  Te2-  Te139  1  0.82858060  0.67078123  0.65575257  1
  Te2-  Te140  1  0.00359411  0.16635011  0.01096385  1
  Te2-  Te141  1  -0.00321225  0.16596560  0.32374354  1
  Te2-  Te142  1  0.00038422  0.16596172  0.66894228  1
  Te2-  Te143  1  0.00150913  0.50500045  -0.00112682  1
  Te2-  Te144  1  0.00447293  0.51087301  0.32474382  1
  Te2-  Te145  1  -0.00490822  0.49681003  0.67042705  1
  Te2-  Te146  1  -0.00151999  0.82788427  -0.01521462  1
  Te2-  Te147  1  0.00814831  0.82665214  0.34310005  1
  Te2-  Te148  1  0.00255560  0.83933951  0.67766015  1
  Te2-  Te149  1  0.32940175  0.16753656  -0.01239409  1
  Te2-  Te150  1  0.33500159  0.16422003  0.32726009  1
  Te2-  Te151  1  0.32771015  0.16273700  0.68681983  1
  Te2-  Te152  1  0.33665693  0.49436108  0.00247071  1
  Te2-  Te153  1  0.33598905  0.50735315  0.33765634  1
  Te2-  Te154  1  0.33951165  0.50227362  0.66492123  1
  Te2-  Te155  1  0.34714762  0.82957834  -0.00216533  1
  Te2-  Te156  1  0.33192710  0.83060329  0.33482067  1
  Te2-  Te157  1  0.33272993  0.83705479  0.67133177  1
  Te2-  Te158  1  0.67165633  0.16666959  -0.00432821  1
  Te2-  Te159  1  0.66960539  0.16947792  0.33803843  1
  Te2-  Te160  1  0.67088277  0.16575241  0.66693460  1
  Te2-  Te161  1  0.65939258  0.49873948  0.00498884  1
  Te2-  Te162  1  0.66178083  0.49733706  0.34643401  1
  Te2-  Te163  1  0.66101066  0.50716035  0.65515399  1
  Te2-  Te164  1  0.65311746  0.82854422  -0.00862313  1
  Te2-  Te165  1  0.66065332  0.83883640  0.33646287  1
  Te2-  Te166  1  0.66418100  0.82695027  0.67518913  1
  Te2-  Te167  1  -0.00134481  -0.00980252  0.17335802  1
  Te2-  Te168  1  0.00216826  -0.00148181  0.50619106  1
  Te2-  Te169  1  0.00396886  0.00165414  0.82761288  1
  Te2-  Te170  1  0.00458467  0.35309024  0.16528743  1
  Te2-  Te171  1  0.00281315  0.33542029  0.50309458  1
  Te2-  Te172  1  0.01679261  0.33353869  0.83127787  1
  Te2-  Te173  1  -0.00045717  0.65832581  0.15569350  1
  Te2-  Te174  1  0.00713990  0.66942973  0.49879615  1
  Te2-  Te175  1  0.00256095  0.66220255  0.83844130  1
  Te2-  Te176  1  0.35396894  -0.00099100  0.17101425  1
  Te2-  Te177  1  0.33433782  0.00184086  0.49089004  1
  Te2-  Te178  1  0.32569122  -0.00966696  0.83975885  1
  Te2-  Te179  1  0.33500828  0.32982406  0.15969756  1
  Te2-  Te180  1  0.33280163  0.33621896  0.49979295  1
  Te2-  Te181  1  0.32391866  0.33862017  0.83997120  1
  Te2-  Te182  1  0.34722178  0.66590014  0.17219382  1
  Te2-  Te183  1  0.33610651  0.66099243  0.50050747  1
  Te2-  Te184  1  0.33111116  0.66481343  0.83363428  1
  Te2-  Te185  1  0.65138961  0.00445149  0.17041378  1
  Te2-  Te186  1  0.66443308  0.00435169  0.49957492  1
  Te2-  Te187  1  0.66800476  -0.00170714  0.83166870  1
  Te2-  Te188  1  0.66152538  0.34719456  0.17037845  1
  Te2-  Te189  1  0.66053648  0.33185533  0.49817709  1
  Te2-  Te190  1  0.67083401  0.34849000  0.83681675  1
  Te2-  Te191  1  0.66106194  0.65128038  0.16670314  1
  Te2-  Te192  1  0.65179815  0.66322738  0.50894929  1
  Te2-  Te193  1  0.66551574  0.64985610  0.82390114  1
  Pb2+  Pb194  1  0.66385914  0.83298788  0.16570733  1
  Pb2+  Pb195  1  0.32335886  -0.00321758  0.00757312  1
  Pb2+  Pb196  1  0.67795138  -0.00290608  0.00624636  1
  Pb2+  Pb197  1  0.49670499  0.16610659  0.67171589  1
  Pb2+  Pb198  1  0.33218294  0.66197361  0.00514604  1
  Pb2+  Pb199  1  0.00119063  0.33580335  0.32995679  1
  Pb2+  Pb200  1  0.83000168  0.33583318  0.49832144  1
  Pb2+  Pb201  1  0.65833418  0.83164439  0.50571583  1
  Pb2+  Pb202  1  0.65986430  0.67095954  0.33608334  1
  Pb2+  Pb203  1  0.16604080  0.49938043  0.67068292  1
  Pb2+  Pb204  1  0.33383785  0.33807267  0.32752390  1
  Pb2+  Pb205  1  0.00234390  0.82816085  0.16401630  1
  Pb2+  Pb206  1  0.16699678  0.16372252  0.33065904  1
  Pb2+  Pb207  1  -0.00429875  0.66850540  0.66463762  1
  Pb2+  Pb208  1  0.66697322  0.33699950  0.67192537  1
  Pb2+  Pb209  1  0.67138292  0.17500735  0.16282707  1
  Pb2+  Pb210  1  0.00139707  0.33355513  -0.00031009  1
  Pb2+  Pb211  1  0.83209666  0.66643517  0.82749098  1
  Pb2+  Pb212  1  0.83425501  0.50120624  0.32515961  1
  Pb2+  Pb213  1  0.33293741  0.32826596  0.66922231  1
  Pb2+  Pb214  1  0.50039901  0.16725130  0.33198106  1
  Pb2+  Pb215  1  0.83110795  0.66632728  0.17111053  1
