# generated using pymatgen
data_In22Ag21Sn22Bi21(Te54Pb11)2
_symmetry_space_group_name_H-M   'P 1'
_cell_length_a   19.14567112
_cell_length_b   19.14239895
_cell_length_c   19.13596451
_cell_angle_alpha   89.99791725
_cell_angle_beta   89.98122749
_cell_angle_gamma   89.99447669
_symmetry_Int_Tables_number   1
_chemical_formula_structural   In22Ag21Sn22Bi21(Te54Pb11)2
_chemical_formula_sum   'In22 Ag21 Sn22 Bi21 Te108 Pb22'
_cell_volume   7013.21719512
_cell_formula_units_Z   1
loop_
 _symmetry_equiv_pos_site_id
 _symmetry_equiv_pos_as_xyz
  1  'x, y, z'
loop_
 _atom_type_symbol
 _atom_type_oxidation_number
  In3+  3.0
  Ag+  1.0
  Sn2+  2.0
  Bi3+  3.0
  Te2-  -2.0
  Pb2+  2.0
loop_
 _atom_site_type_symbol
 _atom_site_label
 _atom_site_symmetry_multiplicity
 _atom_site_fract_x
 _atom_site_fract_y
 _atom_site_fract_z
 _atom_site_occupancy
  In3+  In0  1  0.50269175  0.50175017  0.32812380  1
  In3+  In1  1  0.18072894  0.49477821  0.67766651  1
  In3+  In2  1  0.83403965  0.64866671  0.82725631  1
  In3+  In3  1  0.33530905  0.33159684  0.67981487  1
  In3+  In4  1  0.67937678  0.31077505  0.33315215  1
  In3+  In5  1  -0.02344549  0.68471396  0.33335991  1
  In3+  In6  1  0.32927301  0.00678265  0.01356458  1
  In3+  In7  1  0.33795868  0.15301351  0.50482226  1
  In3+  In8  1  0.49900822  0.86737991  0.01541454  1
  In3+  In9  1  0.34626634  0.49999765  0.16997950  1
  In3+  In10  1  0.82497059  0.49589205  0.33641650  1
  In3+  In11  1  0.66596481  0.32934747  0.66497713  1
  In3+  In12  1  0.52523777  0.33236173  0.83025906  1
  In3+  In13  1  0.33349536  0.67976505  0.33147608  1
  In3+  In14  1  0.84875883  0.32882428  0.15779924  1
  In3+  In15  1  0.66350668  0.67814437  0.65853307  1
  In3+  In16  1  0.49745128  0.31633807  0.16217829  1
  In3+  In17  1  0.32601576  0.15041564  0.16580469  1
  In3+  In18  1  0.15256600  0.50113650  0.33332708  1
  In3+  In19  1  -0.02265404  0.32958078  0.66555432  1
  In3+  In20  1  0.83431682  0.48710817  0.65287406  1
  In3+  In21  1  0.83287083  0.50107710  -0.01341064  1
  Ag+  Ag22  1  0.68984961  -0.00266866  0.02480719  1
  Ag+  Ag23  1  0.48346691  0.49493387  0.67931064  1
  Ag+  Ag24  1  0.19182441  -0.00851108  0.80835151  1
  Ag+  Ag25  1  0.81741458  0.30436996  0.50731973  1
  Ag+  Ag26  1  -0.00104473  0.35214898  -0.02858268  1
  Ag+  Ag27  1  0.65750028  0.64120201  0.31367839  1
  Ag+  Ag28  1  0.31383431  0.85502954  0.16581981  1
  Ag+  Ag29  1  0.47509466  0.86250665  0.66160933  1
  Ag+  Ag30  1  0.16498789  0.02528142  0.51351177  1
  Ag+  Ag31  1  0.84728161  0.14835576  0.64460636  1
  Ag+  Ag32  1  0.13919763  -0.02167474  0.16657171  1
  Ag+  Ag33  1  0.02385366  0.16417075  0.14548522  1
  Ag+  Ag34  1  0.47798519  0.17066428  -0.01240008  1
  Ag+  Ag35  1  0.83165769  0.33309491  0.83575481  1
  Ag+  Ag36  1  0.02907753  0.86641411  0.50218238  1
  Ag+  Ag37  1  0.53117164  0.02149217  0.48025031  1
  Ag+  Ag38  1  0.32884936  -0.02275790  0.68611486  1
  Ag+  Ag39  1  -0.01287955  0.16593712  0.50951272  1
  Ag+  Ag40  1  0.69387966  0.18801778  0.51081585  1
  Ag+  Ag41  1  0.50703673  -0.01366430  0.18606062  1
  Ag+  Ag42  1  0.63746960  0.00466783  0.36662395  1
  Sn2+  Sn43  1  0.00302349  0.66614173  0.01185533  1
  Sn2+  Sn44  1  0.83282764  0.84810809  0.66675651  1
  Sn2+  Sn45  1  0.16735086  0.33739137  0.16358937  1
  Sn2+  Sn46  1  0.66909160  0.84177752  0.17383200  1
  Sn2+  Sn47  1  0.67460465  0.31476674  0.00763909  1
  Sn2+  Sn48  1  0.82138247  0.00421054  0.17325734  1
  Sn2+  Sn49  1  0.00623291  0.00921898  0.34071210  1
  Sn2+  Sn50  1  0.16004695  0.33012559  0.50152800  1
  Sn2+  Sn51  1  0.64914085  0.00366625  0.66510580  1
  Sn2+  Sn52  1  0.15752952  0.67933747  0.82996882  1
  Sn2+  Sn53  1  0.33597404  0.84539212  0.49676220  1
  Sn2+  Sn54  1  0.00175818  0.48341560  0.16654111  1
  Sn2+  Sn55  1  0.50220797  0.32822910  0.49984212  1
  Sn2+  Sn56  1  0.00881312  0.00371840  0.66403874  1
  Sn2+  Sn57  1  -0.00464802  0.67250867  0.66050047  1
  Sn2+  Sn58  1  0.16863134  0.67417716  0.16357793  1
  Sn2+  Sn59  1  0.15806594  0.16455245  0.66604860  1
  Sn2+  Sn60  1  0.83729793  0.16689852  0.33776564  1
  Sn2+  Sn61  1  0.84304138  -0.00353191  0.49461892  1
  Sn2+  Sn62  1  0.66041949  0.49320145  0.50039472  1
  Sn2+  Sn63  1  0.33726108  0.49518295  0.49319588  1
  Sn2+  Sn64  1  0.50772243  0.48456118  -0.00116013  1
  Bi3+  Bi65  1  0.49998823  0.00060638  0.82376310  1
  Bi3+  Bi66  1  0.83067440  0.83672093  0.33545900  1
  Bi3+  Bi67  1  0.50226128  0.66416565  0.82894470  1
  Bi3+  Bi68  1  0.50300271  0.66282178  0.49994510  1
  Bi3+  Bi69  1  0.66898488  0.49778603  0.16813282  1
  Bi3+  Bi70  1  0.32896123  0.00085519  0.33194237  1
  Bi3+  Bi71  1  0.50107177  0.17228990  0.66683665  1
  Bi3+  Bi72  1  0.66421196  0.83423809  0.83305571  1
  Bi3+  Bi73  1  0.66240603  0.16487338  0.16986661  1
  Bi3+  Bi74  1  0.16727886  0.65887182  0.49787936  1
  Bi3+  Bi75  1  0.83283771  0.66642157  0.50477723  1
  Bi3+  Bi76  1  -0.00273233  0.16449118  0.83169449  1
  Bi3+  Bi77  1  0.66456702  0.83537529  0.50158900  1
  Bi3+  Bi78  1  -0.00030441  0.49471352  0.49990400  1
  Bi3+  Bi79  1  0.83295710  0.16847699  0.00177545  1
  Bi3+  Bi80  1  0.16435450  0.16764646  -0.00169721  1
  Bi3+  Bi81  1  0.00191630  0.00382436  0.00498197  1
  Bi3+  Bi82  1  0.50126212  0.17217142  0.33129641  1
  Bi3+  Bi83  1  -0.00284156  0.33019224  0.34086888  1
  Bi3+  Bi84  1  0.33493004  0.66764161  0.00232164  1
  Bi3+  Bi85  1  0.33646488  0.33500385  0.33608204  1
  Te2-  Te86  1  0.17127702  0.17597371  0.16390119  1
  Te2-  Te87  1  0.17493939  0.17314429  0.50638155  1
  Te2-  Te88  1  0.16286861  0.15283467  0.83460172  1
  Te2-  Te89  1  0.16089187  0.50236648  0.17315574  1
  Te2-  Te90  1  0.16400201  0.49842342  0.49780049  1
  Te2-  Te91  1  0.16672029  0.50101353  0.83206632  1
  Te2-  Te92  1  0.16769481  0.83245161  0.16685426  1
  Te2-  Te93  1  0.16913327  0.81934023  0.49757957  1
  Te2-  Te94  1  0.16802333  0.84362402  0.83117800  1
  Te2-  Te95  1  0.49846583  0.16604159  0.16580609  1
  Te2-  Te96  1  0.49408700  0.16463756  0.49933016  1
  Te2-  Te97  1  0.50082309  0.17551233  0.83419590  1
  Te2-  Te98  1  0.50420825  0.50091256  0.16662069  1
  Te2-  Te99  1  0.50169218  0.50082675  0.49855143  1
  Te2-  Te100  1  0.50218573  0.49383053  0.82796385  1
  Te2-  Te101  1  0.50996692  0.84043285  0.16646886  1
  Te2-  Te102  1  0.50010784  0.82522732  0.51368362  1
  Te2-  Te103  1  0.50391791  0.82684244  0.81058193  1
  Te2-  Te104  1  0.82371547  0.17449826  0.16823862  1
  Te2-  Te105  1  0.83615059  0.15842032  0.49801046  1
  Te2-  Te106  1  0.83532538  0.17995517  0.83817733  1
  Te2-  Te107  1  0.83243784  0.48964158  0.18122700  1
  Te2-  Te108  1  0.83493244  0.50480038  0.49561811  1
  Te2-  Te109  1  0.83466695  0.48658118  0.83321277  1
  Te2-  Te110  1  0.83210890  0.83035255  0.16934009  1
  Te2-  Te111  1  0.82936771  0.82747811  0.49911373  1
  Te2-  Te112  1  0.82794506  0.83408128  0.83210547  1
  Te2-  Te113  1  0.17137517  0.00669074  0.01695365  1
  Te2-  Te114  1  0.16900106  0.00204037  0.31385092  1
  Te2-  Te115  1  0.17401086  0.00647487  0.66253640  1
  Te2-  Te116  1  0.15129168  0.33187926  -0.00210563  1
  Te2-  Te117  1  0.16973341  0.34012330  0.33235677  1
  Te2-  Te118  1  0.17357679  0.34059668  0.66414340  1
  Te2-  Te119  1  0.16948184  0.66783529  -0.00429823  1
  Te2-  Te120  1  0.17808943  0.65676632  0.33379532  1
  Te2-  Te121  1  0.16494131  0.65537214  0.66455860  1
  Te2-  Te122  1  0.48464129  0.01569136  -0.01422463  1
  Te2-  Te123  1  0.49101831  0.00551378  0.33780673  1
  Te2-  Te124  1  0.48396976  0.01143012  0.66222835  1
  Te2-  Te125  1  0.50242671  0.32491587  -0.00272253  1
  Te2-  Te126  1  0.50047876  0.33554590  0.33158196  1
  Te2-  Te127  1  0.50407992  0.33897149  0.66850498  1
  Te2-  Te128  1  0.49772562  0.65551121  -0.00888297  1
  Te2-  Te129  1  0.50924481  0.66083814  0.33614091  1
  Te2-  Te130  1  0.50977654  0.64634193  0.66696231  1
  Te2-  Te131  1  0.83800750  0.00182110  0.00216710  1
  Te2-  Te132  1  0.84225978  -0.00214734  0.33010502  1
  Te2-  Te133  1  0.83600702  0.00382948  0.66404137  1
  Te2-  Te134  1  0.84457370  0.33514819  0.00609421  1
  Te2-  Te135  1  0.83194561  0.33605731  0.34281882  1
  Te2-  Te136  1  0.82411817  0.33127070  0.65476534  1
  Te2-  Te137  1  0.83582166  0.65864807  -0.00461888  1
  Te2-  Te138  1  0.81927199  0.66917801  0.33876868  1
  Te2-  Te139  1  0.82859270  0.66365520  0.66890039  1
  Te2-  Te140  1  -0.00177990  0.16567585  -0.00144307  1
  Te2-  Te141  1  -0.00047141  0.17091135  0.35319400  1
  Te2-  Te142  1  -0.00815026  0.17320328  0.66537631  1
  Te2-  Te143  1  -0.01043519  0.49596215  0.00650935  1
  Te2-  Te144  1  -0.00241957  0.49448180  0.33520549  1
  Te2-  Te145  1  -0.01008124  0.49851418  0.66174914  1
  Te2-  Te146  1  -0.00080411  0.83471976  0.00236181  1
  Te2-  Te147  1  -0.00402968  0.83760418  0.34902524  1
  Te2-  Te148  1  -0.00255014  0.83506180  0.65142447  1
  Te2-  Te149  1  0.33037033  0.16747864  0.00523345  1
  Te2-  Te150  1  0.33714668  0.17124010  0.32723141  1
  Te2-  Te151  1  0.33451831  0.17859035  0.65933270  1
  Te2-  Te152  1  0.33370220  0.50225302  0.01121273  1
  Te2-  Te153  1  0.34533281  0.49753248  0.32726813  1
  Te2-  Te154  1  0.33550757  0.49356219  0.66396597  1
  Te2-  Te155  1  0.34455938  0.82821369  0.01546743  1
  Te2-  Te156  1  0.33728160  0.83248396  0.31965468  1
  Te2-  Te157  1  0.33179341  0.83043193  0.66037347  1
  Te2-  Te158  1  0.67217327  0.15445322  0.00472897  1
  Te2-  Te159  1  0.66252128  0.15596843  0.33628614  1
  Te2-  Te160  1  0.66246401  0.17422085  0.65671226  1
  Te2-  Te161  1  0.67568292  0.49473428  0.00628931  1
  Te2-  Te162  1  0.66522454  0.49636317  0.33037500  1
  Te2-  Te163  1  0.68019706  0.48455521  0.66351054  1
  Te2-  Te164  1  0.65626572  0.84597298  -0.00173509  1
  Te2-  Te165  1  0.66936282  0.85296933  0.33908059  1
  Te2-  Te166  1  0.66982135  0.83376701  0.66698645  1
  Te2-  Te167  1  -0.00551455  0.01411220  0.16642385  1
  Te2-  Te168  1  0.01283995  0.01229572  0.50441632  1
  Te2-  Te169  1  -0.00066051  0.00292151  0.83544574  1
  Te2-  Te170  1  0.00007748  0.31588698  0.17938667  1
  Te2-  Te171  1  -0.00746731  0.33056232  0.50674960  1
  Te2-  Te172  1  -0.01087585  0.33014192  0.82287753  1
  Te2-  Te173  1  0.00328532  0.66681512  0.17074508  1
  Te2-  Te174  1  -0.00014685  0.65862119  0.49473914  1
  Te2-  Te175  1  -0.00081595  0.66914389  0.83357427  1
  Te2-  Te176  1  0.35214364  -0.00218860  0.16560661  1
  Te2-  Te177  1  0.31505799  0.00161467  0.49116565  1
  Te2-  Te178  1  0.33762371  -0.00150824  0.83003441  1
  Te2-  Te179  1  0.33850654  0.34216766  0.17116359  1
  Te2-  Te180  1  0.33524678  0.33605683  0.49545797  1
  Te2-  Te181  1  0.32856246  0.33293036  0.83356071  1
  Te2-  Te182  1  0.33354552  0.65753114  0.16908730  1
  Te2-  Te183  1  0.33614172  0.66577739  0.49014339  1
  Te2-  Te184  1  0.33467220  0.66635779  0.83417039  1
  Te2-  Te185  1  0.65820068  0.00268525  0.16684673  1
  Te2-  Te186  1  0.67220908  -0.00431690  0.51071805  1
  Te2-  Te187  1  0.66031295  -0.00289682  0.82871179  1
  Te2-  Te188  1  0.65774469  0.33298420  0.17310704  1
  Te2-  Te189  1  0.67012377  0.33166703  0.48821928  1
  Te2-  Te190  1  0.67813203  0.33338357  0.83874067  1
  Te2-  Te191  1  0.66718911  0.66466178  0.16858585  1
  Te2-  Te192  1  0.66775918  0.66713270  0.50216935  1
  Te2-  Te193  1  0.66801225  0.66920952  0.83390005  1
  Pb2+  Pb194  1  0.33220084  0.16430540  0.82794605  1
  Pb2+  Pb195  1  -0.00122038  0.84515005  0.17441952  1
  Pb2+  Pb196  1  0.50408942  0.83330848  0.34400530  1
  Pb2+  Pb197  1  0.33635781  0.49999460  0.83850552  1
  Pb2+  Pb198  1  0.66723772  0.50124915  0.82957271  1
  Pb2+  Pb199  1  0.15764387  0.32292442  0.82841319  1
  Pb2+  Pb200  1  0.49930782  0.67305811  0.16453544  1
  Pb2+  Pb201  1  0.16965201  0.84057375  -0.00293074  1
  Pb2+  Pb202  1  0.83212957  0.00854497  0.82944396  1
  Pb2+  Pb203  1  0.66391854  0.67254166  0.00191400  1
  Pb2+  Pb204  1  0.34160759  0.83278454  0.84227656  1
  Pb2+  Pb205  1  0.66929809  0.16569461  0.82818293  1
  Pb2+  Pb206  1  0.16519782  0.83566233  0.66223643  1
  Pb2+  Pb207  1  0.82859767  0.83172333  -0.00052166  1
  Pb2+  Pb208  1  0.00103393  0.50078636  0.83089007  1
  Pb2+  Pb209  1  0.16162376  0.49960480  0.00573148  1
  Pb2+  Pb210  1  0.83579879  0.65781456  0.16822270  1
  Pb2+  Pb211  1  0.32877844  0.33448647  0.00354462  1
  Pb2+  Pb212  1  0.16685257  0.83505816  0.33576054  1
  Pb2+  Pb213  1  0.16548017  0.16707207  0.33764599  1
  Pb2+  Pb214  1  -0.00375214  0.83739639  0.82345363  1
  Pb2+  Pb215  1  0.33869445  0.66565221  0.65949704  1
