# generated using pymatgen
data_In22Ag21Sn22Bi21(Te54Pb11)2
_symmetry_space_group_name_H-M   'P 1'
_cell_length_a   19.15393896
_cell_length_b   19.14527741
_cell_length_c   19.16501917
_cell_angle_alpha   89.98767429
_cell_angle_beta   89.98777997
_cell_angle_gamma   89.99166840
_symmetry_Int_Tables_number   1
_chemical_formula_structural   In22Ag21Sn22Bi21(Te54Pb11)2
_chemical_formula_sum   'In22 Ag21 Sn22 Bi21 Te108 Pb22'
_cell_volume   7027.95539026
_cell_formula_units_Z   1
loop_
 _symmetry_equiv_pos_site_id
 _symmetry_equiv_pos_as_xyz
  1  'x, y, z'
loop_
 _atom_type_symbol
 _atom_type_oxidation_number
  In3+  3.0
  Ag+  1.0
  Sn2+  2.0
  Bi3+  3.0
  Te2-  -2.0
  Pb2+  2.0
loop_
 _atom_site_type_symbol
 _atom_site_label
 _atom_site_symmetry_multiplicity
 _atom_site_fract_x
 _atom_site_fract_y
 _atom_site_fract_z
 _atom_site_occupancy
  In3+  In0  1  0.65243936  0.83602828  0.50454431  1
  In3+  In1  1  0.81775426  0.67494843  0.51556754  1
  In3+  In2  1  0.16495161  0.00385493  0.48336928  1
  In3+  In3  1  0.50710987  0.36003753  0.83467868  1
  In3+  In4  1  0.16107392  0.82078403  0.65486657  1
  In3+  In5  1  0.65395104  0.66633078  -0.01066143  1
  In3+  In6  1  0.17101678  -0.01577097  0.83195194  1
  In3+  In7  1  0.16805522  0.66410615  0.50510739  1
  In3+  In8  1  0.17105393  0.02331025  0.18685541  1
  In3+  In9  1  0.32572345  0.83004542  0.18214420  1
  In3+  In10  1  0.81849124  -0.00252358  0.83210494  1
  In3+  In11  1  0.66472721  0.65725860  0.30995436  1
  In3+  In12  1  0.15948986  0.35644878  0.49088393  1
  In3+  In13  1  0.46931174  0.14793674  0.32318004  1
  In3+  In14  1  0.17226903  0.17565157  0.00093196  1
  In3+  In15  1  0.16383670  0.16000380  0.65421749  1
  In3+  In16  1  0.00775428  0.00931560  -0.00333930  1
  In3+  In17  1  0.34188551  0.66775333  -0.01817757  1
  In3+  In18  1  0.47548479  0.50046642  0.33314624  1
  In3+  In19  1  0.82584741  0.17589200  -0.00257164  1
  In3+  In20  1  0.00350616  0.50866464  0.81731639  1
  In3+  In21  1  0.48583589  0.35080323  0.18566658  1
  Ag+  Ag22  1  -0.00518240  0.35392444  0.35336480  1
  Ag+  Ag23  1  0.80523435  0.36129078  0.83108607  1
  Ag+  Ag24  1  0.63515521  0.65843708  0.64404086  1
  Ag+  Ag25  1  0.47840920  0.67892438  0.19519023  1
  Ag+  Ag26  1  0.34766033  0.48145373  0.48404301  1
  Ag+  Ag27  1  0.18834593  0.63840424  0.81116358  1
  Ag+  Ag28  1  0.32992924  0.48801631  0.18968499  1
  Ag+  Ag29  1  0.17979640  0.31721094  0.19385211  1
  Ag+  Ag30  1  0.63987540  0.83295821  0.80242917  1
  Ag+  Ag31  1  -0.01412251  0.66939069  0.64228018  1
  Ag+  Ag32  1  0.32205538  0.19119044  0.16414290  1
  Ag+  Ag33  1  0.52474878  -0.02371503  0.49608326  1
  Ag+  Ag34  1  0.35711203  0.02211287  0.31314233  1
  Ag+  Ag35  1  -0.00133681  0.02083421  0.36335467  1
  Ag+  Ag36  1  0.16499457  0.18207062  0.35163700  1
  Ag+  Ag37  1  0.16990420  0.47685577  0.30819382  1
  Ag+  Ag38  1  0.52635815  0.67212525  0.83225420  1
  Ag+  Ag39  1  0.62973211  0.47445440  0.18002602  1
  Ag+  Ag40  1  0.36403419  0.50561495  0.85168590  1
  Ag+  Ag41  1  0.52375651  0.81658508  0.67562338  1
  Ag+  Ag42  1  0.00544959  0.82770988  0.47826604  1
  Sn2+  Sn43  1  0.17036875  0.50102932  0.00311840  1
  Sn2+  Sn44  1  0.33777194  0.17725381  0.84066768  1
  Sn2+  Sn45  1  0.49057207  -0.00907850  0.81659484  1
  Sn2+  Sn46  1  0.66301504  0.16541603  0.49881040  1
  Sn2+  Sn47  1  -0.00111447  0.50804365  0.49361609  1
  Sn2+  Sn48  1  0.50301742  0.83489601  -0.00552171  1
  Sn2+  Sn49  1  0.49505166  0.66927353  0.51049283  1
  Sn2+  Sn50  1  -0.00170025  0.65941585  0.33788771  1
  Sn2+  Sn51  1  0.66902104  0.51104640  0.84152928  1
  Sn2+  Sn52  1  0.32715284  0.83147626  0.50404974  1
  Sn2+  Sn53  1  -0.00026395  0.33167819  0.00393996  1
  Sn2+  Sn54  1  0.00034965  -0.01486925  0.67075688  1
  Sn2+  Sn55  1  0.16362815  0.82900034  0.33478544  1
  Sn2+  Sn56  1  0.65286870  -0.00544807  0.67018545  1
  Sn2+  Sn57  1  0.84281842  0.00012102  0.16528168  1
  Sn2+  Sn58  1  0.00513696  0.84619804  0.17439573  1
  Sn2+  Sn59  1  0.33712900  0.82621912  0.83205979  1
  Sn2+  Sn60  1  0.32818828  -0.00478302  0.00511977  1
  Sn2+  Sn61  1  0.49491207  0.33112753  0.50629120  1
  Sn2+  Sn62  1  0.00837382  0.17412301  0.17647107  1
  Sn2+  Sn63  1  0.66809011  0.35645992  0.66095612  1
  Sn2+  Sn64  1  0.65891591  0.50899708  0.48769535  1
  Bi3+  Bi65  1  0.17130359  0.83270415  -0.00192922  1
  Bi3+  Bi66  1  0.32963275  0.66682714  0.66646110  1
  Bi3+  Bi67  1  0.83557920  0.83189864  0.33372867  1
  Bi3+  Bi68  1  0.00667772  0.66524249  0.00370900  1
  Bi3+  Bi69  1  0.16928036  0.49476256  0.66673986  1
  Bi3+  Bi70  1  0.00703522  0.16912053  0.83879986  1
  Bi3+  Bi71  1  0.83542825  0.83608846  0.00180695  1
  Bi3+  Bi72  1  0.32969512  -0.00002840  0.66446172  1
  Bi3+  Bi73  1  0.49835923  0.16241420  0.66314725  1
  Bi3+  Bi74  1  0.83566994  0.66526879  0.17109050  1
  Bi3+  Bi75  1  0.00375007  0.83121397  0.84060375  1
  Bi3+  Bi76  1  0.66484171  0.83123048  0.16884664  1
  Bi3+  Bi77  1  0.66443421  0.33781116  -0.00296520  1
  Bi3+  Bi78  1  0.83523330  0.33581800  0.50424188  1
  Bi3+  Bi79  1  0.33480635  0.33573542  0.66867640  1
  Bi3+  Bi80  1  0.83362493  0.67084774  0.83713679  1
  Bi3+  Bi81  1  0.16935473  0.33336482  0.83262374  1
  Bi3+  Bi82  1  0.01123824  0.49944917  0.16571277  1
  Bi3+  Bi83  1  0.66105842  0.17046815  0.16847909  1
  Bi3+  Bi84  1  0.33010229  0.66886008  0.33595875  1
  Bi3+  Bi85  1  0.17106340  0.66437202  0.16663111  1
  Te2-  Te86  1  0.17499435  0.17432701  0.15581946  1
  Te2-  Te87  1  0.16769331  0.15789096  0.49797889  1
  Te2-  Te88  1  0.17002465  0.17272117  0.84419549  1
  Te2-  Te89  1  0.17740755  0.50224372  0.16263958  1
  Te2-  Te90  1  0.16987067  0.50600083  0.50519255  1
  Te2-  Te91  1  0.15862748  0.49507971  0.83143174  1
  Te2-  Te92  1  0.17041759  0.83026565  0.16093627  1
  Te2-  Te93  1  0.15523172  0.82564971  0.50305697  1
  Te2-  Te94  1  0.16537961  0.82919804  0.83619116  1
  Te2-  Te95  1  0.49931733  0.16309814  0.17416076  1
  Te2-  Te96  1  0.50269641  0.17343234  0.49682527  1
  Te2-  Te97  1  0.49742757  0.15550232  0.82828117  1
  Te2-  Te98  1  0.48611273  0.50519306  0.17697381  1
  Te2-  Te99  1  0.49501823  0.49834298  0.49027526  1
  Te2-  Te100  1  0.51021917  0.51411846  0.83217201  1
  Te2-  Te101  1  0.50385117  0.82318045  0.16673461  1
  Te2-  Te102  1  0.49947665  0.83051715  0.50883405  1
  Te2-  Te103  1  0.49553968  0.83050186  0.82461755  1
  Te2-  Te104  1  0.82736919  0.16599838  0.15611996  1
  Te2-  Te105  1  0.83291411  0.17025505  0.50042646  1
  Te2-  Te106  1  0.83878559  0.15337803  0.84097542  1
  Te2-  Te107  1  0.84251358  0.50004454  0.16842887  1
  Te2-  Te108  1  0.83267266  0.49827450  0.49963527  1
  Te2-  Te109  1  0.83659807  0.50491795  0.83418160  1
  Te2-  Te110  1  0.83085930  0.83217202  0.16778795  1
  Te2-  Te111  1  0.85337599  0.82411389  0.49646228  1
  Te2-  Te112  1  0.83861018  0.83610880  0.83963246  1
  Te2-  Te113  1  0.16846715  -0.00455704  -0.00637709  1
  Te2-  Te114  1  0.14771017  -0.00947403  0.33088752  1
  Te2-  Te115  1  0.16828535  0.00451125  0.67617507  1
  Te2-  Te116  1  0.16696211  0.33152386  -0.00504062  1
  Te2-  Te117  1  0.15723645  0.33157455  0.33921509  1
  Te2-  Te118  1  0.17097803  0.32661060  0.66483956  1
  Te2-  Te119  1  0.16827042  0.67029358  0.00183005  1
  Te2-  Te120  1  0.16971892  0.66889371  0.33032847  1
  Te2-  Te121  1  0.16724142  0.66434521  0.66832246  1
  Te2-  Te122  1  0.49602881  -0.00512674  -0.00286760  1
  Te2-  Te123  1  0.49867769  0.00072869  0.34787108  1
  Te2-  Te124  1  0.49307017  0.00163642  0.64803429  1
  Te2-  Te125  1  0.50160655  0.33272363  -0.01104218  1
  Te2-  Te126  1  0.49957195  0.33949432  0.33611575  1
  Te2-  Te127  1  0.49942133  0.32857468  0.67357884  1
  Te2-  Te128  1  0.49951321  0.67158932  -0.01547524  1
  Te2-  Te129  1  0.49969972  0.65784953  0.33951054  1
  Te2-  Te130  1  0.49175408  0.67217320  0.67283286  1
  Te2-  Te131  1  0.83843307  -0.00260557  -0.00133663  1
  Te2-  Te132  1  0.85100044  -0.00317663  0.33176618  1
  Te2-  Te133  1  0.83222436  -0.00054342  0.67200119  1
  Te2-  Te134  1  0.82736831  0.33039625  -0.01677717  1
  Te2-  Te135  1  0.84668332  0.33321081  0.33716655  1
  Te2-  Te136  1  0.83241690  0.33293172  0.67422663  1
  Te2-  Te137  1  0.84047123  0.67197100  0.00390248  1
  Te2-  Te138  1  0.82821298  0.66849502  0.33391813  1
  Te2-  Te139  1  0.84066181  0.66708268  0.66845567  1
  Te2-  Te140  1  -0.00058468  0.16468415  0.00007269  1
  Te2-  Te141  1  0.01545943  0.16354908  0.32887534  1
  Te2-  Te142  1  0.00646018  0.16275758  0.67340624  1
  Te2-  Te143  1  0.00243706  0.50062830  0.00431372  1
  Te2-  Te144  1  0.01911859  0.49955648  0.33019151  1
  Te2-  Te145  1  0.00611871  0.51283350  0.66253462  1
  Te2-  Te146  1  0.00175336  0.83404611  0.00354350  1
  Te2-  Te147  1  -0.00314334  0.82762607  0.33045180  1
  Te2-  Te148  1  0.00899594  0.81926138  0.67970331  1
  Te2-  Te149  1  0.32920694  0.16309317  0.01227724  1
  Te2-  Te150  1  0.31822230  0.16308861  0.32336534  1
  Te2-  Te151  1  0.33221618  0.16841269  0.66961086  1
  Te2-  Te152  1  0.33224602  0.51308633  -0.00535592  1
  Te2-  Te153  1  0.32076233  0.50385156  0.33831447  1
  Te2-  Te154  1  0.32970749  0.50055771  0.66450938  1
  Te2-  Te155  1  0.33350026  0.82773411  -0.00451195  1
  Te2-  Te156  1  0.33377478  0.83083112  0.33750033  1
  Te2-  Te157  1  0.31902021  0.83382137  0.66697867  1
  Te2-  Te158  1  0.66559619  0.16752996  0.00085831  1
  Te2-  Te159  1  0.67302191  0.16702523  0.33041644  1
  Te2-  Te160  1  0.66121524  0.16298960  0.66350003  1
  Te2-  Te161  1  0.66445275  0.50144077  0.00738225  1
  Te2-  Te162  1  0.66681698  0.50466546  0.32184877  1
  Te2-  Te163  1  0.66262980  0.51234556  0.66486334  1
  Te2-  Te164  1  0.67193111  0.82653291  0.00534632  1
  Te2-  Te165  1  0.67038758  0.82848730  0.33646218  1
  Te2-  Te166  1  0.66919752  0.82870480  0.65807269  1
  Te2-  Te167  1  0.01057355  0.00566844  0.15464826  1
  Te2-  Te168  1  0.01147204  -0.01073009  0.50966766  1
  Te2-  Te169  1  0.00978966  0.00123675  0.83724917  1
  Te2-  Te170  1  0.00905298  0.33640552  0.16261008  1
  Te2-  Te171  1  -0.00008426  0.33563482  0.49952430  1
  Te2-  Te172  1  0.00462716  0.33113489  0.83583028  1
  Te2-  Te173  1  0.00108782  0.66665803  0.16781149  1
  Te2-  Te174  1  0.01088503  0.66701940  0.49661018  1
  Te2-  Te175  1  -0.00294402  0.66394841  0.84219141  1
  Te2-  Te176  1  0.32450803  -0.01298634  0.17355433  1
  Te2-  Te177  1  0.31674061  -0.00430072  0.50383405  1
  Te2-  Te178  1  0.32842213  0.00435222  0.82950029  1
  Te2-  Te179  1  0.33157436  0.33919809  0.16665315  1
  Te2-  Te180  1  0.32886479  0.33647036  0.50595889  1
  Te2-  Te181  1  0.33751693  0.34579186  0.83022855  1
  Te2-  Te182  1  0.33372695  0.67511048  0.17094281  1
  Te2-  Te183  1  0.32867004  0.66659336  0.50182571  1
  Te2-  Te184  1  0.33137880  0.65527184  0.83115443  1
  Te2-  Te185  1  0.66490069  -0.00029986  0.16771961  1
  Te2-  Te186  1  0.67279549  -0.00742792  0.50118442  1
  Te2-  Te187  1  0.66353840  -0.01584265  0.82980268  1
  Te2-  Te188  1  0.66391852  0.33277583  0.16094300  1
  Te2-  Te189  1  0.67324324  0.33836694  0.50208460  1
  Te2-  Te190  1  0.66138250  0.33466437  0.83210551  1
  Te2-  Te191  1  0.67331174  0.66873426  0.15898486  1
  Te2-  Te192  1  0.66762192  0.66971293  0.50199714  1
  Te2-  Te193  1  0.67303126  0.67883826  0.83624401  1
  Pb2+  Pb194  1  0.33598229  0.16306824  0.49666310  1
  Pb2+  Pb195  1  0.33265654  0.33904749  -0.00077127  1
  Pb2+  Pb196  1  0.00301880  0.33704228  0.67055016  1
  Pb2+  Pb197  1  0.67424978  -0.00030247  0.33419330  1
  Pb2+  Pb198  1  0.83224594  0.50234831  0.00219873  1
  Pb2+  Pb199  1  0.49547265  0.50135890  0.65964383  1
  Pb2+  Pb200  1  0.83141380  0.50072508  0.66669608  1
  Pb2+  Pb201  1  0.32717110  0.33094237  0.33587426  1
  Pb2+  Pb202  1  0.50064748  0.82831276  0.33618991  1
  Pb2+  Pb203  1  0.83355393  0.16672158  0.67043834  1
  Pb2+  Pb204  1  0.00016128  0.16384410  0.49649312  1
  Pb2+  Pb205  1  0.49387975  -0.00869929  0.16711533  1
  Pb2+  Pb206  1  0.83695130  0.83301151  0.66739214  1
  Pb2+  Pb207  1  0.84024588  0.50015999  0.33410662  1
  Pb2+  Pb208  1  0.66578588  0.16101552  0.82949184  1
  Pb2+  Pb209  1  0.84470016  0.16671710  0.32755492  1
  Pb2+  Pb210  1  0.66720213  -0.00612131  -0.00070093  1
  Pb2+  Pb211  1  0.84218373  -0.00675990  0.50130549  1
  Pb2+  Pb212  1  0.49754730  0.50302053  0.00746172  1
  Pb2+  Pb213  1  0.49505568  0.16404521  0.00213749  1
  Pb2+  Pb214  1  0.66939336  0.33476911  0.33279031  1
  Pb2+  Pb215  1  0.84071225  0.33267810  0.15932750  1
