# generated using pymatgen
data_In22Ag21Sn22Bi21(Te54Pb11)2
_symmetry_space_group_name_H-M   'P 1'
_cell_length_a   19.12141730
_cell_length_b   19.13083421
_cell_length_c   19.12668315
_cell_angle_alpha   89.99661782
_cell_angle_beta   90.00974706
_cell_angle_gamma   89.98716537
_symmetry_Int_Tables_number   1
_chemical_formula_structural   In22Ag21Sn22Bi21(Te54Pb11)2
_chemical_formula_sum   'In22 Ag21 Sn22 Bi21 Te108 Pb22'
_cell_volume   6996.70612523
_cell_formula_units_Z   1
loop_
 _symmetry_equiv_pos_site_id
 _symmetry_equiv_pos_as_xyz
  1  'x, y, z'
loop_
 _atom_type_symbol
 _atom_type_oxidation_number
  In3+  3.0
  Ag+  1.0
  Sn2+  2.0
  Bi3+  3.0
  Te2-  -2.0
  Pb2+  2.0
loop_
 _atom_site_type_symbol
 _atom_site_label
 _atom_site_symmetry_multiplicity
 _atom_site_fract_x
 _atom_site_fract_y
 _atom_site_fract_z
 _atom_site_occupancy
  In3+  In0  1  0.82409856  0.32285077  0.83125553  1
  In3+  In1  1  0.49386354  0.83182578  0.30710442  1
  In3+  In2  1  -0.00820705  0.49935555  0.84509203  1
  In3+  In3  1  0.50758124  0.16841582  0.68177069  1
  In3+  In4  1  0.67192212  0.49267928  0.49992300  1
  In3+  In5  1  0.34722380  0.66078910  0.66147747  1
  In3+  In6  1  0.33527134  -0.01406224  0.01985980  1
  In3+  In7  1  0.33895031  0.51429615  0.15283962  1
  In3+  In8  1  0.83118596  0.33491287  0.48935610  1
  In3+  In9  1  0.17688620  0.68258071  0.16128679  1
  In3+  In10  1  0.51465104  0.33131885  0.15943538  1
  In3+  In11  1  0.83056833  0.49097286  0.67014783  1
  In3+  In12  1  0.49824390  0.65858435  0.86026919  1
  In3+  In13  1  0.15938696  0.16404209  0.67793190  1
  In3+  In14  1  0.67824076  0.17359355  0.82700472  1
  In3+  In15  1  0.84408313  0.82418666  0.33382229  1
  In3+  In16  1  0.17284796  0.49627246  0.32014494  1
  In3+  In17  1  0.17201734  0.66517828  0.47464031  1
  In3+  In18  1  0.67213614  -0.00504999  0.67133801  1
  In3+  In19  1  0.83893341  0.16237433  0.67324858  1
  In3+  In20  1  0.83997769  0.02258934  0.16209482  1
  In3+  In21  1  0.66126475  0.83649482  0.48078522  1
  Ag+  Ag22  1  0.68806006  0.33107899  0.65827815  1
  Ag+  Ag23  1  -0.03175931  0.86244721  0.86129864  1
  Ag+  Ag24  1  0.66518118  0.00356804  0.30816244  1
  Ag+  Ag25  1  0.48293319  -0.01427064  0.16886008  1
  Ag+  Ag26  1  0.13801612  0.02387626  0.14417705  1
  Ag+  Ag27  1  0.48693120  0.68688063  0.16847103  1
  Ag+  Ag28  1  0.80597580  0.49870432  0.30684819  1
  Ag+  Ag29  1  0.49727957  0.82133840  0.00252632  1
  Ag+  Ag30  1  0.14794223  0.85507406  0.31962705  1
  Ag+  Ag31  1  0.14176272  0.50222868  0.02141394  1
  Ag+  Ag32  1  0.13679576  0.14690132  0.32839365  1
  Ag+  Ag33  1  0.50059118  0.51610029  0.00932237  1
  Ag+  Ag34  1  -0.01813104  0.15397796  0.85061493  1
  Ag+  Ag35  1  -0.02216438  -0.00042865  -0.00941131  1
  Ag+  Ag36  1  0.52200818  0.30709176  0.83446023  1
  Ag+  Ag37  1  0.31196349  0.85040251  0.19322492  1
  Ag+  Ag38  1  0.31977516  0.66728545  0.31231379  1
  Ag+  Ag39  1  0.82952334  0.33241022  0.18853803  1
  Ag+  Ag40  1  0.48429456  0.19008281  0.32941124  1
  Ag+  Ag41  1  0.84130985  -0.02135004  0.85951230  1
  Ag+  Ag42  1  0.02668221  0.17490848  0.18705136  1
  Sn2+  Sn43  1  0.15887459  0.50137941  0.67256090  1
  Sn2+  Sn44  1  -0.00027545  -0.00234477  0.68181386  1
  Sn2+  Sn45  1  0.82261291  0.49536154  0.00548317  1
  Sn2+  Sn46  1  0.66489635  0.50154780  0.83360766  1
  Sn2+  Sn47  1  0.33364280  0.50059473  0.84238095  1
  Sn2+  Sn48  1  -0.00022221  0.33273144  0.66883145  1
  Sn2+  Sn49  1  0.33672568  -0.00561914  0.33288248  1
  Sn2+  Sn50  1  0.50811518  -0.00174260  0.83987316  1
  Sn2+  Sn51  1  0.00356662  0.33044582  0.32435437  1
  Sn2+  Sn52  1  0.84594607  0.16804389  0.00555999  1
  Sn2+  Sn53  1  0.33673423  0.16067457  0.16847219  1
  Sn2+  Sn54  1  0.33912661  0.33303204  0.32551363  1
  Sn2+  Sn55  1  0.83362153  0.00505633  0.49074591  1
  Sn2+  Sn56  1  0.50133740  0.84312542  0.67767756  1
  Sn2+  Sn57  1  0.32789974  0.16900772  0.82871788  1
  Sn2+  Sn58  1  0.65887450  0.33314475  -0.00393672  1
  Sn2+  Sn59  1  0.65453913  0.00012675  -0.00091782  1
  Sn2+  Sn60  1  0.83273903  0.66640069  0.82981093  1
  Sn2+  Sn61  1  -0.00074865  0.49978339  0.49789548  1
  Sn2+  Sn62  1  0.17160369  0.66548278  0.83275082  1
  Sn2+  Sn63  1  0.33384152  0.66805536  0.00231833  1
  Sn2+  Sn64  1  0.50431828  0.00068174  0.47447962  1
  Bi3+  Bi65  1  0.33198445  0.33211118  0.66731244  1
  Bi3+  Bi66  1  0.33359680  0.33053979  0.00044722  1
  Bi3+  Bi67  1  0.83496667  0.66530341  0.49868152  1
  Bi3+  Bi68  1  0.16855246  0.83346440  0.66570883  1
  Bi3+  Bi69  1  0.33407970  0.50123954  0.50182919  1
  Bi3+  Bi70  1  0.66855178  0.66858413  0.33234772  1
  Bi3+  Bi71  1  0.33392155  0.83442016  0.83269412  1
  Bi3+  Bi72  1  0.00464835  0.66529302  0.66892457  1
  Bi3+  Bi73  1  0.16950921  0.32880249  0.16545679  1
  Bi3+  Bi74  1  0.50227292  0.16700032  0.00711559  1
  Bi3+  Bi75  1  0.82595602  0.16595912  0.33508383  1
  Bi3+  Bi76  1  0.16849620  0.00011355  0.49454412  1
  Bi3+  Bi77  1  0.66927968  0.16440469  0.16088897  1
  Bi3+  Bi78  1  0.00240021  0.83575054  0.16317066  1
  Bi3+  Bi79  1  0.66237773  0.84158166  0.83728384  1
  Bi3+  Bi80  1  0.33651945  0.00152482  0.66956753  1
  Bi3+  Bi81  1  0.33390533  0.16508170  0.49236609  1
  Bi3+  Bi82  1  0.66759869  0.66481987  0.00052698  1
  Bi3+  Bi83  1  0.66819273  0.83394660  0.16523020  1
  Bi3+  Bi84  1  0.33840178  0.83350609  0.49509562  1
  Bi3+  Bi85  1  0.16806488  0.33665472  0.83253474  1
  Te2-  Te86  1  0.17168972  0.16334481  0.17888062  1
  Te2-  Te87  1  0.17145111  0.16476714  0.47764036  1
  Te2-  Te88  1  0.16100070  0.17056396  0.83482910  1
  Te2-  Te89  1  0.17801078  0.49401356  0.16468097  1
  Te2-  Te90  1  0.17006186  0.50725106  0.50659938  1
  Te2-  Te91  1  0.16818753  0.49952474  0.83160418  1
  Te2-  Te92  1  0.16787462  0.83310693  0.17426318  1
  Te2-  Te93  1  0.17463295  0.83087310  0.49903306  1
  Te2-  Te94  1  0.17107198  0.83217040  0.83240997  1
  Te2-  Te95  1  0.50775939  0.17546114  0.17309524  1
  Te2-  Te96  1  0.49763196  0.16401730  0.48170128  1
  Te2-  Te97  1  0.50187423  0.15973984  0.83854475  1
  Te2-  Te98  1  0.49321956  0.48476834  0.15827551  1
  Te2-  Te99  1  0.49941298  0.49934882  0.50503098  1
  Te2-  Te100  1  0.50012814  0.50856499  0.83977391  1
  Te2-  Te101  1  0.50818118  0.83705429  0.15496469  1
  Te2-  Te102  1  0.50147711  0.83683710  0.50820450  1
  Te2-  Te103  1  0.49909506  0.83510744  0.84546254  1
  Te2-  Te104  1  0.83027843  0.18004350  0.17000598  1
  Te2-  Te105  1  0.83167124  0.17413857  0.50091387  1
  Te2-  Te106  1  0.83617787  0.16960685  0.82916626  1
  Te2-  Te107  1  0.83636538  0.48476848  0.16398296  1
  Te2-  Te108  1  0.82949863  0.49969857  0.51014213  1
  Te2-  Te109  1  0.83251111  0.50457824  0.82879749  1
  Te2-  Te110  1  0.83562181  0.83043786  0.17379429  1
  Te2-  Te111  1  0.82878106  0.83146886  0.49376621  1
  Te2-  Te112  1  0.82750193  0.83203993  0.83329012  1
  Te2-  Te113  1  0.18285469  0.00018136  0.00668158  1
  Te2-  Te114  1  0.17027039  -0.00199989  0.33624900  1
  Te2-  Te115  1  0.16973011  -0.00002758  0.66278452  1
  Te2-  Te116  1  0.17001244  0.34706419  -0.00161171  1
  Te2-  Te117  1  0.16986909  0.33860043  0.32759806  1
  Te2-  Te118  1  0.16843775  0.32815736  0.66602486  1
  Te2-  Te119  1  0.17253285  0.65269773  0.00590587  1
  Te2-  Te120  1  0.17293448  0.66216932  0.31973024  1
  Te2-  Te121  1  0.16705121  0.67048502  0.66962081  1
  Te2-  Te122  1  0.49204096  0.00730561  0.01300587  1
  Te2-  Te123  1  0.51007033  -0.01393140  0.32023497  1
  Te2-  Te124  1  0.50056299  0.01169794  0.66927214  1
  Te2-  Te125  1  0.49759723  0.32643499  -0.01478503  1
  Te2-  Te126  1  0.49910860  0.33697817  0.33240495  1
  Te2-  Te127  1  0.49249800  0.32387251  0.68320576  1
  Te2-  Te128  1  0.50339532  0.66736882  0.01333659  1
  Te2-  Te129  1  0.50819496  0.67500413  0.32043044  1
  Te2-  Te130  1  0.49957900  0.67029637  0.66550106  1
  Te2-  Te131  1  0.82842185  0.00588168  0.00393104  1
  Te2-  Te132  1  0.82169009  0.00153205  0.33524774  1
  Te2-  Te133  1  0.83156586  0.00963600  0.66017622  1
  Te2-  Te134  1  0.82886701  0.33677568  -0.01695908  1
  Te2-  Te135  1  0.83369494  0.34303531  0.33584697  1
  Te2-  Te136  1  0.83484736  0.33247008  0.67613737  1
  Te2-  Te137  1  0.83063819  0.66451376  -0.00248978  1
  Te2-  Te138  1  0.83126875  0.64821812  0.33736769  1
  Te2-  Te139  1  0.83667102  0.66925694  0.66229167  1
  Te2-  Te140  1  0.00014427  0.15331471  -0.00344688  1
  Te2-  Te141  1  -0.01154781  0.16765381  0.33015031  1
  Te2-  Te142  1  -0.00374178  0.16583027  0.67057377  1
  Te2-  Te143  1  -0.00430367  0.49955425  -0.00253127  1
  Te2-  Te144  1  0.01436763  0.49510947  0.33564845  1
  Te2-  Te145  1  -0.00723603  0.50246239  0.66548164  1
  Te2-  Te146  1  0.00366891  0.84546441  0.00165956  1
  Te2-  Te147  1  0.00248718  0.83110901  0.33104230  1
  Te2-  Te148  1  0.00619625  0.83066462  0.67305852  1
  Te2-  Te149  1  0.33729668  0.16889220  -0.00283373  1
  Te2-  Te150  1  0.33989388  0.16442872  0.33176096  1
  Te2-  Te151  1  0.33510162  0.16595886  0.65972387  1
  Te2-  Te152  1  0.34770525  0.49563486  0.00092038  1
  Te2-  Te153  1  0.32693634  0.50899626  0.34056468  1
  Te2-  Te154  1  0.33021495  0.49908642  0.66714114  1
  Te2-  Te155  1  0.34412813  0.83406086  -0.00464634  1
  Te2-  Te156  1  0.34258901  0.82084812  0.33556187  1
  Te2-  Te157  1  0.33340491  0.83483978  0.66631795  1
  Te2-  Te158  1  0.66808320  0.16691614  -0.00530961  1
  Te2-  Te159  1  0.66782299  0.15325322  0.32918964  1
  Te2-  Te160  1  0.66529243  0.17806884  0.67299279  1
  Te2-  Te161  1  0.65529431  0.50208922  -0.00352318  1
  Te2-  Te162  1  0.66313431  0.50045093  0.34250112  1
  Te2-  Te163  1  0.67181456  0.48913535  0.66458648  1
  Te2-  Te164  1  0.65762028  0.83117793  -0.00052517  1
  Te2-  Te165  1  0.66545888  0.83429275  0.32873398  1
  Te2-  Te166  1  0.66439372  0.83731815  0.67525029  1
  Te2-  Te167  1  -0.00593257  -0.00197271  0.15985048  1
  Te2-  Te168  1  0.00213225  0.00028937  0.50171062  1
  Te2-  Te169  1  -0.00942764  0.00450504  0.83602844  1
  Te2-  Te170  1  0.00477376  0.32157040  0.16434518  1
  Te2-  Te171  1  -0.00836701  0.33700626  0.49998373  1
  Te2-  Te172  1  0.00527620  0.34372711  0.82956626  1
  Te2-  Te173  1  0.00293731  0.66818550  0.16391717  1
  Te2-  Te174  1  0.00089942  0.66643326  0.50250519  1
  Te2-  Te175  1  0.00215674  0.65896741  0.82998887  1
  Te2-  Te176  1  0.33614005  -0.00686442  0.17207033  1
  Te2-  Te177  1  0.33547970  -0.00093966  0.50442676  1
  Te2-  Te178  1  0.33487299  0.00019747  0.82956981  1
  Te2-  Te179  1  0.33251824  0.32909462  0.16366117  1
  Te2-  Te180  1  0.33212708  0.33385946  0.50063926  1
  Te2-  Te181  1  0.33023518  0.33193072  0.83122679  1
  Te2-  Te182  1  0.34065734  0.66529219  0.16614981  1
  Te2-  Te183  1  0.33119316  0.66747543  0.50379305  1
  Te2-  Te184  1  0.33986354  0.67051653  0.83090443  1
  Te2-  Te185  1  0.68221581  -0.00056382  0.16019054  1
  Te2-  Te186  1  0.66678257  -0.00804861  0.51471464  1
  Te2-  Te187  1  0.68026697  0.00395779  0.82751115  1
  Te2-  Te188  1  0.67382344  0.33012035  0.16402052  1
  Te2-  Te189  1  0.67177179  0.33569565  0.50931000  1
  Te2-  Te190  1  0.66891306  0.33114907  0.82703282  1
  Te2-  Te191  1  0.66499829  0.66734271  0.16630170  1
  Te2-  Te192  1  0.67063033  0.67407756  0.49821344  1
  Te2-  Te193  1  0.66004745  0.67176764  0.83592845  1
  Pb2+  Pb194  1  -0.00271322  0.32284867  -0.00341599  1
  Pb2+  Pb195  1  0.00558218  0.49317287  0.16760803  1
  Pb2+  Pb196  1  0.66735037  0.65998561  0.66704129  1
  Pb2+  Pb197  1  0.17563716  0.83119497  0.00450332  1
  Pb2+  Pb198  1  0.00399305  0.83411495  0.50503230  1
  Pb2+  Pb199  1  0.83498461  0.84096865  0.66404348  1
  Pb2+  Pb200  1  0.82968289  0.83717902  0.00614324  1
  Pb2+  Pb201  1  0.00436180  0.67399542  -0.00383057  1
  Pb2+  Pb202  1  -0.00302039  -0.00032714  0.32889796  1
  Pb2+  Pb203  1  0.16724923  0.16984164  0.00666775  1
  Pb2+  Pb204  1  0.83258047  0.66206427  0.16806259  1
  Pb2+  Pb205  1  0.16196569  -0.00022226  0.83901575  1
  Pb2+  Pb206  1  0.00481880  0.16793980  0.50354911  1
  Pb2+  Pb207  1  0.49266199  0.50660480  0.32791166  1
  Pb2+  Pb208  1  0.66401377  0.15962767  0.50296755  1
  Pb2+  Pb209  1  0.49914391  0.49748380  0.67431345  1
  Pb2+  Pb210  1  0.66625887  0.32239182  0.33447658  1
  Pb2+  Pb211  1  0.50073301  0.32871397  0.51127237  1
  Pb2+  Pb212  1  0.50023727  0.66892257  0.49219876  1
  Pb2+  Pb213  1  0.00239394  0.66213829  0.33144440  1
  Pb2+  Pb214  1  0.16189323  0.33687220  0.49475953  1
  Pb2+  Pb215  1  0.66426708  0.49855318  0.16613054  1
