# generated using pymatgen
data_In22Ag21Sn22Bi21(Te54Pb11)2
_symmetry_space_group_name_H-M   'P 1'
_cell_length_a   19.17483924
_cell_length_b   19.15268670
_cell_length_c   19.17211477
_cell_angle_alpha   89.98280624
_cell_angle_beta   89.99950510
_cell_angle_gamma   90.00416532
_symmetry_Int_Tables_number   1
_chemical_formula_structural   In22Ag21Sn22Bi21(Te54Pb11)2
_chemical_formula_sum   'In22 Ag21 Sn22 Bi21 Te108 Pb22'
_cell_volume   7040.95284214
_cell_formula_units_Z   1
loop_
 _symmetry_equiv_pos_site_id
 _symmetry_equiv_pos_as_xyz
  1  'x, y, z'
loop_
 _atom_type_symbol
 _atom_type_oxidation_number
  In3+  3.0
  Ag+  1.0
  Sn2+  2.0
  Bi3+  3.0
  Te2-  -2.0
  Pb2+  2.0
loop_
 _atom_site_type_symbol
 _atom_site_label
 _atom_site_symmetry_multiplicity
 _atom_site_fract_x
 _atom_site_fract_y
 _atom_site_fract_z
 _atom_site_occupancy
  In3+  In0  1  0.81869612  0.50083173  0.65022700  1
  In3+  In1  1  0.83029200  0.18281096  0.00368624  1
  In3+  In2  1  0.82720837  0.34025037  0.83974292  1
  In3+  In3  1  0.16648591  0.50184805  0.66765084  1
  In3+  In4  1  0.16446707  0.18508296  0.68451715  1
  In3+  In5  1  0.16725241  0.82542261  0.34761922  1
  In3+  In6  1  0.68348167  0.49949122  0.17290568  1
  In3+  In7  1  0.83363856  0.50542548  0.34821789  1
  In3+  In8  1  0.33611200  0.32282052  0.66209888  1
  In3+  In9  1  0.83461187  0.33563729  0.48509045  1
  In3+  In10  1  0.16794459  0.49633698  0.01594899  1
  In3+  In11  1  0.31366575  0.17130330  0.83705067  1
  In3+  In12  1  0.51475924  0.50829627  0.00353811  1
  In3+  In13  1  0.50342013  -0.00054419  0.18907296  1
  In3+  In14  1  0.16843427  0.16800196  0.30362444  1
  In3+  In15  1  0.01658930  0.33315451  -0.01321421  1
  In3+  In16  1  0.00503037  0.82290468  0.15035183  1
  In3+  In17  1  0.17088171  0.66524696  0.82944089  1
  In3+  In18  1  0.68682147  0.33174963  0.64748561  1
  In3+  In19  1  0.15441144  0.33033917  0.49108646  1
  In3+  In20  1  0.82132555  -0.01844677  0.50784712  1
  In3+  In21  1  0.68229052  0.67819473  -0.00048679  1
  Ag+  Ag22  1  0.16984555  0.32719016  0.13147818  1
  Ag+  Ag23  1  0.36572133  0.63808276  0.63008447  1
  Ag+  Ag24  1  0.31161185  0.33524722  0.36120634  1
  Ag+  Ag25  1  0.69580887  0.69136682  0.36406562  1
  Ag+  Ag26  1  0.35381998  0.83647067  0.47846055  1
  Ag+  Ag27  1  -0.01426510  0.68887488  0.34151907  1
  Ag+  Ag28  1  0.70606334  0.69092259  0.63762735  1
  Ag+  Ag29  1  0.52825762  -0.02443209  0.48687160  1
  Ag+  Ag30  1  0.63586764  -0.02251870  0.66396809  1
  Ag+  Ag31  1  -0.01833656  0.18860970  0.82973562  1
  Ag+  Ag32  1  0.16845471  0.85289514  0.02218562  1
  Ag+  Ag33  1  0.14025591  0.14758922  -0.01522634  1
  Ag+  Ag34  1  0.52596908  0.17175037  0.64280346  1
  Ag+  Ag35  1  0.00001813  0.48876125  0.50978526  1
  Ag+  Ag36  1  0.64390407  0.14114399  0.16563520  1
  Ag+  Ag37  1  0.80525402  0.86517926  0.64281891  1
  Ag+  Ag38  1  0.64181373  0.49890568  0.52073097  1
  Ag+  Ag39  1  0.80020743  0.19485349  0.36292434  1
  Ag+  Ag40  1  0.18632694  0.36230847  0.83462094  1
  Ag+  Ag41  1  0.80340029  0.68695622  0.47008980  1
  Ag+  Ag42  1  0.81682811  0.49198565  0.00020728  1
  Sn2+  Sn43  1  0.33917831  -0.00013243  -0.00232555  1
  Sn2+  Sn44  1  0.15919973  0.66088597  0.49827192  1
  Sn2+  Sn45  1  0.49705457  0.17441740  0.33748722  1
  Sn2+  Sn46  1  -0.00097763  0.49894549  0.82875415  1
  Sn2+  Sn47  1  0.32279898  0.83485668  0.17344875  1
  Sn2+  Sn48  1  0.49902352  0.32636939  0.83141341  1
  Sn2+  Sn49  1  0.16731354  0.66004545  0.16349499  1
  Sn2+  Sn50  1  -0.00308410  0.49721442  0.17411717  1
  Sn2+  Sn51  1  0.00636530  0.65333895  0.00945328  1
  Sn2+  Sn52  1  0.50164916  0.67198804  0.16634939  1
  Sn2+  Sn53  1  0.32895727  0.67180469  -0.00320861  1
  Sn2+  Sn54  1  0.16204957  -0.00546632  0.83497015  1
  Sn2+  Sn55  1  0.83070041  -0.00459002  0.83014937  1
  Sn2+  Sn56  1  0.83946329  0.83991501  0.33239560  1
  Sn2+  Sn57  1  0.50062589  0.16656028  -0.00351853  1
  Sn2+  Sn58  1  0.67055081  0.83559969  0.83137753  1
  Sn2+  Sn59  1  0.47830988  0.83160433  0.00599557  1
  Sn2+  Sn60  1  0.49242633  0.33205832  0.16571884  1
  Sn2+  Sn61  1  0.00716100  0.33406419  0.67017951  1
  Sn2+  Sn62  1  0.49812793  0.82753813  0.33750772  1
  Sn2+  Sn63  1  0.33126922  0.50195829  0.83250571  1
  Sn2+  Sn64  1  0.33330622  0.83637337  0.82731227  1
  Bi3+  Bi65  1  0.49749574  0.33276446  0.50184698  1
  Bi3+  Bi66  1  0.00199021  -0.00101774  0.33537200  1
  Bi3+  Bi67  1  0.33348468  -0.00273150  0.66620866  1
  Bi3+  Bi68  1  0.00436974  0.32922820  0.32902120  1
  Bi3+  Bi69  1  0.83699355  0.66463599  0.16368776  1
  Bi3+  Bi70  1  0.00204015  0.66117973  0.65908272  1
  Bi3+  Bi71  1  0.00455079  0.16747338  0.16311103  1
  Bi3+  Bi72  1  0.00122859  0.82979969  0.83198624  1
  Bi3+  Bi73  1  0.33789927  0.16922151  0.16283300  1
  Bi3+  Bi74  1  0.00222670  0.82724456  0.50211002  1
  Bi3+  Bi75  1  0.66477804  0.33442676  0.32894044  1
  Bi3+  Bi76  1  0.33669003  0.33463245  -0.00427863  1
  Bi3+  Bi77  1  0.83555430  -0.00014078  0.16801759  1
  Bi3+  Bi78  1  0.33193299  0.66363288  0.33250800  1
  Bi3+  Bi79  1  0.16251425  0.82968081  0.67058374  1
  Bi3+  Bi80  1  0.49806905  0.00228253  0.82958642  1
  Bi3+  Bi81  1  0.66415081  0.33214497  0.00368371  1
  Bi3+  Bi82  1  0.49425388  0.66674045  0.83711052  1
  Bi3+  Bi83  1  0.83512925  0.66142936  0.83446626  1
  Bi3+  Bi84  1  0.00218487  -0.00410733  0.66805572  1
  Bi3+  Bi85  1  0.16226483  0.50081106  0.33453291  1
  Te2-  Te86  1  0.16891530  0.17483355  0.14809328  1
  Te2-  Te87  1  0.16644717  0.17828382  0.51565188  1
  Te2-  Te88  1  0.16440967  0.15993427  0.83880693  1
  Te2-  Te89  1  0.16494043  0.49134231  0.17202264  1
  Te2-  Te90  1  0.15495137  0.48982871  0.49830772  1
  Te2-  Te91  1  0.16451691  0.50838022  0.82548171  1
  Te2-  Te92  1  0.16240527  0.83058357  0.16776495  1
  Te2-  Te93  1  0.16399941  0.83126878  0.50324656  1
  Te2-  Te94  1  0.16401885  0.82446431  0.83244443  1
  Te2-  Te95  1  0.49832303  0.16026495  0.16679979  1
  Te2-  Te96  1  0.49954780  0.17166367  0.49788956  1
  Te2-  Te97  1  0.49919771  0.16664529  0.83789547  1
  Te2-  Te98  1  0.50004510  0.50237583  0.15885547  1
  Te2-  Te99  1  0.49400649  0.49402630  0.50126243  1
  Te2-  Te100  1  0.49872771  0.50106941  0.84307788  1
  Te2-  Te101  1  0.49476050  0.84361360  0.16950233  1
  Te2-  Te102  1  0.49816172  0.83333743  0.50105167  1
  Te2-  Te103  1  0.49918181  0.83315955  0.83902063  1
  Te2-  Te104  1  0.84371301  0.16082404  0.15844858  1
  Te2-  Te105  1  0.83550049  0.18181531  0.50322226  1
  Te2-  Te106  1  0.83639475  0.16329739  0.84681962  1
  Te2-  Te107  1  0.83712045  0.50156167  0.15210757  1
  Te2-  Te108  1  0.84746155  0.49182397  0.50063999  1
  Te2-  Te109  1  0.83873939  0.49895244  0.84900535  1
  Te2-  Te110  1  0.84154701  0.83135931  0.16749685  1
  Te2-  Te111  1  0.83724587  0.82599464  0.50248246  1
  Te2-  Te112  1  0.83572421  0.82593619  0.83100276  1
  Te2-  Te113  1  0.16886947  0.00194657  -0.00321842  1
  Te2-  Te114  1  0.16419744  0.00360023  0.33199099  1
  Te2-  Te115  1  0.16470984  -0.00700388  0.66906175  1
  Te2-  Te116  1  0.17037459  0.34128987  -0.01433295  1
  Te2-  Te117  1  0.16563880  0.33320603  0.33709281  1
  Te2-  Te118  1  0.16881135  0.33684866  0.68546191  1
  Te2-  Te119  1  0.16437227  0.65287631  -0.00024319  1
  Te2-  Te120  1  0.16984723  0.66415591  0.33110159  1
  Te2-  Te121  1  0.16403529  0.66447253  0.66786178  1
  Te2-  Te122  1  0.50114544  -0.00128341  -0.00742116  1
  Te2-  Te123  1  0.50299642  0.00063235  0.34313836  1
  Te2-  Te124  1  0.49341696  0.01644661  0.66988031  1
  Te2-  Te125  1  0.49995269  0.33755904  0.00018988  1
  Te2-  Te126  1  0.50309719  0.33538965  0.33229539  1
  Te2-  Te127  1  0.49074730  0.32163716  0.66632826  1
  Te2-  Te128  1  0.49578180  0.66606039  0.00029102  1
  Te2-  Te129  1  0.49615392  0.66871958  0.32838471  1
  Te2-  Te130  1  0.50026584  0.66403489  0.67812063  1
  Te2-  Te131  1  0.83331893  -0.00682329  0.00207330  1
  Te2-  Te132  1  0.83999889  -0.00035856  0.33601926  1
  Te2-  Te133  1  0.83998361  0.00534432  0.66231481  1
  Te2-  Te134  1  0.83043581  0.34044152  -0.00218266  1
  Te2-  Te135  1  0.83615071  0.33412498  0.32908830  1
  Te2-  Te136  1  0.83799909  0.34434155  0.68211805  1
  Te2-  Te137  1  0.83994238  0.65845172  0.00134987  1
  Te2-  Te138  1  0.83866033  0.65830651  0.32645715  1
  Te2-  Te139  1  0.84048100  0.64988832  0.67333743  1
  Te2-  Te140  1  -0.00343834  0.17806233  -0.00478860  1
  Te2-  Te141  1  0.00893981  0.16482523  0.33041880  1
  Te2-  Te142  1  0.00819093  0.16156465  0.68203202  1
  Te2-  Te143  1  0.01417682  0.49123057  0.00313686  1
  Te2-  Te144  1  -0.00091893  0.49063015  0.33380992  1
  Te2-  Te145  1  0.00844366  0.50030145  0.65979247  1
  Te2-  Te146  1  0.01702944  0.82895017  -0.00267298  1
  Te2-  Te147  1  0.00658534  0.83487515  0.33847038  1
  Te2-  Te148  1  -0.00323252  0.82908588  0.66698724  1
  Te2-  Te149  1  0.33844910  0.17051692  -0.00326411  1
  Te2-  Te150  1  0.32555938  0.18269800  0.32787511  1
  Te2-  Te151  1  0.32230157  0.16546205  0.67560495  1
  Te2-  Te152  1  0.32296057  0.49766510  -0.00436347  1
  Te2-  Te153  1  0.32924973  0.49407739  0.33301402  1
  Te2-  Te154  1  0.32240034  0.50295835  0.66804440  1
  Te2-  Te155  1  0.31859398  0.83365009  0.00163731  1
  Te2-  Te156  1  0.32730259  0.83295070  0.33372525  1
  Te2-  Te157  1  0.32514076  0.83479468  0.67042481  1
  Te2-  Te158  1  0.67243528  0.17018798  0.01469441  1
  Te2-  Te159  1  0.66392433  0.17069640  0.31914016  1
  Te2-  Te160  1  0.67050829  0.18301400  0.66717577  1
  Te2-  Te161  1  0.66725322  0.49697940  0.00564714  1
  Te2-  Te162  1  0.67909497  0.49718288  0.32619855  1
  Te2-  Te163  1  0.66704224  0.48590059  0.66667084  1
  Te2-  Te164  1  0.66528320  0.83017120  -0.00053257  1
  Te2-  Te165  1  0.66746040  0.83028283  0.33519286  1
  Te2-  Te166  1  0.66676591  0.82758303  0.67004669  1
  Te2-  Te167  1  0.00052117  -0.00076007  0.17003391  1
  Te2-  Te168  1  -0.00466890  -0.00405781  0.50070143  1
  Te2-  Te169  1  -0.00605428  -0.00790087  0.83147057  1
  Te2-  Te170  1  0.01309573  0.32825332  0.16495716  1
  Te2-  Te171  1  -0.00126084  0.33562564  0.49908209  1
  Te2-  Te172  1  -0.00684131  0.33401831  0.83607426  1
  Te2-  Te173  1  0.00063672  0.66994645  0.17878581  1
  Te2-  Te174  1  0.00127871  0.66602377  0.49408055  1
  Te2-  Te175  1  -0.00108792  0.66668977  0.83318886  1
  Te2-  Te176  1  0.34133092  0.00553716  0.16734593  1
  Te2-  Te177  1  0.33154605  -0.00750547  0.50285877  1
  Te2-  Te178  1  0.33391057  0.00290181  0.83233615  1
  Te2-  Te179  1  0.32761709  0.32963494  0.15770146  1
  Te2-  Te180  1  0.33327272  0.33371262  0.50715972  1
  Te2-  Te181  1  0.33127919  0.32954147  0.83157212  1
  Te2-  Te182  1  0.33427320  0.67054802  0.16861820  1
  Te2-  Te183  1  0.32909040  0.67904932  0.49357334  1
  Te2-  Te184  1  0.33188386  0.66822938  0.83521793  1
  Te2-  Te185  1  0.67049001  -0.00375410  0.16759435  1
  Te2-  Te186  1  0.66871304  0.00291488  0.51577552  1
  Te2-  Te187  1  0.66457675  -0.00098135  0.81577417  1
  Te2-  Te188  1  0.66473163  0.34185285  0.16600976  1
  Te2-  Te189  1  0.66689911  0.34795917  0.49442192  1
  Te2-  Te190  1  0.66948045  0.33331617  0.84136196  1
  Te2-  Te191  1  0.67032881  0.65834699  0.15836026  1
  Te2-  Te192  1  0.66516929  0.64673881  0.50377237  1
  Te2-  Te193  1  0.66663935  0.66740001  0.84490798  1
  Pb2+  Pb194  1  0.17133691  0.00415153  0.16315590  1
  Pb2+  Pb195  1  0.84065127  0.82770055  -0.00318104  1
  Pb2+  Pb196  1  0.33456345  0.00930820  0.33699594  1
  Pb2+  Pb197  1  0.33312219  0.16296423  0.50322947  1
  Pb2+  Pb198  1  0.00105281  0.16604844  0.50377861  1
  Pb2+  Pb199  1  0.49510015  0.83571990  0.67067412  1
  Pb2+  Pb200  1  0.67124036  0.50200182  0.83405020  1
  Pb2+  Pb201  1  0.50110256  0.66380313  0.50372869  1
  Pb2+  Pb202  1  0.66823234  0.17326001  0.49389163  1
  Pb2+  Pb203  1  0.67335608  0.00021843  0.33983846  1
  Pb2+  Pb204  1  -0.00060739  0.00382564  -0.00043702  1
  Pb2+  Pb205  1  0.49435720  0.49348527  0.67347989  1
  Pb2+  Pb206  1  0.50715352  0.50237407  0.32955104  1
  Pb2+  Pb207  1  0.66640693  0.16626741  0.83720506  1
  Pb2+  Pb208  1  0.66530650  0.82193360  0.50280756  1
  Pb2+  Pb209  1  0.83806201  0.17298485  0.67588189  1
  Pb2+  Pb210  1  0.84069304  0.33073889  0.16366263  1
  Pb2+  Pb211  1  0.33439213  0.50029406  0.16470599  1
  Pb2+  Pb212  1  0.66459057  0.82636783  0.16843063  1
  Pb2+  Pb213  1  0.66716401  0.00066987  -0.00836942  1
  Pb2+  Pb214  1  0.32287270  0.50707725  0.49872670  1
  Pb2+  Pb215  1  0.16819127  0.00529862  0.50096751  1
