# generated using pymatgen
data_In22Ag21Sn22Bi21(Te54Pb11)2
_symmetry_space_group_name_H-M   'P 1'
_cell_length_a   19.18338560
_cell_length_b   19.18917564
_cell_length_c   19.19219241
_cell_angle_alpha   89.99832609
_cell_angle_beta   90.01283346
_cell_angle_gamma   89.99145929
_symmetry_Int_Tables_number   1
_chemical_formula_structural   In22Ag21Sn22Bi21(Te54Pb11)2
_chemical_formula_sum   'In22 Ag21 Sn22 Bi21 Te108 Pb22'
_cell_volume   7064.90209285
_cell_formula_units_Z   1
loop_
 _symmetry_equiv_pos_site_id
 _symmetry_equiv_pos_as_xyz
  1  'x, y, z'
loop_
 _atom_type_symbol
 _atom_type_oxidation_number
  In3+  3.0
  Ag+  1.0
  Sn2+  2.0
  Bi3+  3.0
  Te2-  -2.0
  Pb2+  2.0
loop_
 _atom_site_type_symbol
 _atom_site_label
 _atom_site_symmetry_multiplicity
 _atom_site_fract_x
 _atom_site_fract_y
 _atom_site_fract_z
 _atom_site_occupancy
  In3+  In0  1  0.66663344  0.66604186  0.00606310  1
  In3+  In1  1  0.33385022  0.85060231  0.85276685  1
  In3+  In2  1  0.32645182  0.49881423  0.48553704  1
  In3+  In3  1  0.32770008  0.00854488  0.67399885  1
  In3+  In4  1  0.82990710  0.67448864  0.14697444  1
  In3+  In5  1  0.18483497  0.66386680  0.17510848  1
  In3+  In6  1  0.68265372  0.48421440  0.16750192  1
  In3+  In7  1  0.68304798  0.83373333  0.83661977  1
  In3+  In8  1  0.19721971  0.83201387  0.32395356  1
  In3+  In9  1  0.66845657  0.66604350  0.31672509  1
  In3+  In10  1  0.01015097  0.65952458  0.00472338  1
  In3+  In11  1  -0.00061552  -0.01325360  0.67182828  1
  In3+  In12  1  0.17560267  0.17398118  0.68430426  1
  In3+  In13  1  0.17276129  0.00456133  0.15408531  1
  In3+  In14  1  0.17825763  0.00258629  0.49014349  1
  In3+  In15  1  0.83590991  0.01483037  0.15038756  1
  In3+  In16  1  0.33701732  0.82826052  0.16380519  1
  In3+  In17  1  0.85914774  0.33040368  0.83873772  1
  In3+  In18  1  0.17761619  0.34548127  0.84218956  1
  In3+  In19  1  0.66339363  0.84085374  0.18085332  1
  In3+  In20  1  -0.00693330  0.52173271  0.83029516  1
  In3+  In21  1  0.83628056  -0.00376373  0.48727651  1
  Ag+  Ag22  1  0.80401306  0.17996616  0.01743708  1
  Ag+  Ag23  1  0.47265461  0.00517817  0.85670643  1
  Ag+  Ag24  1  0.34793942  0.19020400  0.85517761  1
  Ag+  Ag25  1  0.16752479  0.47214384  0.63873669  1
  Ag+  Ag26  1  0.02554880  0.52884247  0.20042042  1
  Ag+  Ag27  1  0.80733544  0.47594057  0.66348536  1
  Ag+  Ag28  1  0.46588338  0.37053706  0.13052226  1
  Ag+  Ag29  1  0.16110987  0.36453453  0.53020689  1
  Ag+  Ag30  1  0.33890883  0.36028335  0.68665296  1
  Ag+  Ag31  1  0.30963336  0.66506135  0.35445300  1
  Ag+  Ag32  1  -0.02182990  0.82946988  0.86130057  1
  Ag+  Ag33  1  0.33694845  0.30555202  0.02606994  1
  Ag+  Ag34  1  0.33797645  0.00953838  0.02497727  1
  Ag+  Ag35  1  0.46570791  0.01730148  0.14557896  1
  Ag+  Ag36  1  0.31164146  0.66385852  0.01843947  1
  Ag+  Ag37  1  0.81218101  0.81083462  0.66123895  1
  Ag+  Ag38  1  0.15361828  0.47802910  0.31087777  1
  Ag+  Ag39  1  0.50280718  0.82278307  0.31192099  1
  Ag+  Ag40  1  0.64195729  0.02210719  0.30205933  1
  Ag+  Ag41  1  0.18594525  0.17921334  0.01692485  1
  Ag+  Ag42  1  0.35821004  0.19919289  0.13316881  1
  Sn2+  Sn43  1  0.33029191  0.66326873  0.67180829  1
  Sn2+  Sn44  1  0.66364788  0.83310077  0.49771558  1
  Sn2+  Sn45  1  0.66573540  0.49985668  0.49394504  1
  Sn2+  Sn46  1  0.48579761  0.50624967  0.32615700  1
  Sn2+  Sn47  1  0.00191784  0.33884469  0.32898418  1
  Sn2+  Sn48  1  0.48484407  0.16132816  0.00680405  1
  Sn2+  Sn49  1  0.33839105  0.50450452  0.16287147  1
  Sn2+  Sn50  1  0.50333491  -0.00669322  0.49430193  1
  Sn2+  Sn51  1  0.84776871  0.33827170  0.50619469  1
  Sn2+  Sn52  1  0.65062693  0.33655714  0.66902490  1
  Sn2+  Sn53  1  0.82527006  0.83122289  0.34348741  1
  Sn2+  Sn54  1  0.82782798  0.66974539  0.50291890  1
  Sn2+  Sn55  1  0.50332228  0.67168197  0.16257703  1
  Sn2+  Sn56  1  0.49422665  0.50035483  -0.00086851  1
  Sn2+  Sn57  1  0.32970973  0.17285291  0.49184016  1
  Sn2+  Sn58  1  0.17296138  0.66396098  0.83610825  1
  Sn2+  Sn59  1  0.50045579  0.66433845  0.48824317  1
  Sn2+  Sn60  1  0.01010851  0.00573987  0.00020165  1
  Sn2+  Sn61  1  0.66018611  0.16310726  0.83579472  1
  Sn2+  Sn62  1  0.33635951  0.83074639  0.49991078  1
  Sn2+  Sn63  1  0.66162721  0.33830232  0.33997942  1
  Sn2+  Sn64  1  0.49490297  0.83539290  0.00030141  1
  Bi3+  Bi65  1  0.83498361  0.00393690  0.83115035  1
  Bi3+  Bi66  1  0.49764151  0.15593611  0.33392822  1
  Bi3+  Bi67  1  0.83436181  0.33418784  0.16777561  1
  Bi3+  Bi68  1  0.83617752  0.66409084  0.82861559  1
  Bi3+  Bi69  1  0.66850825  0.66724710  0.66611496  1
  Bi3+  Bi70  1  0.16530091  -0.00332604  0.83127612  1
  Bi3+  Bi71  1  0.00185378  0.66749074  0.66862701  1
  Bi3+  Bi72  1  0.33586646  0.33728325  0.33815998  1
  Bi3+  Bi73  1  0.50036640  0.83800565  0.66786431  1
  Bi3+  Bi74  1  0.83946645  0.16897084  0.66938963  1
  Bi3+  Bi75  1  0.00584057  0.33235713  0.66618991  1
  Bi3+  Bi76  1  0.49610597  0.33323345  0.49618410  1
  Bi3+  Bi77  1  0.00521656  0.16703613  0.16196992  1
  Bi3+  Bi78  1  0.33381449  0.50293212  0.83471559  1
  Bi3+  Bi79  1  0.00306096  0.15697421  0.83386255  1
  Bi3+  Bi80  1  -0.00112647  -0.00168568  0.33541170  1
  Bi3+  Bi81  1  0.17373800  0.83500386  0.66073059  1
  Bi3+  Bi82  1  0.66974394  0.00247297  0.66670223  1
  Bi3+  Bi83  1  0.00105197  0.83479448  0.50188536  1
  Bi3+  Bi84  1  0.16468516  0.33163580  0.16461953  1
  Bi3+  Bi85  1  0.49615687  0.32613100  0.83301361  1
  Te2-  Te86  1  0.16607785  0.16039772  0.16240058  1
  Te2-  Te87  1  0.17076004  0.15510974  0.49749529  1
  Te2-  Te88  1  0.16402751  0.15619370  0.83330931  1
  Te2-  Te89  1  0.16597944  0.50594515  0.16704162  1
  Te2-  Te90  1  0.17517749  0.50694102  0.49456689  1
  Te2-  Te91  1  0.16885199  0.49964526  0.83506282  1
  Te2-  Te92  1  0.16966490  0.82660533  0.17130178  1
  Te2-  Te93  1  0.16680337  0.83887126  0.49376867  1
  Te2-  Te94  1  0.17848172  0.83489666  0.82674138  1
  Te2-  Te95  1  0.49281366  0.15853692  0.17208948  1
  Te2-  Te96  1  0.49643203  0.16781619  0.49862558  1
  Te2-  Te97  1  0.49142680  0.16023645  0.83692690  1
  Te2-  Te98  1  0.50161344  0.50443666  0.16833108  1
  Te2-  Te99  1  0.50045210  0.49468574  0.49376373  1
  Te2-  Te100  1  0.49770058  0.49791919  0.83077214  1
  Te2-  Te101  1  0.51034890  0.83125876  0.16472654  1
  Te2-  Te102  1  0.50118265  0.83224510  0.50599934  1
  Te2-  Te103  1  0.48580017  0.85102747  0.82923412  1
  Te2-  Te104  1  0.83560654  0.16986034  0.16174579  1
  Te2-  Te105  1  0.83503114  0.16947042  0.50506994  1
  Te2-  Te106  1  0.83743457  0.16737802  0.83158093  1
  Te2-  Te107  1  0.83446518  0.49463898  0.16724965  1
  Te2-  Te108  1  0.83158374  0.49378444  0.51268282  1
  Te2-  Te109  1  0.83698640  0.49850858  0.82240944  1
  Te2-  Te110  1  0.82208909  0.82341551  0.16966876  1
  Te2-  Te111  1  0.83758147  0.83883509  0.51360915  1
  Te2-  Te112  1  0.83713546  0.83476278  0.82098988  1
  Te2-  Te113  1  0.17831543  -0.00158057  0.00110832  1
  Te2-  Te114  1  0.16320044  -0.01074460  0.32980481  1
  Te2-  Te115  1  0.16781751  -0.00390049  0.66445469  1
  Te2-  Te116  1  0.18368436  0.32600258  0.00280524  1
  Te2-  Te117  1  0.17192949  0.33341835  0.32509242  1
  Te2-  Te118  1  0.17120668  0.32683095  0.67150059  1
  Te2-  Te119  1  0.16273701  0.66728088  0.00488566  1
  Te2-  Te120  1  0.16496626  0.67876595  0.32638318  1
  Te2-  Te121  1  0.16305507  0.67225569  0.67043687  1
  Te2-  Te122  1  0.48947537  -0.00499895  0.00300885  1
  Te2-  Te123  1  0.50519893  -0.00796213  0.33822744  1
  Te2-  Te124  1  0.50529359  -0.00115835  0.65951086  1
  Te2-  Te125  1  0.48647061  0.32978667  -0.00643565  1
  Te2-  Te126  1  0.49729858  0.33028756  0.33521233  1
  Te2-  Te127  1  0.48567257  0.33220526  0.66405193  1
  Te2-  Te128  1  0.51413911  0.66530292  -0.00342168  1
  Te2-  Te129  1  0.51616154  0.67213421  0.33072781  1
  Te2-  Te130  1  0.50441659  0.67173217  0.66493910  1
  Te2-  Te131  1  0.83471338  0.00635827  -0.00363601  1
  Te2-  Te132  1  0.83465526  -0.00476853  0.33527648  1
  Te2-  Te133  1  0.83520217  0.00683706  0.67060550  1
  Te2-  Te134  1  0.83148593  0.32496645  -0.00003950  1
  Te2-  Te135  1  0.83271157  0.33221599  0.33299919  1
  Te2-  Te136  1  0.84052723  0.33263646  0.66902037  1
  Te2-  Te137  1  0.82751938  0.66564991  -0.00875623  1
  Te2-  Te138  1  0.82445622  0.66467558  0.33950895  1
  Te2-  Te139  1  0.83712730  0.66515155  0.66859052  1
  Te2-  Te140  1  0.00512334  0.16278183  -0.00175013  1
  Te2-  Te141  1  0.00043683  0.16382688  0.32805002  1
  Te2-  Te142  1  0.00473468  0.16927117  0.67129580  1
  Te2-  Te143  1  0.00051081  0.50242127  -0.01430062  1
  Te2-  Te144  1  0.00791707  0.49735540  0.34041045  1
  Te2-  Te145  1  0.01674362  0.49762111  0.67844601  1
  Te2-  Te146  1  -0.00065276  0.83377500  0.00508557  1
  Te2-  Te147  1  -0.00873738  0.83509500  0.33776014  1
  Te2-  Te148  1  0.01005653  0.82928089  0.66260789  1
  Te2-  Te149  1  0.32992373  0.15432435  -0.00378843  1
  Te2-  Te150  1  0.33748262  0.16482875  0.33052002  1
  Te2-  Te151  1  0.32599873  0.15910073  0.65878887  1
  Te2-  Te152  1  0.33811514  0.51520635  -0.00159614  1
  Te2-  Te153  1  0.32698298  0.51141087  0.33201780  1
  Te2-  Te154  1  0.31824878  0.50436792  0.67122291  1
  Te2-  Te155  1  0.33591680  0.81314191  0.00211780  1
  Te2-  Te156  1  0.34803222  0.81567586  0.33315469  1
  Te2-  Te157  1  0.33502139  0.83120593  0.65964475  1
  Te2-  Te158  1  0.66065371  0.16327730  -0.00504887  1
  Te2-  Te159  1  0.66336572  0.16388761  0.33321658  1
  Te2-  Te160  1  0.67144321  0.16767280  0.67070738  1
  Te2-  Te161  1  0.66572473  0.50125073  0.00697792  1
  Te2-  Te162  1  0.66327867  0.50205377  0.32700102  1
  Te2-  Te163  1  0.66338712  0.50253257  0.66583679  1
  Te2-  Te164  1  0.66648001  0.82614971  -0.01096840  1
  Te2-  Te165  1  0.65883212  0.82314343  0.33105338  1
  Te2-  Te166  1  0.66509972  0.83450000  0.66994661  1
  Te2-  Te167  1  -0.00679849  0.00224271  0.17013248  1
  Te2-  Te168  1  -0.00135070  -0.00267081  0.49799174  1
  Te2-  Te169  1  -0.00003004  -0.00992431  0.83570747  1
  Te2-  Te170  1  0.00123935  0.33189373  0.16401130  1
  Te2-  Te171  1  0.01586310  0.33249442  0.50175053  1
  Te2-  Te172  1  0.01725074  0.32326618  0.83025238  1
  Te2-  Te173  1  -0.01571945  0.66209319  0.15755861  1
  Te2-  Te174  1  -0.00304687  0.66960653  0.50271541  1
  Te2-  Te175  1  -0.00013209  0.67989522  0.83424607  1
  Te2-  Te176  1  0.32619331  -0.01933395  0.16870791  1
  Te2-  Te177  1  0.33169564  -0.00259852  0.50104574  1
  Te2-  Te178  1  0.32909357  0.00140107  0.82525224  1
  Te2-  Te179  1  0.32812553  0.33879899  0.17388597  1
  Te2-  Te180  1  0.33023687  0.34088998  0.49627404  1
  Te2-  Te181  1  0.33110437  0.33388083  0.83067825  1
  Te2-  Te182  1  0.33566840  0.67220033  0.16575167  1
  Te2-  Te183  1  0.34156123  0.65880170  0.49911865  1
  Te2-  Te184  1  0.33378131  0.66460628  0.83167638  1
  Te2-  Te185  1  0.68090505  -0.00822361  0.16605572  1
  Te2-  Te186  1  0.67704715  -0.00581792  0.50534117  1
  Te2-  Te187  1  0.67118739  -0.00518149  0.82912875  1
  Te2-  Te188  1  0.66957324  0.33231478  0.16936330  1
  Te2-  Te189  1  0.66252983  0.33442533  0.50440594  1
  Te2-  Te190  1  0.65710241  0.33146494  0.82952615  1
  Te2-  Te191  1  0.67425739  0.66321748  0.16422395  1
  Te2-  Te192  1  0.66939935  0.66568572  0.50680029  1
  Te2-  Te193  1  0.67124762  0.67097328  0.82812707  1
  Pb2+  Pb194  1  0.66463397  0.16241340  0.50072807  1
  Pb2+  Pb195  1  0.65626549  0.16357665  0.16346957  1
  Pb2+  Pb196  1  0.17139798  0.67012087  0.50244822  1
  Pb2+  Pb197  1  0.17032357  0.16448647  0.33174619  1
  Pb2+  Pb198  1  0.83366141  0.84007093  -0.00118414  1
  Pb2+  Pb199  1  0.49556401  0.16388020  0.67163279  1
  Pb2+  Pb200  1  0.65662074  -0.00463698  -0.00209710  1
  Pb2+  Pb201  1  0.17186707  0.49622924  0.00118538  1
  Pb2+  Pb202  1  0.66754860  0.50035472  0.83486385  1
  Pb2+  Pb203  1  0.65714504  0.33224011  -0.00009120  1
  Pb2+  Pb204  1  0.00131405  0.49940148  0.51217460  1
  Pb2+  Pb205  1  0.00596606  0.32988501  -0.00345534  1
  Pb2+  Pb206  1  0.34032925  -0.01053609  0.33571327  1
  Pb2+  Pb207  1  0.49887938  0.67955744  0.83324983  1
  Pb2+  Pb208  1  -0.00508374  0.66710103  0.33086129  1
  Pb2+  Pb209  1  0.48601290  0.50294866  0.66046384  1
  Pb2+  Pb210  1  0.00393301  0.16487480  0.50241625  1
  Pb2+  Pb211  1  -0.00141390  0.83273623  0.17048907  1
  Pb2+  Pb212  1  0.83258597  0.16247951  0.33313570  1
  Pb2+  Pb213  1  0.83371383  0.49814634  0.33906592  1
  Pb2+  Pb214  1  0.16751291  0.83520453  -0.00195435  1
  Pb2+  Pb215  1  0.83498226  0.49352303  -0.00274913  1
