# generated using pymatgen
data_In22Ag21Sn22Bi21(Te54Pb11)2
_symmetry_space_group_name_H-M   'P 1'
_cell_length_a   19.17332296
_cell_length_b   19.20015463
_cell_length_c   19.16478953
_cell_angle_alpha   90.00003224
_cell_angle_beta   89.98305660
_cell_angle_gamma   89.99028843
_symmetry_Int_Tables_number   1
_chemical_formula_structural   In22Ag21Sn22Bi21(Te54Pb11)2
_chemical_formula_sum   'In22 Ag21 Sn22 Bi21 Te108 Pb22'
_cell_volume   7055.14823324
_cell_formula_units_Z   1
loop_
 _symmetry_equiv_pos_site_id
 _symmetry_equiv_pos_as_xyz
  1  'x, y, z'
loop_
 _atom_type_symbol
 _atom_type_oxidation_number
  In3+  3.0
  Ag+  1.0
  Sn2+  2.0
  Bi3+  3.0
  Te2-  -2.0
  Pb2+  2.0
loop_
 _atom_site_type_symbol
 _atom_site_label
 _atom_site_symmetry_multiplicity
 _atom_site_fract_x
 _atom_site_fract_y
 _atom_site_fract_z
 _atom_site_occupancy
  In3+  In0  1  0.48668764  0.00229807  0.48797775  1
  In3+  In1  1  0.33289620  0.31237138  0.33410064  1
  In3+  In2  1  0.18416616  0.16102785  0.66189786  1
  In3+  In3  1  0.00864398  -0.00085682  0.30820575  1
  In3+  In4  1  0.18596827  0.65307215  0.49565334  1
  In3+  In5  1  0.31775601  0.84826923  0.82807346  1
  In3+  In6  1  0.16684517  0.33608391  0.79949114  1
  In3+  In7  1  -0.00149122  -0.01635330  -0.00369306  1
  In3+  In8  1  0.68068143  0.84091362  0.14868389  1
  In3+  In9  1  0.17005136  0.47957893  0.33600398  1
  In3+  In10  1  0.49192319  0.84951528  -0.00032335  1
  In3+  In11  1  0.34704640  0.00586567  0.67482252  1
  In3+  In12  1  0.49664922  0.50889215  0.67251258  1
  In3+  In13  1  0.63779263  0.16803745  0.83313462  1
  In3+  In14  1  0.33146279  0.83194260  0.18503110  1
  In3+  In15  1  0.67772154  0.83509172  0.82385299  1
  In3+  In16  1  0.83403446  0.15109201  0.00832990  1
  In3+  In17  1  0.50037680  0.68253634  0.83045868  1
  In3+  In18  1  0.01138994  0.33575400  0.01346388  1
  In3+  In19  1  0.49143110  0.31714714  0.48688781  1
  In3+  In20  1  0.32195035  0.84616150  0.50216238  1
  In3+  In21  1  0.50178726  0.64906481  0.49094844  1
  Ag+  Ag22  1  0.00302027  0.70122757  0.36133808  1
  Ag+  Ag23  1  0.30754703  0.14287842  0.85980628  1
  Ag+  Ag24  1  0.02806721  0.68575709  0.02102854  1
  Ag+  Ag25  1  0.18553895  0.03117362  0.83542034  1
  Ag+  Ag26  1  0.52148129  -0.02227053  0.82967012  1
  Ag+  Ag27  1  0.85730461  0.00089841  0.17799973  1
  Ag+  Ag28  1  0.35594190  0.02322482  0.30291300  1
  Ag+  Ag29  1  0.49495067  -0.02985250  0.18938083  1
  Ag+  Ag30  1  0.20022554  0.66055002  0.86053619  1
  Ag+  Ag31  1  0.20164882  0.53701428  0.69056600  1
  Ag+  Ag32  1  0.35760155  0.47346420  0.19227616  1
  Ag+  Ag33  1  0.32254958  0.14729821  0.50041515  1
  Ag+  Ag34  1  0.82849126  0.85673533  0.66409470  1
  Ag+  Ag35  1  0.19052370  0.30709510  0.49788535  1
  Ag+  Ag36  1  0.17186178  0.14023308  0.30935314  1
  Ag+  Ag37  1  0.82778663  0.35845874  0.13931408  1
  Ag+  Ag38  1  -0.02774488  0.80160505  0.18222908  1
  Ag+  Ag39  1  0.46023680  0.14647867  0.30344624  1
  Ag+  Ag40  1  0.83108820  0.30425048  0.48241660  1
  Ag+  Ag41  1  0.46685555  0.51949905  0.34504991  1
  Ag+  Ag42  1  0.66428478  0.64811303  0.64744043  1
  Sn2+  Sn43  1  0.33388504  0.66638651  0.00054062  1
  Sn2+  Sn44  1  -0.00205499  0.83865360  0.49605806  1
  Sn2+  Sn45  1  0.83932536  0.67831373  0.16654481  1
  Sn2+  Sn46  1  0.83780012  0.50516187  0.66472290  1
  Sn2+  Sn47  1  0.66003109  0.17334876  0.49746295  1
  Sn2+  Sn48  1  0.33126110  0.49626133  0.83978221  1
  Sn2+  Sn49  1  0.32245307  0.66751016  0.32759853  1
  Sn2+  Sn50  1  0.83986934  0.16886570  0.33279195  1
  Sn2+  Sn51  1  0.66835358  0.16150974  0.17103943  1
  Sn2+  Sn52  1  -0.00023956  0.16393069  0.83241306  1
  Sn2+  Sn53  1  0.66300695  0.00394859  0.00560139  1
  Sn2+  Sn54  1  0.83156520  0.83036217  -0.00806295  1
  Sn2+  Sn55  1  0.16380770  0.66492400  0.17879669  1
  Sn2+  Sn56  1  0.66458924  0.49912900  0.50102522  1
  Sn2+  Sn57  1  0.33338007  0.00106687  0.00073765  1
  Sn2+  Sn58  1  0.83222495  0.50341509  0.00274181  1
  Sn2+  Sn59  1  0.67380686  0.33022553  0.00619224  1
  Sn2+  Sn60  1  0.16449395  0.00499227  0.50966503  1
  Sn2+  Sn61  1  0.83625123  0.16867223  0.67018075  1
  Sn2+  Sn62  1  0.17626577  -0.00169042  0.15954985  1
  Sn2+  Sn63  1  0.83669364  0.32538152  0.83363043  1
  Sn2+  Sn64  1  0.00543093  0.17042743  0.49933595  1
  Bi3+  Bi65  1  0.66640033  0.33132016  0.33544708  1
  Bi3+  Bi66  1  -0.00091289  0.33082435  0.33940117  1
  Bi3+  Bi67  1  -0.00366768  0.50124592  0.49945016  1
  Bi3+  Bi68  1  0.00145304  0.49884578  0.82858502  1
  Bi3+  Bi69  1  0.49651924  0.66379548  0.16385500  1
  Bi3+  Bi70  1  0.50691414  0.33396727  0.17179918  1
  Bi3+  Bi71  1  0.16919748  0.83533590  -0.00479851  1
  Bi3+  Bi72  1  0.66593702  0.83859778  0.50383391  1
  Bi3+  Bi73  1  0.33343606  0.33586457  0.00124072  1
  Bi3+  Bi74  1  0.50258140  0.17177761  0.66474750  1
  Bi3+  Bi75  1  0.00031772  0.82591260  0.83493992  1
  Bi3+  Bi76  1  0.00037858  0.00100929  0.67186928  1
  Bi3+  Bi77  1  -0.00484397  0.16979734  0.16948980  1
  Bi3+  Bi78  1  0.49370479  0.33069470  0.83152273  1
  Bi3+  Bi79  1  0.82903508  0.66248295  0.83381073  1
  Bi3+  Bi80  1  0.66483616  0.66859293  0.00309253  1
  Bi3+  Bi81  1  0.83470799  -0.00107608  0.49387507  1
  Bi3+  Bi82  1  -0.00151760  0.33126305  0.66393240  1
  Bi3+  Bi83  1  0.16740618  0.83647839  0.33038623  1
  Bi3+  Bi84  1  0.00002446  0.49837830  0.16828542  1
  Bi3+  Bi85  1  0.82951142  0.66755282  0.50157165  1
  Te2-  Te86  1  0.16072516  0.16538458  0.16573983  1
  Te2-  Te87  1  0.17012212  0.16199541  0.50911414  1
  Te2-  Te88  1  0.16943472  0.18016174  0.82506940  1
  Te2-  Te89  1  0.16016256  0.50134501  0.17385339  1
  Te2-  Te90  1  0.15902306  0.50334338  0.49058352  1
  Te2-  Te91  1  0.16374568  0.51328338  0.82870094  1
  Te2-  Te92  1  0.17567197  0.83763798  0.16023430  1
  Te2-  Te93  1  0.16542541  0.84025338  0.49651249  1
  Te2-  Te94  1  0.16611003  0.80898764  0.83331556  1
  Te2-  Te95  1  0.50656522  0.17399678  0.16709709  1
  Te2-  Te96  1  0.50122115  0.16454181  0.50366870  1
  Te2-  Te97  1  0.48660022  0.17159000  0.82792606  1
  Te2-  Te98  1  0.49980636  0.49927396  0.17356758  1
  Te2-  Te99  1  0.50206712  0.49984861  0.48743637  1
  Te2-  Te100  1  0.49989400  0.49172662  0.82684689  1
  Te2-  Te101  1  0.48523574  0.82697788  0.15742492  1
  Te2-  Te102  1  0.50131454  0.85043873  0.50520043  1
  Te2-  Te103  1  0.48737869  0.83485080  0.83927668  1
  Te2-  Te104  1  0.83375103  0.15087729  0.16353537  1
  Te2-  Te105  1  0.83328423  0.15905754  0.50184504  1
  Te2-  Te106  1  0.84073492  0.16703734  0.83954700  1
  Te2-  Te107  1  0.83577568  0.50482428  0.16436997  1
  Te2-  Te108  1  0.83309452  0.50649137  0.50388364  1
  Te2-  Te109  1  0.83593476  0.49825251  0.83265138  1
  Te2-  Te110  1  0.83435063  0.84755902  0.16205558  1
  Te2-  Te111  1  0.83065684  0.83332592  0.51037793  1
  Te2-  Te112  1  0.83486108  0.82765556  0.82439867  1
  Te2-  Te113  1  0.16388055  -0.00314810  -0.01353690  1
  Te2-  Te114  1  0.16020267  -0.00329698  0.33316898  1
  Te2-  Te115  1  0.16104920  0.00818269  0.68220894  1
  Te2-  Te116  1  0.16812628  0.33318917  0.00923741  1
  Te2-  Te117  1  0.16421754  0.32750938  0.34816699  1
  Te2-  Te118  1  0.16369583  0.33134128  0.64787263  1
  Te2-  Te119  1  0.17214167  0.67003778  0.00557005  1
  Te2-  Te120  1  0.15441196  0.67699236  0.34121594  1
  Te2-  Te121  1  0.16705322  0.67056592  0.64586546  1
  Te2-  Te122  1  0.49500114  -0.00042177  -0.01955344  1
  Te2-  Te123  1  0.49854703  0.00590566  0.33495095  1
  Te2-  Te124  1  0.49816750  0.00612700  0.68172603  1
  Te2-  Te125  1  0.49771019  0.33373879  0.00120936  1
  Te2-  Te126  1  0.50144105  0.32843369  0.33299903  1
  Te2-  Te127  1  0.49891680  0.33540747  0.66210229  1
  Te2-  Te128  1  0.50177788  0.66946533  -0.00011709  1
  Te2-  Te129  1  0.49758959  0.66431535  0.33218476  1
  Te2-  Te130  1  0.51166114  0.66312883  0.66992089  1
  Te2-  Te131  1  0.83814580  -0.00119448  0.00693747  1
  Te2-  Te132  1  0.84381013  0.00108117  0.32939018  1
  Te2-  Te133  1  0.83767644  0.00463176  0.66512667  1
  Te2-  Te134  1  0.82910010  0.33854234  -0.00513785  1
  Te2-  Te135  1  0.83526177  0.32726238  0.33592093  1
  Te2-  Te136  1  0.83653877  0.33422520  0.67332295  1
  Te2-  Te137  1  0.82675701  0.67057259  -0.00105738  1
  Te2-  Te138  1  0.84322002  0.67016625  0.33652368  1
  Te2-  Te139  1  0.81663741  0.66060882  0.66950824  1
  Te2-  Te140  1  -0.00923389  0.18210564  0.00320925  1
  Te2-  Te141  1  0.00980203  0.16587375  0.33282952  1
  Te2-  Te142  1  0.00060900  0.16739422  0.66841570  1
  Te2-  Te143  1  -0.00308579  0.48899764  -0.00190787  1
  Te2-  Te144  1  0.00744085  0.49541425  0.33404669  1
  Te2-  Te145  1  0.00532989  0.49529351  0.66383090  1
  Te2-  Te146  1  0.00177166  0.82880622  -0.00158107  1
  Te2-  Te147  1  0.00433611  0.84279111  0.32085892  1
  Te2-  Te148  1  -0.01021724  0.83619259  0.66966745  1
  Te2-  Te149  1  0.32993664  0.17104795  0.00282066  1
  Te2-  Te150  1  0.31967279  0.16104934  0.34533638  1
  Te2-  Te151  1  0.33748322  0.16199327  0.65171821  1
  Te2-  Te152  1  0.33036284  0.49681661  0.00390222  1
  Te2-  Te153  1  0.32139652  0.50749979  0.33002821  1
  Te2-  Te154  1  0.34045202  0.50029851  0.66473651  1
  Te2-  Te155  1  0.33179972  0.83351443  -0.01649999  1
  Te2-  Te156  1  0.33110204  0.83755193  0.34117797  1
  Te2-  Te157  1  0.33131873  0.84223070  0.66859446  1
  Te2-  Te158  1  0.67495171  0.16473808  -0.00446579  1
  Te2-  Te159  1  0.67018565  0.17075355  0.33456219  1
  Te2-  Te160  1  0.66700381  0.16848109  0.67422787  1
  Te2-  Te161  1  0.66580994  0.50338417  -0.00038427  1
  Te2-  Te162  1  0.67252719  0.49500730  0.33631686  1
  Te2-  Te163  1  0.65781627  0.50178797  0.66233036  1
  Te2-  Te164  1  0.66083603  0.83334271  -0.00439842  1
  Te2-  Te165  1  0.66463213  0.83481623  0.33860135  1
  Te2-  Te166  1  0.67415700  0.83604350  0.66958754  1
  Te2-  Te167  1  0.00602455  0.00756215  0.15326750  1
  Te2-  Te168  1  -0.00395257  -0.00088935  0.50841583  1
  Te2-  Te169  1  0.00124616  -0.00778505  0.83763922  1
  Te2-  Te170  1  -0.01815281  0.33414131  0.17060638  1
  Te2-  Te171  1  -0.01675127  0.33632133  0.50067666  1
  Te2-  Te172  1  0.01065143  0.33638182  0.82777890  1
  Te2-  Te173  1  -0.00339308  0.65978304  0.16146951  1
  Te2-  Te174  1  -0.00929638  0.66983933  0.50317924  1
  Te2-  Te175  1  -0.00969618  0.66165585  0.83657443  1
  Te2-  Te176  1  0.34436025  -0.00810278  0.16107235  1
  Te2-  Te177  1  0.33256915  -0.00052265  0.50804952  1
  Te2-  Te178  1  0.32898466  0.00168059  0.82863824  1
  Te2-  Te179  1  0.33562809  0.33104043  0.17334280  1
  Te2-  Te180  1  0.33721175  0.33554370  0.48839518  1
  Te2-  Te181  1  0.32846978  0.33698847  0.83633662  1
  Te2-  Te182  1  0.33487836  0.67239833  0.16817992  1
  Te2-  Te183  1  0.34322198  0.67791755  0.49745005  1
  Te2-  Te184  1  0.34649204  0.65839358  0.83209785  1
  Te2-  Te185  1  0.64697595  -0.00953543  0.16309897  1
  Te2-  Te186  1  0.67226458  0.00082055  0.49841622  1
  Te2-  Te187  1  0.66803060  -0.00352407  0.83920203  1
  Te2-  Te188  1  0.67640909  0.33091558  0.16867155  1
  Te2-  Te189  1  0.68062267  0.33159957  0.49730798  1
  Te2-  Te190  1  0.65819288  0.32727128  0.83839603  1
  Te2-  Te191  1  0.66445381  0.67893414  0.16626323  1
  Te2-  Te192  1  0.66082373  0.67403025  0.50076391  1
  Te2-  Te193  1  0.66223207  0.67539638  0.83967040  1
  Pb2+  Pb194  1  0.33186468  0.50214340  0.49844295  1
  Pb2+  Pb195  1  0.83333923  -0.00013749  0.83935391  1
  Pb2+  Pb196  1  0.50427038  0.83351473  0.67103673  1
  Pb2+  Pb197  1  -0.00563245  0.66439488  0.67004658  1
  Pb2+  Pb198  1  0.15983384  0.16470681  -0.00398660  1
  Pb2+  Pb199  1  0.66776227  0.50097388  0.83085243  1
  Pb2+  Pb200  1  0.66724010  0.33523729  0.66647561  1
  Pb2+  Pb201  1  0.16037077  0.33387448  0.18017827  1
  Pb2+  Pb202  1  0.49980839  0.83199567  0.33496194  1
  Pb2+  Pb203  1  0.16366052  0.50003009  -0.00313967  1
  Pb2+  Pb204  1  0.50264289  0.16446027  -0.00019457  1
  Pb2+  Pb205  1  0.33603169  0.16149280  0.17239770  1
  Pb2+  Pb206  1  0.66520333  0.00176981  0.66706885  1
  Pb2+  Pb207  1  0.67198085  0.66361311  0.33431374  1
  Pb2+  Pb208  1  0.83224268  0.83431607  0.33651709  1
  Pb2+  Pb209  1  0.15867575  0.83857342  0.66663716  1
  Pb2+  Pb210  1  0.66572964  0.50281369  0.16838028  1
  Pb2+  Pb211  1  0.33202247  0.32962935  0.66412679  1
  Pb2+  Pb212  1  0.67143591  0.00378960  0.32874063  1
  Pb2+  Pb213  1  0.33442996  0.67273664  0.66671882  1
  Pb2+  Pb214  1  0.83991409  0.49725901  0.33502792  1
  Pb2+  Pb215  1  0.49613713  0.50244678  -0.00138066  1
