# generated using pymatgen
data_In22Ag21Sn22Bi21(Te54Pb11)2
_symmetry_space_group_name_H-M   'P 1'
_cell_length_a   19.11608663
_cell_length_b   19.14537487
_cell_length_c   19.13633987
_cell_angle_alpha   89.98103701
_cell_angle_beta   90.00517099
_cell_angle_gamma   90.00249380
_symmetry_Int_Tables_number   1
_chemical_formula_structural   In22Ag21Sn22Bi21(Te54Pb11)2
_chemical_formula_sum   'In22 Ag21 Sn22 Bi21 Te108 Pb22'
_cell_volume   7003.60612498
_cell_formula_units_Z   1
loop_
 _symmetry_equiv_pos_site_id
 _symmetry_equiv_pos_as_xyz
  1  'x, y, z'
loop_
 _atom_type_symbol
 _atom_type_oxidation_number
  In3+  3.0
  Ag+  1.0
  Sn2+  2.0
  Bi3+  3.0
  Te2-  -2.0
  Pb2+  2.0
loop_
 _atom_site_type_symbol
 _atom_site_label
 _atom_site_symmetry_multiplicity
 _atom_site_fract_x
 _atom_site_fract_y
 _atom_site_fract_z
 _atom_site_occupancy
  In3+  In0  1  0.34027773  -0.00278600  0.34162691  1
  In3+  In1  1  0.48711205  0.83321151  0.67779748  1
  In3+  In2  1  0.17005935  0.50411605  0.67800709  1
  In3+  In3  1  -0.02201392  0.16258071  0.50583045  1
  In3+  In4  1  0.00119326  0.66661952  0.31244815  1
  In3+  In5  1  0.65941983  0.65650123  0.66646046  1
  In3+  In6  1  0.65294688  0.83142029  0.51448660  1
  In3+  In7  1  0.67103820  0.49823299  0.16129029  1
  In3+  In8  1  0.00089049  0.80110756  0.50301657  1
  In3+  In9  1  0.66363769  0.00852054  -0.00918849  1
  In3+  In10  1  0.66842370  0.67824874  -0.00383281  1
  In3+  In11  1  0.15223808  0.33710290  0.50145516  1
  In3+  In12  1  0.49506206  0.66403607  0.49595858  1
  In3+  In13  1  0.50023145  0.36161293  0.16711734  1
  In3+  In14  1  0.66236002  0.00092213  0.33129420  1
  In3+  In15  1  0.50762446  0.18568056  0.66853014  1
  In3+  In16  1  0.65087512  0.17058188  0.16903285  1
  In3+  In17  1  0.15181845  0.50250626  0.33373439  1
  In3+  In18  1  0.83841424  0.50265221  0.00286958  1
  In3+  In19  1  0.17651726  0.15352565  -0.01166149  1
  In3+  In20  1  0.83050315  0.33464642  0.14612471  1
  In3+  In21  1  0.31898456  0.00834382  0.66924708  1
  Ag+  Ag22  1  0.66261714  0.48599174  0.52749196  1
  Ag+  Ag23  1  0.52424365  0.82494906  0.33382533  1
  Ag+  Ag24  1  0.85352167  0.30135318  0.82009291  1
  Ag+  Ag25  1  0.84899549  0.19110780  0.66681296  1
  Ag+  Ag26  1  0.66793477  0.18924789  0.53120270  1
  Ag+  Ag27  1  0.30674485  0.66820904  -0.01690663  1
  Ag+  Ag28  1  0.81130925  0.00874774  0.81231658  1
  Ag+  Ag29  1  0.01183290  0.69312483  -0.02433042  1
  Ag+  Ag30  1  0.14610664  0.64823116  0.83145743  1
  Ag+  Ag31  1  0.49159096  0.67459931  0.14285670  1
  Ag+  Ag32  1  0.02233772  0.51713731  0.16278746  1
  Ag+  Ag33  1  0.32031397  0.31182291  0.66815140  1
  Ag+  Ag34  1  0.00842543  0.85977234  0.84900733  1
  Ag+  Ag35  1  0.50169446  0.84436346  -0.02020048  1
  Ag+  Ag36  1  0.69004486  0.29717644  0.64568510  1
  Ag+  Ag37  1  -0.00071105  0.81072888  0.14353403  1
  Ag+  Ag38  1  0.35616539  0.66907132  0.68553811  1
  Ag+  Ag39  1  0.66450343  0.15981346  0.82359727  1
  Ag+  Ag40  1  0.02947393  0.50014378  0.52221485  1
  Ag+  Ag41  1  -0.02280327  0.02292626  0.69703068  1
  Ag+  Ag42  1  0.16507036  -0.01050741  0.81199254  1
  Sn2+  Sn43  1  0.16846184  0.66468470  0.51536603  1
  Sn2+  Sn44  1  0.31694171  0.82744134  0.83770815  1
  Sn2+  Sn45  1  0.33972968  0.49677886  0.50097006  1
  Sn2+  Sn46  1  0.83189547  0.83208262  0.33050703  1
  Sn2+  Sn47  1  0.33480761  0.50272676  0.16116595  1
  Sn2+  Sn48  1  0.50169154  -0.02135828  0.16692196  1
  Sn2+  Sn49  1  0.66915278  0.48516182  0.83393327  1
  Sn2+  Sn50  1  0.34377850  0.17427826  0.50199982  1
  Sn2+  Sn51  1  -0.01428978  0.15872911  0.83543519  1
  Sn2+  Sn52  1  0.00066683  -0.00513264  0.33637239  1
  Sn2+  Sn53  1  0.48743431  0.49594816  0.66086558  1
  Sn2+  Sn54  1  0.66494702  0.66420845  0.33198116  1
  Sn2+  Sn55  1  0.83313136  0.49726001  0.34292946  1
  Sn2+  Sn56  1  0.15621354  0.50652571  0.00103524  1
  Sn2+  Sn57  1  0.67230116  0.00110346  0.66253938  1
  Sn2+  Sn58  1  -0.00432195  0.50154515  0.84353788  1
  Sn2+  Sn59  1  -0.00420803  -0.00471779  -0.00529279  1
  Sn2+  Sn60  1  0.17585736  0.83042319  -0.00348488  1
  Sn2+  Sn61  1  0.50671313  0.33217325  0.83043175  1
  Sn2+  Sn62  1  0.50241243  0.33420852  0.50082696  1
  Sn2+  Sn63  1  0.49843963  0.51010662  0.33928021  1
  Sn2+  Sn64  1  0.49760931  0.51111274  0.00015276  1
  Bi3+  Bi65  1  0.16155977  0.82937201  0.33267430  1
  Bi3+  Bi66  1  0.83537600  0.83423626  0.66673775  1
  Bi3+  Bi67  1  0.16421352  0.00536393  0.50039679  1
  Bi3+  Bi68  1  0.82797533  0.66620816  0.16573268  1
  Bi3+  Bi69  1  0.83709907  0.67178041  0.83451415  1
  Bi3+  Bi70  1  0.66853504  0.83038116  0.16712939  1
  Bi3+  Bi71  1  0.00002075  0.33322412  -0.00005291  1
  Bi3+  Bi72  1  0.16550145  -0.00104498  0.16580522  1
  Bi3+  Bi73  1  0.83633069  -0.00134238  0.50448071  1
  Bi3+  Bi74  1  0.33657184  0.50467294  0.83232334  1
  Bi3+  Bi75  1  0.50361255  0.66502570  0.83417767  1
  Bi3+  Bi76  1  0.83551612  0.00030281  0.16728081  1
  Bi3+  Bi77  1  -0.00308840  0.16685235  0.16804681  1
  Bi3+  Bi78  1  0.66581153  0.33501687  -0.00430846  1
  Bi3+  Bi79  1  0.50370224  -0.00114161  0.49899388  1
  Bi3+  Bi80  1  0.33476857  0.16377956  0.16757490  1
  Bi3+  Bi81  1  0.33251472  0.66715196  0.33210961  1
  Bi3+  Bi82  1  -0.00347477  0.66479048  0.66741525  1
  Bi3+  Bi83  1  -0.00280127  0.33691968  0.33175623  1
  Bi3+  Bi84  1  0.83721947  0.16652891  -0.00357047  1
  Bi3+  Bi85  1  0.33285546  0.83089300  0.16503098  1
  Te2-  Te86  1  0.16777630  0.16371296  0.16251308  1
  Te2-  Te87  1  0.17492343  0.16930783  0.50069730  1
  Te2-  Te88  1  0.16686185  0.16526624  0.83614132  1
  Te2-  Te89  1  0.17081720  0.50221534  0.17128152  1
  Te2-  Te90  1  0.17552046  0.49750595  0.49056996  1
  Te2-  Te91  1  0.17035211  0.50213772  0.83374673  1
  Te2-  Te92  1  0.15536535  0.83634629  0.16806692  1
  Te2-  Te93  1  0.16094549  0.83789011  0.49778533  1
  Te2-  Te94  1  0.16046316  0.84092225  0.84007488  1
  Te2-  Te95  1  0.49738078  0.15137330  0.16777226  1
  Te2-  Te96  1  0.51377746  0.16090148  0.50967818  1
  Te2-  Te97  1  0.50858053  0.16690797  0.82798772  1
  Te2-  Te98  1  0.50115852  0.51403839  0.16568896  1
  Te2-  Te99  1  0.51317747  0.50708191  0.49861800  1
  Te2-  Te100  1  0.49987408  0.50296472  0.83341184  1
  Te2-  Te101  1  0.50206737  0.82340525  0.18088483  1
  Te2-  Te102  1  0.50269353  0.83587080  0.48627104  1
  Te2-  Te103  1  0.50101558  0.82872511  0.83237055  1
  Te2-  Te104  1  0.83429799  0.16429895  0.16409782  1
  Te2-  Te105  1  0.82132275  0.16088128  0.51749759  1
  Te2-  Te106  1  0.82766764  0.15726037  0.83465882  1
  Te2-  Te107  1  0.82488129  0.50088225  0.16448220  1
  Te2-  Te108  1  0.80983363  0.50237133  0.49870763  1
  Te2-  Te109  1  0.83376286  0.50916602  0.84183153  1
  Te2-  Te110  1  0.84351392  0.83471874  0.16565448  1
  Te2-  Te111  1  0.84063654  0.83762531  0.49995111  1
  Te2-  Te112  1  0.84615015  0.83507038  0.83148459  1
  Te2-  Te113  1  0.16817393  0.00063835  0.00463757  1
  Te2-  Te114  1  0.16733330  -0.00445203  0.33443147  1
  Te2-  Te115  1  0.16561360  -0.00171277  0.66370321  1
  Te2-  Te116  1  0.16574009  0.33919619  0.00173865  1
  Te2-  Te117  1  0.16492402  0.33811703  0.33959546  1
  Te2-  Te118  1  0.17474178  0.34025483  0.65546939  1
  Te2-  Te119  1  0.15901893  0.66454906  -0.00831963  1
  Te2-  Te120  1  0.16241993  0.66417520  0.33752867  1
  Te2-  Te121  1  0.16016905  0.66019183  0.67662671  1
  Te2-  Te122  1  0.50631011  -0.00749181  -0.00173545  1
  Te2-  Te123  1  0.50216572  -0.00839830  0.33646374  1
  Te2-  Te124  1  0.50320102  -0.01527700  0.65873191  1
  Te2-  Te125  1  0.50233090  0.33687268  0.00752327  1
  Te2-  Te126  1  0.50088222  0.33717694  0.32599989  1
  Te2-  Te127  1  0.49563739  0.33657752  0.66738648  1
  Te2-  Te128  1  0.51364822  0.66873214  -0.00352247  1
  Te2-  Te129  1  0.49716045  0.67434124  0.34212214  1
  Te2-  Te130  1  0.50405092  0.67234709  0.66382224  1
  Te2-  Te131  1  0.82562407  0.00353077  0.00414466  1
  Te2-  Te132  1  0.83421185  -0.00078711  0.33430611  1
  Te2-  Te133  1  0.83538333  -0.00404285  0.66777075  1
  Te2-  Te134  1  0.83230134  0.33169939  -0.01343679  1
  Te2-  Te135  1  0.83361376  0.33404170  0.33559854  1
  Te2-  Te136  1  0.82929494  0.33562519  0.67704623  1
  Te2-  Te137  1  0.82996693  0.66327417  0.00108357  1
  Te2-  Te138  1  0.83914560  0.66440006  0.32804509  1
  Te2-  Te139  1  0.82908076  0.66962981  0.66816432  1
  Te2-  Te140  1  0.00156155  0.17021754  0.00413350  1
  Te2-  Te141  1  -0.00133155  0.17212061  0.33469628  1
  Te2-  Te142  1  -0.00467040  0.16627477  0.66404193  1
  Te2-  Te143  1  -0.00612778  0.49368311  0.01416416  1
  Te2-  Te144  1  -0.00032610  0.49828172  0.31461169  1
  Te2-  Te145  1  0.00764070  0.50152616  0.67088262  1
  Te2-  Te146  1  0.00403290  0.83700585  -0.00187015  1
  Te2-  Te147  1  0.00059832  0.82459606  0.34238646  1
  Te2-  Te148  1  -0.00180290  0.82640268  0.65713732  1
  Te2-  Te149  1  0.33377290  0.16732118  0.00294037  1
  Te2-  Te150  1  0.33456154  0.16558500  0.33042808  1
  Te2-  Te151  1  0.34099378  0.16428213  0.66490870  1
  Te2-  Te152  1  0.33045246  0.51533207  -0.00223659  1
  Te2-  Te153  1  0.33680672  0.50477218  0.33053789  1
  Te2-  Te154  1  0.32675059  0.51949269  0.66929412  1
  Te2-  Te155  1  0.34499890  0.81905436  0.00512444  1
  Te2-  Te156  1  0.32441974  0.83252427  0.32841338  1
  Te2-  Te157  1  0.33594073  0.81903402  0.66835000  1
  Te2-  Te158  1  0.67180519  0.16768199  0.00854674  1
  Te2-  Te159  1  0.66634293  0.16330858  0.32417314  1
  Te2-  Te160  1  0.65721459  0.15803494  0.67587242  1
  Te2-  Te161  1  0.66787850  0.49540885  0.00643306  1
  Te2-  Te162  1  0.66516522  0.50626100  0.31870645  1
  Te2-  Te163  1  0.65889325  0.50446094  0.67401808  1
  Te2-  Te164  1  0.65584430  0.83411482  0.00503805  1
  Te2-  Te165  1  0.67322270  0.83197256  0.32829829  1
  Te2-  Te166  1  0.67042469  0.83166083  0.66631002  1
  Te2-  Te167  1  -0.00039312  0.00494585  0.16831464  1
  Te2-  Te168  1  0.00223664  0.00797935  0.49713885  1
  Te2-  Te169  1  0.01527639  0.00501472  0.83606987  1
  Te2-  Te170  1  -0.00582222  0.32880408  0.16624049  1
  Te2-  Te171  1  0.00022942  0.35508368  0.49434023  1
  Te2-  Te172  1  -0.00213178  0.33336497  0.83684924  1
  Te2-  Te173  1  -0.00615945  0.66496236  0.16215662  1
  Te2-  Te174  1  0.00155022  0.64570328  0.50260762  1
  Te2-  Te175  1  -0.00108121  0.66146168  0.83284138  1
  Te2-  Te176  1  0.33011699  -0.00282370  0.16516091  1
  Te2-  Te177  1  0.33239138  0.00309598  0.50695820  1
  Te2-  Te178  1  0.32443414  -0.00343387  0.82472544  1
  Te2-  Te179  1  0.34053880  0.33009806  0.16678475  1
  Te2-  Te180  1  0.34528111  0.33331629  0.51354926  1
  Te2-  Te181  1  0.33635183  0.33951009  0.82388193  1
  Te2-  Te182  1  0.34194256  0.67020462  0.16977498  1
  Te2-  Te183  1  0.33534070  0.66490525  0.49462987  1
  Te2-  Te184  1  0.34113275  0.66884633  0.83610221  1
  Te2-  Te185  1  0.67173021  -0.00585694  0.17179887  1
  Te2-  Te186  1  0.67010611  -0.00920219  0.49000818  1
  Te2-  Te187  1  0.66650023  0.00472879  0.83770810  1
  Te2-  Te188  1  0.66225529  0.32992803  0.16265619  1
  Te2-  Te189  1  0.65998097  0.33538872  0.50504431  1
  Te2-  Te190  1  0.66221368  0.32572842  0.83650626  1
  Te2-  Te191  1  0.66684640  0.66819678  0.16189645  1
  Te2-  Te192  1  0.65877870  0.67775419  0.50268988  1
  Te2-  Te193  1  0.67017298  0.66369477  0.83501466  1
  Pb2+  Pb194  1  0.16420310  0.16675409  0.66688618  1
  Pb2+  Pb195  1  0.82857076  0.66664235  0.49707260  1
  Pb2+  Pb196  1  -0.00003088  0.33293306  0.66606826  1
  Pb2+  Pb197  1  0.33591669  0.33799055  0.34224911  1
  Pb2+  Pb198  1  0.33633207  0.17021058  0.83199779  1
  Pb2+  Pb199  1  0.50173878  0.16533058  0.33960224  1
  Pb2+  Pb200  1  0.33610028  -0.01287404  -0.00457286  1
  Pb2+  Pb201  1  0.83129144  0.33536744  0.50465855  1
  Pb2+  Pb202  1  0.83332464  0.83444525  -0.00259014  1
  Pb2+  Pb203  1  0.16525117  0.82902125  0.67267782  1
  Pb2+  Pb204  1  0.49614087  -0.00003220  0.82473696  1
  Pb2+  Pb205  1  0.16477095  0.16482712  0.33429198  1
  Pb2+  Pb206  1  0.67463802  0.83557656  0.83377985  1
  Pb2+  Pb207  1  0.17095807  0.66984700  0.16133541  1
  Pb2+  Pb208  1  0.66612605  0.33987829  0.33656956  1
  Pb2+  Pb209  1  0.16536433  0.33450125  0.16826085  1
  Pb2+  Pb210  1  0.33535095  0.34621022  -0.00460915  1
  Pb2+  Pb211  1  0.83163616  0.16576478  0.34160137  1
  Pb2+  Pb212  1  0.33434694  0.83306623  0.50063272  1
  Pb2+  Pb213  1  0.50448627  0.16705576  -0.00115018  1
  Pb2+  Pb214  1  0.16549420  0.33182908  0.83234137  1
  Pb2+  Pb215  1  0.82993256  0.50013089  0.66928372  1
