# generated using pymatgen
data_In22Ag21Sn22Bi21(Te54Pb11)2
_symmetry_space_group_name_H-M   'P 1'
_cell_length_a   19.15413326
_cell_length_b   19.15379616
_cell_length_c   19.15305424
_cell_angle_alpha   89.97968295
_cell_angle_beta   90.00187728
_cell_angle_gamma   90.00963014
_symmetry_Int_Tables_number   1
_chemical_formula_structural   In22Ag21Sn22Bi21(Te54Pb11)2
_chemical_formula_sum   'In22 Ag21 Sn22 Bi21 Te108 Pb22'
_cell_volume   7026.76404870
_cell_formula_units_Z   1
loop_
 _symmetry_equiv_pos_site_id
 _symmetry_equiv_pos_as_xyz
  1  'x, y, z'
loop_
 _atom_type_symbol
 _atom_type_oxidation_number
  In3+  3.0
  Ag+  1.0
  Sn2+  2.0
  Bi3+  3.0
  Te2-  -2.0
  Pb2+  2.0
loop_
 _atom_site_type_symbol
 _atom_site_label
 _atom_site_symmetry_multiplicity
 _atom_site_fract_x
 _atom_site_fract_y
 _atom_site_fract_z
 _atom_site_occupancy
  In3+  In0  1  0.83858540  0.84606639  0.34065516  1
  In3+  In1  1  0.67356382  0.68391644  0.33771334  1
  In3+  In2  1  0.16162020  0.50481813  0.67280695  1
  In3+  In3  1  0.33600930  0.65893299  0.66809186  1
  In3+  In4  1  -0.00282631  0.65063396  -0.03296146  1
  In3+  In5  1  0.01142977  0.00408891  0.33728538  1
  In3+  In6  1  0.67018271  0.14019682  0.83128383  1
  In3+  In7  1  0.33229372  0.84893164  0.52088501  1
  In3+  In8  1  0.84139626  0.32537714  0.51673763  1
  In3+  In9  1  0.01854065  0.48613837  0.82613516  1
  In3+  In10  1  0.34263811  0.84044855  0.82908961  1
  In3+  In11  1  0.82784670  0.31465031  0.81823334  1
  In3+  In12  1  0.52141482  0.16915620  -0.00256807  1
  In3+  In13  1  0.83494796  0.47178852  -0.02398828  1
  In3+  In14  1  0.49832251  0.15326561  0.66967504  1
  In3+  In15  1  0.00307975  0.31816646  0.00752947  1
  In3+  In16  1  0.32624207  0.31979162  0.66630561  1
  In3+  In17  1  -0.00007095  0.17180045  0.17948056  1
  In3+  In18  1  0.49832476  0.00002208  0.81262342  1
  In3+  In19  1  0.85128785  0.15972700  0.33677039  1
  In3+  In20  1  0.48973894  0.66306149  0.83198586  1
  In3+  In21  1  0.32930939  -0.00560086  0.35307051  1
  Ag+  Ag22  1  0.64284421  0.83261616  0.81107505  1
  Ag+  Ag23  1  0.33281945  0.47504075  0.83132596  1
  Ag+  Ag24  1  0.66413947  0.30645374  0.64666389  1
  Ag+  Ag25  1  0.14643409  0.02329211  0.49752576  1
  Ag+  Ag26  1  0.14497024  0.00085930  0.86071357  1
  Ag+  Ag27  1  0.85493648  -0.02241449  0.52061040  1
  Ag+  Ag28  1  0.50138465  0.02427110  0.50956297  1
  Ag+  Ag29  1  -0.02899403  0.68892977  0.65845659  1
  Ag+  Ag30  1  0.31046788  0.01046343  0.64888237  1
  Ag+  Ag31  1  0.51725725  0.84939435  0.66509342  1
  Ag+  Ag32  1  0.01819319  0.33556558  0.65346039  1
  Ag+  Ag33  1  -0.03250319  0.86042075  0.52432683  1
  Ag+  Ag34  1  0.00709563  0.14806092  0.51831995  1
  Ag+  Ag35  1  0.18482301  0.18391318  0.31327418  1
  Ag+  Ag36  1  0.18395295  0.47951833  -0.02609599  1
  Ag+  Ag37  1  0.69706201  0.02986897  0.36684962  1
  Ag+  Ag38  1  0.18599817  0.33033814  0.18694230  1
  Ag+  Ag39  1  0.84531597  0.16693001  -0.02188912  1
  Ag+  Ag40  1  0.86208738  0.69270301  0.51248150  1
  Ag+  Ag41  1  0.85930018  0.16446886  0.63694217  1
  Ag+  Ag42  1  0.86017893  0.02080101  0.80484900  1
  Sn2+  Sn43  1  0.83802688  0.49252464  0.66480003  1
  Sn2+  Sn44  1  0.16531762  0.64719089  0.16140272  1
  Sn2+  Sn45  1  0.16318108  0.82881282  -0.00715045  1
  Sn2+  Sn46  1  0.32546731  0.33314317  0.33787201  1
  Sn2+  Sn47  1  0.67003183  -0.00190645  0.00380950  1
  Sn2+  Sn48  1  0.49825994  0.16038078  0.33316630  1
  Sn2+  Sn49  1  0.50798573  0.32931627  0.50751295  1
  Sn2+  Sn50  1  0.49916801  0.66428280  0.15739902  1
  Sn2+  Sn51  1  0.67278323  0.49814913  0.16898802  1
  Sn2+  Sn52  1  0.66901014  0.16207240  0.16288870  1
  Sn2+  Sn53  1  0.48688745  0.50216441  -0.00091917  1
  Sn2+  Sn54  1  0.67947754  0.66651693  -0.00229535  1
  Sn2+  Sn55  1  0.65974463  0.32543431  0.34022578  1
  Sn2+  Sn56  1  0.49783704  0.83607694  0.34846200  1
  Sn2+  Sn57  1  0.33377053  0.83997193  0.16312659  1
  Sn2+  Sn58  1  0.32470015  0.50239210  0.16000361  1
  Sn2+  Sn59  1  0.00602002  0.50196886  0.15655139  1
  Sn2+  Sn60  1  0.66583694  0.66432094  0.66585449  1
  Sn2+  Sn61  1  0.33070701  0.16892535  0.17032454  1
  Sn2+  Sn62  1  0.33829629  0.66862051  0.33550913  1
  Sn2+  Sn63  1  -0.00471347  0.50475104  0.50161743  1
  Sn2+  Sn64  1  0.00698466  0.82981190  0.17347043  1
  Bi3+  Bi65  1  0.66810669  -0.00125513  0.66246621  1
  Bi3+  Bi66  1  0.82973279  0.67301565  0.82766342  1
  Bi3+  Bi67  1  -0.00225295  0.66833689  0.34206680  1
  Bi3+  Bi68  1  -0.00105822  0.83223797  0.83431284  1
  Bi3+  Bi69  1  0.49861443  0.50135571  0.66725660  1
  Bi3+  Bi70  1  0.83163113  0.33409258  0.16767566  1
  Bi3+  Bi71  1  0.33368302  0.16290649  0.83478096  1
  Bi3+  Bi72  1  0.67051976  0.33672346  0.00082113  1
  Bi3+  Bi73  1  0.49811311  0.66314383  0.50097629  1
  Bi3+  Bi74  1  0.33147513  0.50018832  0.50679882  1
  Bi3+  Bi75  1  0.16677987  0.83327168  0.33256589  1
  Bi3+  Bi76  1  0.16765228  0.83552720  0.66270924  1
  Bi3+  Bi77  1  0.16661214  0.16297295  0.66554883  1
  Bi3+  Bi78  1  0.83434272  0.83865734  0.00260920  1
  Bi3+  Bi79  1  0.16715508  0.66819147  0.49986468  1
  Bi3+  Bi80  1  0.83231060  0.49790204  0.33465442  1
  Bi3+  Bi81  1  0.50039824  -0.00224544  0.16817366  1
  Bi3+  Bi82  1  -0.00325660  -0.00249771  0.00540582  1
  Bi3+  Bi83  1  0.66652236  0.83233528  0.16556703  1
  Bi3+  Bi84  1  0.83053592  0.00130345  0.16602502  1
  Bi3+  Bi85  1  0.33504208  0.00247673  -0.00237373  1
  Te2-  Te86  1  0.15696289  0.17673655  0.16937927  1
  Te2-  Te87  1  0.15885205  0.16937989  0.50578141  1
  Te2-  Te88  1  0.16979337  0.15218470  0.82842384  1
  Te2-  Te89  1  0.16673693  0.48512381  0.16772410  1
  Te2-  Te90  1  0.16856347  0.50329701  0.50899760  1
  Te2-  Te91  1  0.17395101  0.50356235  0.82865705  1
  Te2-  Te92  1  0.16807743  0.83089038  0.16899729  1
  Te2-  Te93  1  0.17848494  0.82909867  0.49761726  1
  Te2-  Te94  1  0.16166924  0.84905163  0.82818058  1
  Te2-  Te95  1  0.50018739  0.16127559  0.16106530  1
  Te2-  Te96  1  0.49927338  0.17321132  0.50575028  1
  Te2-  Te97  1  0.50117116  0.16263169  0.83498153  1
  Te2-  Te98  1  0.49677140  0.50320448  0.16011706  1
  Te2-  Te99  1  0.49551708  0.49879480  0.50152044  1
  Te2-  Te100  1  0.48443907  0.50620242  0.83152413  1
  Te2-  Te101  1  0.50083479  0.83253188  0.16699516  1
  Te2-  Te102  1  0.48511988  0.82286368  0.51503144  1
  Te2-  Te103  1  0.49696842  0.83298785  0.82314573  1
  Te2-  Te104  1  0.83671384  0.16598385  0.17901589  1
  Te2-  Te105  1  0.84644209  0.17320675  0.49110684  1
  Te2-  Te106  1  0.82305936  0.16071017  0.83309444  1
  Te2-  Te107  1  0.83724821  0.49850696  0.16954500  1
  Te2-  Te108  1  0.83626182  0.48998341  0.49914038  1
  Te2-  Te109  1  0.83236148  0.51314706  0.82973262  1
  Te2-  Te110  1  0.83274808  0.83623129  0.16918210  1
  Te2-  Te111  1  0.82622069  0.83450897  0.49237377  1
  Te2-  Te112  1  0.83760652  0.83373889  0.83889012  1
  Te2-  Te113  1  0.16518526  -0.00214407  0.00731014  1
  Te2-  Te114  1  0.16966306  -0.00312750  0.34786389  1
  Te2-  Te115  1  0.16532575  -0.00062857  0.64810453  1
  Te2-  Te116  1  0.15411321  0.33815957  -0.00316609  1
  Te2-  Te117  1  0.16480099  0.32913988  0.33312871  1
  Te2-  Te118  1  0.16711327  0.33378864  0.67061197  1
  Te2-  Te119  1  0.15297712  0.66552200  0.00259115  1
  Te2-  Te120  1  0.16515817  0.66923920  0.33357610  1
  Te2-  Te121  1  0.17606165  0.66630997  0.66513136  1
  Te2-  Te122  1  0.50105148  0.00702839  0.00481658  1
  Te2-  Te123  1  0.48465011  -0.00481000  0.32834787  1
  Te2-  Te124  1  0.50109082  -0.00317836  0.66048553  1
  Te2-  Te125  1  0.50454169  0.33135696  -0.00182272  1
  Te2-  Te126  1  0.49383943  0.33041106  0.33706593  1
  Te2-  Te127  1  0.51601460  0.34089004  0.66586809  1
  Te2-  Te128  1  0.50235640  0.66755466  -0.00989795  1
  Te2-  Te129  1  0.50262803  0.67068755  0.33477325  1
  Te2-  Te130  1  0.49543032  0.66485440  0.66920784  1
  Te2-  Te131  1  0.83277249  0.00411026  0.00358159  1
  Te2-  Te132  1  0.83501619  0.00280269  0.33021298  1
  Te2-  Te133  1  0.82906150  0.01360720  0.66085856  1
  Te2-  Te134  1  0.83666130  0.31852514  0.00600287  1
  Te2-  Te135  1  0.82782447  0.33177920  0.32829366  1
  Te2-  Te136  1  0.81508761  0.32320209  0.66884199  1
  Te2-  Te137  1  0.84291417  0.67403253  -0.00031003  1
  Te2-  Te138  1  0.83242459  0.66223739  0.34708256  1
  Te2-  Te139  1  0.82681388  0.66524428  0.65721212  1
  Te2-  Te140  1  -0.00841871  0.16204741  -0.00053656  1
  Te2-  Te141  1  0.00598491  0.16222780  0.33410275  1
  Te2-  Te142  1  0.00300094  0.17952706  0.66382867  1
  Te2-  Te143  1  -0.00895837  0.50277517  -0.00969123  1
  Te2-  Te144  1  -0.00307170  0.50414497  0.33161206  1
  Te2-  Te145  1  0.00401049  0.48423634  0.67344929  1
  Te2-  Te146  1  -0.00144191  0.83581195  0.00203276  1
  Te2-  Te147  1  0.00002691  0.83023195  0.33599451  1
  Te2-  Te148  1  0.00234966  0.83502209  0.66594380  1
  Te2-  Te149  1  0.32911530  0.16513140  -0.00013738  1
  Te2-  Te150  1  0.32876413  0.16096567  0.33006277  1
  Te2-  Te151  1  0.33727910  0.15658966  0.67036021  1
  Te2-  Te152  1  0.32864682  0.50091712  -0.01017397  1
  Te2-  Te153  1  0.33323609  0.49869199  0.33719050  1
  Te2-  Te154  1  0.33250508  0.50225658  0.67363163  1
  Te2-  Te155  1  0.33010703  0.83796479  -0.00428557  1
  Te2-  Te156  1  0.33040402  0.83609582  0.32783265  1
  Te2-  Te157  1  0.32846401  0.84031940  0.67398768  1
  Te2-  Te158  1  0.67287411  0.16933712  -0.00649682  1
  Te2-  Te159  1  0.65599658  0.16552486  0.33196365  1
  Te2-  Te160  1  0.65442242  0.16216106  0.67743405  1
  Te2-  Te161  1  0.67222317  0.50052518  0.00523788  1
  Te2-  Te162  1  0.67006322  0.49378881  0.32996455  1
  Te2-  Te163  1  0.66346184  0.50556626  0.66965738  1
  Te2-  Te164  1  0.67076209  0.83239420  0.00445621  1
  Te2-  Te165  1  0.66763569  0.83630913  0.32692942  1
  Te2-  Te166  1  0.66580251  0.83406291  0.66530902  1
  Te2-  Te167  1  -0.00470015  0.00182935  0.17057102  1
  Te2-  Te168  1  -0.00398881  0.00102196  0.48760275  1
  Te2-  Te169  1  -0.00147034  -0.00240922  0.83872709  1
  Te2-  Te170  1  -0.00619978  0.33137984  0.16298410  1
  Te2-  Te171  1  -0.00754861  0.33938048  0.50627827  1
  Te2-  Te172  1  -0.01637778  0.33803931  0.83654789  1
  Te2-  Te173  1  0.00162261  0.66671496  0.17717255  1
  Te2-  Te174  1  0.00577827  0.66478418  0.50839900  1
  Te2-  Te175  1  -0.00370891  0.66826477  0.81155911  1
  Te2-  Te176  1  0.33403241  0.00305169  0.16002866  1
  Te2-  Te177  1  0.35124183  -0.00008590  0.50510241  1
  Te2-  Te178  1  0.34376911  -0.00119888  0.83616619  1
  Te2-  Te179  1  0.33205765  0.33274646  0.16854424  1
  Te2-  Te180  1  0.33431152  0.33837213  0.50575692  1
  Te2-  Te181  1  0.33575031  0.32608856  0.82922861  1
  Te2-  Te182  1  0.33251676  0.66344074  0.16882539  1
  Te2-  Te183  1  0.33284328  0.66187629  0.50148381  1
  Te2-  Te184  1  0.33506532  0.68086031  0.83183196  1
  Te2-  Te185  1  0.66552574  -0.00237414  0.17161260  1
  Te2-  Te186  1  0.64914366  0.00127167  0.50073678  1
  Te2-  Te187  1  0.65500410  -0.01228928  0.83227829  1
  Te2-  Te188  1  0.66765525  0.32914516  0.16416088  1
  Te2-  Te189  1  0.67628250  0.32917747  0.49944407  1
  Te2-  Te190  1  0.67908194  0.34090760  0.84211184  1
  Te2-  Te191  1  0.66441679  0.66738615  0.17070021  1
  Te2-  Te192  1  0.65950158  0.66505405  0.49241890  1
  Te2-  Te193  1  0.66858518  0.68135033  0.83502944  1
  Pb2+  Pb194  1  0.32935454  0.66768158  0.00069479  1
  Pb2+  Pb195  1  0.32574793  0.16772895  0.49823781  1
  Pb2+  Pb196  1  0.50111833  0.50100407  0.32870351  1
  Pb2+  Pb197  1  -0.00663061  0.33421626  0.33833102  1
  Pb2+  Pb198  1  0.66143519  0.51037943  0.83540320  1
  Pb2+  Pb199  1  0.16082194  0.16849213  0.00374373  1
  Pb2+  Pb200  1  0.50126726  0.83804300  -0.00620619  1
  Pb2+  Pb201  1  0.49946620  0.33053631  0.17049247  1
  Pb2+  Pb202  1  0.51089698  0.33285846  0.82911431  1
  Pb2+  Pb203  1  0.16691819  0.67831847  0.83312632  1
  Pb2+  Pb204  1  0.65451990  0.83561485  0.49622266  1
  Pb2+  Pb205  1  0.66963175  0.49798949  0.50291844  1
  Pb2+  Pb206  1  0.33075698  0.33328435  0.00081937  1
  Pb2+  Pb207  1  0.67699043  0.16217864  0.50166527  1
  Pb2+  Pb208  1  0.83366604  0.66645428  0.17557452  1
  Pb2+  Pb209  1  0.00135992  0.00766159  0.66361560  1
  Pb2+  Pb210  1  0.83174390  0.83987492  0.67099644  1
  Pb2+  Pb211  1  0.16297454  0.32503407  0.83300911  1
  Pb2+  Pb212  1  0.16166468  0.33327018  0.50085639  1
  Pb2+  Pb213  1  -0.00244522  0.17087354  0.82868809  1
  Pb2+  Pb214  1  0.16588339  0.50050576  0.33560800  1
  Pb2+  Pb215  1  0.16572591  0.00351067  0.17727949  1
