# generated using pymatgen
data_In22Ag21Sn22Bi21(Te54Pb11)2
_symmetry_space_group_name_H-M   'P 1'
_cell_length_a   19.15829014
_cell_length_b   19.14456122
_cell_length_c   19.16626622
_cell_angle_alpha   89.99885116
_cell_angle_beta   90.00520719
_cell_angle_gamma   90.00275857
_symmetry_Int_Tables_number   1
_chemical_formula_structural   In22Ag21Sn22Bi21(Te54Pb11)2
_chemical_formula_sum   'In22 Ag21 Sn22 Bi21 Te108 Pb22'
_cell_volume   7029.74670620
_cell_formula_units_Z   1
loop_
 _symmetry_equiv_pos_site_id
 _symmetry_equiv_pos_as_xyz
  1  'x, y, z'
loop_
 _atom_type_symbol
 _atom_type_oxidation_number
  In3+  3.0
  Ag+  1.0
  Sn2+  2.0
  Bi3+  3.0
  Te2-  -2.0
  Pb2+  2.0
loop_
 _atom_site_type_symbol
 _atom_site_label
 _atom_site_symmetry_multiplicity
 _atom_site_fract_x
 _atom_site_fract_y
 _atom_site_fract_z
 _atom_site_occupancy
  In3+  In0  1  0.49447767  0.00294748  0.19099566  1
  In3+  In1  1  0.84700913  0.16576237  0.65928613  1
  In3+  In2  1  0.66657249  0.33263929  -0.01291211  1
  In3+  In3  1  0.67481828  0.14888319  0.17161687  1
  In3+  In4  1  0.31434506  0.83834198  0.83434382  1
  In3+  In5  1  0.66511371  0.67120184  0.36026691  1
  In3+  In6  1  0.66812630  0.16322094  0.50579534  1
  In3+  In7  1  0.66563796  0.83303481  0.50919703  1
  In3+  In8  1  0.50015418  0.65660946  0.15114406  1
  In3+  In9  1  0.81155504  0.32506448  0.17091142  1
  In3+  In10  1  0.85591322  -0.00065458  0.18552477  1
  In3+  In11  1  0.66554093  0.51288712  0.17185934  1
  In3+  In12  1  0.50238529  0.15512895  0.66730306  1
  In3+  In13  1  0.51058513  0.83604318  0.00083875  1
  In3+  In14  1  0.00031529  0.49849937  0.50837670  1
  In3+  In15  1  -0.00202904  -0.01959004  -0.02896015  1
  In3+  In16  1  0.33208790  0.67696786  0.66242988  1
  In3+  In17  1  0.16367668  0.50163348  0.35561020  1
  In3+  In18  1  0.17221965  0.50318726  -0.00086262  1
  In3+  In19  1  0.35886212  0.52370733  0.83161270  1
  In3+  In20  1  0.36499976  0.16590138  0.82090106  1
  In3+  In21  1  0.16717551  -0.02127656  0.50760811  1
  Ag+  Ag22  1  0.02548416  0.00922355  0.65918478  1
  Ag+  Ag23  1  0.13724563  0.67090862  0.47399533  1
  Ag+  Ag24  1  0.67040119  0.18885759  0.80287784  1
  Ag+  Ag25  1  0.01894385  0.80411755  0.80772589  1
  Ag+  Ag26  1  0.66935260  0.47694819  0.80581284  1
  Ag+  Ag27  1  0.32836424  -0.01830103  0.36130496  1
  Ag+  Ag28  1  0.52126535  -0.01552443  0.51994559  1
  Ag+  Ag29  1  0.49540703  0.35770950  0.85321668  1
  Ag+  Ag30  1  0.33444994  0.68603626  -0.01610034  1
  Ag+  Ag31  1  -0.02549547  0.66863245  -0.02053175  1
  Ag+  Ag32  1  0.68414934  0.30625676  0.33411623  1
  Ag+  Ag33  1  0.83746066  0.14202225  0.35916604  1
  Ag+  Ag34  1  0.03084219  0.68540053  0.36215615  1
  Ag+  Ag35  1  0.69533714  0.63962311  0.68133799  1
  Ag+  Ag36  1  0.33017214  -0.02096391  0.65360263  1
  Ag+  Ag37  1  0.81437874  0.53717933  0.69834655  1
  Ag+  Ag38  1  0.02644427  0.16122274  0.47584124  1
  Ag+  Ag39  1  0.85163677  0.64105446  0.80017013  1
  Ag+  Ag40  1  0.18761262  0.83120224  0.64665952  1
  Ag+  Ag41  1  0.13705016  0.31120966  0.49564286  1
  Ag+  Ag42  1  0.68246089  0.00202436  0.65258775  1
  Sn2+  Sn43  1  0.01093526  0.67838844  0.66747414  1
  Sn2+  Sn44  1  0.18450592  0.33440215  0.82193643  1
  Sn2+  Sn45  1  0.83771416  0.66794663  0.16439220  1
  Sn2+  Sn46  1  0.16132138  0.66733706  0.16594700  1
  Sn2+  Sn47  1  0.33002660  0.50209330  0.50870134  1
  Sn2+  Sn48  1  0.15624787  0.16832279  0.33972203  1
  Sn2+  Sn49  1  0.49158983  0.83899921  0.32982259  1
  Sn2+  Sn50  1  0.50898334  0.67188157  0.82801006  1
  Sn2+  Sn51  1  0.50199762  0.16968312  0.33941030  1
  Sn2+  Sn52  1  0.66763748  0.00469797  -0.00941189  1
  Sn2+  Sn53  1  0.16292392  0.66590844  0.83737390  1
  Sn2+  Sn54  1  0.65859728  0.83075386  0.17506993  1
  Sn2+  Sn55  1  0.16089465  0.83424106  0.33949589  1
  Sn2+  Sn56  1  0.50374318  0.83977138  0.67009831  1
  Sn2+  Sn57  1  0.51035207  0.32622683  0.16296269  1
  Sn2+  Sn58  1  0.83366743  0.66425523  0.49603358  1
  Sn2+  Sn59  1  0.01013994  0.00015395  0.34797484  1
  Sn2+  Sn60  1  0.33029240  -0.00197475  -0.00190981  1
  Sn2+  Sn61  1  0.83686214  0.00349140  0.50836462  1
  Sn2+  Sn62  1  0.33355955  0.83239591  0.15912817  1
  Sn2+  Sn63  1  0.83358860  0.33296824  0.49650973  1
  Sn2+  Sn64  1  -0.00344735  0.82617181  0.16107497  1
  Bi3+  Bi65  1  0.82985012  0.00031525  0.83685860  1
  Bi3+  Bi66  1  0.49751090  0.33000809  0.49743057  1
  Bi3+  Bi67  1  0.83224818  0.84291872  0.67182447  1
  Bi3+  Bi68  1  0.83211856  0.83524080  -0.00038922  1
  Bi3+  Bi69  1  0.33152816  0.33180264  0.33450523  1
  Bi3+  Bi70  1  -0.00545704  0.49948214  0.83107497  1
  Bi3+  Bi71  1  -0.00951740  0.16579361  0.83504795  1
  Bi3+  Bi72  1  -0.00127833  0.50496750  0.16797203  1
  Bi3+  Bi73  1  0.16456080  0.00299425  0.83091846  1
  Bi3+  Bi74  1  0.33328707  0.33112199  -0.00459457  1
  Bi3+  Bi75  1  0.66508955  0.83701789  0.83043885  1
  Bi3+  Bi76  1  0.33462279  0.17008112  0.49600997  1
  Bi3+  Bi77  1  0.83206879  0.16683040  0.00039573  1
  Bi3+  Bi78  1  0.16207597  0.82499058  0.00275215  1
  Bi3+  Bi79  1  0.83476370  0.50421805  0.00591246  1
  Bi3+  Bi80  1  0.49785181  -0.00170970  0.82704628  1
  Bi3+  Bi81  1  0.83784073  0.50406744  0.33266144  1
  Bi3+  Bi82  1  0.33399561  0.33414950  0.66571055  1
  Bi3+  Bi83  1  0.16068109  0.50604233  0.67111288  1
  Bi3+  Bi84  1  0.33390104  0.16796685  0.16513104  1
  Bi3+  Bi85  1  0.49861666  0.67236207  0.50280024  1
  Te2-  Te86  1  0.16867895  0.16605647  0.16911499  1
  Te2-  Te87  1  0.17066806  0.16786832  0.49731575  1
  Te2-  Te88  1  0.15633113  0.16639878  0.83067785  1
  Te2-  Te89  1  0.16284494  0.50154238  0.15526503  1
  Te2-  Te90  1  0.16031156  0.51935362  0.50950752  1
  Te2-  Te91  1  0.15735236  0.49691638  0.83209520  1
  Te2-  Te92  1  0.16730756  0.82908073  0.16594088  1
  Te2-  Te93  1  0.16615136  0.82244377  0.50085532  1
  Te2-  Te94  1  0.15928001  0.83851876  0.84056744  1
  Te2-  Te95  1  0.49576438  0.16102816  0.17021048  1
  Te2-  Te96  1  0.49615061  0.16532368  0.50138574  1
  Te2-  Te97  1  0.52028910  0.15946570  0.82744199  1
  Te2-  Te98  1  0.50090700  0.50227643  0.16699823  1
  Te2-  Te99  1  0.50011911  0.50144390  0.50045705  1
  Te2-  Te100  1  0.51522645  0.50250127  0.83169883  1
  Te2-  Te101  1  0.49763368  0.84151496  0.16096040  1
  Te2-  Te102  1  0.50485722  0.83791004  0.50001904  1
  Te2-  Te103  1  0.49856481  0.83639384  0.83921121  1
  Te2-  Te104  1  0.82894257  0.16244554  0.16419482  1
  Te2-  Te105  1  0.82363593  0.16468188  0.50232911  1
  Te2-  Te106  1  0.82091712  0.16432872  0.83761540  1
  Te2-  Te107  1  0.83508841  0.49902601  0.16720758  1
  Te2-  Te108  1  0.84299504  0.49585731  0.49488506  1
  Te2-  Te109  1  0.82481929  0.49873588  0.84299226  1
  Te2-  Te110  1  0.82821533  0.84183443  0.16118550  1
  Te2-  Te111  1  0.82326409  0.83708122  0.50280451  1
  Te2-  Te112  1  0.83036804  0.83843043  0.83795913  1
  Te2-  Te113  1  0.15997102  -0.00695812  -0.00248760  1
  Te2-  Te114  1  0.17288017  -0.00134926  0.34322589  1
  Te2-  Te115  1  0.17337618  -0.01453228  0.66616117  1
  Te2-  Te116  1  0.17132463  0.33862679  -0.00491002  1
  Te2-  Te117  1  0.16739088  0.34307217  0.34889929  1
  Te2-  Te118  1  0.16909731  0.34046796  0.65622516  1
  Te2-  Te119  1  0.18203979  0.66268534  -0.00099521  1
  Te2-  Te120  1  0.17302384  0.66010515  0.33077980  1
  Te2-  Te121  1  0.17536559  0.67333839  0.67798287  1
  Te2-  Te122  1  0.49759486  -0.00774377  -0.00982946  1
  Te2-  Te123  1  0.48466987  -0.00023084  0.34250556  1
  Te2-  Te124  1  0.48122792  0.00125734  0.66257941  1
  Te2-  Te125  1  0.50011345  0.33018476  -0.00196947  1
  Te2-  Te126  1  0.49354696  0.33282543  0.33342064  1
  Te2-  Te127  1  0.49659495  0.33090048  0.65908450  1
  Te2-  Te128  1  0.48843205  0.67333779  0.00016365  1
  Te2-  Te129  1  0.50871952  0.67124880  0.33962926  1
  Te2-  Te130  1  0.48971316  0.67107659  0.66443809  1
  Te2-  Te131  1  0.83581715  0.00122373  0.00228531  1
  Te2-  Te132  1  0.83424343  -0.00163731  0.33505295  1
  Te2-  Te133  1  0.83050742  0.00602541  0.67056564  1
  Te2-  Te134  1  0.82782503  0.33353130  0.00902270  1
  Te2-  Te135  1  0.82855444  0.34121918  0.32551261  1
  Te2-  Te136  1  0.82977974  0.31964600  0.66390623  1
  Te2-  Te137  1  0.82784613  0.66979205  0.00375594  1
  Te2-  Te138  1  0.82214811  0.66498744  0.32961186  1
  Te2-  Te139  1  0.83572096  0.68066008  0.65772208  1
  Te2-  Te140  1  -0.00513799  0.17124829  -0.00105427  1
  Te2-  Te141  1  -0.01312963  0.16384901  0.33578395  1
  Te2-  Te142  1  -0.00119252  0.15777748  0.67179624  1
  Te2-  Te143  1  -0.00270837  0.51620968  -0.00260574  1
  Te2-  Te144  1  0.00499892  0.50994352  0.33245989  1
  Te2-  Te145  1  -0.00405220  0.50352923  0.66605714  1
  Te2-  Te146  1  -0.00327818  0.82082254  0.00227379  1
  Te2-  Te147  1  0.00385815  0.82916437  0.33381819  1
  Te2-  Te148  1  -0.00720935  0.83731917  0.66963372  1
  Te2-  Te149  1  0.33284995  0.16832533  -0.00066353  1
  Te2-  Te150  1  0.32852040  0.17085959  0.33034265  1
  Te2-  Te151  1  0.33459025  0.17234239  0.66467260  1
  Te2-  Te152  1  0.33176102  0.49306159  -0.01339587  1
  Te2-  Te153  1  0.32455683  0.49735294  0.33478131  1
  Te2-  Te154  1  0.32961678  0.49898182  0.67668293  1
  Te2-  Te155  1  0.32500680  0.83481635  -0.00593507  1
  Te2-  Te156  1  0.33200261  0.83734191  0.33041981  1
  Te2-  Te157  1  0.33251061  0.83239146  0.67652538  1
  Te2-  Te158  1  0.66905355  0.17308741  0.01447473  1
  Te2-  Te159  1  0.67158235  0.16012367  0.32300304  1
  Te2-  Te160  1  0.65823203  0.15298516  0.66005822  1
  Te2-  Te161  1  0.67095302  0.49132529  0.01504943  1
  Te2-  Te162  1  0.67100007  0.51376027  0.32785153  1
  Te2-  Te163  1  0.67895807  0.49429346  0.66066261  1
  Te2-  Te164  1  0.66546625  0.83462517  -0.00033323  1
  Te2-  Te165  1  0.66301280  0.82858458  0.33735566  1
  Te2-  Te166  1  0.66581105  0.84865290  0.66479330  1
  Te2-  Te167  1  0.00451777  -0.00412082  0.17611922  1
  Te2-  Te168  1  0.00805093  0.01123515  0.50578343  1
  Te2-  Te169  1  -0.00238329  0.00548283  0.81735560  1
  Te2-  Te170  1  0.00573041  0.33957906  0.16740463  1
  Te2-  Te171  1  -0.00781063  0.32630701  0.50072259  1
  Te2-  Te172  1  -0.00006694  0.33363071  0.83359487  1
  Te2-  Te173  1  -0.00121142  0.66561329  0.17083850  1
  Te2-  Te174  1  -0.00782363  0.66518721  0.50214998  1
  Te2-  Te175  1  -0.00593675  0.66144857  0.83316844  1
  Te2-  Te176  1  0.34074886  0.00473446  0.16201019  1
  Te2-  Te177  1  0.31995111  0.00656012  0.50564857  1
  Te2-  Te178  1  0.32968728  0.00413083  0.83557444  1
  Te2-  Te179  1  0.33739766  0.33352623  0.16446808  1
  Te2-  Te180  1  0.33426614  0.33637858  0.49973277  1
  Te2-  Te181  1  0.34594333  0.32669611  0.83076535  1
  Te2-  Te182  1  0.34536872  0.66905215  0.16501275  1
  Te2-  Te183  1  0.33668858  0.66613721  0.50800366  1
  Te2-  Te184  1  0.33679162  0.67138645  0.83775516  1
  Te2-  Te185  1  0.65024103  -0.00200411  0.16399901  1
  Te2-  Te186  1  0.66456774  0.00668738  0.50357789  1
  Te2-  Te187  1  0.66407254  -0.00181465  0.83220179  1
  Te2-  Te188  1  0.66299131  0.33873041  0.18511330  1
  Te2-  Te189  1  0.66079377  0.32131928  0.48529911  1
  Te2-  Te190  1  0.65307153  0.33328082  0.83698100  1
  Te2-  Te191  1  0.65627943  0.66799088  0.15937867  1
  Te2-  Te192  1  0.66131897  0.67036352  0.51455385  1
  Te2-  Te193  1  0.66526330  0.67667918  0.82149680  1
  Pb2+  Pb194  1  0.66400821  0.32438992  0.65945218  1
  Pb2+  Pb195  1  0.33665992  0.83890004  0.50074088  1
  Pb2+  Pb196  1  0.16521956  0.16425922  -0.00317604  1
  Pb2+  Pb197  1  0.17073973  0.33492875  0.17565792  1
  Pb2+  Pb198  1  -0.00234377  0.33138051  0.66627878  1
  Pb2+  Pb199  1  -0.00550740  0.83989836  0.50678455  1
  Pb2+  Pb200  1  0.65841805  -0.00347850  0.33650483  1
  Pb2+  Pb201  1  -0.00241796  0.16602469  0.16988396  1
  Pb2+  Pb202  1  0.33010915  0.50473107  0.16098581  1
  Pb2+  Pb203  1  -0.00016797  0.34639177  0.00101250  1
  Pb2+  Pb204  1  0.17314633  -0.00409881  0.17345197  1
  Pb2+  Pb205  1  0.82659844  0.33189515  0.83233445  1
  Pb2+  Pb206  1  0.34009058  0.66945638  0.33290709  1
  Pb2+  Pb207  1  0.67382632  0.49476168  0.49542278  1
  Pb2+  Pb208  1  0.50205835  0.50023261  -0.00200174  1
  Pb2+  Pb209  1  0.16820233  0.16049501  0.66461949  1
  Pb2+  Pb210  1  0.83660690  0.83070852  0.33137926  1
  Pb2+  Pb211  1  0.66179315  0.66279862  -0.01342188  1
  Pb2+  Pb212  1  0.49875063  0.50092858  0.33489701  1
  Pb2+  Pb213  1  0.50165144  0.15970746  -0.00024323  1
  Pb2+  Pb214  1  0.50604060  0.50249724  0.66615568  1
  Pb2+  Pb215  1  -0.00483156  0.34024258  0.33517357  1
