# generated using pymatgen
data_In22Ag21Sn22Bi21(Te54Pb11)2
_symmetry_space_group_name_H-M   'P 1'
_cell_length_a   19.15856660
_cell_length_b   19.18914744
_cell_length_c   19.13030600
_cell_angle_alpha   89.98145400
_cell_angle_beta   89.99164821
_cell_angle_gamma   90.00772039
_symmetry_Int_Tables_number   1
_chemical_formula_structural   In22Ag21Sn22Bi21(Te54Pb11)2
_chemical_formula_sum   'In22 Ag21 Sn22 Bi21 Te108 Pb22'
_cell_volume   7032.99936582
_cell_formula_units_Z   1
loop_
 _symmetry_equiv_pos_site_id
 _symmetry_equiv_pos_as_xyz
  1  'x, y, z'
loop_
 _atom_type_symbol
 _atom_type_oxidation_number
  In3+  3.0
  Ag+  1.0
  Sn2+  2.0
  Bi3+  3.0
  Te2-  -2.0
  Pb2+  2.0
loop_
 _atom_site_type_symbol
 _atom_site_label
 _atom_site_symmetry_multiplicity
 _atom_site_fract_x
 _atom_site_fract_y
 _atom_site_fract_z
 _atom_site_occupancy
  In3+  In0  1  0.68523566  0.67503615  -0.00268999  1
  In3+  In1  1  0.52363550  0.15196470  0.32903598  1
  In3+  In2  1  0.66290212  0.84606464  0.19005539  1
  In3+  In3  1  0.83933224  0.49229244  0.33749018  1
  In3+  In4  1  0.66823590  0.49707885  0.82055243  1
  In3+  In5  1  0.66497176  0.15286160  0.81778450  1
  In3+  In6  1  0.00981813  0.66477608  -0.00263623  1
  In3+  In7  1  0.82833482  0.17735613  0.01622727  1
  In3+  In8  1  -0.01038124  0.49738462  0.15838484  1
  In3+  In9  1  0.67951156  0.84682059  0.49627150  1
  In3+  In10  1  0.48654597  0.83317654  -0.01638933  1
  In3+  In11  1  0.31970043  0.49735224  0.15309179  1
  In3+  In12  1  0.16247398  0.68601641  0.16380371  1
  In3+  In13  1  0.83349055  0.14799102  0.33873460  1
  In3+  In14  1  0.35145130  0.33180338  0.33770330  1
  In3+  In15  1  0.32925788  0.49026061  0.82462379  1
  In3+  In16  1  0.50575218  0.67626369  0.50500762  1
  In3+  In17  1  0.33448902  0.68633768  0.67023428  1
  In3+  In18  1  0.16209515  0.16874414  -0.03012316  1
  In3+  In19  1  -0.00455748  0.49917097  0.52191937  1
  In3+  In20  1  0.33092041  0.83963296  0.49544557  1
  In3+  In21  1  0.50422106  0.48880545  0.67966847  1
  Ag+  Ag22  1  0.66625905  0.85460193  0.85808815  1
  Ag+  Ag23  1  0.31277242  0.01531644  0.67478179  1
  Ag+  Ag24  1  0.49049157  0.13674057  0.69404069  1
  Ag+  Ag25  1  0.51621634  0.31480972  0.82733681  1
  Ag+  Ag26  1  0.81002275  0.47509187  -0.01474349  1
  Ag+  Ag27  1  0.81444706  0.31292862  0.50232492  1
  Ag+  Ag28  1  0.68339875  0.00196833  0.35625770  1
  Ag+  Ag29  1  0.29771808  0.84118110  0.85062909  1
  Ag+  Ag30  1  0.19514192  0.86813117  -0.03732213  1
  Ag+  Ag31  1  0.47622344  0.85430073  0.34166991  1
  Ag+  Ag32  1  0.67292746  -0.01976756  0.66079911  1
  Ag+  Ag33  1  0.01860386  -0.01849300  0.65796815  1
  Ag+  Ag34  1  0.21070269  0.85900590  0.70063908  1
  Ag+  Ag35  1  0.64686203  0.31951145  0.67374271  1
  Ag+  Ag36  1  0.86134356  0.85210314  0.35757224  1
  Ag+  Ag37  1  0.19210763  0.52023741  0.01709901  1
  Ag+  Ag38  1  0.81477125  0.01969288  0.50968337  1
  Ag+  Ag39  1  -0.01262804  0.31043988  0.63503790  1
  Ag+  Ag40  1  -0.02435294  -0.00275697  0.36288250  1
  Ag+  Ag41  1  0.67250209  0.14446659  0.15970680  1
  Ag+  Ag42  1  0.13480214  0.14198443  0.66433252  1
  Sn2+  Sn43  1  0.66339394  0.32971417  -0.01238126  1
  Sn2+  Sn44  1  0.33652681  0.33148985  -0.00146485  1
  Sn2+  Sn45  1  0.51070723  0.50237334  0.00002671  1
  Sn2+  Sn46  1  0.50433855  0.84009282  0.66304872  1
  Sn2+  Sn47  1  0.33517109  0.00783700  0.33563222  1
  Sn2+  Sn48  1  -0.00057182  0.16220141  0.16873068  1
  Sn2+  Sn49  1  0.66583256  0.49792671  0.49876654  1
  Sn2+  Sn50  1  0.00482428  0.83698179  0.50207938  1
  Sn2+  Sn51  1  0.16081927  0.83387132  0.33969045  1
  Sn2+  Sn52  1  0.83219657  0.66752148  0.83247900  1
  Sn2+  Sn53  1  0.83185047  0.48738513  0.66917004  1
  Sn2+  Sn54  1  -0.00864716  0.17157282  0.82942809  1
  Sn2+  Sn55  1  0.66883239  0.68246894  0.32995713  1
  Sn2+  Sn56  1  0.16054548  0.16499676  0.34359542  1
  Sn2+  Sn57  1  0.33091924  0.00477118  -0.01340131  1
  Sn2+  Sn58  1  0.66341891  0.67325424  0.66861192  1
  Sn2+  Sn59  1  0.49576511  -0.00362837  0.82330922  1
  Sn2+  Sn60  1  -0.00570661  0.32832956  0.33571034  1
  Sn2+  Sn61  1  0.16180540  0.00319336  0.17068670  1
  Sn2+  Sn62  1  0.50637127  0.33505052  0.15743623  1
  Sn2+  Sn63  1  0.50991088  0.33744800  0.51132505  1
  Sn2+  Sn64  1  -0.01604246  0.83940704  0.83099179  1
  Bi3+  Bi65  1  0.33564773  0.16345581  0.50043639  1
  Bi3+  Bi66  1  0.83349329  0.83517280  0.66549540  1
  Bi3+  Bi67  1  0.00193900  0.33311382  -0.00040447  1
  Bi3+  Bi68  1  0.16805726  0.66734374  0.49697587  1
  Bi3+  Bi69  1  0.83161062  0.66777871  0.16796400  1
  Bi3+  Bi70  1  0.33324820  0.49951086  0.50105396  1
  Bi3+  Bi71  1  0.49602737  -0.00337478  0.16556180  1
  Bi3+  Bi72  1  0.83226268  -0.00021343  0.82478545  1
  Bi3+  Bi73  1  0.50447090  0.50082105  0.33612639  1
  Bi3+  Bi74  1  0.50028942  0.66518262  0.16915096  1
  Bi3+  Bi75  1  0.66572457  0.50115109  0.16660005  1
  Bi3+  Bi76  1  0.17095419  0.50158454  0.66872450  1
  Bi3+  Bi77  1  0.16804014  -0.00160712  0.49707470  1
  Bi3+  Bi78  1  0.82836880  0.16748900  0.66689034  1
  Bi3+  Bi79  1  0.16699841  0.32732817  0.16570800  1
  Bi3+  Bi80  1  0.83424238  0.83496433  -0.00216441  1
  Bi3+  Bi81  1  0.50058251  0.67031478  0.82952416  1
  Bi3+  Bi82  1  0.82819584  0.66682432  0.49735321  1
  Bi3+  Bi83  1  0.33465626  0.66375015  -0.00524100  1
  Bi3+  Bi84  1  -0.00312965  0.49952449  0.84110563  1
  Bi3+  Bi85  1  0.16923264  0.33407617  0.83183946  1
  Te2-  Te86  1  0.16519143  0.16752131  0.17505729  1
  Te2-  Te87  1  0.17026320  0.16396472  0.51473435  1
  Te2-  Te88  1  0.16570423  0.17018373  0.81454148  1
  Te2-  Te89  1  0.16739407  0.49023563  0.15899696  1
  Te2-  Te90  1  0.16668354  0.50442960  0.49986615  1
  Te2-  Te91  1  0.16603129  0.49674238  0.83433475  1
  Te2-  Te92  1  0.16702899  0.83472610  0.16687607  1
  Te2-  Te93  1  0.17111422  0.82794371  0.50422172  1
  Te2-  Te94  1  0.14852390  0.82964424  0.82966448  1
  Te2-  Te95  1  0.50661110  0.16517547  0.17472244  1
  Te2-  Te96  1  0.49850261  0.17113637  0.48238412  1
  Te2-  Te97  1  0.51133944  0.16701231  0.83714894  1
  Te2-  Te98  1  0.49994930  0.50105169  0.16996298  1
  Te2-  Te99  1  0.49656879  0.50354865  0.49742584  1
  Te2-  Te100  1  0.49142221  0.51050266  0.83071276  1
  Te2-  Te101  1  0.50714514  0.82824898  0.18169887  1
  Te2-  Te102  1  0.49381801  0.82605133  0.48889158  1
  Te2-  Te103  1  0.51857781  0.82941828  0.83417735  1
  Te2-  Te104  1  0.82520193  0.16704514  0.16933787  1
  Te2-  Te105  1  0.83499562  0.16521164  0.49576823  1
  Te2-  Te106  1  0.82286550  0.16504916  0.83499223  1
  Te2-  Te107  1  0.83190055  0.50608259  0.16239282  1
  Te2-  Te108  1  0.83938770  0.50868984  0.49735679  1
  Te2-  Te109  1  0.83071987  0.50123212  0.84027688  1
  Te2-  Te110  1  0.82359490  0.82882339  0.16263695  1
  Te2-  Te111  1  0.83424856  0.82791394  0.50044760  1
  Te2-  Te112  1  0.81707412  0.83329131  0.83016484  1
  Te2-  Te113  1  0.17158738  0.00816275  -0.00151204  1
  Te2-  Te114  1  0.17294273  0.00225943  0.33620371  1
  Te2-  Te115  1  0.16658797  -0.00386670  0.66132199  1
  Te2-  Te116  1  0.16713444  0.32364425  -0.00074297  1
  Te2-  Te117  1  0.15850673  0.32867307  0.32882953  1
  Te2-  Te118  1  0.16387881  0.34186915  0.67036084  1
  Te2-  Te119  1  0.16919999  0.66499159  0.00713533  1
  Te2-  Te120  1  0.16657070  0.66533661  0.33039586  1
  Te2-  Te121  1  0.17540692  0.66454557  0.66287619  1
  Te2-  Te122  1  0.49622928  -0.00804074  0.00207503  1
  Te2-  Te123  1  0.49812305  -0.00051092  0.32951178  1
  Te2-  Te124  1  0.52086772  -0.00204238  0.66744460  1
  Te2-  Te125  1  0.49785845  0.33540631  -0.00990382  1
  Te2-  Te126  1  0.50334126  0.33807104  0.33239893  1
  Te2-  Te127  1  0.50128346  0.33932069  0.67581426  1
  Te2-  Te128  1  0.49512487  0.67202302  0.00310774  1
  Te2-  Te129  1  0.50393478  0.66193452  0.33162418  1
  Te2-  Te130  1  0.49628701  0.66660135  0.66511338  1
  Te2-  Te131  1  0.83346792  -0.00126809  -0.00619648  1
  Te2-  Te132  1  0.83039074  -0.00450816  0.34017741  1
  Te2-  Te133  1  0.82464843  0.00104477  0.66180116  1
  Te2-  Te134  1  0.83637750  0.33168466  0.00088491  1
  Te2-  Te135  1  0.83391174  0.33958693  0.34910185  1
  Te2-  Te136  1  0.84203808  0.33293215  0.65540688  1
  Te2-  Te137  1  0.83917240  0.66944082  0.00203822  1
  Te2-  Te138  1  0.83040796  0.67736921  0.33123842  1
  Te2-  Te139  1  0.83176185  0.66580027  0.66351098  1
  Te2-  Te140  1  -0.00073348  0.16992176  -0.00083296  1
  Te2-  Te141  1  -0.01016227  0.15338292  0.33113532  1
  Te2-  Te142  1  -0.00964567  0.16863846  0.66986739  1
  Te2-  Te143  1  -0.00084462  0.49885177  0.00256516  1
  Te2-  Te144  1  -0.00726169  0.49977912  0.31698849  1
  Te2-  Te145  1  0.00247219  0.50176782  0.67706740  1
  Te2-  Te146  1  -0.00404584  0.82439827  -0.00405902  1
  Te2-  Te147  1  0.00459550  0.84752863  0.33233234  1
  Te2-  Te148  1  -0.00641202  0.83630738  0.66872979  1
  Te2-  Te149  1  0.33016025  0.16273474  -0.00231952  1
  Te2-  Te150  1  0.32792839  0.17405123  0.33870841  1
  Te2-  Te151  1  0.34871778  0.15809133  0.66113488  1
  Te2-  Te152  1  0.33667640  0.50211320  -0.00420387  1
  Te2-  Te153  1  0.33647767  0.49303541  0.33814959  1
  Te2-  Te154  1  0.33535560  0.49840690  0.66369659  1
  Te2-  Te155  1  0.33198926  0.83046377  -0.00084003  1
  Te2-  Te156  1  0.32982109  0.83409410  0.33854653  1
  Te2-  Te157  1  0.34413127  0.83665585  0.65047294  1
  Te2-  Te158  1  0.67417062  0.17171773  0.01158637  1
  Te2-  Te159  1  0.67714704  0.15673283  0.32839451  1
  Te2-  Te160  1  0.66756711  0.17456757  0.66879090  1
  Te2-  Te161  1  0.66737098  0.49878241  0.00305424  1
  Te2-  Te162  1  0.67021207  0.50255141  0.33046141  1
  Te2-  Te163  1  0.66395038  0.50639862  0.66782010  1
  Te2-  Te164  1  0.67087740  0.82680806  0.00246274  1
  Te2-  Te165  1  0.66732952  0.84581013  0.34296116  1
  Te2-  Te166  1  0.67102309  0.83125805  0.65291526  1
  Te2-  Te167  1  0.00061871  0.00186052  0.15938162  1
  Te2-  Te168  1  0.00774584  -0.00414915  0.50669180  1
  Te2-  Te169  1  -0.00625259  0.00514443  0.82413017  1
  Te2-  Te170  1  0.00036023  0.33196922  0.16452219  1
  Te2-  Te171  1  0.00163719  0.34642914  0.49424717  1
  Te2-  Te172  1  0.00173178  0.33620817  0.83740849  1
  Te2-  Te173  1  0.00092817  0.66058684  0.16147777  1
  Te2-  Te174  1  0.00137244  0.66285674  0.49786662  1
  Te2-  Te175  1  -0.00121138  0.66292590  0.83942537  1
  Te2-  Te176  1  0.33525384  -0.00050140  0.16725495  1
  Te2-  Te177  1  0.33400281  -0.00147445  0.50528522  1
  Te2-  Te178  1  0.33884030  -0.01418406  0.82318976  1
  Te2-  Te179  1  0.33320686  0.33820547  0.16702202  1
  Te2-  Te180  1  0.33800037  0.33382342  0.49668879  1
  Te2-  Te181  1  0.33300588  0.33032185  0.83662214  1
  Te2-  Te182  1  0.33410289  0.65844803  0.16336835  1
  Te2-  Te183  1  0.33284357  0.66301175  0.50585424  1
  Te2-  Te184  1  0.33871623  0.69318744  0.83055045  1
  Te2-  Te185  1  0.66025989  -0.00155607  0.16574432  1
  Te2-  Te186  1  0.66941152  -0.00192829  0.50422560  1
  Te2-  Te187  1  0.66815177  0.00014965  0.82751443  1
  Te2-  Te188  1  0.66456913  0.34004185  0.16462171  1
  Te2-  Te189  1  0.66922449  0.33966776  0.51407853  1
  Te2-  Te190  1  0.66007460  0.34607150  0.82586984  1
  Te2-  Te191  1  0.66500304  0.66362158  0.16037351  1
  Te2-  Te192  1  0.66525352  0.66319170  0.49802096  1
  Te2-  Te193  1  0.66287923  0.65254803  0.83808779  1
  Pb2+  Pb194  1  0.00173990  0.16594503  0.49972403  1
  Pb2+  Pb195  1  0.33742816  0.15871548  0.82726032  1
  Pb2+  Pb196  1  0.83095981  0.33618556  0.17533786  1
  Pb2+  Pb197  1  0.00113780  -0.00237779  -0.00862562  1
  Pb2+  Pb198  1  0.33670981  0.66560543  0.33755261  1
  Pb2+  Pb199  1  0.16813404  0.33314673  0.50243765  1
  Pb2+  Pb200  1  0.16550737  -0.00089990  0.82767738  1
  Pb2+  Pb201  1  0.33420249  0.16698413  0.16956930  1
  Pb2+  Pb202  1  0.82833323  0.33306683  0.82348232  1
  Pb2+  Pb203  1  0.33851250  0.83084534  0.16829785  1
  Pb2+  Pb204  1  -0.00333069  0.67260963  0.33180078  1
  Pb2+  Pb205  1  0.66650331  -0.00216285  -0.00280398  1
  Pb2+  Pb206  1  0.66449676  0.16899868  0.50195072  1
  Pb2+  Pb207  1  0.00284740  0.67101269  0.66736970  1
  Pb2+  Pb208  1  -0.00406717  0.83228342  0.16343150  1
  Pb2+  Pb209  1  0.83296800  -0.00233512  0.17167907  1
  Pb2+  Pb210  1  0.33050379  0.32592698  0.66755062  1
  Pb2+  Pb211  1  0.66839057  0.33173718  0.33969783  1
  Pb2+  Pb212  1  0.50179989  -0.00138951  0.50202470  1
  Pb2+  Pb213  1  0.17258870  0.66396066  0.83415323  1
  Pb2+  Pb214  1  0.50401341  0.16640557  0.00465782  1
  Pb2+  Pb215  1  0.16217832  0.49593568  0.32714281  1
