# generated using pymatgen
data_In22Ag21Sn22Bi21(Te54Pb11)2
_symmetry_space_group_name_H-M   'P 1'
_cell_length_a   19.14530743
_cell_length_b   19.13352582
_cell_length_c   19.13431081
_cell_angle_alpha   89.98818355
_cell_angle_beta   90.00193126
_cell_angle_gamma   90.00042720
_symmetry_Int_Tables_number   1
_chemical_formula_structural   In22Ag21Sn22Bi21(Te54Pb11)2
_chemical_formula_sum   'In22 Ag21 Sn22 Bi21 Te108 Pb22'
_cell_volume   7009.22765843
_cell_formula_units_Z   1
loop_
 _symmetry_equiv_pos_site_id
 _symmetry_equiv_pos_as_xyz
  1  'x, y, z'
loop_
 _atom_type_symbol
 _atom_type_oxidation_number
  In3+  3.0
  Ag+  1.0
  Sn2+  2.0
  Bi3+  3.0
  Te2-  -2.0
  Pb2+  2.0
loop_
 _atom_site_type_symbol
 _atom_site_label
 _atom_site_symmetry_multiplicity
 _atom_site_fract_x
 _atom_site_fract_y
 _atom_site_fract_z
 _atom_site_occupancy
  In3+  In0  1  -0.00427028  0.68338352  0.00874203  1
  In3+  In1  1  0.49631022  0.81584272  -0.00733072  1
  In3+  In2  1  0.32956669  0.01079267  0.32913703  1
  In3+  In3  1  0.00293684  0.67603480  0.67717521  1
  In3+  In4  1  0.64572540  0.00289506  0.66379904  1
  In3+  In5  1  0.84904609  0.33109143  0.50108702  1
  In3+  In6  1  0.16271665  0.82330687  0.33067678  1
  In3+  In7  1  0.33057130  0.17137856  0.15740342  1
  In3+  In8  1  0.47271752  0.49643850  0.31368025  1
  In3+  In9  1  0.00777523  0.33272460  0.01194043  1
  In3+  In10  1  0.50821992  -0.00755492  0.16546299  1
  In3+  In11  1  0.16461413  0.33370348  0.83040698  1
  In3+  In12  1  0.69240806  0.83272312  0.50590024  1
  In3+  In13  1  0.67269234  0.00134645  0.32053181  1
  In3+  In14  1  0.34694178  0.17795412  0.81829215  1
  In3+  In15  1  0.16422289  0.66467243  0.50331258  1
  In3+  In16  1  0.16880890  0.17005182  0.34545849  1
  In3+  In17  1  0.49692710  0.84111834  0.34703773  1
  In3+  In18  1  0.32227315  0.17044704  0.51669247  1
  In3+  In19  1  0.31500434  0.66238569  0.66798477  1
  In3+  In20  1  0.81577453  0.17356879  0.00190704  1
  In3+  In21  1  0.64926827  0.49551071  0.49360251  1
  Ag+  Ag22  1  0.02310009  0.17450845  0.52341656  1
  Ag+  Ag23  1  0.15839207  0.48492219  0.66626304  1
  Ag+  Ag24  1  0.85533797  0.85110213  0.02227226  1
  Ag+  Ag25  1  0.03590467  0.30563674  0.66331121  1
  Ag+  Ag26  1  0.32837538  0.33312704  0.01419785  1
  Ag+  Ag27  1  0.47213597  0.82828534  0.64665101  1
  Ag+  Ag28  1  0.33396504  0.31321471  0.31459107  1
  Ag+  Ag29  1  0.17752453  0.46828123  0.30490810  1
  Ag+  Ag30  1  0.16695451  0.18786214  0.68582711  1
  Ag+  Ag31  1  0.14367953  0.80400959  -0.02254659  1
  Ag+  Ag32  1  0.64351634  0.18804781  0.84187626  1
  Ag+  Ag33  1  0.15570885  0.35924180  0.20017972  1
  Ag+  Ag34  1  0.17236741  0.83458956  0.68632536  1
  Ag+  Ag35  1  0.00455221  0.81324913  0.51047818  1
  Ag+  Ag36  1  0.52627543  0.19133293  0.66641957  1
  Ag+  Ag37  1  0.63516218  0.17007403  0.19385235  1
  Ag+  Ag38  1  0.85271764  0.00156798  0.16666292  1
  Ag+  Ag39  1  0.46754910  0.51912973  0.01673103  1
  Ag+  Ag40  1  0.33647933  0.35658771  0.66550524  1
  Ag+  Ag41  1  0.81936468  0.64050900  0.16543865  1
  Ag+  Ag42  1  0.03028455  0.81301571  0.86142583  1
  Sn2+  Sn43  1  0.33518549  0.48915986  0.83049030  1
  Sn2+  Sn44  1  0.16554904  0.48936658  -0.01120746  1
  Sn2+  Sn45  1  0.84198164  0.16800029  0.66672851  1
  Sn2+  Sn46  1  -0.00552755  0.83496673  0.17061658  1
  Sn2+  Sn47  1  0.32886897  0.49266718  0.49808093  1
  Sn2+  Sn48  1  0.49666087  0.33584305  0.83873030  1
  Sn2+  Sn49  1  0.67273490  0.84414736  0.16382036  1
  Sn2+  Sn50  1  0.00415565  0.49579041  0.82519268  1
  Sn2+  Sn51  1  0.84652011  0.49133702  0.66683542  1
  Sn2+  Sn52  1  0.84160732  0.16453803  0.32543597  1
  Sn2+  Sn53  1  0.49279576  0.32791578  0.50428634  1
  Sn2+  Sn54  1  0.65183899  0.33199967  0.66549250  1
  Sn2+  Sn55  1  0.33130943  0.83750108  0.16773048  1
  Sn2+  Sn56  1  -0.00882997  0.00774930  -0.00148405  1
  Sn2+  Sn57  1  0.83667202  0.67423658  0.83896239  1
  Sn2+  Sn58  1  0.17164592  0.34344715  0.51084958  1
  Sn2+  Sn59  1  0.16598058  0.66984767  0.17089508  1
  Sn2+  Sn60  1  0.32810375  0.00696162  0.00342937  1
  Sn2+  Sn61  1  0.50237522  0.00045062  0.83630429  1
  Sn2+  Sn62  1  0.00192845  0.00152627  0.33875422  1
  Sn2+  Sn63  1  0.16720999  0.00297475  0.16380342  1
  Sn2+  Sn64  1  0.83659458  0.50600363  -0.00377126  1
  Bi3+  Bi65  1  0.16196294  -0.00129720  0.49699504  1
  Bi3+  Bi66  1  0.00797478  0.16387370  0.16348791  1
  Bi3+  Bi67  1  0.49859605  -0.00103315  0.50028375  1
  Bi3+  Bi68  1  0.49519033  0.16802360  -0.00582038  1
  Bi3+  Bi69  1  0.67054986  0.66995540  0.66766304  1
  Bi3+  Bi70  1  0.49700648  0.32823523  0.16583356  1
  Bi3+  Bi71  1  0.67679137  0.66805881  0.00072454  1
  Bi3+  Bi72  1  0.66610000  -0.00132443  -0.00142789  1
  Bi3+  Bi73  1  0.66828886  0.49420776  0.82976376  1
  Bi3+  Bi74  1  0.84405547  0.49871298  0.33622530  1
  Bi3+  Bi75  1  0.49897397  0.66530890  0.50003735  1
  Bi3+  Bi76  1  0.16950116  0.16485799  -0.00474030  1
  Bi3+  Bi77  1  -0.00030402  -0.00535080  0.66391546  1
  Bi3+  Bi78  1  0.00489877  0.49650603  0.50280598  1
  Bi3+  Bi79  1  0.00025489  0.66852639  0.32914625  1
  Bi3+  Bi80  1  0.66325006  0.16619430  0.50566716  1
  Bi3+  Bi81  1  0.83678377  0.83326339  0.66738500  1
  Bi3+  Bi82  1  0.33589182  0.83553180  0.83626920  1
  Bi3+  Bi83  1  -0.00022278  0.16490798  0.83252129  1
  Bi3+  Bi84  1  0.66904913  0.83462732  0.83133093  1
  Bi3+  Bi85  1  0.32839429  -0.00667534  0.66578051  1
  Te2-  Te86  1  0.17340031  0.16876469  0.15677123  1
  Te2-  Te87  1  0.16785446  0.16478090  0.49897482  1
  Te2-  Te88  1  0.16530666  0.17260856  0.83301145  1
  Te2-  Te89  1  0.16688002  0.50169150  0.15968019  1
  Te2-  Te90  1  0.16568131  0.51031988  0.51536534  1
  Te2-  Te91  1  0.16430573  0.49333453  0.81989721  1
  Te2-  Te92  1  0.17145912  0.83240819  0.17510178  1
  Te2-  Te93  1  0.15455884  0.83527241  0.48455021  1
  Te2-  Te94  1  0.17407869  0.83205043  0.83676370  1
  Te2-  Te95  1  0.48806508  0.16585589  0.16570704  1
  Te2-  Te96  1  0.50127773  0.16041940  0.51640861  1
  Te2-  Te97  1  0.50034071  0.16584326  0.81956679  1
  Te2-  Te98  1  0.50289592  0.49571990  0.15871461  1
  Te2-  Te99  1  0.49775112  0.50147220  0.50018040  1
  Te2-  Te100  1  0.50591460  0.49524670  0.83627740  1
  Te2-  Te101  1  0.50219537  0.84090055  0.16184729  1
  Te2-  Te102  1  0.49710335  0.83220306  0.49888437  1
  Te2-  Te103  1  0.50183333  0.83400108  0.83783931  1
  Te2-  Te104  1  0.84310204  0.15734692  0.15653609  1
  Te2-  Te105  1  0.82444644  0.17551681  0.49568972  1
  Te2-  Te106  1  0.83841831  0.16702367  0.83963015  1
  Te2-  Te107  1  0.83554713  0.49277777  0.17061666  1
  Te2-  Te108  1  0.84143064  0.49467505  0.49839103  1
  Te2-  Te109  1  0.83254521  0.50254686  0.83142375  1
  Te2-  Te110  1  0.82743181  0.84930817  0.16557865  1
  Te2-  Te111  1  0.85019510  0.83492612  0.49871542  1
  Te2-  Te112  1  0.83063347  0.83269539  0.83085975  1
  Te2-  Te113  1  0.16763240  0.00215107  0.00130976  1
  Te2-  Te114  1  0.17230767  0.00802846  0.33501946  1
  Te2-  Te115  1  0.16424655  -0.01439388  0.65822412  1
  Te2-  Te116  1  0.17420033  0.33025706  -0.01213132  1
  Te2-  Te117  1  0.18085294  0.32485788  0.34273132  1
  Te2-  Te118  1  0.18096229  0.33508298  0.66683788  1
  Te2-  Te119  1  0.15359638  0.66025054  0.00259683  1
  Te2-  Te120  1  0.16331137  0.66834712  0.33675177  1
  Te2-  Te121  1  0.16114070  0.68660208  0.66018016  1
  Te2-  Te122  1  0.50000708  0.00792333  0.00551470  1
  Te2-  Te123  1  0.49532691  -0.00043439  0.33382261  1
  Te2-  Te124  1  0.49162404  -0.01538212  0.66308251  1
  Te2-  Te125  1  0.48761501  0.32676693  0.00050354  1
  Te2-  Te126  1  0.48610938  0.33816922  0.33130232  1
  Te2-  Te127  1  0.48931280  0.33361879  0.66781595  1
  Te2-  Te128  1  0.50418017  0.66067056  0.00070753  1
  Te2-  Te129  1  0.50117696  0.65527327  0.33659078  1
  Te2-  Te130  1  0.50783959  0.67892696  0.66014858  1
  Te2-  Te131  1  0.82753796  -0.00317155  0.00937450  1
  Te2-  Te132  1  0.82851202  0.00550775  0.32236303  1
  Te2-  Te133  1  0.83746992  -0.00082560  0.66299461  1
  Te2-  Te134  1  0.83707110  0.32747515  -0.00083231  1
  Te2-  Te135  1  0.83551404  0.33405924  0.33992415  1
  Te2-  Te136  1  0.82680866  0.33315761  0.65710994  1
  Te2-  Te137  1  0.83879242  0.67048863  0.01313963  1
  Te2-  Te138  1  0.83791641  0.66344410  0.32183369  1
  Te2-  Te139  1  0.83400946  0.66738228  0.66528470  1
  Te2-  Te140  1  0.00483418  0.17238198  -0.00359575  1
  Te2-  Te141  1  0.00861173  0.16725126  0.32496866  1
  Te2-  Te142  1  0.00436906  0.15969120  0.67009387  1
  Te2-  Te143  1  -0.00306434  0.48644382  -0.00827914  1
  Te2-  Te144  1  0.00944767  0.50099624  0.33773043  1
  Te2-  Te145  1  0.00925427  0.51619801  0.66308762  1
  Te2-  Te146  1  0.00080217  0.83885771  0.00322006  1
  Te2-  Te147  1  0.00481019  0.83419203  0.33120540  1
  Te2-  Te148  1  -0.00191180  0.82994176  0.66010771  1
  Te2-  Te149  1  0.33454606  0.17537753  -0.01138024  1
  Te2-  Te150  1  0.32802850  0.16659811  0.33588857  1
  Te2-  Te151  1  0.31644857  0.15420243  0.66916608  1
  Te2-  Te152  1  0.32761994  0.48950660  -0.00998767  1
  Te2-  Te153  1  0.31984153  0.49964834  0.33752903  1
  Te2-  Te154  1  0.32756893  0.50971693  0.66883067  1
  Te2-  Te155  1  0.34122924  0.83555359  -0.00129972  1
  Te2-  Te156  1  0.33942669  0.83942850  0.32987506  1
  Te2-  Te157  1  0.32557014  0.82823579  0.67084188  1
  Te2-  Te158  1  0.66111210  0.16302295  -0.01308201  1
  Te2-  Te159  1  0.66516146  0.15942682  0.33957132  1
  Te2-  Te160  1  0.67084558  0.15890936  0.66706524  1
  Te2-  Te161  1  0.67468025  0.50259205  -0.00422736  1
  Te2-  Te162  1  0.67825852  0.50008191  0.33961282  1
  Te2-  Te163  1  0.67037887  0.50458498  0.66576831  1
  Te2-  Te164  1  0.65668949  0.83323404  -0.00378546  1
  Te2-  Te165  1  0.65702969  0.84344511  0.33173165  1
  Te2-  Te166  1  0.67144424  0.83599444  0.66757169  1
  Te2-  Te167  1  0.00240538  0.00236711  0.16794406  1
  Te2-  Te168  1  0.00068920  0.02329844  0.49740645  1
  Te2-  Te169  1  0.00099243  -0.00115862  0.83071476  1
  Te2-  Te170  1  0.01378577  0.32967423  0.16769129  1
  Te2-  Te171  1  0.00276786  0.32780387  0.51501593  1
  Te2-  Te172  1  0.00895935  0.33061678  0.81141888  1
  Te2-  Te173  1  -0.00183718  0.67203104  0.16473038  1
  Te2-  Te174  1  0.00563934  0.66412966  0.49305774  1
  Te2-  Te175  1  -0.00349287  0.67155437  0.83474724  1
  Te2-  Te176  1  0.33457715  0.00680108  0.17096186  1
  Te2-  Te177  1  0.33334551  0.00392742  0.49763357  1
  Te2-  Te178  1  0.33646141  -0.00020926  0.83193333  1
  Te2-  Te179  1  0.33336935  0.32664703  0.16532942  1
  Te2-  Te180  1  0.33667570  0.32564858  0.51467385  1
  Te2-  Te181  1  0.33193480  0.33020423  0.81644438  1
  Te2-  Te182  1  0.33326258  0.66701045  0.16518502  1
  Te2-  Te183  1  0.33365442  0.66615728  0.50768531  1
  Te2-  Te184  1  0.33254980  0.66720530  0.82966507  1
  Te2-  Te185  1  0.65890033  0.01896512  0.16505797  1
  Te2-  Te186  1  0.66157511  -0.00335150  0.50185862  1
  Te2-  Te187  1  0.66482173  -0.00363634  0.83198974  1
  Te2-  Te188  1  0.66252225  0.31767777  0.16769960  1
  Te2-  Te189  1  0.65647543  0.33321869  0.50181353  1
  Te2-  Te190  1  0.66801112  0.33241052  0.82901591  1
  Te2-  Te191  1  0.67393686  0.66907242  0.16247441  1
  Te2-  Te192  1  0.66634008  0.66990268  0.50211981  1
  Te2-  Te193  1  0.66927032  0.66537811  0.83508678  1
  Pb2+  Pb194  1  0.83317136  0.83499840  0.32948312  1
  Pb2+  Pb195  1  0.83311766  0.00754985  0.49576433  1
  Pb2+  Pb196  1  0.32163685  0.83445669  0.49914437  1
  Pb2+  Pb197  1  0.66852026  0.49528516  0.16770742  1
  Pb2+  Pb198  1  0.49998148  0.66401625  0.82765390  1
  Pb2+  Pb199  1  0.00915109  0.33282123  0.34468488  1
  Pb2+  Pb200  1  0.33181256  0.66888471  0.33607468  1
  Pb2+  Pb201  1  0.49758216  0.50265403  0.66912152  1
  Pb2+  Pb202  1  0.16786187  0.00269495  0.82960002  1
  Pb2+  Pb203  1  0.00166490  0.50401936  0.16170032  1
  Pb2+  Pb204  1  0.33160652  0.49368616  0.16367577  1
  Pb2+  Pb205  1  0.66802831  0.67268294  0.33327831  1
  Pb2+  Pb206  1  0.50278674  0.67464585  0.16833542  1
  Pb2+  Pb207  1  0.65958143  0.33357088  0.00030844  1
  Pb2+  Pb208  1  0.16445786  0.66023515  0.83185634  1
  Pb2+  Pb209  1  0.84221494  0.33356114  0.82758871  1
  Pb2+  Pb210  1  0.84004212  0.32213096  0.16782901  1
  Pb2+  Pb211  1  0.65877390  0.33199343  0.33432461  1
  Pb2+  Pb212  1  0.32388577  0.66524583  -0.00078994  1
  Pb2+  Pb213  1  0.49409036  0.16831805  0.34380837  1
  Pb2+  Pb214  1  0.83409159  0.00044610  0.83789672  1
  Pb2+  Pb215  1  0.83764010  0.66364753  0.49767611  1
