# generated using pymatgen
data_In22Ag21Sn22Bi21(Te54Pb11)2
_symmetry_space_group_name_H-M   'P 1'
_cell_length_a   19.16826229
_cell_length_b   19.18002506
_cell_length_c   19.15872114
_cell_angle_alpha   89.99624822
_cell_angle_beta   90.01058589
_cell_angle_gamma   89.98711651
_symmetry_Int_Tables_number   1
_chemical_formula_structural   In22Ag21Sn22Bi21(Te54Pb11)2
_chemical_formula_sum   'In22 Ag21 Sn22 Bi21 Te108 Pb22'
_cell_volume   7043.66042666
_cell_formula_units_Z   1
loop_
 _symmetry_equiv_pos_site_id
 _symmetry_equiv_pos_as_xyz
  1  'x, y, z'
loop_
 _atom_type_symbol
 _atom_type_oxidation_number
  In3+  3.0
  Ag+  1.0
  Sn2+  2.0
  Bi3+  3.0
  Te2-  -2.0
  Pb2+  2.0
loop_
 _atom_site_type_symbol
 _atom_site_label
 _atom_site_symmetry_multiplicity
 _atom_site_fract_x
 _atom_site_fract_y
 _atom_site_fract_z
 _atom_site_occupancy
  In3+  In0  1  0.67873523  0.33522990  -0.00068353  1
  In3+  In1  1  -0.01229447  0.00396952  0.33614866  1
  In3+  In2  1  0.69569209  0.33841407  0.33013253  1
  In3+  In3  1  0.50519829  0.34178429  0.17225800  1
  In3+  In4  1  0.15718661  0.68855421  0.82932078  1
  In3+  In5  1  0.32954191  0.33482565  -0.01705695  1
  In3+  In6  1  0.16671375  0.17290315  0.01081014  1
  In3+  In7  1  0.64704784  0.68047715  -0.00177757  1
  In3+  In8  1  0.50083664  0.33598242  0.85742462  1
  In3+  In9  1  0.31633972  0.15998727  0.49960323  1
  In3+  In10  1  0.33065202  0.16749713  0.80970518  1
  In3+  In11  1  0.84096400  -0.00961538  0.52474371  1
  In3+  In12  1  0.14487908  0.15043455  0.67329140  1
  In3+  In13  1  0.33532975  -0.01873822  0.68566651  1
  In3+  In14  1  0.85049019  0.33497770  0.16459799  1
  In3+  In15  1  0.50116500  -0.02193972  0.82982011  1
  In3+  In16  1  0.85361386  0.82800704  0.68266336  1
  In3+  In17  1  -0.00204244  0.49074619  0.51239210  1
  In3+  In18  1  0.31550316  0.66851488  0.65650083  1
  In3+  In19  1  0.32571391  0.51443497  0.83203993  1
  In3+  In20  1  0.16653188  0.50665196  0.31754576  1
  In3+  In21  1  -0.01827011  0.67790202  0.34129602  1
  Ag+  Ag22  1  0.15346937  0.31576803  0.82370664  1
  Ag+  Ag23  1  0.81195136  0.46769015  0.68841955  1
  Ag+  Ag24  1  -0.01942670  0.63932880  0.69086106  1
  Ag+  Ag25  1  0.15133491  0.85641650  0.65555197  1
  Ag+  Ag26  1  0.00174456  0.36213510  0.34284252  1
  Ag+  Ag27  1  0.86548207  0.01386657  0.82979448  1
  Ag+  Ag28  1  0.68553916  -0.00499738  0.64108988  1
  Ag+  Ag29  1  0.85488162  0.86361369  0.34704468  1
  Ag+  Ag30  1  0.33361305  0.81414020  0.81368905  1
  Ag+  Ag31  1  0.86432677  0.30002858  0.80775391  1
  Ag+  Ag32  1  0.14205191  0.66751527  0.18726139  1
  Ag+  Ag33  1  0.51498754  0.49528578  -0.00109563  1
  Ag+  Ag34  1  -0.03173726  0.18756002  0.85991327  1
  Ag+  Ag35  1  0.02487924  0.83392642  0.13826506  1
  Ag+  Ag36  1  -0.02179621  0.00645713  0.69482691  1
  Ag+  Ag37  1  0.46904252  0.85750499  -0.00258232  1
  Ag+  Ag38  1  -0.00650565  0.14431042  0.49576370  1
  Ag+  Ag39  1  0.29756057  -0.02940849  0.35347327  1
  Ag+  Ag40  1  0.30330343  0.69121179  0.36943454  1
  Ag+  Ag41  1  0.86820754  0.49559723  0.36019202  1
  Ag+  Ag42  1  0.49926145  0.69661272  0.52652245  1
  Sn2+  Sn43  1  -0.00393054  0.50805947  0.17100413  1
  Sn2+  Sn44  1  0.84065267  -0.00541008  0.15340286  1
  Sn2+  Sn45  1  0.16567078  0.83515385  -0.00338127  1
  Sn2+  Sn46  1  0.83656048  0.83628112  0.01167030  1
  Sn2+  Sn47  1  0.50765870  0.50399936  0.67021052  1
  Sn2+  Sn48  1  0.16605179  0.17214798  0.33680719  1
  Sn2+  Sn49  1  0.33550331  0.50229355  0.49989199  1
  Sn2+  Sn50  1  0.16733617  -0.01806717  0.16953473  1
  Sn2+  Sn51  1  0.49993347  0.16141724  0.33230246  1
  Sn2+  Sn52  1  0.67402739  -0.00078442  0.33765862  1
  Sn2+  Sn53  1  0.00383254  0.66623593  0.00670671  1
  Sn2+  Sn54  1  0.84132922  0.33484207  0.49793516  1
  Sn2+  Sn55  1  -0.00204587  -0.00144456  -0.00262785  1
  Sn2+  Sn56  1  0.66991912  0.82818708  0.50376165  1
  Sn2+  Sn57  1  0.49469950  0.17095960  -0.00293200  1
  Sn2+  Sn58  1  0.33030810  0.33718215  0.66475381  1
  Sn2+  Sn59  1  0.01047540  0.84756353  0.82680250  1
  Sn2+  Sn60  1  0.15687832  0.82851835  0.33794905  1
  Sn2+  Sn61  1  0.50226641  0.00076177  0.50011145  1
  Sn2+  Sn62  1  0.33386536  0.50548354  0.16357840  1
  Sn2+  Sn63  1  0.84137977  0.17462803  0.33942198  1
  Sn2+  Sn64  1  0.33150989  0.66418735  0.00691405  1
  Bi3+  Bi65  1  0.17271098  0.00344542  0.83932674  1
  Bi3+  Bi66  1  0.49966535  -0.00168869  0.16715034  1
  Bi3+  Bi67  1  0.00209637  0.33321172  0.00003799  1
  Bi3+  Bi68  1  0.33227811  0.16962733  0.17102676  1
  Bi3+  Bi69  1  0.83785013  0.66806716  0.83405407  1
  Bi3+  Bi70  1  0.66424753  0.49949799  0.83139835  1
  Bi3+  Bi71  1  0.66829049  0.83210329  0.16710975  1
  Bi3+  Bi72  1  0.66556109  0.66454049  0.33165263  1
  Bi3+  Bi73  1  0.49877235  0.66399491  0.16295472  1
  Bi3+  Bi74  1  0.16851438  0.50199758  -0.00384587  1
  Bi3+  Bi75  1  0.49712326  0.66082685  0.83374116  1
  Bi3+  Bi76  1  0.83329720  0.15985639  0.66136509  1
  Bi3+  Bi77  1  0.83593497  0.66585392  0.16411318  1
  Bi3+  Bi78  1  0.49957856  0.16953983  0.66304964  1
  Bi3+  Bi79  1  0.50165322  0.33057631  0.49379743  1
  Bi3+  Bi80  1  0.16805524  0.33476892  0.50094694  1
  Bi3+  Bi81  1  0.66893437  0.00093760  0.00207900  1
  Bi3+  Bi82  1  0.17094875  0.49718872  0.66698806  1
  Bi3+  Bi83  1  -0.00050476  0.83098426  0.50206905  1
  Bi3+  Bi84  1  0.32386442  0.33324614  0.33220491  1
  Bi3+  Bi85  1  0.33269503  0.83171070  0.16586626  1
  Te2-  Te86  1  0.16909336  0.16719344  0.16677688  1
  Te2-  Te87  1  0.16193571  0.17191380  0.50605355  1
  Te2-  Te88  1  0.17595399  0.16912338  0.82337445  1
  Te2-  Te89  1  0.16564117  0.51571943  0.15978328  1
  Te2-  Te90  1  0.16721314  0.49644696  0.50501215  1
  Te2-  Te91  1  0.17470966  0.48951082  0.83113903  1
  Te2-  Te92  1  0.16944231  0.82021309  0.16912993  1
  Te2-  Te93  1  0.16505494  0.83193053  0.50871107  1
  Te2-  Te94  1  0.18145932  0.83981433  0.82630575  1
  Te2-  Te95  1  0.49480591  0.16350928  0.16505724  1
  Te2-  Te96  1  0.50117814  0.16781513  0.49908444  1
  Te2-  Te97  1  0.48893715  0.17830749  0.82913818  1
  Te2-  Te98  1  0.49664333  0.49841024  0.15435749  1
  Te2-  Te99  1  0.49722162  0.49079821  0.50196574  1
  Te2-  Te100  1  0.49784696  0.49596833  0.83844129  1
  Te2-  Te101  1  0.50075257  0.83220639  0.14897534  1
  Te2-  Te102  1  0.50196630  0.84081795  0.49672536  1
  Te2-  Te103  1  0.48634910  0.82616339  0.84834982  1
  Te2-  Te104  1  0.83627445  0.17447889  0.16957162  1
  Te2-  Te105  1  0.84390886  0.16355269  0.49986682  1
  Te2-  Te106  1  0.82779716  0.16052958  0.82593385  1
  Te2-  Te107  1  0.83703787  0.49698025  0.16425448  1
  Te2-  Te108  1  0.84398104  0.49715975  0.50432896  1
  Te2-  Te109  1  0.83227841  0.50678551  0.82742705  1
  Te2-  Te110  1  0.82964911  0.82818746  0.17110932  1
  Te2-  Te111  1  0.83588373  0.83944645  0.49173618  1
  Te2-  Te112  1  0.83717942  0.82900888  0.83434468  1
  Te2-  Te113  1  0.16453450  0.00533137  0.00135358  1
  Te2-  Te114  1  0.15640844  -0.00189110  0.32626086  1
  Te2-  Te115  1  0.18319135  0.00013800  0.66831748  1
  Te2-  Te116  1  0.16736363  0.33281820  -0.01071707  1
  Te2-  Te117  1  0.15738231  0.33901397  0.33421426  1
  Te2-  Te118  1  0.16946670  0.33277120  0.67064851  1
  Te2-  Te119  1  0.16683129  0.66363609  -0.01669444  1
  Te2-  Te120  1  0.16615561  0.66090542  0.33285099  1
  Te2-  Te121  1  0.16506111  0.66147132  0.67564171  1
  Te2-  Te122  1  0.50348769  0.00381227  0.00217094  1
  Te2-  Te123  1  0.50599359  0.00263916  0.32857495  1
  Te2-  Te124  1  0.48663327  0.00585160  0.67082617  1
  Te2-  Te125  1  0.49349183  0.33937921  0.00854050  1
  Te2-  Te126  1  0.49057137  0.32988557  0.32917115  1
  Te2-  Te127  1  0.49810194  0.33223028  0.65634674  1
  Te2-  Te128  1  0.49503279  0.64969249  -0.00187634  1
  Te2-  Te129  1  0.50475231  0.66388545  0.32403999  1
  Te2-  Te130  1  0.50471835  0.66519859  0.67117187  1
  Te2-  Te131  1  0.83105731  0.00004327  -0.01650559  1
  Te2-  Te132  1  0.83427082  0.00640199  0.32207137  1
  Te2-  Te133  1  0.83073806  -0.00581810  0.67902677  1
  Te2-  Te134  1  0.83513417  0.33308283  0.00495484  1
  Te2-  Te135  1  0.84774016  0.34544890  0.33011132  1
  Te2-  Te136  1  0.83268115  0.32506332  0.66592590  1
  Te2-  Te137  1  0.83857448  0.67038555  -0.00100246  1
  Te2-  Te138  1  0.83052777  0.64810376  0.32873402  1
  Te2-  Te139  1  0.84063471  0.67685157  0.66703569  1
  Te2-  Te140  1  0.00750463  0.17024510  0.00173950  1
  Te2-  Te141  1  0.00331510  0.15681640  0.34281619  1
  Te2-  Te142  1  -0.00339281  0.15251739  0.65418130  1
  Te2-  Te143  1  0.00511291  0.49666295  0.00032739  1
  Te2-  Te144  1  0.01125022  0.50859704  0.32847102  1
  Te2-  Te145  1  0.00531234  0.49782482  0.66415594  1
  Te2-  Te146  1  0.00535021  0.83499871  -0.00688803  1
  Te2-  Te147  1  -0.00219467  0.83000637  0.33609966  1
  Te2-  Te148  1  0.00445984  0.85221875  0.66536377  1
  Te2-  Te149  1  0.32783428  0.17733499  0.00703055  1
  Te2-  Te150  1  0.32760576  0.16969636  0.33388429  1
  Te2-  Te151  1  0.33711760  0.16845547  0.65670061  1
  Te2-  Te152  1  0.32741444  0.48994409  -0.00586637  1
  Te2-  Te153  1  0.32191419  0.49563854  0.33136399  1
  Te2-  Te154  1  0.33485257  0.50712829  0.67103907  1
  Te2-  Te155  1  0.32436360  0.83371499  0.00609774  1
  Te2-  Te156  1  0.33037831  0.82988957  0.32908715  1
  Te2-  Te157  1  0.33513211  0.82740663  0.66685202  1
  Te2-  Te158  1  0.66363767  0.17238757  -0.00041962  1
  Te2-  Te159  1  0.67213863  0.17923137  0.33187153  1
  Te2-  Te160  1  0.66379098  0.15019614  0.66376259  1
  Te2-  Te161  1  0.66396893  0.48809427  -0.00651757  1
  Te2-  Te162  1  0.66298813  0.49256141  0.32954643  1
  Te2-  Te163  1  0.67075058  0.50023973  0.66695056  1
  Te2-  Te164  1  0.66956862  0.83749096  0.00168703  1
  Te2-  Te165  1  0.66981536  0.82636460  0.32924846  1
  Te2-  Te166  1  0.66579964  0.84615854  0.66356470  1
  Te2-  Te167  1  -0.00342370  -0.01667672  0.16246350  1
  Te2-  Te168  1  -0.00511040  -0.00465545  0.49299931  1
  Te2-  Te169  1  0.01350854  0.00980411  0.83682388  1
  Te2-  Te170  1  0.00268543  0.33294729  0.16445912  1
  Te2-  Te171  1  0.00509307  0.33809205  0.49052303  1
  Te2-  Te172  1  0.00528507  0.32792760  0.83565495  1
  Te2-  Te173  1  -0.00351160  0.67961014  0.16454710  1
  Te2-  Te174  1  0.00023033  0.66945385  0.49429756  1
  Te2-  Te175  1  0.00353253  0.67241684  0.83175468  1
  Te2-  Te176  1  0.33690185  0.00163256  0.17477710  1
  Te2-  Te177  1  0.33373598  0.00878638  0.48954961  1
  Te2-  Te178  1  0.33815575  0.00882274  0.83878647  1
  Te2-  Te179  1  0.33462874  0.33383651  0.17075820  1
  Te2-  Te180  1  0.33095107  0.33046885  0.49494961  1
  Te2-  Te181  1  0.34331024  0.32720881  0.83163603  1
  Te2-  Te182  1  0.33962309  0.66733076  0.16809339  1
  Te2-  Te183  1  0.34830093  0.66425038  0.50567706  1
  Te2-  Te184  1  0.33667371  0.66703895  0.83464171  1
  Te2-  Te185  1  0.66744417  -0.00406305  0.16626684  1
  Te2-  Te186  1  0.67418873  -0.00356311  0.49377969  1
  Te2-  Te187  1  0.65150937  -0.00128517  0.84122604  1
  Te2-  Te188  1  0.65682747  0.33214508  0.16539052  1
  Te2-  Te189  1  0.66832197  0.33314703  0.49248304  1
  Te2-  Te190  1  0.65822339  0.33807289  0.83742053  1
  Te2-  Te191  1  0.66857184  0.66776129  0.16246152  1
  Te2-  Te192  1  0.65388971  0.66772607  0.49542105  1
  Te2-  Te193  1  0.66658543  0.66417431  0.83595676  1
  Pb2+  Pb194  1  0.67046847  0.50014840  0.49522060  1
  Pb2+  Pb195  1  0.50207299  0.83377990  0.67192989  1
  Pb2+  Pb196  1  0.00079625  0.15631081  0.17379150  1
  Pb2+  Pb197  1  0.00235562  0.32258621  0.66182624  1
  Pb2+  Pb198  1  0.67270805  0.16454850  0.49706825  1
  Pb2+  Pb199  1  0.83032936  0.66856541  0.49618422  1
  Pb2+  Pb200  1  0.66653560  0.16460268  0.16763111  1
  Pb2+  Pb201  1  0.66632836  0.83508782  0.83199801  1
  Pb2+  Pb202  1  0.16891855  0.34231216  0.16133819  1
  Pb2+  Pb203  1  0.66894248  0.49866856  0.16356255  1
  Pb2+  Pb204  1  0.83502509  0.16526368  -0.00056346  1
  Pb2+  Pb205  1  0.83273715  0.50339744  -0.00558145  1
  Pb2+  Pb206  1  0.33460296  0.83887338  0.49847461  1
  Pb2+  Pb207  1  0.67319512  0.67572600  0.66546197  1
  Pb2+  Pb208  1  0.16421515  0.00076109  0.49569953  1
  Pb2+  Pb209  1  0.66295497  0.32636453  0.66614315  1
  Pb2+  Pb210  1  0.33197495  0.00530946  0.00835958  1
  Pb2+  Pb211  1  0.49169572  0.49977345  0.33225827  1
  Pb2+  Pb212  1  0.00427487  0.49608332  0.83110428  1
  Pb2+  Pb213  1  0.16950726  0.66453607  0.50168408  1
  Pb2+  Pb214  1  0.50252428  0.83073538  0.32437247  1
  Pb2+  Pb215  1  0.65803520  0.16596305  0.83120664  1
