# generated using pymatgen
data_In22Ag21Sn22Bi21(Te54Pb11)2
_symmetry_space_group_name_H-M   'P 1'
_cell_length_a   19.16083608
_cell_length_b   19.13989317
_cell_length_c   19.13250355
_cell_angle_alpha   89.99266016
_cell_angle_beta   90.00536745
_cell_angle_gamma   90.00843411
_symmetry_Int_Tables_number   1
_chemical_formula_structural   In22Ag21Sn22Bi21(Te54Pb11)2
_chemical_formula_sum   'In22 Ag21 Sn22 Bi21 Te108 Pb22'
_cell_volume   7016.58446487
_cell_formula_units_Z   1
loop_
 _symmetry_equiv_pos_site_id
 _symmetry_equiv_pos_as_xyz
  1  'x, y, z'
loop_
 _atom_type_symbol
 _atom_type_oxidation_number
  In3+  3.0
  Ag+  1.0
  Sn2+  2.0
  Bi3+  3.0
  Te2-  -2.0
  Pb2+  2.0
loop_
 _atom_site_type_symbol
 _atom_site_label
 _atom_site_symmetry_multiplicity
 _atom_site_fract_x
 _atom_site_fract_y
 _atom_site_fract_z
 _atom_site_occupancy
  In3+  In0  1  0.30682824  0.83217831  0.16243070  1
  In3+  In1  1  -0.00709995  -0.00810929  0.34852424  1
  In3+  In2  1  0.50273675  0.50571603  0.67283440  1
  In3+  In3  1  0.49754808  0.32085830  0.49591383  1
  In3+  In4  1  0.32145817  0.32337397  0.33023013  1
  In3+  In5  1  0.32049326  0.17406361  0.83915976  1
  In3+  In6  1  0.49833023  0.82793823  0.02794441  1
  In3+  In7  1  0.84465043  0.50280097  0.31671301  1
  In3+  In8  1  0.32987163  0.66206359  0.33322419  1
  In3+  In9  1  0.01351081  -0.00212197  -0.00398757  1
  In3+  In10  1  0.32837476  0.48433235  0.83871023  1
  In3+  In11  1  0.50019993  0.14762249  0.00991466  1
  In3+  In12  1  0.33010967  0.84059888  0.48718508  1
  In3+  In13  1  0.85646634  0.49838238  -0.00014513  1
  In3+  In14  1  0.85751714  0.34550388  0.82868748  1
  In3+  In15  1  0.49938745  0.66478460  0.48485816  1
  In3+  In16  1  0.50066481  0.50839924  0.33441239  1
  In3+  In17  1  0.84289933  0.64818193  0.82784538  1
  In3+  In18  1  0.84783049  0.00224359  0.84447824  1
  In3+  In19  1  0.50139605  0.84063337  0.33865026  1
  In3+  In20  1  0.16488542  0.02602603  0.83617177  1
  In3+  In21  1  0.66704874  0.01421102  -0.00154927  1
  Ag+  Ag22  1  0.46882464  0.02110482  0.49636736  1
  Ag+  Ag23  1  0.02909014  0.51673662  0.82806619  1
  Ag+  Ag24  1  0.02887340  0.49800279  0.19538583  1
  Ag+  Ag25  1  0.69358635  0.13938486  0.16899863  1
  Ag+  Ag26  1  0.14054521  0.50504449  0.66536027  1
  Ag+  Ag27  1  0.68504839  0.49899647  0.86264707  1
  Ag+  Ag28  1  0.86615924  -0.02761763  0.13757351  1
  Ag+  Ag29  1  0.13696034  0.30536959  0.16839397  1
  Ag+  Ag30  1  0.15557371  0.33916132  0.81400688  1
  Ag+  Ag31  1  0.35911769  0.02046389  0.00032392  1
  Ag+  Ag32  1  0.00104317  0.18888974  0.47460831  1
  Ag+  Ag33  1  0.67900566  0.64314927  0.32403310  1
  Ag+  Ag34  1  0.02867041  0.80247683  0.52035320  1
  Ag+  Ag35  1  0.01852786  0.31965115  0.66466755  1
  Ag+  Ag36  1  0.86164032  0.83486564  0.69225800  1
  Ag+  Ag37  1  -0.00647906  0.85910513  0.14265363  1
  Ag+  Ag38  1  0.49447938  0.47965538  -0.02544618  1
  Ag+  Ag39  1  0.13860123  0.69579813  0.52316632  1
  Ag+  Ag40  1  0.52184288  0.67615145  0.18490157  1
  Ag+  Ag41  1  0.14284322  0.17129469  0.00254384  1
  Ag+  Ag42  1  0.01609429  0.18178288  0.83430831  1
  Sn2+  Sn43  1  0.49225043  0.00060083  0.81989428  1
  Sn2+  Sn44  1  0.83661876  0.50621742  0.66289343  1
  Sn2+  Sn45  1  0.17032287  0.84081874  -0.00481474  1
  Sn2+  Sn46  1  0.66787596  0.81956331  0.83302694  1
  Sn2+  Sn47  1  0.50154218  0.33109611  0.83578176  1
  Sn2+  Sn48  1  0.49921415  0.16750527  0.32786704  1
  Sn2+  Sn49  1  0.01006895  0.33112799  -0.00686897  1
  Sn2+  Sn50  1  0.16228519  0.16231333  0.32805180  1
  Sn2+  Sn51  1  -0.00198452  0.01099342  0.66417531  1
  Sn2+  Sn52  1  0.16418991  0.33790395  0.50356260  1
  Sn2+  Sn53  1  0.33120785  0.16242543  0.16144256  1
  Sn2+  Sn54  1  0.15939098  0.17810431  0.66888411  1
  Sn2+  Sn55  1  0.67644639  0.83580876  0.16745218  1
  Sn2+  Sn56  1  0.66115807  0.50162696  0.16242923  1
  Sn2+  Sn57  1  0.33084927  -0.00166230  0.67963800  1
  Sn2+  Sn58  1  0.83696641  0.17455732  0.00092378  1
  Sn2+  Sn59  1  0.00426442  0.48991656  0.51957932  1
  Sn2+  Sn60  1  0.67668395  0.16236766  0.48737043  1
  Sn2+  Sn61  1  0.50241415  0.35098371  0.16432808  1
  Sn2+  Sn62  1  0.15663945  0.01026819  0.50597797  1
  Sn2+  Sn63  1  0.82907720  0.67556690  0.50313239  1
  Sn2+  Sn64  1  0.32326428  0.33166195  0.01101203  1
  Bi3+  Bi65  1  0.83266400  -0.00013288  0.50117186  1
  Bi3+  Bi66  1  0.66282349  0.33225838  0.33107239  1
  Bi3+  Bi67  1  0.83196334  0.83280797  0.33673507  1
  Bi3+  Bi68  1  0.66081723  0.66421907  0.00196582  1
  Bi3+  Bi69  1  0.66073024  0.33758318  0.00090236  1
  Bi3+  Bi70  1  0.66122123  0.33163650  0.67086361  1
  Bi3+  Bi71  1  0.66071617  0.16980139  0.83708658  1
  Bi3+  Bi72  1  0.50061080  0.83571522  0.66444828  1
  Bi3+  Bi73  1  0.33415676  0.50241396  0.50009508  1
  Bi3+  Bi74  1  0.50174416  0.66824144  0.83695453  1
  Bi3+  Bi75  1  0.66674816  -0.00102769  0.33105455  1
  Bi3+  Bi76  1  0.49911186  0.16523393  0.66810186  1
  Bi3+  Bi77  1  0.66638628  0.83302888  0.49683923  1
  Bi3+  Bi78  1  0.66585016  0.49982273  0.49821498  1
  Bi3+  Bi79  1  0.16880531  -0.00129234  0.16050786  1
  Bi3+  Bi80  1  0.33278454  0.66648152  0.00384284  1
  Bi3+  Bi81  1  0.33520976  0.83600944  0.83484143  1
  Bi3+  Bi82  1  0.16576681  0.66363471  0.16829394  1
  Bi3+  Bi83  1  0.83429262  0.33657941  0.16108876  1
  Bi3+  Bi84  1  0.33489719  0.66546179  0.66106392  1
  Bi3+  Bi85  1  0.33278980  0.50273007  0.16695874  1
  Te2-  Te86  1  0.17366797  0.16285737  0.15599237  1
  Te2-  Te87  1  0.15329662  0.16775161  0.49953808  1
  Te2-  Te88  1  0.16792214  0.17811148  0.84300720  1
  Te2-  Te89  1  0.17241451  0.50112573  0.16891949  1
  Te2-  Te90  1  0.17102264  0.49388183  0.51086404  1
  Te2-  Te91  1  0.17499690  0.48762351  0.82548873  1
  Te2-  Te92  1  0.14571827  0.83253455  0.16067465  1
  Te2-  Te93  1  0.17409458  0.83792237  0.49721449  1
  Te2-  Te94  1  0.17222463  0.82881703  0.83542482  1
  Te2-  Te95  1  0.49035342  0.16897219  0.16271606  1
  Te2-  Te96  1  0.50022201  0.16605584  0.50255470  1
  Te2-  Te97  1  0.50040358  0.16410573  0.83107514  1
  Te2-  Te98  1  0.49336300  0.51263134  0.17776810  1
  Te2-  Te99  1  0.50062948  0.50264020  0.49610156  1
  Te2-  Te100  1  0.48600827  0.50215388  0.82770860  1
  Te2-  Te101  1  0.50499065  0.82684338  0.18003427  1
  Te2-  Te102  1  0.50070507  0.82630312  0.49907940  1
  Te2-  Te103  1  0.50035038  0.83423737  0.82750453  1
  Te2-  Te104  1  0.83396301  0.17546655  0.16329181  1
  Te2-  Te105  1  0.84515848  0.16506188  0.50221200  1
  Te2-  Te106  1  0.81889567  0.15441016  0.83722498  1
  Te2-  Te107  1  0.82879418  0.49833581  0.15849165  1
  Te2-  Te108  1  0.82755698  0.50602419  0.50501195  1
  Te2-  Te109  1  0.82694172  0.49653926  0.83217515  1
  Te2-  Te110  1  0.84519791  0.83181686  0.17203056  1
  Te2-  Te111  1  0.82847833  0.83575103  0.49787903  1
  Te2-  Te112  1  0.82437815  0.84782726  0.83396859  1
  Te2-  Te113  1  0.16599698  0.01031967  -0.00688743  1
  Te2-  Te114  1  0.16286672  0.00126465  0.32625084  1
  Te2-  Te115  1  0.16901433  0.00709734  0.67935318  1
  Te2-  Te116  1  0.16714002  0.32063056  0.01699601  1
  Te2-  Te117  1  0.16814935  0.32744791  0.32337723  1
  Te2-  Te118  1  0.16595866  0.33660756  0.66566241  1
  Te2-  Te119  1  0.17087076  0.66522810  0.00102235  1
  Te2-  Te120  1  0.17287383  0.66644433  0.33395405  1
  Te2-  Te121  1  0.17260631  0.65599313  0.66111671  1
  Te2-  Te122  1  0.50466569  -0.00586203  -0.00017648  1
  Te2-  Te123  1  0.50093185  -0.00107532  0.34632819  1
  Te2-  Te124  1  0.49630856  0.00043983  0.64996314  1
  Te2-  Te125  1  0.49917491  0.33395725  -0.00114831  1
  Te2-  Te126  1  0.50298322  0.33216585  0.33846593  1
  Te2-  Te127  1  0.50006759  0.33084013  0.66218024  1
  Te2-  Te128  1  0.49636358  0.67402767  -0.00032605  1
  Te2-  Te129  1  0.49655868  0.66577126  0.33047450  1
  Te2-  Te130  1  0.49844504  0.66818597  0.67024499  1
  Te2-  Te131  1  0.81974948  0.00233110  0.00152615  1
  Te2-  Te132  1  0.83144238  -0.00129999  0.33138775  1
  Te2-  Te133  1  0.83666423  -0.01143399  0.66657141  1
  Te2-  Te134  1  0.82451882  0.34271113  -0.00577924  1
  Te2-  Te135  1  0.82782083  0.34015633  0.33200617  1
  Te2-  Te136  1  0.82313810  0.33352943  0.67782547  1
  Te2-  Te137  1  0.82619912  0.65953532  -0.01246993  1
  Te2-  Te138  1  0.82489000  0.66202742  0.33439149  1
  Te2-  Te139  1  0.83276305  0.68068944  0.67661991  1
  Te2-  Te140  1  -0.00615888  0.16301444  -0.01439519  1
  Te2-  Te141  1  0.00341958  0.16211852  0.32915963  1
  Te2-  Te142  1  0.00443441  0.17187804  0.68348937  1
  Te2-  Te143  1  0.00483425  0.49677928  -0.02120050  1
  Te2-  Te144  1  -0.00487647  0.49741012  0.34203037  1
  Te2-  Te145  1  -0.00535485  0.49143661  0.67848565  1
  Te2-  Te146  1  -0.00126993  0.84079547  -0.00534876  1
  Te2-  Te147  1  -0.00630140  0.83957606  0.33941147  1
  Te2-  Te148  1  0.00517024  0.83659358  0.66040956  1
  Te2-  Te149  1  0.34590307  0.16696241  -0.00806471  1
  Te2-  Te150  1  0.33302541  0.16785393  0.33550909  1
  Te2-  Te151  1  0.33610069  0.16409048  0.67533386  1
  Te2-  Te152  1  0.34421732  0.50277460  0.00132334  1
  Te2-  Te153  1  0.33939258  0.49999939  0.33558903  1
  Te2-  Te154  1  0.34360165  0.50337887  0.66211547  1
  Te2-  Te155  1  0.33808801  0.82801560  0.00052538  1
  Te2-  Te156  1  0.34047938  0.83042957  0.33311425  1
  Te2-  Te157  1  0.33816634  0.83068006  0.66669361  1
  Te2-  Te158  1  0.65968514  0.17057870  0.00612193  1
  Te2-  Te159  1  0.66348203  0.16595963  0.31948419  1
  Te2-  Te160  1  0.66332850  0.16805322  0.66479441  1
  Te2-  Te161  1  0.64290534  0.50122410  0.00239278  1
  Te2-  Te162  1  0.66166995  0.49648776  0.33481865  1
  Te2-  Te163  1  0.66170985  0.49503454  0.66033240  1
  Te2-  Te164  1  0.65779824  0.82614461  0.00111334  1
  Te2-  Te165  1  0.66423340  0.83575739  0.33479793  1
  Te2-  Te166  1  0.66228834  0.83251737  0.66174848  1
  Te2-  Te167  1  0.00716350  0.00728802  0.15197336  1
  Te2-  Te168  1  -0.00357659  0.00176246  0.49996709  1
  Te2-  Te169  1  0.00139444  0.00340391  0.83631049  1
  Te2-  Te170  1  -0.00465570  0.34895231  0.16317915  1
  Te2-  Te171  1  0.00045877  0.33156249  0.51432680  1
  Te2-  Te172  1  0.00470963  0.32968650  0.83488210  1
  Te2-  Te173  1  0.00457626  0.64648328  0.16630970  1
  Te2-  Te174  1  -0.00432647  0.65835347  0.49789956  1
  Te2-  Te175  1  -0.00296924  0.66316164  0.83332720  1
  Te2-  Te176  1  0.33013899  -0.00751876  0.15108628  1
  Te2-  Te177  1  0.32408430  -0.00475474  0.49950264  1
  Te2-  Te178  1  0.32901801  -0.00279072  0.84712428  1
  Te2-  Te179  1  0.34090759  0.33914691  0.17659358  1
  Te2-  Te180  1  0.33658879  0.33564932  0.49263757  1
  Te2-  Te181  1  0.33205528  0.32959934  0.83801168  1
  Te2-  Te182  1  0.32918019  0.66973357  0.16931135  1
  Te2-  Te183  1  0.33856933  0.66591790  0.49530265  1
  Te2-  Te184  1  0.33894999  0.67112226  0.83302935  1
  Te2-  Te185  1  0.66439643  -0.00342931  0.16651884  1
  Te2-  Te186  1  0.66981762  0.00197678  0.49603988  1
  Te2-  Te187  1  0.65643166  0.00519893  0.84298096  1
  Te2-  Te188  1  0.66798343  0.33599752  0.16666535  1
  Te2-  Te189  1  0.66275675  0.33069559  0.49784249  1
  Te2-  Te190  1  0.66196705  0.33906971  0.83587885  1
  Te2-  Te191  1  0.66723394  0.66807692  0.16988097  1
  Te2-  Te192  1  0.65996125  0.66550843  0.48651325  1
  Te2-  Te193  1  0.66277358  0.65221133  0.83616996  1
  Pb2+  Pb194  1  0.83193880  0.33881397  0.50840882  1
  Pb2+  Pb195  1  0.16379522  0.83287041  0.32865045  1
  Pb2+  Pb196  1  -0.00108605  0.83453156  0.82666769  1
  Pb2+  Pb197  1  0.17006845  0.83552103  0.66834996  1
  Pb2+  Pb198  1  -0.00238138  0.67144251  0.33086797  1
  Pb2+  Pb199  1  0.00081104  0.66633683  0.00288475  1
  Pb2+  Pb200  1  0.66805069  0.66419653  0.65985069  1
  Pb2+  Pb201  1  0.16808780  0.49845604  0.34154000  1
  Pb2+  Pb202  1  0.33085468  0.33482535  0.66746937  1
  Pb2+  Pb203  1  -0.00026290  0.33088409  0.33608509  1
  Pb2+  Pb204  1  0.33030985  0.00004701  0.32387335  1
  Pb2+  Pb205  1  0.49901427  -0.00152762  0.17217806  1
  Pb2+  Pb206  1  0.17185056  0.65636817  0.82759748  1
  Pb2+  Pb207  1  0.00073125  0.17711098  0.15539552  1
  Pb2+  Pb208  1  0.83509255  0.66563588  0.16297553  1
  Pb2+  Pb209  1  0.82718150  0.83284762  0.00072390  1
  Pb2+  Pb210  1  0.66804707  -0.00144063  0.67552096  1
  Pb2+  Pb211  1  0.00067435  0.66100309  0.66313694  1
  Pb2+  Pb212  1  0.32076946  0.16542385  0.50539789  1
  Pb2+  Pb213  1  0.83984928  0.16073082  0.67138542  1
  Pb2+  Pb214  1  0.83264865  0.16621727  0.33407747  1
  Pb2+  Pb215  1  0.17249079  0.48844273  -0.00019117  1
