# generated using pymatgen
data_In22Ag21Sn22Bi21(Te54Pb11)2
_symmetry_space_group_name_H-M   'P 1'
_cell_length_a   19.09877540
_cell_length_b   19.11662106
_cell_length_c   19.11850729
_cell_angle_alpha   90.00327813
_cell_angle_beta   89.98100771
_cell_angle_gamma   90.02151335
_symmetry_Int_Tables_number   1
_chemical_formula_structural   In22Ag21Sn22Bi21(Te54Pb11)2
_chemical_formula_sum   'In22 Ag21 Sn22 Bi21 Te108 Pb22'
_cell_volume   6980.24359265
_cell_formula_units_Z   1
loop_
 _symmetry_equiv_pos_site_id
 _symmetry_equiv_pos_as_xyz
  1  'x, y, z'
loop_
 _atom_type_symbol
 _atom_type_oxidation_number
  In3+  3.0
  Ag+  1.0
  Sn2+  2.0
  Bi3+  3.0
  Te2-  -2.0
  Pb2+  2.0
loop_
 _atom_site_type_symbol
 _atom_site_label
 _atom_site_symmetry_multiplicity
 _atom_site_fract_x
 _atom_site_fract_y
 _atom_site_fract_z
 _atom_site_occupancy
  In3+  In0  1  0.00315673  0.16685138  0.83225459  1
  In3+  In1  1  0.49219971  0.16550792  0.32648510  1
  In3+  In2  1  0.50700277  0.50808072  0.66451376  1
  In3+  In3  1  0.50617753  0.66701350  0.84665149  1
  In3+  In4  1  -0.00571729  0.67187882  0.34827450  1
  In3+  In5  1  0.33254165  0.00381588  0.65233817  1
  In3+  In6  1  0.16592415  0.51341204  0.33215308  1
  In3+  In7  1  0.32295997  0.82069027  0.49635896  1
  In3+  In8  1  0.33425832  0.32984461  0.31697551  1
  In3+  In9  1  -0.00777782  0.35135099  -0.00223183  1
  In3+  In10  1  0.18543874  0.33123704  0.50070346  1
  In3+  In11  1  0.49976033  0.32661067  0.50519234  1
  In3+  In12  1  0.66459898  0.65848817  0.67740919  1
  In3+  In13  1  0.67419046  0.66578497  0.00942537  1
  In3+  In14  1  0.49786822  0.83174401  0.66528583  1
  In3+  In15  1  0.66855481  -0.01631581  0.67106940  1
  In3+  In16  1  0.16881177  0.82311625  0.02426880  1
  In3+  In17  1  0.18456636  -0.00254958  0.49169794  1
  In3+  In18  1  0.50830187  0.66483290  0.49504282  1
  In3+  In19  1  0.67397928  0.50755540  0.49185427  1
  In3+  In20  1  0.49708638  0.16226930  0.66537854  1
  In3+  In21  1  -0.01719667  0.51471495  0.83116034  1
  Ag+  Ag22  1  0.66060810  0.32135330  0.66357153  1
  Ag+  Ag23  1  0.85127751  0.50379422  -0.02001001  1
  Ag+  Ag24  1  0.36031920  0.68715085  0.00207988  1
  Ag+  Ag25  1  0.33734157  0.53699732  0.19235487  1
  Ag+  Ag26  1  0.84114005  0.68424600  0.52332972  1
  Ag+  Ag27  1  0.33326402  -0.02258876  0.31891445  1
  Ag+  Ag28  1  0.46635639  0.66392588  0.19485664  1
  Ag+  Ag29  1  0.02447522  0.66225338  0.64735647  1
  Ag+  Ag30  1  0.69498398  -0.03973245  0.03154722  1
  Ag+  Ag31  1  0.80554997  0.51831944  0.30985696  1
  Ag+  Ag32  1  0.35604440  0.14558995  0.86089382  1
  Ag+  Ag33  1  0.16010685  0.81608725  0.32878700  1
  Ag+  Ag34  1  0.66308673  0.19512900  0.14309311  1
  Ag+  Ag35  1  0.64925810  0.83285801  0.14127984  1
  Ag+  Ag36  1  0.01472880  0.66768126  -0.00151586  1
  Ag+  Ag37  1  0.67702972  0.83424698  0.84397552  1
  Ag+  Ag38  1  0.32420373  0.15779268  0.49700769  1
  Ag+  Ag39  1  0.35381973  0.83194695  0.14442703  1
  Ag+  Ag40  1  0.68124030  0.48409065  0.83082349  1
  Ag+  Ag41  1  -0.02132562  0.02841988  0.66287870  1
  Ag+  Ag42  1  0.02678637  0.84591642  0.53481593  1
  Sn2+  Sn43  1  0.16968679  0.50573573  0.00475296  1
  Sn2+  Sn44  1  0.50216993  0.83222798  0.00257053  1
  Sn2+  Sn45  1  0.50050417  -0.00973629  0.16501973  1
  Sn2+  Sn46  1  0.15981063  0.83249246  0.66560448  1
  Sn2+  Sn47  1  0.66802195  0.32576609  0.34053504  1
  Sn2+  Sn48  1  0.00366451  0.14528848  0.50385649  1
  Sn2+  Sn49  1  0.15832868  0.66636599  0.50143118  1
  Sn2+  Sn50  1  0.17118793  0.66856487  0.16627727  1
  Sn2+  Sn51  1  -0.00731821  -0.00886017  -0.01244973  1
  Sn2+  Sn52  1  0.33551685  0.83508449  0.82918151  1
  Sn2+  Sn53  1  0.65671598  -0.00254587  0.32965630  1
  Sn2+  Sn54  1  0.16798466  0.66642298  0.83723593  1
  Sn2+  Sn55  1  0.82805718  0.50051525  0.66005861  1
  Sn2+  Sn56  1  0.82802172  0.17171676  0.66616573  1
  Sn2+  Sn57  1  -0.01033905  0.34411858  0.67179505  1
  Sn2+  Sn58  1  0.48931344  0.83809672  0.32783463  1
  Sn2+  Sn59  1  0.50125421  0.34493451  0.16691712  1
  Sn2+  Sn60  1  0.82755580  0.66966146  0.83262552  1
  Sn2+  Sn61  1  0.83215930  0.33737814  0.83332742  1
  Sn2+  Sn62  1  0.83427202  0.82253898  0.00053724  1
  Sn2+  Sn63  1  0.50265821  0.33983034  0.82699016  1
  Sn2+  Sn64  1  0.16778074  0.33623199  0.82946283  1
  Bi3+  Bi65  1  0.66275695  0.83351947  0.49719335  1
  Bi3+  Bi66  1  0.16745577  0.00042131  0.16784056  1
  Bi3+  Bi67  1  0.33788085  0.33047829  0.66730238  1
  Bi3+  Bi68  1  -0.00286213  0.50031999  0.50497421  1
  Bi3+  Bi69  1  0.16763572  0.16626490  0.33485743  1
  Bi3+  Bi70  1  0.83294741  -0.00702884  0.50075145  1
  Bi3+  Bi71  1  0.00103564  0.83137009  0.16528946  1
  Bi3+  Bi72  1  0.66419514  0.34067664  -0.00791386  1
  Bi3+  Bi73  1  0.49549475  0.49970458  -0.00216577  1
  Bi3+  Bi74  1  0.16440254  0.16314329  -0.00157160  1
  Bi3+  Bi75  1  0.32868869  0.33187819  -0.00561108  1
  Bi3+  Bi76  1  0.66799255  0.17320088  0.50080281  1
  Bi3+  Bi77  1  0.83009366  0.16890306  0.33458110  1
  Bi3+  Bi78  1  0.16635263  -0.00482473  0.83065341  1
  Bi3+  Bi79  1  0.83069771  0.33661791  0.50398636  1
  Bi3+  Bi80  1  0.49973455  -0.00448592  0.83056324  1
  Bi3+  Bi81  1  -0.00073810  0.82816781  0.83289240  1
  Bi3+  Bi82  1  0.83945882  0.66599612  0.16263313  1
  Bi3+  Bi83  1  0.33227236  0.50079305  0.83677781  1
  Bi3+  Bi84  1  0.50239127  -0.00078229  0.49731265  1
  Bi3+  Bi85  1  0.33146497  -0.00500110  0.00107825  1
  Te2-  Te86  1  0.16651326  0.16401026  0.16664417  1
  Te2-  Te87  1  0.16924497  0.16029221  0.49697079  1
  Te2-  Te88  1  0.16190003  0.16160324  0.83574592  1
  Te2-  Te89  1  0.18129815  0.50388091  0.17445978  1
  Te2-  Te90  1  0.16298131  0.49895647  0.49637724  1
  Te2-  Te91  1  0.16948717  0.49945069  0.83610037  1
  Te2-  Te92  1  0.16470028  0.83893295  0.17913692  1
  Te2-  Te93  1  0.16828359  0.83861574  0.49638679  1
  Te2-  Te94  1  0.16547724  0.83318063  0.83226146  1
  Te2-  Te95  1  0.51237475  0.16753276  0.17326111  1
  Te2-  Te96  1  0.50637920  0.16577742  0.50273018  1
  Te2-  Te97  1  0.49672878  0.16347755  0.82521535  1
  Te2-  Te98  1  0.48801533  0.51457148  0.16230252  1
  Te2-  Te99  1  0.50835742  0.50448540  0.50512411  1
  Te2-  Te100  1  0.49505932  0.51023504  0.83014080  1
  Te2-  Te101  1  0.49936294  0.82280489  0.17051582  1
  Te2-  Te102  1  0.49858781  0.83711294  0.50088029  1
  Te2-  Te103  1  0.49683212  0.83259473  0.82543675  1
  Te2-  Te104  1  0.81678679  0.16811914  0.17104866  1
  Te2-  Te105  1  0.83449733  0.16570350  0.50026032  1
  Te2-  Te106  1  0.83975545  0.16905020  0.82900155  1
  Te2-  Te107  1  0.83357651  0.50438775  0.16718433  1
  Te2-  Te108  1  0.83044938  0.49811437  0.49776980  1
  Te2-  Te109  1  0.82869829  0.50271757  0.83193535  1
  Te2-  Te110  1  0.83830132  0.83124030  0.16296108  1
  Te2-  Te111  1  0.82728880  0.82942307  0.49908104  1
  Te2-  Te112  1  0.82910034  0.83186640  0.83689657  1
  Te2-  Te113  1  0.16560017  -0.00222935  -0.00196842  1
  Te2-  Te114  1  0.17947222  0.00509427  0.33576540  1
  Te2-  Te115  1  0.17680689  -0.00428388  0.66464171  1
  Te2-  Te116  1  0.16398810  0.32870593  -0.00285772  1
  Te2-  Te117  1  0.17343765  0.32763412  0.33804742  1
  Te2-  Te118  1  0.17106967  0.33121171  0.66267691  1
  Te2-  Te119  1  0.16193038  0.66686377  -0.00194833  1
  Te2-  Te120  1  0.16285766  0.66852130  0.33886918  1
  Te2-  Te121  1  0.17183616  0.66823244  0.66530810  1
  Te2-  Te122  1  0.49410990  -0.00561108  -0.00459347  1
  Te2-  Te123  1  0.48550715  0.00596912  0.33576468  1
  Te2-  Te124  1  0.49957322  -0.00048000  0.66466379  1
  Te2-  Te125  1  0.49746269  0.33291122  -0.00307919  1
  Te2-  Te126  1  0.49804403  0.32615054  0.34017315  1
  Te2-  Te127  1  0.50381891  0.33857499  0.66374807  1
  Te2-  Te128  1  0.50608065  0.66598995  -0.00110231  1
  Te2-  Te129  1  0.49904202  0.66665935  0.33987924  1
  Te2-  Te130  1  0.50117329  0.67001949  0.65401679  1
  Te2-  Te131  1  0.83251904  0.00058432  -0.00036406  1
  Te2-  Te132  1  0.83612071  0.00323885  0.33873124  1
  Te2-  Te133  1  0.83111541  0.00127867  0.66288981  1
  Te2-  Te134  1  0.83084006  0.34989970  -0.00284126  1
  Te2-  Te135  1  0.83426020  0.33219940  0.33939339  1
  Te2-  Te136  1  0.81996440  0.33467848  0.66640076  1
  Te2-  Te137  1  0.82658465  0.65490883  -0.00175353  1
  Te2-  Te138  1  0.84122295  0.66006818  0.32868781  1
  Te2-  Te139  1  0.81924694  0.66171385  0.66703555  1
  Te2-  Te140  1  0.00179165  0.16066565  -0.00786996  1
  Te2-  Te141  1  -0.00128608  0.16575700  0.33457820  1
  Te2-  Te142  1  -0.00090757  0.17374298  0.67178312  1
  Te2-  Te143  1  0.00017159  0.50291622  -0.00872935  1
  Te2-  Te144  1  0.01055649  0.50318783  0.33783220  1
  Te2-  Te145  1  -0.00157889  0.51195564  0.67218097  1
  Te2-  Te146  1  0.00336306  0.82925424  -0.00218030  1
  Te2-  Te147  1  0.00821984  0.82659166  0.33087543  1
  Te2-  Te148  1  -0.00004416  0.81010986  0.67347782  1
  Te2-  Te149  1  0.33023990  0.16427778  0.00445884  1
  Te2-  Te150  1  0.33448066  0.17582266  0.34445709  1
  Te2-  Te151  1  0.34039277  0.16691110  0.65137087  1
  Te2-  Te152  1  0.33166443  0.49154236  -0.00119429  1
  Te2-  Te153  1  0.32697291  0.49097495  0.33315615  1
  Te2-  Te154  1  0.33902436  0.49763418  0.67063223  1
  Te2-  Te155  1  0.32632197  0.83361525  -0.00240564  1
  Te2-  Te156  1  0.32782208  0.83295139  0.34533625  1
  Te2-  Te157  1  0.33775417  0.84106565  0.65932605  1
  Te2-  Te158  1  0.66800971  0.17555924  -0.00295898  1
  Te2-  Te159  1  0.66622941  0.16577030  0.33902590  1
  Te2-  Te160  1  0.65863879  0.17157820  0.66227889  1
  Te2-  Te161  1  0.65638541  0.50241038  -0.01494843  1
  Te2-  Te162  1  0.66397466  0.49595777  0.33805867  1
  Te2-  Te163  1  0.65766655  0.50760149  0.68278664  1
  Te2-  Te164  1  0.66611109  0.82275167  -0.00708495  1
  Te2-  Te165  1  0.66267704  0.83797261  0.33734840  1
  Te2-  Te166  1  0.65841249  0.82884847  0.65886013  1
  Te2-  Te167  1  0.00299303  -0.00183239  0.16561468  1
  Te2-  Te168  1  -0.00388645  -0.01102722  0.51542086  1
  Te2-  Te169  1  0.00528439  -0.00656285  0.81510513  1
  Te2-  Te170  1  0.00052819  0.33544016  0.15901594  1
  Te2-  Te171  1  -0.00624803  0.33723374  0.50955054  1
  Te2-  Te172  1  -0.00006495  0.33686365  0.83673551  1
  Te2-  Te173  1  0.00478018  0.67010891  0.15321541  1
  Te2-  Te174  1  -0.01188173  0.66237774  0.50204223  1
  Te2-  Te175  1  -0.00051081  0.66598405  0.84498028  1
  Te2-  Te176  1  0.33108695  -0.01500905  0.16748006  1
  Te2-  Te177  1  0.33846725  0.00926650  0.49880841  1
  Te2-  Te178  1  0.33225072  0.00244877  0.83422647  1
  Te2-  Te179  1  0.34029182  0.32627847  0.16207960  1
  Te2-  Te180  1  0.34363164  0.33018860  0.50565011  1
  Te2-  Te181  1  0.33438172  0.33208583  0.83068816  1
  Te2-  Te182  1  0.32657016  0.68039022  0.15209331  1
  Te2-  Te183  1  0.33321073  0.66936035  0.50163960  1
  Te2-  Te184  1  0.33839513  0.66552021  0.84818815  1
  Te2-  Te185  1  0.65651484  -0.01586497  0.16922764  1
  Te2-  Te186  1  0.66656817  0.00323237  0.50333428  1
  Te2-  Te187  1  0.66086248  -0.01248785  0.82697520  1
  Te2-  Te188  1  0.65889087  0.34251422  0.16417201  1
  Te2-  Te189  1  0.66390913  0.33928481  0.51118483  1
  Te2-  Te190  1  0.66312322  0.33462003  0.82881761  1
  Te2-  Te191  1  0.67219410  0.67929095  0.16205085  1
  Te2-  Te192  1  0.66571518  0.66342826  0.50088021  1
  Te2-  Te193  1  0.65610523  0.68462452  0.82569127  1
  Pb2+  Pb194  1  0.00514020  0.50540065  0.16763898  1
  Pb2+  Pb195  1  0.82894132  0.33709285  0.16955258  1
  Pb2+  Pb196  1  0.83293882  0.82847761  0.66708730  1
  Pb2+  Pb197  1  0.33159498  0.66916747  0.32488005  1
  Pb2+  Pb198  1  0.49623335  0.49449205  0.33011807  1
  Pb2+  Pb199  1  -0.00756123  0.16640129  0.16349638  1
  Pb2+  Pb200  1  0.67098117  0.66999475  0.33046559  1
  Pb2+  Pb201  1  0.34235309  0.15265870  0.17620044  1
  Pb2+  Pb202  1  0.83323818  0.17695081  -0.00187445  1
  Pb2+  Pb203  1  0.00998571  -0.00670520  0.34196594  1
  Pb2+  Pb204  1  0.00446342  0.33617767  0.34078233  1
  Pb2+  Pb205  1  0.17076500  0.16294876  0.66674744  1
  Pb2+  Pb206  1  0.66584819  0.16036948  0.82953287  1
  Pb2+  Pb207  1  0.17153299  0.33772958  0.16573458  1
  Pb2+  Pb208  1  0.83361707  -0.00014672  0.83322384  1
  Pb2+  Pb209  1  0.33675002  0.50071297  0.50127847  1
  Pb2+  Pb210  1  0.50378890  0.16154504  0.00355041  1
  Pb2+  Pb211  1  0.83567425  0.82877800  0.33260233  1
  Pb2+  Pb212  1  0.82565008  0.00060705  0.17002065  1
  Pb2+  Pb213  1  0.33701175  0.67218980  0.68011270  1
  Pb2+  Pb214  1  0.16573740  0.49887403  0.66713733  1
  Pb2+  Pb215  1  0.66202430  0.51188224  0.15821277  1
