# generated using pymatgen
data_In22Ag21Sn22Bi21(Te54Pb11)2
_symmetry_space_group_name_H-M   'P 1'
_cell_length_a   19.12996883
_cell_length_b   19.12909054
_cell_length_c   19.12617622
_cell_angle_alpha   90.00351703
_cell_angle_beta   90.00548743
_cell_angle_gamma   89.99117014
_symmetry_Int_Tables_number   1
_chemical_formula_structural   In22Ag21Sn22Bi21(Te54Pb11)2
_chemical_formula_sum   'In22 Ag21 Sn22 Bi21 Te108 Pb22'
_cell_volume   6999.01186828
_cell_formula_units_Z   1
loop_
 _symmetry_equiv_pos_site_id
 _symmetry_equiv_pos_as_xyz
  1  'x, y, z'
loop_
 _atom_type_symbol
 _atom_type_oxidation_number
  In3+  3.0
  Ag+  1.0
  Sn2+  2.0
  Bi3+  3.0
  Te2-  -2.0
  Pb2+  2.0
loop_
 _atom_site_type_symbol
 _atom_site_label
 _atom_site_symmetry_multiplicity
 _atom_site_fract_x
 _atom_site_fract_y
 _atom_site_fract_z
 _atom_site_occupancy
  In3+  In0  1  0.00021756  0.83666394  0.18223068  1
  In3+  In1  1  0.83604279  0.47774876  0.66209718  1
  In3+  In2  1  0.48563651  0.32939906  0.50677118  1
  In3+  In3  1  0.64875178  0.49837602  0.83327506  1
  In3+  In4  1  0.82596173  0.50219194  -0.01279969  1
  In3+  In5  1  0.31618938  0.16764844  0.82966409  1
  In3+  In6  1  0.49322396  0.83765532  0.68371302  1
  In3+  In7  1  0.33259822  0.67598301  -0.01370963  1
  In3+  In8  1  0.82248492  0.33158488  0.17273966  1
  In3+  In9  1  0.82949134  0.66876107  0.82230977  1
  In3+  In10  1  0.32405898  0.83314126  0.17392242  1
  In3+  In11  1  0.17411328  0.17916615  0.33720277  1
  In3+  In12  1  0.82892957  0.84619263  0.33832897  1
  In3+  In13  1  -0.00351239  0.17107685  0.17799778  1
  In3+  In14  1  0.82855829  0.15609007  0.00100628  1
  In3+  In15  1  0.83377409  0.33243768  0.48283231  1
  In3+  In16  1  0.33028300  0.83521635  0.50424191  1
  In3+  In17  1  0.81907150  0.34026913  0.83443225  1
  In3+  In18  1  0.00527273  -0.00431479  0.02078386  1
  In3+  In19  1  0.48265437  0.66572967  0.16605825  1
  In3+  In20  1  0.83496092  0.00587880  0.17032538  1
  In3+  In21  1  0.16817290  -0.00988980  0.50252131  1
  Ag+  Ag22  1  0.02256914  0.01898404  0.32795399  1
  Ag+  Ag23  1  0.47522702  0.19066118  0.33689593  1
  Ag+  Ag24  1  0.47962264  0.17024920  -0.02566057  1
  Ag+  Ag25  1  0.63835565  -0.02319691  -0.01227667  1
  Ag+  Ag26  1  0.83321447  0.15007938  0.34524066  1
  Ag+  Ag27  1  0.64689293  0.34305512  0.36092787  1
  Ag+  Ag28  1  0.18267704  0.66229566  0.86048029  1
  Ag+  Ag29  1  0.31605348  0.02182511  0.35215604  1
  Ag+  Ag30  1  0.17187417  0.85305540  -0.02455475  1
  Ag+  Ag31  1  0.33472073  0.81854017  0.81585106  1
  Ag+  Ag32  1  0.17316793  0.64170285  0.49348767  1
  Ag+  Ag33  1  0.30948737  0.67005243  0.35463936  1
  Ag+  Ag34  1  0.18483760  0.34081297  0.47501328  1
  Ag+  Ag35  1  0.19612620  0.47470442  0.36393544  1
  Ag+  Ag36  1  0.34965077  0.00257809  0.69408312  1
  Ag+  Ag37  1  0.69414877  0.86088456  0.83021410  1
  Ag+  Ag38  1  -0.02279531  0.81363601  0.48215790  1
  Ag+  Ag39  1  0.83004633  0.15451576  0.69321365  1
  Ag+  Ag40  1  0.35207823  0.52570552  0.80029082  1
  Ag+  Ag41  1  0.69252395  0.31551685  -0.00159326  1
  Ag+  Ag42  1  0.33418379  0.47794985  0.47640323  1
  Sn2+  Sn43  1  0.00825344  0.66859810  0.66334316  1
  Sn2+  Sn44  1  0.33688090  -0.01324646  -0.00172070  1
  Sn2+  Sn45  1  0.00608747  0.33161893  0.66126110  1
  Sn2+  Sn46  1  0.17259237  0.50961923  0.66578057  1
  Sn2+  Sn47  1  0.66767539  0.16444529  0.84134649  1
  Sn2+  Sn48  1  0.49502686  0.49950609  0.33843569  1
  Sn2+  Sn49  1  0.66777817  0.65600616  0.33628832  1
  Sn2+  Sn50  1  -0.00531761  0.32906592  0.33486239  1
  Sn2+  Sn51  1  0.32765310  0.67047665  0.66131950  1
  Sn2+  Sn52  1  -0.00208601  0.16857237  0.83424776  1
  Sn2+  Sn53  1  -0.00670877  0.32393679  -0.00462177  1
  Sn2+  Sn54  1  0.48171233  0.66791899  0.49516784  1
  Sn2+  Sn55  1  0.49359826  0.84495140  -0.00232227  1
  Sn2+  Sn56  1  0.17143614  -0.01626934  0.83217344  1
  Sn2+  Sn57  1  0.49681678  0.32536224  0.83931518  1
  Sn2+  Sn58  1  0.01440290  0.50737468  0.49987256  1
  Sn2+  Sn59  1  0.32722247  0.33311563  0.67108472  1
  Sn2+  Sn60  1  0.00992867  0.66960987  -0.00918079  1
  Sn2+  Sn61  1  0.16724784  0.66437933  0.17861768  1
  Sn2+  Sn62  1  0.16967331  -0.00463097  0.17390404  1
  Sn2+  Sn63  1  0.84196763  0.01094706  0.50324888  1
  Sn2+  Sn64  1  0.50130873  0.00141039  0.83533357  1
  Bi3+  Bi65  1  0.16950023  0.83415252  0.66740015  1
  Bi3+  Bi66  1  0.00176705  0.66598418  0.33273562  1
  Bi3+  Bi67  1  0.33237371  0.50214624  0.16787194  1
  Bi3+  Bi68  1  0.83607041  0.66479938  0.16561349  1
  Bi3+  Bi69  1  0.83481200  0.50200696  0.33257994  1
  Bi3+  Bi70  1  -0.00135425  0.16780862  0.49817163  1
  Bi3+  Bi71  1  0.16570640  0.50161495  0.00048462  1
  Bi3+  Bi72  1  0.50108309  0.82968469  0.32810198  1
  Bi3+  Bi73  1  0.17072849  0.83182072  0.33503264  1
  Bi3+  Bi74  1  0.16749883  0.34194041  0.83312722  1
  Bi3+  Bi75  1  0.16257000  0.33154214  0.16413422  1
  Bi3+  Bi76  1  0.66623435  0.66864880  0.66671708  1
  Bi3+  Bi77  1  0.66630916  0.00345211  0.32572684  1
  Bi3+  Bi78  1  0.66956989  0.83519695  0.15822695  1
  Bi3+  Bi79  1  0.66817234  0.16494611  0.16671333  1
  Bi3+  Bi80  1  0.00268343  0.00238028  0.65925426  1
  Bi3+  Bi81  1  0.33137472  0.33461488  -0.00040203  1
  Bi3+  Bi82  1  0.00565940  0.50322650  0.83059551  1
  Bi3+  Bi83  1  0.50392080  -0.00080527  0.16461486  1
  Bi3+  Bi84  1  0.66996382  0.16234386  0.49415233  1
  Bi3+  Bi85  1  0.00612928  0.83446261  0.83145464  1
  Te2-  Te86  1  0.16062730  0.16617388  0.17566596  1
  Te2-  Te87  1  0.15997836  0.18837591  0.49127293  1
  Te2-  Te88  1  0.16116891  0.17119274  0.83163223  1
  Te2-  Te89  1  0.16909835  0.49557266  0.16674521  1
  Te2-  Te90  1  0.17114301  0.49186033  0.50544965  1
  Te2-  Te91  1  0.16673411  0.50946941  0.83559428  1
  Te2-  Te92  1  0.16281877  0.83226053  0.17228545  1
  Te2-  Te93  1  0.17323437  0.83662084  0.50068362  1
  Te2-  Te94  1  0.17184611  0.82066193  0.82981685  1
  Te2-  Te95  1  0.50392053  0.16280147  0.18569753  1
  Te2-  Te96  1  0.50450185  0.17220232  0.48823190  1
  Te2-  Te97  1  0.50947550  0.16680760  0.82918480  1
  Te2-  Te98  1  0.49793441  0.50406083  0.16809142  1
  Te2-  Te99  1  0.48751463  0.50060746  0.49619401  1
  Te2-  Te100  1  0.49327405  0.49761366  0.83199478  1
  Te2-  Te101  1  0.50715204  0.83171501  0.16133131  1
  Te2-  Te102  1  0.49438280  0.82914573  0.49231901  1
  Te2-  Te103  1  0.48328829  0.84039461  0.83866251  1
  Te2-  Te104  1  0.83890724  0.17116823  0.15966892  1
  Te2-  Te105  1  0.83448228  0.17311763  0.49257870  1
  Te2-  Te106  1  0.83521343  0.17491458  0.84111968  1
  Te2-  Te107  1  0.83554614  0.49809352  0.16557509  1
  Te2-  Te108  1  0.83510830  0.49254518  0.50061001  1
  Te2-  Te109  1  0.84150183  0.49948958  0.83114576  1
  Te2-  Te110  1  0.83558871  0.83187314  0.17259153  1
  Te2-  Te111  1  0.83280938  0.83690209  0.49520347  1
  Te2-  Te112  1  0.84063147  0.82906545  0.83735470  1
  Te2-  Te113  1  0.16212329  -0.00293748  0.00511439  1
  Te2-  Te114  1  0.16899880  -0.00631673  0.33408058  1
  Te2-  Te115  1  0.16682912  0.00050154  0.66155886  1
  Te2-  Te116  1  0.16488969  0.33349379  -0.00050821  1
  Te2-  Te117  1  0.16121748  0.33445857  0.32725612  1
  Te2-  Te118  1  0.16675660  0.33621373  0.67299218  1
  Te2-  Te119  1  0.16863487  0.66305303  0.00734502  1
  Te2-  Te120  1  0.16158170  0.66772441  0.34080335  1
  Te2-  Te121  1  0.16663767  0.67325860  0.64839207  1
  Te2-  Te122  1  0.49818552  0.01686684  0.00315648  1
  Te2-  Te123  1  0.50334597  -0.00810796  0.32667650  1
  Te2-  Te124  1  0.49477607  -0.00674945  0.66412727  1
  Te2-  Te125  1  0.49223362  0.32160724  -0.00154525  1
  Te2-  Te126  1  0.50270942  0.33581933  0.34132439  1
  Te2-  Te127  1  0.49664670  0.33458093  0.66257098  1
  Te2-  Te128  1  0.49100835  0.66946189  0.00338756  1
  Te2-  Te129  1  0.51097036  0.66669025  0.32622667  1
  Te2-  Te130  1  0.50074630  0.67882654  0.66423703  1
  Te2-  Te131  1  0.84689617  -0.00030098  0.00709264  1
  Te2-  Te132  1  0.83090850  -0.00006757  0.32993090  1
  Te2-  Te133  1  0.83692763  0.00615174  0.66686007  1
  Te2-  Te134  1  0.83804449  0.34432719  -0.00649605  1
  Te2-  Te135  1  0.83182363  0.33962815  0.32573106  1
  Te2-  Te136  1  0.83504485  0.32763301  0.68173811  1
  Te2-  Te137  1  0.83803504  0.65941430  0.00279144  1
  Te2-  Te138  1  0.83598586  0.66537791  0.33170980  1
  Te2-  Te139  1  0.83228488  0.66960081  0.66843393  1
  Te2-  Te140  1  -0.00592938  0.15623806  0.00214830  1
  Te2-  Te141  1  -0.01241017  0.16273515  0.33152980  1
  Te2-  Te142  1  -0.01399532  0.16449644  0.66322305  1
  Te2-  Te143  1  0.00145971  0.50120190  -0.00408807  1
  Te2-  Te144  1  -0.00266629  0.50189095  0.33695469  1
  Te2-  Te145  1  -0.00769279  0.50250419  0.66730028  1
  Te2-  Te146  1  0.01615723  0.84028451  -0.00686854  1
  Te2-  Te147  1  0.00087251  0.83257241  0.33677726  1
  Te2-  Te148  1  0.00425972  0.83822786  0.66754993  1
  Te2-  Te149  1  0.33244226  0.16920049  -0.00606634  1
  Te2-  Te150  1  0.32865665  0.16635616  0.33353623  1
  Te2-  Te151  1  0.33405641  0.15709735  0.67438327  1
  Te2-  Te152  1  0.32887009  0.49957698  0.00474501  1
  Te2-  Te153  1  0.33349326  0.51486884  0.33126014  1
  Te2-  Te154  1  0.33096054  0.50136511  0.65954976  1
  Te2-  Te155  1  0.32159164  0.82918600  0.00788127  1
  Te2-  Te156  1  0.33670938  0.81831749  0.32645523  1
  Te2-  Te157  1  0.33600052  0.84567965  0.67098246  1
  Te2-  Te158  1  0.67790920  0.16918212  0.00460285  1
  Te2-  Te159  1  0.68203097  0.16371839  0.32959781  1
  Te2-  Te160  1  0.67754399  0.16373217  0.66399405  1
  Te2-  Te161  1  0.66970006  0.49988485  -0.00854653  1
  Te2-  Te162  1  0.67081870  0.48747765  0.33354703  1
  Te2-  Te163  1  0.67370399  0.50190913  0.67415652  1
  Te2-  Te164  1  0.66655734  0.83409681  -0.00678332  1
  Te2-  Te165  1  0.66824659  0.83469867  0.32800783  1
  Te2-  Te166  1  0.66188005  0.83168524  0.68254954  1
  Te2-  Te167  1  -0.00322146  -0.00224644  0.17848166  1
  Te2-  Te168  1  0.00934101  0.00599822  0.49314099  1
  Te2-  Te169  1  0.00702317  -0.00074673  0.82451403  1
  Te2-  Te170  1  -0.00006696  0.32779938  0.16359115  1
  Te2-  Te171  1  -0.01040664  0.33369192  0.50176588  1
  Te2-  Te172  1  0.00578338  0.33702601  0.83058371  1
  Te2-  Te173  1  -0.00264412  0.67471908  0.16566927  1
  Te2-  Te174  1  0.00860310  0.67095888  0.49748212  1
  Te2-  Te175  1  -0.00731234  0.66759496  0.82923701  1
  Te2-  Te176  1  0.33883605  -0.01104142  0.16734789  1
  Te2-  Te177  1  0.32643202  -0.00737463  0.49461680  1
  Te2-  Te178  1  0.32892038  0.01028941  0.83966761  1
  Te2-  Te179  1  0.32943064  0.33204970  0.16547810  1
  Te2-  Te180  1  0.33179255  0.33262161  0.50434231  1
  Te2-  Te181  1  0.32895023  0.32794600  0.83548305  1
  Te2-  Te182  1  0.33105927  0.66732726  0.16357235  1
  Te2-  Te183  1  0.32441200  0.67641185  0.50225454  1
  Te2-  Te184  1  0.32761332  0.66709793  0.83259878  1
  Te2-  Te185  1  0.67306878  -0.00218993  0.15712830  1
  Te2-  Te186  1  0.67011544  -0.00054890  0.49597649  1
  Te2-  Te187  1  0.66945338  0.00309761  0.84415972  1
  Te2-  Te188  1  0.67147932  0.33006745  0.15030640  1
  Te2-  Te189  1  0.67896682  0.32739057  0.50324733  1
  Te2-  Te190  1  0.66624180  0.33949460  0.84622928  1
  Te2-  Te191  1  0.67458758  0.67167594  0.16831721  1
  Te2-  Te192  1  0.66767396  0.66339746  0.50367791  1
  Te2-  Te193  1  0.66943942  0.65511285  0.83024849  1
  Pb2+  Pb194  1  0.84425302  0.83016892  0.00555431  1
  Pb2+  Pb195  1  0.33768309  0.15591809  0.16069858  1
  Pb2+  Pb196  1  0.16014890  0.16840138  0.66132231  1
  Pb2+  Pb197  1  0.84143622  0.66141751  0.50125433  1
  Pb2+  Pb198  1  0.33555669  0.34167288  0.33402560  1
  Pb2+  Pb199  1  0.66187851  0.49561704  0.50055113  1
  Pb2+  Pb200  1  0.50439002  0.32837330  0.16695931  1
  Pb2+  Pb201  1  0.49776780  0.50836428  0.66276119  1
  Pb2+  Pb202  1  0.32856088  0.16085830  0.50604089  1
  Pb2+  Pb203  1  0.83471634  0.83747713  0.66485587  1
  Pb2+  Pb204  1  0.49861288  -0.00109411  0.49217377  1
  Pb2+  Pb205  1  0.50416271  0.16506355  0.66075896  1
  Pb2+  Pb206  1  0.66359704  0.83043062  0.50392723  1
  Pb2+  Pb207  1  0.00203701  0.50142640  0.16879627  1
  Pb2+  Pb208  1  0.66500243  0.66848691  -0.00014380  1
  Pb2+  Pb209  1  0.66323822  -0.00071799  0.67375704  1
  Pb2+  Pb210  1  0.66829199  0.50090275  0.16512589  1
  Pb2+  Pb211  1  0.49712535  0.49320567  -0.00027011  1
  Pb2+  Pb212  1  0.83990466  0.00608897  0.83791586  1
  Pb2+  Pb213  1  0.16412674  0.16194022  0.00290920  1
  Pb2+  Pb214  1  0.66549874  0.32867010  0.67310940  1
  Pb2+  Pb215  1  0.49756522  0.67125684  0.83386113  1
