# generated using pymatgen
data_In22Ag21Sn22Bi21(Te54Pb11)2
_symmetry_space_group_name_H-M   'P 1'
_cell_length_a   19.14152073
_cell_length_b   19.18385232
_cell_length_c   19.15225638
_cell_angle_alpha   90.00579996
_cell_angle_beta   89.99184103
_cell_angle_gamma   90.00702721
_symmetry_Int_Tables_number   1
_chemical_formula_structural   In22Ag21Sn22Bi21(Te54Pb11)2
_chemical_formula_sum   'In22 Ag21 Sn22 Bi21 Te108 Pb22'
_cell_volume   7032.86364676
_cell_formula_units_Z   1
loop_
 _symmetry_equiv_pos_site_id
 _symmetry_equiv_pos_as_xyz
  1  'x, y, z'
loop_
 _atom_type_symbol
 _atom_type_oxidation_number
  In3+  3.0
  Ag+  1.0
  Sn2+  2.0
  Bi3+  3.0
  Te2-  -2.0
  Pb2+  2.0
loop_
 _atom_site_type_symbol
 _atom_site_label
 _atom_site_symmetry_multiplicity
 _atom_site_fract_x
 _atom_site_fract_y
 _atom_site_fract_z
 _atom_site_occupancy
  In3+  In0  1  0.17566265  0.16840690  0.34189088  1
  In3+  In1  1  0.51029917  0.65167137  0.84126913  1
  In3+  In2  1  0.00104417  -0.00550796  0.34144009  1
  In3+  In3  1  0.33550081  0.00134455  0.01507990  1
  In3+  In4  1  0.32607836  0.85941881  0.49235731  1
  In3+  In5  1  0.49328327  0.17434872  0.33819678  1
  In3+  In6  1  0.67105496  0.16177779  0.82488634  1
  In3+  In7  1  0.83805012  0.15870126  0.66628673  1
  In3+  In8  1  0.81447482  0.51110489  0.67882436  1
  In3+  In9  1  -0.00063221  0.67267925  0.68243549  1
  In3+  In10  1  -0.00429926  0.35467559  0.66441059  1
  In3+  In11  1  0.33214852  0.34488915  0.33858247  1
  In3+  In12  1  0.49428598  0.36549568  0.16561362  1
  In3+  In13  1  0.81722805  0.65661513  0.49211024  1
  In3+  In14  1  0.83429629  0.00415129  0.82450086  1
  In3+  In15  1  -0.01559198  0.00256500  0.02037854  1
  In3+  In16  1  -0.00316497  0.81846962  0.49285381  1
  In3+  In17  1  0.49958301  0.35048634  0.51901840  1
  In3+  In18  1  0.53342751  0.33655079  0.83819949  1
  In3+  In19  1  0.16476868  0.16775729  0.01756772  1
  In3+  In20  1  0.17241186  0.64699212  0.82740081  1
  In3+  In21  1  -0.02379649  0.51052618  0.49828339  1
  Ag+  Ag22  1  0.52284785  0.52827006  0.68895720  1
  Ag+  Ag23  1  0.47085142  0.66506868  0.19393587  1
  Ag+  Ag24  1  0.19289261  0.80534349  0.68908602  1
  Ag+  Ag25  1  0.49984364  0.47827509  -0.01654919  1
  Ag+  Ag26  1  0.00634874  0.18800416  0.19289012  1
  Ag+  Ag27  1  0.15337692  0.47181122  0.33628114  1
  Ag+  Ag28  1  0.69018928  -0.00082007  0.65548457  1
  Ag+  Ag29  1  0.83259558  -0.02902782  0.19908662  1
  Ag+  Ag30  1  0.64364240  0.63900067  0.67167010  1
  Ag+  Ag31  1  -0.03180192  0.63837081  0.35221391  1
  Ag+  Ag32  1  0.31131239  0.18312865  0.48527533  1
  Ag+  Ag33  1  0.67670425  0.49324867  0.50228319  1
  Ag+  Ag34  1  0.33565753  0.02549715  0.31475709  1
  Ag+  Ag35  1  0.85957669  0.52608935  0.33263747  1
  Ag+  Ag36  1  0.14094240  0.35987932  0.49722862  1
  Ag+  Ag37  1  0.50254383  0.47680725  0.33824547  1
  Ag+  Ag38  1  0.35705259  0.64254907  -0.00573717  1
  Ag+  Ag39  1  0.66488687  0.52544292  0.80053139  1
  Ag+  Ag40  1  0.79947135  -0.04034698  0.47510749  1
  Ag+  Ag41  1  0.80777594  0.87003049  0.35255117  1
  Ag+  Ag42  1  0.83242115  0.35693244  0.80591025  1
  Sn2+  Sn43  1  0.66628864  0.00145377  -0.00197993  1
  Sn2+  Sn44  1  0.66727728  0.83801227  0.82504888  1
  Sn2+  Sn45  1  0.83379641  0.16773350  0.00382187  1
  Sn2+  Sn46  1  0.66533240  0.65852783  0.33557446  1
  Sn2+  Sn47  1  -0.00278566  0.16656578  0.49562216  1
  Sn2+  Sn48  1  0.16675636  0.16290536  0.66355576  1
  Sn2+  Sn49  1  0.15875958  0.32633919  0.81665137  1
  Sn2+  Sn50  1  0.67194035  0.34549731  0.00121519  1
  Sn2+  Sn51  1  0.65971940  0.66286095  -0.00267435  1
  Sn2+  Sn52  1  0.51503785  -0.00496298  0.17221709  1
  Sn2+  Sn53  1  0.33306111  0.65610809  0.33342407  1
  Sn2+  Sn54  1  0.66516095  0.82710839  0.50490691  1
  Sn2+  Sn55  1  0.83142396  0.17013083  0.33093280  1
  Sn2+  Sn56  1  0.17058951  0.65855114  0.16690954  1
  Sn2+  Sn57  1  0.66854750  0.16869647  0.49809794  1
  Sn2+  Sn58  1  0.33705576  0.16951296  0.82429611  1
  Sn2+  Sn59  1  0.16974781  0.83324000  -0.00899686  1
  Sn2+  Sn60  1  0.50427682  0.17316472  0.00749137  1
  Sn2+  Sn61  1  0.16701947  0.00096682  0.83596026  1
  Sn2+  Sn62  1  0.33225855  0.82285498  0.17220069  1
  Sn2+  Sn63  1  0.33627497  0.50655131  0.16240327  1
  Sn2+  Sn64  1  0.00449307  0.66912718  0.01289139  1
  Bi3+  Bi65  1  0.34005127  0.49788944  0.49657705  1
  Bi3+  Bi66  1  0.82957455  0.33094588  0.49751033  1
  Bi3+  Bi67  1  0.33492695  0.83472548  0.83513005  1
  Bi3+  Bi68  1  0.49839425  0.00308731  0.50061736  1
  Bi3+  Bi69  1  0.67056361  0.16295134  0.16479641  1
  Bi3+  Bi70  1  0.16774418  0.00020404  0.49759017  1
  Bi3+  Bi71  1  0.32993567  0.33167385  0.66300764  1
  Bi3+  Bi72  1  0.16943471  0.83743258  0.33271201  1
  Bi3+  Bi73  1  0.66323273  0.50220955  0.17040922  1
  Bi3+  Bi74  1  0.00203131  0.83414188  0.16955301  1
  Bi3+  Bi75  1  0.50241152  0.66361370  0.49930898  1
  Bi3+  Bi76  1  0.00263439  -0.00048608  0.65974352  1
  Bi3+  Bi77  1  0.50095534  0.83618323  0.00103767  1
  Bi3+  Bi78  1  0.50239512  0.16629345  0.66512780  1
  Bi3+  Bi79  1  0.16248500  -0.00275785  0.16663643  1
  Bi3+  Bi80  1  0.83484610  0.66350952  0.16901538  1
  Bi3+  Bi81  1  0.32977952  0.00261901  0.66527624  1
  Bi3+  Bi82  1  0.83688228  0.83101513  0.66108170  1
  Bi3+  Bi83  1  -0.00079110  0.16624719  0.82854383  1
  Bi3+  Bi84  1  0.82833348  0.33049726  0.16680464  1
  Bi3+  Bi85  1  0.49962141  0.83706240  0.33191145  1
  Te2-  Te86  1  0.15428803  0.16103760  0.17216559  1
  Te2-  Te87  1  0.16501743  0.16187745  0.49597056  1
  Te2-  Te88  1  0.16382250  0.16873058  0.82786142  1
  Te2-  Te89  1  0.16878978  0.49592708  0.18058996  1
  Te2-  Te90  1  0.17995171  0.49991337  0.48546458  1
  Te2-  Te91  1  0.16571476  0.49448802  0.83272900  1
  Te2-  Te92  1  0.16491487  0.83621922  0.16279817  1
  Te2-  Te93  1  0.16376681  0.83744006  0.49584241  1
  Te2-  Te94  1  0.17007304  0.83521106  0.83120028  1
  Te2-  Te95  1  0.50476753  0.15407859  0.17257237  1
  Te2-  Te96  1  0.50816460  0.16434773  0.49849718  1
  Te2-  Te97  1  0.50446293  0.17623212  0.83194154  1
  Te2-  Te98  1  0.50040828  0.51555889  0.17600932  1
  Te2-  Te99  1  0.50264947  0.49961568  0.49006275  1
  Te2-  Te100  1  0.51584350  0.49421582  0.83239008  1
  Te2-  Te101  1  0.49876206  0.82643211  0.16646231  1
  Te2-  Te102  1  0.49688316  0.83593862  0.49688586  1
  Te2-  Te103  1  0.49782244  0.83591840  0.83698772  1
  Te2-  Te104  1  0.83528506  0.17160511  0.16323800  1
  Te2-  Te105  1  0.82868000  0.17080856  0.50644072  1
  Te2-  Te106  1  0.83428527  0.16050077  0.82900383  1
  Te2-  Te107  1  0.82941658  0.49653782  0.18064912  1
  Te2-  Te108  1  0.82443117  0.49924147  0.48258690  1
  Te2-  Te109  1  0.81792283  0.50185020  0.83084167  1
  Te2-  Te110  1  0.83917951  0.82654366  0.17703662  1
  Te2-  Te111  1  0.83866358  0.82111235  0.49450396  1
  Te2-  Te112  1  0.83307129  0.83700892  0.82767489  1
  Te2-  Te113  1  0.17193730  0.00665809  0.00458378  1
  Te2-  Te114  1  0.18341599  0.00229603  0.33156939  1
  Te2-  Te115  1  0.16541834  -0.00448512  0.66260641  1
  Te2-  Te116  1  0.16633752  0.32679139  0.00007785  1
  Te2-  Te117  1  0.17488580  0.32544699  0.34647713  1
  Te2-  Te118  1  0.16539799  0.32953510  0.65012604  1
  Te2-  Te119  1  0.15941944  0.66707698  -0.00148084  1
  Te2-  Te120  1  0.17466069  0.67682939  0.32530002  1
  Te2-  Te121  1  0.15878709  0.66567857  0.66941469  1
  Te2-  Te122  1  0.49735059  0.00095025  0.00646441  1
  Te2-  Te123  1  0.48590860  -0.00188009  0.33625517  1
  Te2-  Te124  1  0.49563699  0.00533259  0.66648557  1
  Te2-  Te125  1  0.50304634  0.33117751  -0.00276817  1
  Te2-  Te126  1  0.49174484  0.32718876  0.32390085  1
  Te2-  Te127  1  0.49812985  0.32744182  0.67140817  1
  Te2-  Te128  1  0.50117970  0.67445321  -0.00891975  1
  Te2-  Te129  1  0.49954732  0.67640885  0.33775695  1
  Te2-  Te130  1  0.49932869  0.67026202  0.66364550  1
  Te2-  Te131  1  0.83461804  0.00190623  -0.01194523  1
  Te2-  Te132  1  0.84012899  0.01187553  0.34044836  1
  Te2-  Te133  1  0.83920845  -0.00172662  0.66483084  1
  Te2-  Te134  1  0.83245467  0.33452651  0.00499974  1
  Te2-  Te135  1  0.83228469  0.32992716  0.33349207  1
  Te2-  Te136  1  0.83923851  0.34522692  0.65861408  1
  Te2-  Te137  1  0.83403751  0.66726122  0.00219101  1
  Te2-  Te138  1  0.82574490  0.66954166  0.33678950  1
  Te2-  Te139  1  0.84267640  0.66401269  0.66003529  1
  Te2-  Te140  1  0.00551691  0.15601399  -0.00870655  1
  Te2-  Te141  1  0.00330849  0.15872082  0.33609377  1
  Te2-  Te142  1  -0.00442160  0.16345424  0.66561653  1
  Te2-  Te143  1  -0.00087336  0.49958968  -0.00048644  1
  Te2-  Te144  1  0.00679256  0.49626883  0.34559398  1
  Te2-  Te145  1  0.00116486  0.50803319  0.65728482  1
  Te2-  Te146  1  0.00119590  0.84236089  0.00241678  1
  Te2-  Te147  1  0.00632861  0.83928704  0.33481038  1
  Te2-  Te148  1  -0.00214295  0.83120435  0.65797321  1
  Te2-  Te149  1  0.33140205  0.15831802  -0.00303277  1
  Te2-  Te150  1  0.33504242  0.17136927  0.33844942  1
  Te2-  Te151  1  0.33721672  0.16829910  0.66093941  1
  Te2-  Te152  1  0.34538730  0.49654688  0.00033258  1
  Te2-  Te153  1  0.34724459  0.49760632  0.33155832  1
  Te2-  Te154  1  0.34137383  0.49450433  0.66549515  1
  Te2-  Te155  1  0.33555946  0.84361594  -0.00289671  1
  Te2-  Te156  1  0.33446036  0.82630362  0.33365050  1
  Te2-  Te157  1  0.33314595  0.83748358  0.66711824  1
  Te2-  Te158  1  0.66501835  0.16535501  0.00252093  1
  Te2-  Te159  1  0.66162159  0.16591686  0.32907705  1
  Te2-  Te160  1  0.66863831  0.15210788  0.66974024  1
  Te2-  Te161  1  0.65104172  0.50318560  0.00602142  1
  Te2-  Te162  1  0.65233893  0.50234938  0.33093186  1
  Te2-  Te163  1  0.66544003  0.49320093  0.65484190  1
  Te2-  Te164  1  0.66468089  0.83550280  -0.00436847  1
  Te2-  Te165  1  0.66515612  0.83329456  0.33766604  1
  Te2-  Te166  1  0.67663089  0.84663451  0.66422121  1
  Te2-  Te167  1  -0.00743128  -0.00227402  0.17164617  1
  Te2-  Te168  1  0.00318104  -0.00107410  0.49781160  1
  Te2-  Te169  1  0.00082566  0.00422034  0.82434650  1
  Te2-  Te170  1  -0.00336906  0.33138411  0.16698056  1
  Te2-  Te171  1  -0.00492547  0.33598398  0.50821945  1
  Te2-  Te172  1  -0.01331718  0.33110482  0.82092121  1
  Te2-  Te173  1  -0.00035755  0.67017366  0.17238446  1
  Te2-  Te174  1  0.00090139  0.66352296  0.49378105  1
  Te2-  Te175  1  0.00472026  0.66757166  0.83686851  1
  Te2-  Te176  1  0.32940125  -0.00265672  0.16899223  1
  Te2-  Te177  1  0.33308460  0.01584111  0.50406138  1
  Te2-  Te178  1  0.33129448  0.00064436  0.82784235  1
  Te2-  Te179  1  0.34112788  0.33079247  0.16870476  1
  Te2-  Te180  1  0.34568927  0.32844514  0.49732183  1
  Te2-  Te181  1  0.32441542  0.33001311  0.82554798  1
  Te2-  Te182  1  0.33256408  0.66519135  0.14885406  1
  Te2-  Te183  1  0.33840736  0.66207519  0.50283494  1
  Te2-  Te184  1  0.32527932  0.66979987  0.84364892  1
  Te2-  Te185  1  0.68504079  0.00138089  0.16638201  1
  Te2-  Te186  1  0.66252060  -0.00098844  0.50601644  1
  Te2-  Te187  1  0.67093372  0.00513715  0.83177568  1
  Te2-  Te188  1  0.65868584  0.32954010  0.16502453  1
  Te2-  Te189  1  0.66312452  0.34038293  0.50020018  1
  Te2-  Te190  1  0.68494884  0.31943556  0.83438869  1
  Te2-  Te191  1  0.67362893  0.66423224  0.16333630  1
  Te2-  Te192  1  0.66670564  0.66114856  0.51221235  1
  Te2-  Te193  1  0.66052103  0.67135654  0.82135550  1
  Pb2+  Pb194  1  0.00164959  0.83741867  0.82999279  1
  Pb2+  Pb195  1  0.50534866  0.83684817  0.66646374  1
  Pb2+  Pb196  1  0.67083191  0.32282285  0.66666762  1
  Pb2+  Pb197  1  0.00030130  0.50284465  0.17012889  1
  Pb2+  Pb198  1  0.83314260  0.83546193  0.00824512  1
  Pb2+  Pb199  1  -0.00587291  0.49961540  0.83147099  1
  Pb2+  Pb200  1  0.50021678  0.00658957  0.83861891  1
  Pb2+  Pb201  1  0.82397471  0.50129293  0.00846302  1
  Pb2+  Pb202  1  0.66049438  0.00118772  0.33776526  1
  Pb2+  Pb203  1  0.33404111  0.16455565  0.16816421  1
  Pb2+  Pb204  1  0.00004670  0.32729443  0.33774335  1
  Pb2+  Pb205  1  0.66711082  0.83038484  0.16875984  1
  Pb2+  Pb206  1  0.33362524  0.66505210  0.67119587  1
  Pb2+  Pb207  1  0.66369759  0.33749123  0.33385719  1
  Pb2+  Pb208  1  0.33430448  0.32789864  -0.00377369  1
  Pb2+  Pb209  1  0.17067150  0.33148310  0.17265252  1
  Pb2+  Pb210  1  0.83034690  0.66975495  0.83235074  1
  Pb2+  Pb211  1  0.17099551  0.50168535  0.00597374  1
  Pb2+  Pb212  1  -0.00022831  0.32654893  -0.00381447  1
  Pb2+  Pb213  1  0.34391041  0.49847191  0.83309857  1
  Pb2+  Pb214  1  0.17008936  0.66581665  0.49199748  1
  Pb2+  Pb215  1  0.17314867  0.49578447  0.65349578  1
