# generated using pymatgen
data_In22Ag21Sn22Bi21(Te54Pb11)2
_symmetry_space_group_name_H-M   'P 1'
_cell_length_a   19.12249259
_cell_length_b   19.11901264
_cell_length_c   19.11251488
_cell_angle_alpha   89.98417333
_cell_angle_beta   89.98413251
_cell_angle_gamma   89.99159441
_symmetry_Int_Tables_number   1
_chemical_formula_structural   In22Ag21Sn22Bi21(Te54Pb11)2
_chemical_formula_sum   'In22 Ag21 Sn22 Bi21 Te108 Pb22'
_cell_volume   6987.59555974
_cell_formula_units_Z   1
loop_
 _symmetry_equiv_pos_site_id
 _symmetry_equiv_pos_as_xyz
  1  'x, y, z'
loop_
 _atom_type_symbol
 _atom_type_oxidation_number
  In3+  3.0
  Ag+  1.0
  Sn2+  2.0
  Bi3+  3.0
  Te2-  -2.0
  Pb2+  2.0
loop_
 _atom_site_type_symbol
 _atom_site_label
 _atom_site_symmetry_multiplicity
 _atom_site_fract_x
 _atom_site_fract_y
 _atom_site_fract_z
 _atom_site_occupancy
  In3+  In0  1  0.65441207  -0.00318191  -0.00983647  1
  In3+  In1  1  0.32925302  0.32295011  0.01541778  1
  In3+  In2  1  0.16639374  0.32397595  0.48954556  1
  In3+  In3  1  0.32649248  0.00275531  0.66723570  1
  In3+  In4  1  0.81761915  -0.00377636  0.83197547  1
  In3+  In5  1  0.83860096  0.83505584  0.67244016  1
  In3+  In6  1  0.48034208  0.47375268  -0.00192107  1
  In3+  In7  1  0.47835300  0.16368978  0.33813827  1
  In3+  In8  1  0.83465558  0.65292469  0.83265697  1
  In3+  In9  1  0.49120668  0.00085706  0.50434443  1
  In3+  In10  1  0.15306240  0.17346923  0.66641946  1
  In3+  In11  1  0.66046884  0.48775111  0.84556761  1
  In3+  In12  1  0.49964326  -0.00002779  0.13804916  1
  In3+  In13  1  0.67102979  0.85139467  0.51388184  1
  In3+  In14  1  0.33374658  0.33279185  0.67850283  1
  In3+  In15  1  0.82904699  0.17431379  0.66561958  1
  In3+  In16  1  0.31528387  0.49495505  0.49850677  1
  In3+  In17  1  0.67712640  0.65882183  0.67329453  1
  In3+  In18  1  0.66766581  0.00326972  0.33224885  1
  In3+  In19  1  0.66368183  -0.00054673  0.66249607  1
  In3+  In20  1  0.50492749  0.65002693  0.50077439  1
  In3+  In21  1  0.14947599  0.65313606  0.82525816  1
  Ag+  Ag22  1  0.33636790  0.31362814  0.35429252  1
  Ag+  Ag23  1  0.30779261  0.49605644  0.13704339  1
  Ag+  Ag24  1  0.69442734  0.36106338  0.65408193  1
  Ag+  Ag25  1  0.50254000  0.81562177  0.01936862  1
  Ag+  Ag26  1  0.03492044  0.35171237  -0.02162618  1
  Ag+  Ag27  1  -0.02301218  0.86031479  0.15590227  1
  Ag+  Ag28  1  0.02094308  0.49720672  0.81090189  1
  Ag+  Ag29  1  0.80974275  0.83662211  0.30757888  1
  Ag+  Ag30  1  -0.01449088  0.68048308  0.65206135  1
  Ag+  Ag31  1  0.51563996  0.01233073  0.82467319  1
  Ag+  Ag32  1  0.13618859  0.17117387  -0.03259413  1
  Ag+  Ag33  1  0.85812979  0.33479809  0.19633935  1
  Ag+  Ag34  1  0.48332330  0.16742199  -0.02976697  1
  Ag+  Ag35  1  0.66820700  0.83105542  0.82216284  1
  Ag+  Ag36  1  0.00023038  0.18764394  0.52060039  1
  Ag+  Ag37  1  0.15597397  0.52257612  0.02521677  1
  Ag+  Ag38  1  0.83969169  0.47218814  0.32279188  1
  Ag+  Ag39  1  0.49804149  0.31245493  0.81430710  1
  Ag+  Ag40  1  0.14399319  0.02597412  0.50128721  1
  Ag+  Ag41  1  0.16631536  0.18161122  0.31583144  1
  Ag+  Ag42  1  0.17942170  0.47691279  0.66403085  1
  Sn2+  Sn43  1  0.82711651  0.83912645  -0.00236036  1
  Sn2+  Sn44  1  0.83361491  0.17262499  0.00184878  1
  Sn2+  Sn45  1  0.32229302  0.66770947  0.66985078  1
  Sn2+  Sn46  1  0.50262962  0.17136307  0.66196143  1
  Sn2+  Sn47  1  0.33364474  0.81713204  0.16383816  1
  Sn2+  Sn48  1  0.83362563  0.66707148  0.49690758  1
  Sn2+  Sn49  1  0.83594011  0.32997367  0.49458801  1
  Sn2+  Sn50  1  0.84833854  0.15310421  0.33758714  1
  Sn2+  Sn51  1  -0.00027462  -0.00040412  -0.00555281  1
  Sn2+  Sn52  1  0.32594456  0.16683333  0.50425315  1
  Sn2+  Sn53  1  0.83914967  0.00131566  0.49961422  1
  Sn2+  Sn54  1  0.34680057  0.83414367  0.83767828  1
  Sn2+  Sn55  1  0.00638495  0.34145475  0.67724174  1
  Sn2+  Sn56  1  0.33256237  0.49848208  0.82674270  1
  Sn2+  Sn57  1  -0.00360588  0.67226897  0.33908671  1
  Sn2+  Sn58  1  0.67409385  0.17393805  0.50015259  1
  Sn2+  Sn59  1  0.83891991  0.50002403  0.65891808  1
  Sn2+  Sn60  1  0.65941538  0.32936440  0.33796840  1
  Sn2+  Sn61  1  0.50140281  0.49621577  0.32486990  1
  Sn2+  Sn62  1  0.00581134  0.33115659  0.32969243  1
  Sn2+  Sn63  1  0.32995392  0.00263079  0.33467057  1
  Sn2+  Sn64  1  0.17177170  0.34226243  0.83833472  1
  Bi3+  Bi65  1  0.50202330  0.83737177  0.66947038  1
  Bi3+  Bi66  1  0.00173518  0.00108281  0.33398700  1
  Bi3+  Bi67  1  0.16644399  0.83444168  0.66906245  1
  Bi3+  Bi68  1  0.33337083  0.00197470  -0.00202604  1
  Bi3+  Bi69  1  0.16742118  0.66821105  0.50230562  1
  Bi3+  Bi70  1  -0.00028852  0.16817534  0.16869011  1
  Bi3+  Bi71  1  0.16872830  -0.00156940  0.83062891  1
  Bi3+  Bi72  1  0.16714555  0.32931475  0.16376195  1
  Bi3+  Bi73  1  0.66780091  0.17124654  0.17107860  1
  Bi3+  Bi74  1  0.50354937  0.67230744  0.82990392  1
  Bi3+  Bi75  1  0.66765802  0.67367041  -0.00581355  1
  Bi3+  Bi76  1  0.67257810  0.49917340  0.49906877  1
  Bi3+  Bi77  1  0.00199865  0.66014711  0.00201864  1
  Bi3+  Bi78  1  0.66099179  0.32989514  -0.00146316  1
  Bi3+  Bi79  1  0.33464329  0.66473889  0.33602220  1
  Bi3+  Bi80  1  0.50064939  0.33015100  0.16950903  1
  Bi3+  Bi81  1  0.16892186  0.66619860  0.16457068  1
  Bi3+  Bi82  1  0.16788200  0.83613961  0.33681903  1
  Bi3+  Bi83  1  0.66719262  0.49894278  0.16692090  1
  Bi3+  Bi84  1  -0.00284470  0.49856173  0.16831130  1
  Bi3+  Bi85  1  -0.00429917  0.49456694  0.50177689  1
  Te2-  Te86  1  0.16683727  0.16712211  0.16873938  1
  Te2-  Te87  1  0.15620716  0.17088946  0.51211725  1
  Te2-  Te88  1  0.16690263  0.16449457  0.82331343  1
  Te2-  Te89  1  0.16306605  0.49656522  0.17114211  1
  Te2-  Te90  1  0.15949744  0.50334738  0.51414085  1
  Te2-  Te91  1  0.16952332  0.50081195  0.81766959  1
  Te2-  Te92  1  0.17291701  0.82895231  0.17018049  1
  Te2-  Te93  1  0.16631511  0.82937841  0.50335806  1
  Te2-  Te94  1  0.16966095  0.83420171  0.83088886  1
  Te2-  Te95  1  0.50466283  0.16433760  0.18118836  1
  Te2-  Te96  1  0.50341712  0.15982828  0.49484367  1
  Te2-  Te97  1  0.50090056  0.16199537  0.82280722  1
  Te2-  Te98  1  0.50498219  0.49524831  0.16259480  1
  Te2-  Te99  1  0.50899061  0.49772907  0.49745792  1
  Te2-  Te100  1  0.50615465  0.51105869  0.83852208  1
  Te2-  Te101  1  0.49940603  0.84192321  0.16551870  1
  Te2-  Te102  1  0.51041638  0.84418283  0.50594643  1
  Te2-  Te103  1  0.50636047  0.83369704  0.82830237  1
  Te2-  Te104  1  0.83395208  0.18033212  0.17120194  1
  Te2-  Te105  1  0.84689602  0.16490896  0.50822913  1
  Te2-  Te106  1  0.83294075  0.15747353  0.82559188  1
  Te2-  Te107  1  0.83234248  0.48847338  0.17466279  1
  Te2-  Te108  1  0.83360669  0.50152081  0.49173280  1
  Te2-  Te109  1  0.81759156  0.50127414  0.82846399  1
  Te2-  Te110  1  0.83335092  0.83571681  0.16085317  1
  Te2-  Te111  1  0.82598942  0.83161517  0.51439364  1
  Te2-  Te112  1  0.82574306  0.84065354  0.83017553  1
  Te2-  Te113  1  0.17049849  0.00806849  -0.00278198  1
  Te2-  Te114  1  0.16939735  -0.00314402  0.34885205  1
  Te2-  Te115  1  0.17029674  -0.00086116  0.65930177  1
  Te2-  Te116  1  0.17441286  0.31613006  -0.00069953  1
  Te2-  Te117  1  0.17701575  0.32951198  0.33458485  1
  Te2-  Te118  1  0.17306896  0.32884080  0.67072695  1
  Te2-  Te119  1  0.16765535  0.66644070  -0.00308143  1
  Te2-  Te120  1  0.16841227  0.66651457  0.33581351  1
  Te2-  Te121  1  0.16060970  0.67195584  0.66870862  1
  Te2-  Te122  1  0.50003409  0.01390935  -0.01452640  1
  Te2-  Te123  1  0.50097916  0.01088109  0.34556033  1
  Te2-  Te124  1  0.50574556  0.00017040  0.67059749  1
  Te2-  Te125  1  0.49989916  0.31759247  0.00578247  1
  Te2-  Te126  1  0.48947094  0.32805421  0.33323573  1
  Te2-  Te127  1  0.48973429  0.33306773  0.66854061  1
  Te2-  Te128  1  0.50564685  0.66946952  -0.00362557  1
  Te2-  Te129  1  0.50034589  0.66787142  0.33943279  1
  Te2-  Te130  1  0.49713938  0.67168979  0.66142921  1
  Te2-  Te131  1  0.83137287  -0.00086653  -0.00882302  1
  Te2-  Te132  1  0.83675359  -0.01186213  0.33247341  1
  Te2-  Te133  1  0.82872372  -0.00892212  0.67275437  1
  Te2-  Te134  1  0.82078933  0.33114662  -0.00527349  1
  Te2-  Te135  1  0.83214789  0.32524698  0.33931019  1
  Te2-  Te136  1  0.83540779  0.32766200  0.66496393  1
  Te2-  Te137  1  0.83276289  0.66809329  -0.00523608  1
  Te2-  Te138  1  0.83660195  0.68751783  0.33641232  1
  Te2-  Te139  1  0.83651468  0.66925267  0.67217788  1
  Te2-  Te140  1  -0.00659316  0.16830508  0.00525518  1
  Te2-  Te141  1  0.01307750  0.16514358  0.33119858  1
  Te2-  Te142  1  -0.00194776  0.16870207  0.66768181  1
  Te2-  Te143  1  0.01004518  0.49518900  0.00558574  1
  Te2-  Te144  1  -0.00987822  0.49963163  0.33590334  1
  Te2-  Te145  1  -0.00517207  0.50047903  0.66456209  1
  Te2-  Te146  1  0.00004485  0.82797925  0.00849629  1
  Te2-  Te147  1  0.00764347  0.83885936  0.32307310  1
  Te2-  Te148  1  -0.00270209  0.82658808  0.67141637  1
  Te2-  Te149  1  0.33857045  0.16634169  0.00233135  1
  Te2-  Te150  1  0.32217923  0.16672610  0.33938167  1
  Te2-  Te151  1  0.33462623  0.16538659  0.66121610  1
  Te2-  Te152  1  0.32824850  0.49209003  -0.00800125  1
  Te2-  Te153  1  0.33691200  0.50397190  0.34618567  1
  Te2-  Te154  1  0.32732691  0.49662823  0.65679719  1
  Te2-  Te155  1  0.34782312  0.83802035  0.00290183  1
  Te2-  Te156  1  0.33320123  0.83151941  0.33231328  1
  Te2-  Te157  1  0.33353354  0.83776734  0.66826661  1
  Te2-  Te158  1  0.66849782  0.16112923  0.00777839  1
  Te2-  Te159  1  0.67790041  0.16230500  0.33551402  1
  Te2-  Te160  1  0.67461353  0.15551796  0.66609236  1
  Te2-  Te161  1  0.66975711  0.50385925  0.00134972  1
  Te2-  Te162  1  0.67198533  0.49683656  0.33352567  1
  Te2-  Te163  1  0.66696511  0.50294211  0.66533851  1
  Te2-  Te164  1  0.65563928  0.83932279  -0.00352119  1
  Te2-  Te165  1  0.66690034  0.84469282  0.34280332  1
  Te2-  Te166  1  0.66705254  0.83698139  0.67060842  1
  Te2-  Te167  1  0.00203149  0.00506897  0.16434702  1
  Te2-  Te168  1  -0.00027718  -0.00240534  0.49777001  1
  Te2-  Te169  1  0.00697399  -0.00145213  0.83565610  1
  Te2-  Te170  1  0.00431282  0.33345645  0.16755723  1
  Te2-  Te171  1  0.00958207  0.33341028  0.49993465  1
  Te2-  Te172  1  0.00261450  0.34802616  0.83471355  1
  Te2-  Te173  1  0.00699514  0.66274817  0.16723533  1
  Te2-  Te174  1  0.00246951  0.66161207  0.50626141  1
  Te2-  Te175  1  -0.00422662  0.65039676  0.84011883  1
  Te2-  Te176  1  0.34367947  -0.00044924  0.16480471  1
  Te2-  Te177  1  0.33893879  0.00045986  0.50529394  1
  Te2-  Te178  1  0.33032882  -0.00041051  0.83009275  1
  Te2-  Te179  1  0.33436468  0.34720481  0.16633839  1
  Te2-  Te180  1  0.32312879  0.33702832  0.49931993  1
  Te2-  Te181  1  0.34618813  0.33828851  0.82992987  1
  Te2-  Te182  1  0.33104851  0.64810049  0.16998465  1
  Te2-  Te183  1  0.33362683  0.66083621  0.50075556  1
  Te2-  Te184  1  0.33874879  0.66737046  0.82931722  1
  Te2-  Te185  1  0.66000008  0.00728457  0.17579834  1
  Te2-  Te186  1  0.67375900  0.00379974  0.50171769  1
  Te2-  Te187  1  0.66304570  -0.00840115  0.83610023  1
  Te2-  Te188  1  0.66357460  0.33472174  0.16841949  1
  Te2-  Te189  1  0.66727759  0.33482487  0.51041868  1
  Te2-  Te190  1  0.64981690  0.33488207  0.83362874  1
  Te2-  Te191  1  0.66856304  0.66498249  0.16442601  1
  Te2-  Te192  1  0.66463992  0.66362322  0.51012904  1
  Te2-  Te193  1  0.67025694  0.67859182  0.83111579  1
  Pb2+  Pb194  1  -0.00126837  -0.00241141  0.66686173  1
  Pb2+  Pb195  1  -0.00434227  0.82628459  0.84216501  1
  Pb2+  Pb196  1  0.50188221  0.84267429  0.33482705  1
  Pb2+  Pb197  1  0.17267917  0.84068553  -0.00055016  1
  Pb2+  Pb198  1  -0.00533251  0.83262546  0.49157257  1
  Pb2+  Pb199  1  0.67186749  0.66823800  0.34094704  1
  Pb2+  Pb200  1  0.16399685  0.49497414  0.34144084  1
  Pb2+  Pb201  1  0.84158572  0.49624495  0.00135128  1
  Pb2+  Pb202  1  0.49477849  0.50272290  0.67055448  1
  Pb2+  Pb203  1  0.17235581  0.00026473  0.17603133  1
  Pb2+  Pb204  1  0.49486189  0.32794031  0.50248162  1
  Pb2+  Pb205  1  0.33370683  0.16979096  0.83287735  1
  Pb2+  Pb206  1  -0.00105242  0.17644130  0.83731389  1
  Pb2+  Pb207  1  0.33736720  0.66192467  -0.00314090  1
  Pb2+  Pb208  1  0.33581172  0.17109208  0.16942607  1
  Pb2+  Pb209  1  0.49969859  0.66407386  0.16620561  1
  Pb2+  Pb210  1  0.82811718  0.33266681  0.83137264  1
  Pb2+  Pb211  1  0.83148728  0.01015708  0.16263086  1
  Pb2+  Pb212  1  0.83853427  0.66047563  0.17042088  1
  Pb2+  Pb213  1  0.66703728  0.83768758  0.16323745  1
  Pb2+  Pb214  1  0.33684172  0.83123851  0.50146416  1
  Pb2+  Pb215  1  0.66589389  0.16678567  0.83702603  1
