# generated using pymatgen
data_In22Ag21Sn22Bi21(Te54Pb11)2
_symmetry_space_group_name_H-M   'P 1'
_cell_length_a   19.16705984
_cell_length_b   19.14167417
_cell_length_c   19.16276593
_cell_angle_alpha   90.00176997
_cell_angle_beta   89.99234614
_cell_angle_gamma   89.99129296
_symmetry_Int_Tables_number   1
_chemical_formula_structural   In22Ag21Sn22Bi21(Te54Pb11)2
_chemical_formula_sum   'In22 Ag21 Sn22 Bi21 Te108 Pb22'
_cell_volume   7030.61965119
_cell_formula_units_Z   1
loop_
 _symmetry_equiv_pos_site_id
 _symmetry_equiv_pos_as_xyz
  1  'x, y, z'
loop_
 _atom_type_symbol
 _atom_type_oxidation_number
  In3+  3.0
  Ag+  1.0
  Sn2+  2.0
  Bi3+  3.0
  Te2-  -2.0
  Pb2+  2.0
loop_
 _atom_site_type_symbol
 _atom_site_label
 _atom_site_symmetry_multiplicity
 _atom_site_fract_x
 _atom_site_fract_y
 _atom_site_fract_z
 _atom_site_occupancy
  In3+  In0  1  0.35754212  0.83278743  0.50520639  1
  In3+  In1  1  0.33803652  0.18037157  0.16575985  1
  In3+  In2  1  0.66144937  0.15540426  0.17099684  1
  In3+  In3  1  -0.00757019  0.50165162  0.80744892  1
  In3+  In4  1  0.34892906  0.49970309  0.16441743  1
  In3+  In5  1  0.00412961  0.47317546  0.18274475  1
  In3+  In6  1  0.18718826  0.66432266  0.82828760  1
  In3+  In7  1  0.81240058  0.82908216  -0.00054051  1
  In3+  In8  1  0.65831858  0.50404679  0.83680199  1
  In3+  In9  1  0.50877864  -0.02661143  0.83500281  1
  In3+  In10  1  0.16768617  0.49767045  0.34754054  1
  In3+  In11  1  0.82066492  0.33559035  0.48955462  1
  In3+  In12  1  0.35468592  0.66277385  0.33123883  1
  In3+  In13  1  0.51499343  0.66414460  0.15627044  1
  In3+  In14  1  0.65488004  -0.02423186  -0.00277384  1
  In3+  In15  1  0.82536594  0.18051995  0.67051303  1
  In3+  In16  1  -0.02190936  0.00231614  0.33335317  1
  In3+  In17  1  -0.02042163  0.17371678  0.50021350  1
  In3+  In18  1  0.66344024  0.66819836  0.65365123  1
  In3+  In19  1  0.82348974  0.33494653  0.14897891  1
  In3+  In20  1  -0.01419352  0.81495458  0.50158812  1
  In3+  In21  1  -0.02508726  0.66388745  0.00077322  1
  Ag+  Ag22  1  0.67233408  0.00187234  0.35889007  1
  Ag+  Ag23  1  0.51569128  0.51682853  -0.01147812  1
  Ag+  Ag24  1  -0.02287869  0.16993873  0.15338310  1
  Ag+  Ag25  1  0.67261343  0.82192972  0.47826377  1
  Ag+  Ag26  1  0.53162849  0.52751511  0.35608465  1
  Ag+  Ag27  1  0.50838559  0.65531338  0.80655670  1
  Ag+  Ag28  1  0.65005392  0.66143211  -0.01677568  1
  Ag+  Ag29  1  -0.02881505  0.51517861  0.47799846  1
  Ag+  Ag30  1  0.48772507  0.83688311  0.64579560  1
  Ag+  Ag31  1  0.65594302  0.63256522  0.35296739  1
  Ag+  Ag32  1  0.80720694  0.33464783  0.81903306  1
  Ag+  Ag33  1  0.81864968  0.49846837  0.36010247  1
  Ag+  Ag34  1  0.36646719  0.66373854  0.69405800  1
  Ag+  Ag35  1  0.33372625  0.35940235  -0.01939133  1
  Ag+  Ag36  1  0.66975916  0.17715005  0.52289832  1
  Ag+  Ag37  1  0.51103774  0.02291669  0.18908529  1
  Ag+  Ag38  1  0.16859895  0.36194123  0.52647654  1
  Ag+  Ag39  1  0.63936074  0.52846570  0.46471967  1
  Ag+  Ag40  1  0.13538497  0.81720140  -0.02900864  1
  Ag+  Ag41  1  0.50367955  0.81061489  -0.01733792  1
  Ag+  Ag42  1  0.19547734  0.52526763  0.69004772  1
  Sn2+  Sn43  1  0.50630077  0.83799268  0.32845726  1
  Sn2+  Sn44  1  0.66690697  -0.00561546  0.66283660  1
  Sn2+  Sn45  1  0.50482621  0.17193785  -0.00411070  1
  Sn2+  Sn46  1  0.50161546  0.34129783  0.84318756  1
  Sn2+  Sn47  1  0.17068195  0.15569565  0.00134364  1
  Sn2+  Sn48  1  0.33431881  0.34942033  0.66520042  1
  Sn2+  Sn49  1  0.34000476  0.83253672  0.84118929  1
  Sn2+  Sn50  1  0.65807793  0.33705671  -0.00016792  1
  Sn2+  Sn51  1  0.16666727  0.17112541  0.65644928  1
  Sn2+  Sn52  1  0.34332485  0.17039639  0.50161108  1
  Sn2+  Sn53  1  -0.00086695  0.33058489  0.34530917  1
  Sn2+  Sn54  1  0.66169561  0.81959058  0.82193676  1
  Sn2+  Sn55  1  0.83020860  -0.00387030  0.50134233  1
  Sn2+  Sn56  1  -0.00023217  -0.00105074  0.01004380  1
  Sn2+  Sn57  1  0.16203953  0.16910855  0.33696668  1
  Sn2+  Sn58  1  0.50286047  0.34027711  0.15998895  1
  Sn2+  Sn59  1  0.33231606  0.50108331  0.83800893  1
  Sn2+  Sn60  1  0.82744708  0.66186954  0.17460344  1
  Sn2+  Sn61  1  0.18620486  0.82878829  0.66131859  1
  Sn2+  Sn62  1  0.82399141  0.81991124  0.33045195  1
  Sn2+  Sn63  1  0.66488388  0.33993092  0.66202131  1
  Sn2+  Sn64  1  0.32915621  0.50388180  0.49627013  1
  Bi3+  Bi65  1  0.32992571  0.33506220  0.33630386  1
  Bi3+  Bi66  1  0.83142398  0.83512893  0.66727133  1
  Bi3+  Bi67  1  0.00369641  0.33070468  0.66218375  1
  Bi3+  Bi68  1  0.17303505  -0.00039786  0.16551819  1
  Bi3+  Bi69  1  0.33767014  0.82839687  0.17131408  1
  Bi3+  Bi70  1  0.66465384  0.83374056  0.17203880  1
  Bi3+  Bi71  1  0.83371024  0.16586904  -0.00047532  1
  Bi3+  Bi72  1  0.16927914  0.33660723  0.83527587  1
  Bi3+  Bi73  1  0.16199483  0.66766354  0.16398452  1
  Bi3+  Bi74  1  0.16903413  0.66846865  0.49935857  1
  Bi3+  Bi75  1  0.83219144  0.49995699  0.00262602  1
  Bi3+  Bi76  1  0.33844692  0.66817811  0.00553408  1
  Bi3+  Bi77  1  0.16701511  -0.00252817  0.83542375  1
  Bi3+  Bi78  1  0.83391701  0.49855028  0.67011267  1
  Bi3+  Bi79  1  0.49906318  0.16738554  0.33358986  1
  Bi3+  Bi80  1  0.16982586  0.33099791  0.16280710  1
  Bi3+  Bi81  1  0.16534687  -0.00277189  0.49679483  1
  Bi3+  Bi82  1  0.49437870  0.66641070  0.49941060  1
  Bi3+  Bi83  1  0.50112515  0.16237533  0.66686930  1
  Bi3+  Bi84  1  0.33701839  -0.00460849  0.00170615  1
  Bi3+  Bi85  1  0.16338171  0.83137647  0.33479552  1
  Te2-  Te86  1  0.17729442  0.16143338  0.16729623  1
  Te2-  Te87  1  0.17806959  0.15621917  0.49902035  1
  Te2-  Te88  1  0.16856483  0.16419565  0.83314671  1
  Te2-  Te89  1  0.15469039  0.50269517  0.16407349  1
  Te2-  Te90  1  0.17077471  0.50756148  0.50040683  1
  Te2-  Te91  1  0.16341765  0.50437794  0.83154089  1
  Te2-  Te92  1  0.17208393  0.83401565  0.17041419  1
  Te2-  Te93  1  0.15244007  0.83419113  0.49668199  1
  Te2-  Te94  1  0.17021807  0.83312751  0.82876427  1
  Te2-  Te95  1  0.50044886  0.16808074  0.16736763  1
  Te2-  Te96  1  0.51225359  0.16603646  0.50181366  1
  Te2-  Te97  1  0.50137754  0.17283711  0.82759957  1
  Te2-  Te98  1  0.49968053  0.50662974  0.16990073  1
  Te2-  Te99  1  0.49615843  0.50191925  0.50042616  1
  Te2-  Te100  1  0.50176458  0.50817834  0.83994258  1
  Te2-  Te101  1  0.49960588  0.82050620  0.17054363  1
  Te2-  Te102  1  0.51453577  0.83110906  0.49977912  1
  Te2-  Te103  1  0.50062088  0.82288635  0.83627356  1
  Te2-  Te104  1  0.83057063  0.17433218  0.16565425  1
  Te2-  Te105  1  0.82574925  0.17429355  0.50471754  1
  Te2-  Te106  1  0.83281699  0.17965982  0.83379276  1
  Te2-  Te107  1  0.84644801  0.49274249  0.16228295  1
  Te2-  Te108  1  0.83057740  0.48730735  0.50677925  1
  Te2-  Te109  1  0.83632185  0.48807634  0.83676690  1
  Te2-  Te110  1  0.82877236  0.83333462  0.16146699  1
  Te2-  Te111  1  0.82615996  0.83192911  0.50034879  1
  Te2-  Te112  1  0.82950366  0.83243437  0.83773297  1
  Te2-  Te113  1  0.16815112  -0.01055660  0.00102581  1
  Te2-  Te114  1  0.17175012  -0.00406628  0.33093560  1
  Te2-  Te115  1  0.16672197  -0.00058970  0.66656605  1
  Te2-  Te116  1  0.18106747  0.33018909  -0.00036359  1
  Te2-  Te117  1  0.16916663  0.33760786  0.32377932  1
  Te2-  Te118  1  0.16821068  0.33115048  0.67275018  1
  Te2-  Te119  1  0.17634224  0.67741277  -0.00268867  1
  Te2-  Te120  1  0.16082714  0.66828687  0.32986604  1
  Te2-  Te121  1  0.16779528  0.66764466  0.66878985  1
  Te2-  Te122  1  0.50199417  0.00415615  -0.01331995  1
  Te2-  Te123  1  0.51021042  0.00300458  0.33443960  1
  Te2-  Te124  1  0.50163690  -0.00823620  0.67655329  1
  Te2-  Te125  1  0.48479127  0.33176713  0.00181463  1
  Te2-  Te126  1  0.49230679  0.33001480  0.32989477  1
  Te2-  Te127  1  0.49847469  0.32887241  0.66737882  1
  Te2-  Te128  1  0.50231190  0.66187282  0.00654149  1
  Te2-  Te129  1  0.50855172  0.66951437  0.33653350  1
  Te2-  Te130  1  0.50819489  0.67869241  0.66068289  1
  Te2-  Te131  1  0.82950599  0.00389104  0.00044841  1
  Te2-  Te132  1  0.82518215  -0.00056412  0.33264723  1
  Te2-  Te133  1  0.83220541  -0.00204175  0.66784243  1
  Te2-  Te134  1  0.83522846  0.33390749  -0.00207836  1
  Te2-  Te135  1  0.83949094  0.34355236  0.33915548  1
  Te2-  Te136  1  0.83642264  0.33371072  0.67255520  1
  Te2-  Te137  1  0.81994127  0.66667699  0.00427863  1
  Te2-  Te138  1  0.82666871  0.65202091  0.33193283  1
  Te2-  Te139  1  0.83093624  0.66698905  0.66731558  1
  Te2-  Te140  1  -0.00113480  0.16711547  0.00666965  1
  Te2-  Te141  1  0.00144473  0.16074978  0.33905298  1
  Te2-  Te142  1  -0.00489860  0.16886112  0.66207436  1
  Te2-  Te143  1  -0.00653919  0.50874988  0.00779968  1
  Te2-  Te144  1  0.01074259  0.49728512  0.33742881  1
  Te2-  Te145  1  -0.00390326  0.49266533  0.65316206  1
  Te2-  Te146  1  -0.00688006  0.83127335  0.00004533  1
  Te2-  Te147  1  -0.00526473  0.84139423  0.33805069  1
  Te2-  Te148  1  -0.00655090  0.83141308  0.66118199  1
  Te2-  Te149  1  0.33452638  0.15754177  0.00911311  1
  Te2-  Te150  1  0.33690381  0.16813854  0.33205485  1
  Te2-  Te151  1  0.33977690  0.16858151  0.66339817  1
  Te2-  Te152  1  0.33895522  0.50437786  0.00724897  1
  Te2-  Te153  1  0.32847732  0.50037096  0.32751132  1
  Te2-  Te154  1  0.33822259  0.51111111  0.66917857  1
  Te2-  Te155  1  0.35052635  0.83172213  0.00660320  1
  Te2-  Te156  1  0.33002359  0.82523136  0.33730577  1
  Te2-  Te157  1  0.34218894  0.81919778  0.66558356  1
  Te2-  Te158  1  0.67107449  0.17700024  0.00644711  1
  Te2-  Te159  1  0.66347913  0.15394249  0.32325195  1
  Te2-  Te160  1  0.66834133  0.16845026  0.66816707  1
  Te2-  Te161  1  0.66519793  0.50561063  -0.00522992  1
  Te2-  Te162  1  0.67354441  0.48768223  0.32586743  1
  Te2-  Te163  1  0.67287860  0.50772053  0.67307307  1
  Te2-  Te164  1  0.65755392  0.82247281  0.00193001  1
  Te2-  Te165  1  0.67119858  0.84833983  0.33386894  1
  Te2-  Te166  1  0.67272982  0.82834205  0.66555233  1
  Te2-  Te167  1  0.00599355  0.01339778  0.17112503  1
  Te2-  Te168  1  0.00192387  0.01446321  0.49086602  1
  Te2-  Te169  1  0.00436092  0.00053261  0.83677479  1
  Te2-  Te170  1  0.00800383  0.32053759  0.17000095  1
  Te2-  Te171  1  0.02382621  0.32023410  0.50259269  1
  Te2-  Te172  1  0.00940307  0.34235140  0.83208134  1
  Te2-  Te173  1  0.00023641  0.67329727  0.15607557  1
  Te2-  Te174  1  0.00353137  0.66034685  0.49678873  1
  Te2-  Te175  1  -0.00463527  0.65768990  0.84223542  1
  Te2-  Te176  1  0.34059591  -0.00912126  0.16343180  1
  Te2-  Te177  1  0.33170298  -0.00726564  0.50136291  1
  Te2-  Te178  1  0.33017532  -0.00143419  0.83754253  1
  Te2-  Te179  1  0.33134025  0.33694955  0.17063955  1
  Te2-  Te180  1  0.31831439  0.33388027  0.49909302  1
  Te2-  Te181  1  0.33176757  0.33953082  0.83288004  1
  Te2-  Te182  1  0.32523403  0.66269211  0.17064067  1
  Te2-  Te183  1  0.32961884  0.67160285  0.49279949  1
  Te2-  Te184  1  0.33964435  0.66532732  0.83920742  1
  Te2-  Te185  1  0.65351000  -0.00162124  0.15072496  1
  Te2-  Te186  1  0.67440638  0.01343307  0.50723608  1
  Te2-  Te187  1  0.66232182  -0.00429796  0.83904046  1
  Te2-  Te188  1  0.66858899  0.33162528  0.16340028  1
  Te2-  Te189  1  0.66837612  0.32863210  0.50419279  1
  Te2-  Te190  1  0.66136158  0.34314744  0.83439416  1
  Te2-  Te191  1  0.66675929  0.67281219  0.17506585  1
  Te2-  Te192  1  0.66206314  0.67109699  0.49832147  1
  Te2-  Te193  1  0.65568448  0.66065050  0.83601809  1
  Pb2+  Pb194  1  0.00208249  0.84235345  0.16575203  1
  Pb2+  Pb195  1  0.83142943  0.00376061  0.83394464  1
  Pb2+  Pb196  1  0.50438634  0.50128219  0.67179412  1
  Pb2+  Pb197  1  0.33651839  0.16933929  0.83849582  1
  Pb2+  Pb198  1  -0.00653173  0.66681923  0.32338050  1
  Pb2+  Pb199  1  0.83351531  0.17266374  0.33518736  1
  Pb2+  Pb200  1  0.16734544  0.50976357  -0.00189268  1
  Pb2+  Pb201  1  0.00018876  0.82884572  0.83382373  1
  Pb2+  Pb202  1  0.00152952  0.17209913  0.83745528  1
  Pb2+  Pb203  1  -0.00034524  -0.00099934  0.65899436  1
  Pb2+  Pb204  1  0.82484049  0.65914624  0.83510361  1
  Pb2+  Pb205  1  0.33374922  -0.00471169  0.66847493  1
  Pb2+  Pb206  1  0.83070464  0.65855553  0.49819615  1
  Pb2+  Pb207  1  0.66967749  0.50347163  0.16121231  1
  Pb2+  Pb208  1  0.00686981  0.34079302  0.00190793  1
  Pb2+  Pb209  1  0.66283098  0.32218816  0.33421455  1
  Pb2+  Pb210  1  0.34203505  -0.00486944  0.33085617  1
  Pb2+  Pb211  1  0.50741821  -0.00116893  0.50383106  1
  Pb2+  Pb212  1  0.49209677  0.33216480  0.49812472  1
  Pb2+  Pb213  1  0.66571352  0.16740295  0.83803050  1
  Pb2+  Pb214  1  0.00215741  0.66186370  0.67031868  1
  Pb2+  Pb215  1  0.82666599  0.00220539  0.16596104  1
