# generated using pymatgen
data_In22Ag21Sn22Bi21(Te54Pb11)2
_symmetry_space_group_name_H-M   'P 1'
_cell_length_a   19.10839663
_cell_length_b   19.14246456
_cell_length_c   19.14032946
_cell_angle_alpha   90.00166705
_cell_angle_beta   90.00011518
_cell_angle_gamma   90.00302879
_symmetry_Int_Tables_number   1
_chemical_formula_structural   In22Ag21Sn22Bi21(Te54Pb11)2
_chemical_formula_sum   'In22 Ag21 Sn22 Bi21 Te108 Pb22'
_cell_volume   7001.18424978
_cell_formula_units_Z   1
loop_
 _symmetry_equiv_pos_site_id
 _symmetry_equiv_pos_as_xyz
  1  'x, y, z'
loop_
 _atom_type_symbol
 _atom_type_oxidation_number
  In3+  3.0
  Ag+  1.0
  Sn2+  2.0
  Bi3+  3.0
  Te2-  -2.0
  Pb2+  2.0
loop_
 _atom_site_type_symbol
 _atom_site_label
 _atom_site_symmetry_multiplicity
 _atom_site_fract_x
 _atom_site_fract_y
 _atom_site_fract_z
 _atom_site_occupancy
  In3+  In0  1  0.49519744  0.32531365  0.48665510  1
  In3+  In1  1  0.33563028  0.82510247  0.83899157  1
  In3+  In2  1  0.16679678  0.16986548  0.31852980  1
  In3+  In3  1  0.14976582  0.83083875  0.32643526  1
  In3+  In4  1  -0.01263159  0.35108582  0.32429246  1
  In3+  In5  1  0.82001382  0.83622441  0.64742187  1
  In3+  In6  1  0.16264156  0.49755688  -0.00015274  1
  In3+  In7  1  0.50660424  0.33503251  0.83742652  1
  In3+  In8  1  0.83462959  0.18338560  0.00492200  1
  In3+  In9  1  0.35724693  0.50023528  0.83669083  1
  In3+  In10  1  0.66649441  0.33497692  0.63805862  1
  In3+  In11  1  0.30908667  0.66329039  0.02833568  1
  In3+  In12  1  0.84330831  0.49704845  0.00626921  1
  In3+  In13  1  0.18407955  -0.00585614  0.83785758  1
  In3+  In14  1  0.15703424  0.33153780  0.49383297  1
  In3+  In15  1  -0.01241774  0.15094594  0.48937665  1
  In3+  In16  1  0.50757115  0.00107481  0.84785622  1
  In3+  In17  1  -0.01610643  0.82879316  0.82384600  1
  In3+  In18  1  0.66946217  0.17043783  0.83011072  1
  In3+  In19  1  0.49699939  0.68994184  0.49172471  1
  In3+  In20  1  0.31334114  0.83654701  0.49276668  1
  In3+  In21  1  0.51469971  0.17555628  0.32292028  1
  Ag+  Ag22  1  0.51705370  0.33661950  0.18750150  1
  Ag+  Ag23  1  0.66201425  0.81167500  0.18579400  1
  Ag+  Ag24  1  0.02368118  0.81332642  0.16728126  1
  Ag+  Ag25  1  -0.00304413  0.69040610  0.63488333  1
  Ag+  Ag26  1  0.33373374  0.31669529  -0.02485274  1
  Ag+  Ag27  1  0.85258015  0.33094272  0.49005103  1
  Ag+  Ag28  1  0.49124655  -0.02366205  0.18851017  1
  Ag+  Ag29  1  -0.00965082  0.18835106  0.19091508  1
  Ag+  Ag30  1  0.35102750  -0.03276695  -0.00730456  1
  Ag+  Ag31  1  0.68252104  0.47063315  0.85871098  1
  Ag+  Ag32  1  0.33383528  0.35488428  0.33550910  1
  Ag+  Ag33  1  0.69290724  0.86622739  0.47780028  1
  Ag+  Ag34  1  0.68816114  0.86213575  0.82954156  1
  Ag+  Ag35  1  0.68672416  0.33614098  0.33310565  1
  Ag+  Ag36  1  0.30984300  0.65066351  0.33712957  1
  Ag+  Ag37  1  0.01181158  0.68857365  0.33122437  1
  Ag+  Ag38  1  0.01734301  0.79983370  0.52662307  1
  Ag+  Ag39  1  -0.02088903  0.52014810  0.15465366  1
  Ag+  Ag40  1  -0.00099469  0.66406080  0.03045684  1
  Ag+  Ag41  1  0.83269800  -0.02201558  0.48711570  1
  Ag+  Ag42  1  0.83614101  0.52322071  0.35287138  1
  Sn2+  Sn43  1  0.15951348  0.66261734  0.16979780  1
  Sn2+  Sn44  1  0.83312757  0.50326256  0.66188512  1
  Sn2+  Sn45  1  0.67032582  0.50328035  0.16833086  1
  Sn2+  Sn46  1  0.83131520  -0.00075561  0.16659773  1
  Sn2+  Sn47  1  0.66370165  -0.00569809  0.00869431  1
  Sn2+  Sn48  1  -0.00393289  0.15830035  0.83668834  1
  Sn2+  Sn49  1  0.66577612  -0.00366703  0.66740481  1
  Sn2+  Sn50  1  0.83355907  0.16524024  0.66313856  1
  Sn2+  Sn51  1  0.65567060  0.33365008  0.01334909  1
  Sn2+  Sn52  1  0.16088584  0.50241281  0.67487567  1
  Sn2+  Sn53  1  0.67604578  0.16553427  0.49920295  1
  Sn2+  Sn54  1  0.83631517  0.16251102  0.33005490  1
  Sn2+  Sn55  1  0.83944760  0.67494624  0.16719345  1
  Sn2+  Sn56  1  0.83351783  0.83267035  0.32775275  1
  Sn2+  Sn57  1  0.33029944  0.16506040  0.49765602  1
  Sn2+  Sn58  1  0.50352295  0.83847275  0.33345054  1
  Sn2+  Sn59  1  -0.00946997  0.51181836  0.83713944  1
  Sn2+  Sn60  1  0.82927276  0.33816479  0.17427432  1
  Sn2+  Sn61  1  0.50425221  0.00112163  0.49496919  1
  Sn2+  Sn62  1  0.82960217  0.33387895  0.82441859  1
  Sn2+  Sn63  1  0.32136724  0.66543150  0.66153022  1
  Sn2+  Sn64  1  0.83569266  0.00100436  0.83171713  1
  Bi3+  Bi65  1  0.16488605  0.66568376  0.83512842  1
  Bi3+  Bi66  1  -0.00255459  0.49548760  0.49805962  1
  Bi3+  Bi67  1  0.67441674  0.66722060  -0.00377236  1
  Bi3+  Bi68  1  0.16516079  0.17032805  -0.00195008  1
  Bi3+  Bi69  1  0.50462092  0.83241414  0.66505447  1
  Bi3+  Bi70  1  0.50338054  0.83125029  -0.00328872  1
  Bi3+  Bi71  1  0.16681518  0.16837253  0.66785178  1
  Bi3+  Bi72  1  0.83357902  0.66242428  0.83223907  1
  Bi3+  Bi73  1  0.66850311  0.49776085  0.49693935  1
  Bi3+  Bi74  1  0.66590107  0.66166579  0.33339916  1
  Bi3+  Bi75  1  0.16869709  0.33438387  0.16891912  1
  Bi3+  Bi76  1  0.50136774  0.50031612  0.00008162  1
  Bi3+  Bi77  1  -0.00467438  0.33718650  0.66848750  1
  Bi3+  Bi78  1  -0.00357007  -0.00203241  0.32676844  1
  Bi3+  Bi79  1  0.50196484  0.50124039  0.66663519  1
  Bi3+  Bi80  1  0.33332250  -0.00244414  0.32933140  1
  Bi3+  Bi81  1  0.33120790  0.49847384  0.16665938  1
  Bi3+  Bi82  1  0.83116175  0.83416259  0.00489364  1
  Bi3+  Bi83  1  0.67472910  0.17125493  0.16518229  1
  Bi3+  Bi84  1  -0.00405094  -0.00599587  0.00400938  1
  Bi3+  Bi85  1  0.67199767  0.66236943  0.66767524  1
  Te2-  Te86  1  0.15215802  0.16978856  0.16220098  1
  Te2-  Te87  1  0.16303677  0.17295254  0.50758892  1
  Te2-  Te88  1  0.16525360  0.16360180  0.83294109  1
  Te2-  Te89  1  0.16724336  0.49925061  0.16090791  1
  Te2-  Te90  1  0.16608369  0.49254850  0.49981047  1
  Te2-  Te91  1  0.15841062  0.50433089  0.84157459  1
  Te2-  Te92  1  0.17164497  0.83056621  0.17165790  1
  Te2-  Te93  1  0.15791685  0.83473058  0.49735728  1
  Te2-  Te94  1  0.17584473  0.83190997  0.83574512  1
  Te2-  Te95  1  0.50555862  0.18464137  0.16969245  1
  Te2-  Te96  1  0.49967477  0.16841682  0.49383481  1
  Te2-  Te97  1  0.50555735  0.16031420  0.83333834  1
  Te2-  Te98  1  0.49876995  0.48869747  0.16330214  1
  Te2-  Te99  1  0.50407945  0.48480843  0.50476378  1
  Te2-  Te100  1  0.51404338  0.49765125  0.83245520  1
  Te2-  Te101  1  0.51340846  0.83324214  0.15959471  1
  Te2-  Te102  1  0.51616688  0.84072375  0.50449803  1
  Te2-  Te103  1  0.49413181  0.84046658  0.83011771  1
  Te2-  Te104  1  0.84185516  0.16914551  0.16037373  1
  Te2-  Te105  1  0.83705596  0.18088136  0.50269138  1
  Te2-  Te106  1  0.83040592  0.16528159  0.83439068  1
  Te2-  Te107  1  0.83360133  0.49649493  0.16026132  1
  Te2-  Te108  1  0.83147502  0.48431716  0.49740727  1
  Te2-  Te109  1  0.82672320  0.50027146  0.83234132  1
  Te2-  Te110  1  0.80900755  0.84135083  0.16380508  1
  Te2-  Te111  1  0.83423434  0.83063058  0.49865094  1
  Te2-  Te112  1  0.83072043  0.83010429  0.83855677  1
  Te2-  Te113  1  0.16343376  0.00460248  -0.00564610  1
  Te2-  Te114  1  0.16505056  -0.00563489  0.33223574  1
  Te2-  Te115  1  0.16670720  0.00265954  0.67348399  1
  Te2-  Te116  1  0.17661997  0.33658165  0.00142288  1
  Te2-  Te117  1  0.17109334  0.32659800  0.33610226  1
  Te2-  Te118  1  0.16459771  0.33411827  0.66263042  1
  Te2-  Te119  1  0.15145463  0.66197892  -0.00057976  1
  Te2-  Te120  1  0.16323862  0.67509219  0.33394074  1
  Te2-  Te121  1  0.14857471  0.66298610  0.67054569  1
  Te2-  Te122  1  0.49547588  -0.00227706  -0.00069856  1
  Te2-  Te123  1  0.49833114  0.00891247  0.33255508  1
  Te2-  Te124  1  0.50349513  -0.00392929  0.66325559  1
  Te2-  Te125  1  0.48591418  0.33921528  -0.01022849  1
  Te2-  Te126  1  0.48341869  0.32686919  0.33246813  1
  Te2-  Te127  1  0.50795267  0.33658881  0.68019297  1
  Te2-  Te128  1  0.50822484  0.66547142  -0.00372798  1
  Te2-  Te129  1  0.50621916  0.66603231  0.33639598  1
  Te2-  Te130  1  0.50037465  0.66485111  0.65919027  1
  Te2-  Te131  1  0.83213681  -0.00295376  -0.00082778  1
  Te2-  Te132  1  0.83443664  0.00216719  0.33822355  1
  Te2-  Te133  1  0.82599534  -0.00584439  0.66481425  1
  Te2-  Te134  1  0.83090136  0.33648948  0.00000066  1
  Te2-  Te135  1  0.83757367  0.32134536  0.33791576  1
  Te2-  Te136  1  0.82984749  0.33395781  0.66328920  1
  Te2-  Te137  1  0.83915335  0.66490037  -0.00141724  1
  Te2-  Te138  1  0.82479485  0.66818777  0.32773740  1
  Te2-  Te139  1  0.84226883  0.67220546  0.66865536  1
  Te2-  Te140  1  -0.00207542  0.16255923  -0.00532794  1
  Te2-  Te141  1  0.00765563  0.16258741  0.33513646  1
  Te2-  Te142  1  0.00257127  0.17497329  0.67043047  1
  Te2-  Te143  1  -0.00330269  0.50601495  0.00753091  1
  Te2-  Te144  1  -0.01273866  0.49938961  0.33541581  1
  Te2-  Te145  1  -0.00146522  0.49668672  0.66489838  1
  Te2-  Te146  1  -0.00717129  0.82943940  0.01830402  1
  Te2-  Te147  1  -0.00413877  0.83543152  0.31879660  1
  Te2-  Te148  1  -0.00469829  0.83687210  0.66866055  1
  Te2-  Te149  1  0.32810120  0.17230968  0.00214559  1
  Te2-  Te150  1  0.31993187  0.15757483  0.33755206  1
  Te2-  Te151  1  0.33270578  0.16467373  0.66829669  1
  Te2-  Te152  1  0.33760665  0.51139253  -0.00091766  1
  Te2-  Te153  1  0.33269776  0.50442742  0.33179164  1
  Te2-  Te154  1  0.33575416  0.50454482  0.66959279  1
  Te2-  Te155  1  0.33706507  0.82136371  -0.00042080  1
  Te2-  Te156  1  0.34488398  0.83688192  0.34110174  1
  Te2-  Te157  1  0.33861028  0.82569793  0.65238879  1
  Te2-  Te158  1  0.67419586  0.16719541  0.00098014  1
  Te2-  Te159  1  0.66804595  0.17829682  0.33014082  1
  Te2-  Te160  1  0.67110686  0.17508663  0.67160348  1
  Te2-  Te161  1  0.66660738  0.50152242  0.00222192  1
  Te2-  Te162  1  0.67989671  0.49452034  0.33352011  1
  Te2-  Te163  1  0.66576308  0.49737905  0.66236484  1
  Te2-  Te164  1  0.66550284  0.82926213  -0.02018693  1
  Te2-  Te165  1  0.66322022  0.82894140  0.33771559  1
  Te2-  Te166  1  0.66692123  0.82474332  0.68042621  1
  Te2-  Te167  1  -0.00563836  -0.00083086  0.16521809  1
  Te2-  Te168  1  -0.01294328  0.00012443  0.49524727  1
  Te2-  Te169  1  -0.00235080  -0.01133867  0.83982979  1
  Te2-  Te170  1  0.00312133  0.33457643  0.17246893  1
  Te2-  Te171  1  0.00142467  0.33157701  0.50054810  1
  Te2-  Te172  1  -0.00594581  0.33696693  0.83317330  1
  Te2-  Te173  1  -0.00005886  0.66387885  0.17864538  1
  Te2-  Te174  1  -0.00290647  0.65981937  0.48611382  1
  Te2-  Te175  1  -0.00053900  0.67438647  0.83508076  1
  Te2-  Te176  1  0.34386189  0.00228827  0.16646669  1
  Te2-  Te177  1  0.33283467  -0.00619393  0.49768399  1
  Te2-  Te178  1  0.33749785  -0.00501697  0.84463423  1
  Te2-  Te179  1  0.32640623  0.33869134  0.18029582  1
  Te2-  Te180  1  0.33841875  0.32919903  0.49147404  1
  Te2-  Te181  1  0.33343522  0.34590876  0.82986627  1
  Te2-  Te182  1  0.33192835  0.66391645  0.18215179  1
  Te2-  Te183  1  0.33889502  0.67466180  0.48887503  1
  Te2-  Te184  1  0.32791243  0.66346485  0.82567480  1
  Te2-  Te185  1  0.65738646  0.01296572  0.16489097  1
  Te2-  Te186  1  0.67935779  0.00911220  0.50074499  1
  Te2-  Te187  1  0.66512377  0.00878149  0.83377325  1
  Te2-  Te188  1  0.66529338  0.33341899  0.17583950  1
  Te2-  Te189  1  0.65470097  0.33229369  0.48613880  1
  Te2-  Te190  1  0.66466197  0.32605062  0.84500964  1
  Te2-  Te191  1  0.66964317  0.66764596  0.16310681  1
  Te2-  Te192  1  0.66069580  0.66081311  0.50241245  1
  Te2-  Te193  1  0.67154183  0.65951420  0.82996985  1
  Pb2+  Pb194  1  0.33670292  0.33384920  0.65871593  1
  Pb2+  Pb195  1  0.33612227  -0.00617428  0.67134940  1
  Pb2+  Pb196  1  0.33326959  0.17268704  0.16909868  1
  Pb2+  Pb197  1  0.15880791  0.83289066  0.00276226  1
  Pb2+  Pb198  1  0.50520441  0.16580518  0.66082764  1
  Pb2+  Pb199  1  0.33633842  0.16997591  0.83842332  1
  Pb2+  Pb200  1  0.16251573  0.33432783  0.83235227  1
  Pb2+  Pb201  1  0.33729931  0.50317935  0.49857765  1
  Pb2+  Pb202  1  0.66641875  0.00199538  0.32965019  1
  Pb2+  Pb203  1  0.16038993  0.00601286  0.49913882  1
  Pb2+  Pb204  1  0.50198642  0.17036434  0.00404906  1
  Pb2+  Pb205  1  0.16733405  0.66278286  0.50181208  1
  Pb2+  Pb206  1  0.50127471  0.67027343  0.82825255  1
  Pb2+  Pb207  1  0.34679498  0.83598516  0.17104931  1
  Pb2+  Pb208  1  0.16736255  0.83090750  0.66922243  1
  Pb2+  Pb209  1  0.49998266  0.65890933  0.16544893  1
  Pb2+  Pb210  1  0.15661621  0.49812991  0.32983969  1
  Pb2+  Pb211  1  0.16911978  0.00170456  0.16367559  1
  Pb2+  Pb212  1  0.00257466  0.33430598  0.00583237  1
  Pb2+  Pb213  1  0.50803720  0.49449864  0.33264942  1
  Pb2+  Pb214  1  0.82947443  0.66091880  0.49883596  1
  Pb2+  Pb215  1  -0.00684828  0.00612594  0.66703495  1
