# generated using pymatgen
data_In22Ag21Sn22Bi21(Te54Pb11)2
_symmetry_space_group_name_H-M   'P 1'
_cell_length_a   19.19779278
_cell_length_b   19.18369530
_cell_length_c   19.17920815
_cell_angle_alpha   89.98168088
_cell_angle_beta   90.00571540
_cell_angle_gamma   89.98347075
_symmetry_Int_Tables_number   1
_chemical_formula_structural   In22Ag21Sn22Bi21(Te54Pb11)2
_chemical_formula_sum   'In22 Ag21 Sn22 Bi21 Te108 Pb22'
_cell_volume   7063.40644562
_cell_formula_units_Z   1
loop_
 _symmetry_equiv_pos_site_id
 _symmetry_equiv_pos_as_xyz
  1  'x, y, z'
loop_
 _atom_type_symbol
 _atom_type_oxidation_number
  In3+  3.0
  Ag+  1.0
  Sn2+  2.0
  Bi3+  3.0
  Te2-  -2.0
  Pb2+  2.0
loop_
 _atom_site_type_symbol
 _atom_site_label
 _atom_site_symmetry_multiplicity
 _atom_site_fract_x
 _atom_site_fract_y
 _atom_site_fract_z
 _atom_site_occupancy
  In3+  In0  1  0.33112361  0.85147576  0.14637869  1
  In3+  In1  1  0.66588442  0.31131284  0.66894226  1
  In3+  In2  1  0.66677184  0.32976312  -0.01801241  1
  In3+  In3  1  0.33221413  0.68831427  0.66865117  1
  In3+  In4  1  0.15141898  0.17523847  0.67034136  1
  In3+  In5  1  0.32677768  0.33101857  0.68219291  1
  In3+  In6  1  0.85008896  -0.00241653  0.83337778  1
  In3+  In7  1  0.33626391  0.49209016  0.16454044  1
  In3+  In8  1  -0.00261690  0.49322941  0.16197843  1
  In3+  In9  1  0.49755331  0.82570941  0.33109514  1
  In3+  In10  1  0.16740370  0.67752839  0.48778651  1
  In3+  In11  1  0.83367263  0.18309537  0.66866549  1
  In3+  In12  1  0.49893680  0.31751301  0.82470438  1
  In3+  In13  1  0.49589697  -0.01227440  0.81972317  1
  In3+  In14  1  0.84650014  0.82946126  0.66724624  1
  In3+  In15  1  0.00854144  0.33373696  0.36538596  1
  In3+  In16  1  0.49537558  0.68478401  0.15908847  1
  In3+  In17  1  0.68738513  0.67301071  0.66012214  1
  In3+  In18  1  0.16765530  -0.00871142  0.50105093  1
  In3+  In19  1  0.66561964  0.82270944  0.49760535  1
  In3+  In20  1  0.49799211  0.68263527  0.82164747  1
  In3+  In21  1  0.34026993  0.00469405  0.66547790  1
  Ag+  Ag22  1  0.86017786  0.83353424  0.30823812  1
  Ag+  Ag23  1  0.19316394  0.33335092  0.52335275  1
  Ag+  Ag24  1  -0.02895915  0.31160472  0.67470732  1
  Ag+  Ag25  1  0.30025000  0.31004784  0.36488549  1
  Ag+  Ag26  1  -0.02264816  0.83215034  0.83903436  1
  Ag+  Ag27  1  0.82446498  0.18916065  0.30426720  1
  Ag+  Ag28  1  0.30914304  0.30818059  -0.02179776  1
  Ag+  Ag29  1  -0.02473601  0.19278838  0.83844299  1
  Ag+  Ag30  1  0.85360611  0.36917288  0.85120293  1
  Ag+  Ag31  1  0.79930320  0.47843051  0.69789513  1
  Ag+  Ag32  1  0.20609835  0.80043892  0.30626559  1
  Ag+  Ag33  1  0.85462704  -0.02794387  0.19926476  1
  Ag+  Ag34  1  0.49594196  0.81859962  -0.02005862  1
  Ag+  Ag35  1  0.81520366  0.47563836  0.02344263  1
  Ag+  Ag36  1  0.51678849  0.83151915  0.65239033  1
  Ag+  Ag37  1  0.33480921  0.84887527  0.81924122  1
  Ag+  Ag38  1  0.67366896  0.69597583  0.30473951  1
  Ag+  Ag39  1  0.48047163  0.18871188  0.66273543  1
  Ag+  Ag40  1  0.14251165  0.85867937  0.01951899  1
  Ag+  Ag41  1  0.13473950  0.29560854  0.81276341  1
  Ag+  Ag42  1  0.85186864  0.83734492  0.01556880  1
  Sn2+  Sn43  1  0.50591688  0.50137795  -0.00016427  1
  Sn2+  Sn44  1  0.34778007  0.66227282  0.32959565  1
  Sn2+  Sn45  1  0.16670781  -0.01221975  0.82793021  1
  Sn2+  Sn46  1  0.33480888  0.50297749  0.84135000  1
  Sn2+  Sn47  1  0.32997780  0.67226889  -0.00088314  1
  Sn2+  Sn48  1  0.66224612  0.83367294  0.83590371  1
  Sn2+  Sn49  1  0.00817651  0.66151966  0.67420637  1
  Sn2+  Sn50  1  0.66958025  0.16040100  0.83565131  1
  Sn2+  Sn51  1  0.33157433  0.17839686  0.17128767  1
  Sn2+  Sn52  1  0.66583703  -0.01129590  0.66511896  1
  Sn2+  Sn53  1  0.67725648  -0.00793552  0.33015209  1
  Sn2+  Sn54  1  0.50118652  -0.00240340  0.50118491  1
  Sn2+  Sn55  1  0.16781205  0.49912037  0.34326865  1
  Sn2+  Sn56  1  0.49565839  0.50155014  0.33224155  1
  Sn2+  Sn57  1  0.66745481  0.83813881  0.16253796  1
  Sn2+  Sn58  1  0.83689537  0.66729192  0.48666129  1
  Sn2+  Sn59  1  0.17591909  0.66200798  0.15990517  1
  Sn2+  Sn60  1  0.50000345  0.16159359  -0.01392022  1
  Sn2+  Sn61  1  0.00267639  0.00011854  0.67256914  1
  Sn2+  Sn62  1  0.66166763  0.49828954  0.16793419  1
  Sn2+  Sn63  1  0.33146240  -0.00609312  -0.00426621  1
  Sn2+  Sn64  1  0.66335728  0.16875078  0.17165342  1
  Bi3+  Bi65  1  0.15887301  0.17087487  0.33772183  1
  Bi3+  Bi66  1  0.66361667  0.67144349  -0.00158054  1
  Bi3+  Bi67  1  -0.00303075  0.16812452  0.16270659  1
  Bi3+  Bi68  1  0.83638349  0.32959010  0.16125056  1
  Bi3+  Bi69  1  0.16960232  0.33651424  0.15799390  1
  Bi3+  Bi70  1  0.17033064  0.50011135  0.66883686  1
  Bi3+  Bi71  1  0.50193358  0.33301901  0.16363404  1
  Bi3+  Bi72  1  0.50569416  0.00217715  0.16877575  1
  Bi3+  Bi73  1  0.17348974  0.66789148  0.83185935  1
  Bi3+  Bi74  1  0.66848439  0.50292075  0.49873480  1
  Bi3+  Bi75  1  -0.00356244  0.66935071  -0.00062865  1
  Bi3+  Bi76  1  0.83186940  0.67235384  0.83206588  1
  Bi3+  Bi77  1  0.67035282  0.33293801  0.33441085  1
  Bi3+  Bi78  1  0.17165595  0.50389590  0.00113237  1
  Bi3+  Bi79  1  0.66038382  -0.00330425  -0.00220334  1
  Bi3+  Bi80  1  0.66671909  0.16261323  0.50251234  1
  Bi3+  Bi81  1  0.33824543  0.16299333  0.83454753  1
  Bi3+  Bi82  1  0.83347726  0.33756212  0.50239867  1
  Bi3+  Bi83  1  -0.00035069  0.50008281  0.49857538  1
  Bi3+  Bi84  1  -0.00191305  -0.00058768  0.33874912  1
  Bi3+  Bi85  1  0.16452399  0.83947220  0.67308203  1
  Te2-  Te86  1  0.16170495  0.17176613  0.16716781  1
  Te2-  Te87  1  0.16081981  0.18768471  0.50106265  1
  Te2-  Te88  1  0.17629266  0.15721731  0.82326678  1
  Te2-  Te89  1  0.16491981  0.49836216  0.16740129  1
  Te2-  Te90  1  0.16171975  0.48045707  0.50347128  1
  Te2-  Te91  1  0.17087430  0.50358635  0.83397960  1
  Te2-  Te92  1  0.18014860  0.83110616  0.16559609  1
  Te2-  Te93  1  0.16376580  0.83006127  0.50700492  1
  Te2-  Te94  1  0.18420345  0.82903305  0.83127055  1
  Te2-  Te95  1  0.50042952  0.16776691  0.16642577  1
  Te2-  Te96  1  0.50541083  0.16250432  0.51346188  1
  Te2-  Te97  1  0.50094155  0.16467230  0.81562551  1
  Te2-  Te98  1  0.49686379  0.49403837  0.16703753  1
  Te2-  Te99  1  0.50356867  0.50313585  0.50067345  1
  Te2-  Te100  1  0.49855470  0.50273670  0.84141440  1
  Te2-  Te101  1  0.49565184  0.83882819  0.17470517  1
  Te2-  Te102  1  0.50823479  0.83660790  0.50365681  1
  Te2-  Te103  1  0.48769333  0.83394972  0.83232925  1
  Te2-  Te104  1  0.83493296  0.16745638  0.16096319  1
  Te2-  Te105  1  0.83127973  0.17185963  0.51236944  1
  Te2-  Te106  1  0.83503701  0.15027236  0.82368477  1
  Te2-  Te107  1  0.83747470  0.49517148  0.16619381  1
  Te2-  Te108  1  0.83325381  0.50169843  0.50419707  1
  Te2-  Te109  1  0.83382618  0.51342619  0.83415017  1
  Te2-  Te110  1  0.82552564  0.83449152  0.16259889  1
  Te2-  Te111  1  0.82214292  0.82789439  0.51163743  1
  Te2-  Te112  1  0.82865423  0.83165269  0.82136209  1
  Te2-  Te113  1  0.17110906  -0.00143042  -0.00036979  1
  Te2-  Te114  1  0.16301693  0.00915323  0.34005774  1
  Te2-  Te115  1  0.16906475  0.00339119  0.66070130  1
  Te2-  Te116  1  0.16845683  0.34092819  -0.00286828  1
  Te2-  Te117  1  0.16406058  0.33331684  0.32040452  1
  Te2-  Te118  1  0.17501007  0.33080332  0.67522680  1
  Te2-  Te119  1  0.16397555  0.66633585  -0.00437200  1
  Te2-  Te120  1  0.16969885  0.66324446  0.33508267  1
  Te2-  Te121  1  0.17495955  0.66527348  0.66868793  1
  Te2-  Te122  1  0.49915969  0.00299957  0.00788591  1
  Te2-  Te123  1  0.50295726  0.00128974  0.33186226  1
  Te2-  Te124  1  0.49541821  -0.01585858  0.66765727  1
  Te2-  Te125  1  0.51503427  0.33276913  0.00481651  1
  Te2-  Te126  1  0.50647899  0.33172292  0.32641521  1
  Te2-  Te127  1  0.51080302  0.33428924  0.67153311  1
  Te2-  Te128  1  0.50131313  0.67013342  0.00623153  1
  Te2-  Te129  1  0.51135832  0.67134013  0.32661219  1
  Te2-  Te130  1  0.48699067  0.68134500  0.66915277  1
  Te2-  Te131  1  0.82169967  -0.01624644  -0.01524258  1
  Te2-  Te132  1  0.83629802  -0.01717129  0.34230236  1
  Te2-  Te133  1  0.83342470  -0.01389051  0.67644948  1
  Te2-  Te134  1  0.82354298  0.33224020  -0.00879321  1
  Te2-  Te135  1  0.83291101  0.33362331  0.33285004  1
  Te2-  Te136  1  0.82350440  0.33691738  0.67071729  1
  Te2-  Te137  1  0.82894367  0.68566645  -0.00577011  1
  Te2-  Te138  1  0.82226685  0.68263973  0.33035193  1
  Te2-  Te139  1  0.84043823  0.67086717  0.66633645  1
  Te2-  Te140  1  -0.00054098  0.16605666  -0.01085682  1
  Te2-  Te141  1  -0.00441017  0.16457223  0.32779110  1
  Te2-  Te142  1  -0.00032022  0.16503368  0.68173555  1
  Te2-  Te143  1  0.00406621  0.50801912  0.00499165  1
  Te2-  Te144  1  0.00053978  0.49674572  0.33433394  1
  Te2-  Te145  1  0.00972726  0.50427740  0.66141899  1
  Te2-  Te146  1  0.00255933  0.83166801  -0.00523934  1
  Te2-  Te147  1  0.00574466  0.83694008  0.33240819  1
  Te2-  Te148  1  0.00406948  0.83209365  0.66967605  1
  Te2-  Te149  1  0.33861450  0.16640704  -0.00122969  1
  Te2-  Te150  1  0.33013631  0.16988579  0.33295613  1
  Te2-  Te151  1  0.33610803  0.16440729  0.67241700  1
  Te2-  Te152  1  0.33287899  0.50726397  0.00861555  1
  Te2-  Te153  1  0.33580212  0.50282179  0.32566807  1
  Te2-  Te154  1  0.33196634  0.48688332  0.67029357  1
  Te2-  Te155  1  0.34767553  0.83097803  0.00065678  1
  Te2-  Te156  1  0.34339529  0.83172220  0.33851551  1
  Te2-  Te157  1  0.32656076  0.84355586  0.67014602  1
  Te2-  Te158  1  0.66415872  0.16379940  -0.00193296  1
  Te2-  Te159  1  0.67973714  0.16674881  0.33895124  1
  Te2-  Te160  1  0.67417448  0.15855487  0.66550409  1
  Te2-  Te161  1  0.67338660  0.50688889  0.00556123  1
  Te2-  Te162  1  0.66366483  0.49569893  0.33648235  1
  Te2-  Te163  1  0.66323159  0.51892498  0.66216629  1
  Te2-  Te164  1  0.64712051  0.83275562  0.00036486  1
  Te2-  Te165  1  0.65400063  0.83545386  0.34181157  1
  Te2-  Te166  1  0.66321274  0.82668984  0.66473934  1
  Te2-  Te167  1  -0.00437450  0.00442045  0.16769769  1
  Te2-  Te168  1  0.00276222  0.00230513  0.50393097  1
  Te2-  Te169  1  0.00256286  -0.01766186  0.83076992  1
  Te2-  Te170  1  -0.00237380  0.33129531  0.16156857  1
  Te2-  Te171  1  -0.00916675  0.33724273  0.52401515  1
  Te2-  Te172  1  -0.00493145  0.33788921  0.82358419  1
  Te2-  Te173  1  0.00283349  0.66574712  0.16436727  1
  Te2-  Te174  1  0.00761334  0.66320727  0.50047437  1
  Te2-  Te175  1  0.00343268  0.68122977  0.83618610  1
  Te2-  Te176  1  0.33658067  0.00368756  0.16672619  1
  Te2-  Te177  1  0.33067517  0.00186150  0.50620847  1
  Te2-  Te178  1  0.33965392  -0.00114883  0.83099905  1
  Te2-  Te179  1  0.33569688  0.33663784  0.16258734  1
  Te2-  Te180  1  0.34076452  0.33420186  0.50247497  1
  Te2-  Te181  1  0.34523234  0.33021789  0.83786680  1
  Te2-  Te182  1  0.34128404  0.66447979  0.17142513  1
  Te2-  Te183  1  0.32515739  0.66504768  0.50420059  1
  Te2-  Te184  1  0.33770755  0.66566163  0.82877627  1
  Te2-  Te185  1  0.66718007  0.00426316  0.16271222  1
  Te2-  Te186  1  0.66453457  0.00162094  0.50066933  1
  Te2-  Te187  1  0.65060631  -0.00303417  0.83406831  1
  Te2-  Te188  1  0.67347508  0.33216862  0.17025277  1
  Te2-  Te189  1  0.67159566  0.33419079  0.50274226  1
  Te2-  Te190  1  0.66264200  0.32922282  0.82888866  1
  Te2-  Te191  1  0.65651775  0.66688406  0.16233983  1
  Te2-  Te192  1  0.66779804  0.66603061  0.50366424  1
  Te2-  Te193  1  0.65876622  0.66949534  0.83324326  1
  Pb2+  Pb194  1  0.50446975  0.33285142  0.49651138  1
  Pb2+  Pb195  1  0.49728107  0.50808397  0.67544639  1
  Pb2+  Pb196  1  -0.00401714  0.66901796  0.33255966  1
  Pb2+  Pb197  1  0.83198890  0.15522300  -0.00537236  1
  Pb2+  Pb198  1  0.49812343  0.66958824  0.49618824  1
  Pb2+  Pb199  1  0.50914444  0.16551432  0.33875998  1
  Pb2+  Pb200  1  -0.00696502  0.83332478  0.49960194  1
  Pb2+  Pb201  1  0.83081291  0.50772241  0.33709044  1
  Pb2+  Pb202  1  0.83150802  -0.00080638  0.50838890  1
  Pb2+  Pb203  1  0.66624361  0.49960462  0.83518336  1
  Pb2+  Pb204  1  0.33400130  0.00013842  0.33513887  1
  Pb2+  Pb205  1  0.00046421  0.83216917  0.16523851  1
  Pb2+  Pb206  1  0.32624533  0.16869986  0.50430918  1
  Pb2+  Pb207  1  0.33542144  0.83322966  0.50338487  1
  Pb2+  Pb208  1  0.16836706  0.16674579  -0.00798668  1
  Pb2+  Pb209  1  -0.00458152  -0.00116627  -0.00290755  1
  Pb2+  Pb210  1  -0.00229133  0.33715317  -0.00949730  1
  Pb2+  Pb211  1  0.32848441  0.49919105  0.49771019  1
  Pb2+  Pb212  1  0.83104444  0.66572191  0.15969313  1
  Pb2+  Pb213  1  0.00221640  0.50692976  0.83017480  1
  Pb2+  Pb214  1  -0.00134242  0.16999384  0.50298410  1
  Pb2+  Pb215  1  0.16411482  0.00030181  0.17180285  1
