# generated using pymatgen
data_In22Ag21Sn22Bi21(Te54Pb11)2
_symmetry_space_group_name_H-M   'P 1'
_cell_length_a   19.13291311
_cell_length_b   19.14327375
_cell_length_c   19.12701167
_cell_angle_alpha   90.01353445
_cell_angle_beta   89.97612452
_cell_angle_gamma   90.00108579
_symmetry_Int_Tables_number   1
_chemical_formula_structural   In22Ag21Sn22Bi21(Te54Pb11)2
_chemical_formula_sum   'In22 Ag21 Sn22 Bi21 Te108 Pb22'
_cell_volume   7005.58459685
_cell_formula_units_Z   1
loop_
 _symmetry_equiv_pos_site_id
 _symmetry_equiv_pos_as_xyz
  1  'x, y, z'
loop_
 _atom_type_symbol
 _atom_type_oxidation_number
  In3+  3.0
  Ag+  1.0
  Sn2+  2.0
  Bi3+  3.0
  Te2-  -2.0
  Pb2+  2.0
loop_
 _atom_site_type_symbol
 _atom_site_label
 _atom_site_symmetry_multiplicity
 _atom_site_fract_x
 _atom_site_fract_y
 _atom_site_fract_z
 _atom_site_occupancy
  In3+  In0  1  0.50839640  0.17225310  0.67260543  1
  In3+  In1  1  0.68290286  0.49845816  0.17082102  1
  In3+  In2  1  0.33377695  0.16892603  0.86170071  1
  In3+  In3  1  0.31969103  0.00051263  0.33850211  1
  In3+  In4  1  -0.00317442  0.32697194  0.65632092  1
  In3+  In5  1  0.18653550  0.16844896  0.67279964  1
  In3+  In6  1  0.66698973  -0.00412048  0.65972566  1
  In3+  In7  1  0.35325613  0.52620876  0.49650230  1
  In3+  In8  1  0.16236745  0.47718607  0.33778024  1
  In3+  In9  1  0.33045515  0.47447652  0.17243153  1
  In3+  In10  1  0.82785376  0.50570085  0.65549079  1
  In3+  In11  1  0.83037450  0.81530224  0.32968799  1
  In3+  In12  1  0.67212626  0.33944720  0.66980837  1
  In3+  In13  1  0.83178813  -0.01206475  0.48679155  1
  In3+  In14  1  0.50656555  0.00250592  0.84496208  1
  In3+  In15  1  0.52350613  0.83475314  0.33695768  1
  In3+  In16  1  0.50272050  0.33352114  0.49885557  1
  In3+  In17  1  -0.00132334  0.69388145  0.00142615  1
  In3+  In18  1  0.32290054  0.00305459  0.00391948  1
  In3+  In19  1  0.67417415  0.32642672  0.31757306  1
  In3+  In20  1  0.14872329  0.17066601  0.31384864  1
  In3+  In21  1  0.67400533  0.17793653  0.50066782  1
  Ag+  Ag22  1  0.13730221  0.86308525  0.00132769  1
  Ag+  Ag23  1  0.80883163  0.33439239  0.48941261  1
  Ag+  Ag24  1  0.85099917  0.17261139  0.30747556  1
  Ag+  Ag25  1  0.18861286  0.31275963  0.16586178  1
  Ag+  Ag26  1  0.51613474  0.35383149  0.85648972  1
  Ag+  Ag27  1  -0.02081536  0.82952387  0.80892023  1
  Ag+  Ag28  1  0.30435205  0.16266999  0.16519019  1
  Ag+  Ag29  1  0.66916961  0.83331726  0.52137327  1
  Ag+  Ag30  1  0.66900237  0.47822211  0.48170640  1
  Ag+  Ag31  1  0.68630984  0.63841828  0.69250836  1
  Ag+  Ag32  1  0.02047322  -0.00045958  0.01654613  1
  Ag+  Ag33  1  0.82693945  0.63684194  0.16727165  1
  Ag+  Ag34  1  -0.02267643  0.66714487  0.63780105  1
  Ag+  Ag35  1  -0.02809245  0.33349822  0.31038473  1
  Ag+  Ag36  1  0.30480530  0.83046334  0.47133448  1
  Ag+  Ag37  1  0.66467456  0.02273766  0.02655677  1
  Ag+  Ag38  1  0.68150665  0.85361797  0.16116589  1
  Ag+  Ag39  1  0.19252260  0.02287175  0.16980412  1
  Ag+  Ag40  1  0.66802610  0.19638906  0.15497840  1
  Ag+  Ag41  1  0.14590245  0.15514091  -0.00578606  1
  Ag+  Ag42  1  0.86087756  0.33639950  0.19644094  1
  Sn2+  Sn43  1  0.50643334  0.49567282  0.00393999  1
  Sn2+  Sn44  1  -0.00552181  0.00690415  0.32215992  1
  Sn2+  Sn45  1  0.49749211  0.32335421  0.16676201  1
  Sn2+  Sn46  1  0.84515578  0.66341589  0.83971326  1
  Sn2+  Sn47  1  -0.00413122  0.83766982  0.50484118  1
  Sn2+  Sn48  1  0.67033094  0.66607840  -0.00177911  1
  Sn2+  Sn49  1  0.66928279  0.83579115  0.84357737  1
  Sn2+  Sn50  1  0.00087090  0.66113899  0.32646081  1
  Sn2+  Sn51  1  0.16446637  -0.00560948  0.84453689  1
  Sn2+  Sn52  1  0.66319451  0.16468418  0.83956836  1
  Sn2+  Sn53  1  0.83634219  0.33198577  0.83217287  1
  Sn2+  Sn54  1  0.83644647  0.49162868  0.33756366  1
  Sn2+  Sn55  1  0.82321440  0.65845589  0.49670450  1
  Sn2+  Sn56  1  0.66310014  0.32726685  -0.00325207  1
  Sn2+  Sn57  1  0.32881920  0.33546962  -0.00144246  1
  Sn2+  Sn58  1  0.00023710  -0.00327809  0.67429883  1
  Sn2+  Sn59  1  0.50011898  0.00246393  0.16483707  1
  Sn2+  Sn60  1  0.32605995  0.67411946  0.00474664  1
  Sn2+  Sn61  1  0.49727276  0.16525427  0.00578779  1
  Sn2+  Sn62  1  -0.01036713  0.17166842  0.16525617  1
  Sn2+  Sn63  1  0.66976163  0.00148958  0.33291344  1
  Sn2+  Sn64  1  0.00052106  0.50776606  0.82913310  1
  Bi3+  Bi65  1  0.50365489  0.16216092  0.33404070  1
  Bi3+  Bi66  1  0.50737823  0.00023853  0.49661850  1
  Bi3+  Bi67  1  0.00373545  0.16002721  0.83336307  1
  Bi3+  Bi68  1  0.16645550  0.66857611  0.83869893  1
  Bi3+  Bi69  1  0.50178874  0.83619270  0.66128324  1
  Bi3+  Bi70  1  0.17026358  0.32961494  0.49896473  1
  Bi3+  Bi71  1  0.33254031  0.84083611  0.16364431  1
  Bi3+  Bi72  1  0.82920952  0.00880662  0.16676678  1
  Bi3+  Bi73  1  0.83307989  0.16551806  0.00232359  1
  Bi3+  Bi74  1  0.33295789  0.83869231  0.83590155  1
  Bi3+  Bi75  1  -0.00422646  0.83637237  0.17003692  1
  Bi3+  Bi76  1  0.83120946  -0.00323019  0.83033558  1
  Bi3+  Bi77  1  0.33514386  0.15998449  0.49132897  1
  Bi3+  Bi78  1  0.66963750  0.66093644  0.33280821  1
  Bi3+  Bi79  1  0.16135280  0.67169102  0.16691149  1
  Bi3+  Bi80  1  0.16178883  0.49915165  0.66290664  1
  Bi3+  Bi81  1  0.16831731  0.49665467  0.00404161  1
  Bi3+  Bi82  1  0.50755524  0.67079148  0.49949074  1
  Bi3+  Bi83  1  0.33513440  0.66866936  0.66735075  1
  Bi3+  Bi84  1  0.82990111  0.16914922  0.66792595  1
  Bi3+  Bi85  1  0.82940810  0.83563156  0.00465584  1
  Te2-  Te86  1  0.15662004  0.16608422  0.16244822  1
  Te2-  Te87  1  0.17202323  0.16811867  0.49566179  1
  Te2-  Te88  1  0.16792026  0.16051952  0.84486172  1
  Te2-  Te89  1  0.17703944  0.50832704  0.17058399  1
  Te2-  Te90  1  0.16724192  0.49561143  0.49819757  1
  Te2-  Te91  1  0.16776743  0.50008094  0.83235264  1
  Te2-  Te92  1  0.16109274  0.83235158  0.15200223  1
  Te2-  Te93  1  0.16150786  0.83640368  0.50019141  1
  Te2-  Te94  1  0.17238386  0.83302958  0.85204068  1
  Te2-  Te95  1  0.52152887  0.16570315  0.17406974  1
  Te2-  Te96  1  0.50132356  0.16231454  0.49957724  1
  Te2-  Te97  1  0.49426708  0.15641158  0.82652666  1
  Te2-  Te98  1  0.48354659  0.49717354  0.16441574  1
  Te2-  Te99  1  0.51367325  0.50296732  0.49801075  1
  Te2-  Te100  1  0.49948748  0.49621559  0.83142887  1
  Te2-  Te101  1  0.49346285  0.83370072  0.17600829  1
  Te2-  Te102  1  0.51188632  0.83627989  0.49564230  1
  Te2-  Te103  1  0.49938821  0.84194567  0.82919090  1
  Te2-  Te104  1  0.81841093  0.17344628  0.16269205  1
  Te2-  Te105  1  0.82613810  0.18327730  0.50995578  1
  Te2-  Te106  1  0.83566558  0.16173230  0.83264415  1
  Te2-  Te107  1  0.83621238  0.48614340  0.16839276  1
  Te2-  Te108  1  0.82107922  0.48872970  0.50362358  1
  Te2-  Te109  1  0.83922149  0.50045754  0.82973077  1
  Te2-  Te110  1  0.83134475  0.84194813  0.17189219  1
  Te2-  Te111  1  0.82392919  0.83451249  0.48920820  1
  Te2-  Te112  1  0.83361866  0.83283817  0.83638649  1
  Te2-  Te113  1  0.17101869  0.00779635  0.00985336  1
  Te2-  Te114  1  0.16298733  0.01100850  0.31978648  1
  Te2-  Te115  1  0.16216144  0.00480561  0.66928498  1
  Te2-  Te116  1  0.17202439  0.33526536  0.01350000  1
  Te2-  Te117  1  0.16903516  0.32495200  0.32471585  1
  Te2-  Te118  1  0.16134419  0.33458869  0.66534338  1
  Te2-  Te119  1  0.16061902  0.66022020  0.00165907  1
  Te2-  Te120  1  0.16217164  0.67190028  0.33235955  1
  Te2-  Te121  1  0.17131272  0.66423587  0.67307669  1
  Te2-  Te122  1  0.51801055  0.00408679  -0.00363008  1
  Te2-  Te123  1  0.50399737  -0.00436553  0.33535527  1
  Te2-  Te124  1  0.50584251  0.00086706  0.65912880  1
  Te2-  Te125  1  0.49721313  0.32865241  -0.00183415  1
  Te2-  Te126  1  0.50980762  0.32913969  0.34008779  1
  Te2-  Te127  1  0.50476256  0.32614425  0.66032350  1
  Te2-  Te128  1  0.49991179  0.66404332  -0.00128660  1
  Te2-  Te129  1  0.50104407  0.67009242  0.33549094  1
  Te2-  Te130  1  0.50017903  0.67095603  0.66218376  1
  Te2-  Te131  1  0.81540960  0.00072441  -0.00381125  1
  Te2-  Te132  1  0.83535201  0.02277332  0.33579039  1
  Te2-  Te133  1  0.83194988  0.00289650  0.66414534  1
  Te2-  Te134  1  0.82613369  0.32736629  -0.00649151  1
  Te2-  Te135  1  0.82601263  0.32523189  0.34003600  1
  Te2-  Te136  1  0.83492925  0.33602209  0.67226296  1
  Te2-  Te137  1  0.83689647  0.67041750  0.01140118  1
  Te2-  Te138  1  0.83373385  0.65875644  0.32246775  1
  Te2-  Te139  1  0.82982794  0.66097385  0.66551296  1
  Te2-  Te140  1  -0.00118109  0.15178808  -0.00540229  1
  Te2-  Te141  1  -0.00418489  0.17781322  0.33369565  1
  Te2-  Te142  1  -0.00459628  0.16774544  0.67203661  1
  Te2-  Te143  1  0.00543844  0.49315257  -0.00512387  1
  Te2-  Te144  1  0.00446566  0.48802702  0.33210462  1
  Te2-  Te145  1  0.00231540  0.51986219  0.66995665  1
  Te2-  Te146  1  -0.00932562  0.84860176  0.00458104  1
  Te2-  Te147  1  -0.01102770  0.83774775  0.33223688  1
  Te2-  Te148  1  -0.00234144  0.82200563  0.66345675  1
  Te2-  Te149  1  0.33700893  0.16121387  0.01309098  1
  Te2-  Te150  1  0.33990788  0.15479799  0.32544777  1
  Te2-  Te151  1  0.34136063  0.16403572  0.65539571  1
  Te2-  Te152  1  0.33161133  0.50118692  0.00654775  1
  Te2-  Te153  1  0.32787971  0.49972377  0.33436422  1
  Te2-  Te154  1  0.32833869  0.50432668  0.66073334  1
  Te2-  Te155  1  0.33713462  0.84325844  -0.00158062  1
  Te2-  Te156  1  0.32783005  0.84433468  0.32723332  1
  Te2-  Te157  1  0.33608187  0.83308748  0.67162148  1
  Te2-  Te158  1  0.66839860  0.16893369  0.00282029  1
  Te2-  Te159  1  0.66436741  0.17429936  0.34792760  1
  Te2-  Te160  1  0.66585081  0.16283706  0.66503380  1
  Te2-  Te161  1  0.66538357  0.49894682  0.00783229  1
  Te2-  Te162  1  0.67056714  0.49531632  0.33336677  1
  Te2-  Te163  1  0.67322224  0.49598344  0.66790720  1
  Te2-  Te164  1  0.66925347  0.82452805  0.01218972  1
  Te2-  Te165  1  0.67540832  0.82710554  0.31494458  1
  Te2-  Te166  1  0.66306286  0.83838905  0.67202240  1
  Te2-  Te167  1  -0.01008760  0.00066399  0.16300281  1
  Te2-  Te168  1  -0.00966411  -0.00052918  0.49933923  1
  Te2-  Te169  1  -0.00447148  -0.00954084  0.83018457  1
  Te2-  Te170  1  0.00318746  0.32809716  0.16675593  1
  Te2-  Te171  1  0.00886620  0.33415621  0.50418395  1
  Te2-  Te172  1  0.00030994  0.32685838  0.83078628  1
  Te2-  Te173  1  -0.00409490  0.67134519  0.16343682  1
  Te2-  Te174  1  -0.00837394  0.66873421  0.49086467  1
  Te2-  Te175  1  0.00410927  0.68085583  0.84416570  1
  Te2-  Te176  1  0.33829441  0.00594774  0.16003856  1
  Te2-  Te177  1  0.33617416  -0.00553735  0.49525827  1
  Te2-  Te178  1  0.33596986  0.00497534  0.84073082  1
  Te2-  Te179  1  0.33637157  0.31804095  0.16646575  1
  Te2-  Te180  1  0.33404403  0.32509118  0.49851165  1
  Te2-  Te181  1  0.33674265  0.32024388  0.83206928  1
  Te2-  Te182  1  0.33001408  0.67783650  0.16337506  1
  Te2-  Te183  1  0.33661320  0.68479794  0.50213503  1
  Te2-  Te184  1  0.33253984  0.66876948  0.83347415  1
  Te2-  Te185  1  0.66875331  -0.00053502  0.17364655  1
  Te2-  Te186  1  0.67267905  -0.01260515  0.49973595  1
  Te2-  Te187  1  0.66682007  -0.00021651  0.82427298  1
  Te2-  Te188  1  0.66055079  0.34352018  0.16686772  1
  Te2-  Te189  1  0.66206790  0.33408746  0.51412483  1
  Te2-  Te190  1  0.65865298  0.32606658  0.82555329  1
  Te2-  Te191  1  0.67699318  0.65198087  0.16949320  1
  Te2-  Te192  1  0.66816683  0.68246725  0.49203629  1
  Te2-  Te193  1  0.67325703  0.66622421  0.83690741  1
  Pb2+  Pb194  1  0.83797245  0.50167727  -0.00097961  1
  Pb2+  Pb195  1  0.00706341  0.49872434  0.16412651  1
  Pb2+  Pb196  1  -0.00686561  0.50059340  0.50111781  1
  Pb2+  Pb197  1  0.33469469  0.49356525  0.83944479  1
  Pb2+  Pb198  1  -0.00194765  0.32308385  0.00173441  1
  Pb2+  Pb199  1  0.67041278  0.49498407  0.83825797  1
  Pb2+  Pb200  1  0.33009365  0.67015353  0.33012229  1
  Pb2+  Pb201  1  0.50112922  0.49768017  0.32958942  1
  Pb2+  Pb202  1  0.50895237  0.66591465  0.16416764  1
  Pb2+  Pb203  1  0.16238046  0.66703674  0.50244697  1
  Pb2+  Pb204  1  0.33402431  -0.00005671  0.67085073  1
  Pb2+  Pb205  1  -0.00518607  0.16753055  0.50096590  1
  Pb2+  Pb206  1  0.50364647  0.83688033  0.00546263  1
  Pb2+  Pb207  1  0.33694300  0.32582659  0.33374052  1
  Pb2+  Pb208  1  0.16696107  0.32742692  0.84170580  1
  Pb2+  Pb209  1  0.50106043  0.49681749  0.66354845  1
  Pb2+  Pb210  1  0.50543231  0.67084177  0.83208372  1
  Pb2+  Pb211  1  0.33509341  0.33212098  0.66413361  1
  Pb2+  Pb212  1  0.16267907  0.00169948  0.49654109  1
  Pb2+  Pb213  1  0.15902690  0.84038683  0.32133590  1
  Pb2+  Pb214  1  0.82981165  0.83142654  0.65997398  1
  Pb2+  Pb215  1  0.16357908  0.83517913  0.67948196  1
