# generated using pymatgen
data_In22Ag21Sn22Bi21(Te54Pb11)2
_symmetry_space_group_name_H-M   'P 1'
_cell_length_a   19.10262932
_cell_length_b   19.09790240
_cell_length_c   19.09539790
_cell_angle_alpha   90.00594636
_cell_angle_beta   90.01558437
_cell_angle_gamma   90.00384989
_symmetry_Int_Tables_number   1
_chemical_formula_structural   In22Ag21Sn22Bi21(Te54Pb11)2
_chemical_formula_sum   'In22 Ag21 Sn22 Bi21 Te108 Pb22'
_cell_volume   6966.38562293
_cell_formula_units_Z   1
loop_
 _symmetry_equiv_pos_site_id
 _symmetry_equiv_pos_as_xyz
  1  'x, y, z'
loop_
 _atom_type_symbol
 _atom_type_oxidation_number
  In3+  3.0
  Ag+  1.0
  Sn2+  2.0
  Bi3+  3.0
  Te2-  -2.0
  Pb2+  2.0
loop_
 _atom_site_type_symbol
 _atom_site_label
 _atom_site_symmetry_multiplicity
 _atom_site_fract_x
 _atom_site_fract_y
 _atom_site_fract_z
 _atom_site_occupancy
  In3+  In0  1  0.32701081  0.66633838  -0.00728483  1
  In3+  In1  1  0.00961766  -0.00037669  0.32594530  1
  In3+  In2  1  0.85929909  0.16584005  -0.02952343  1
  In3+  In3  1  0.17412975  0.66446777  0.17777852  1
  In3+  In4  1  0.18889078  0.67321010  0.49914038  1
  In3+  In5  1  0.17006664  0.83632930  0.32113474  1
  In3+  In6  1  0.19157232  0.33024415  0.50108388  1
  In3+  In7  1  0.64076691  0.33666940  -0.00166845  1
  In3+  In8  1  0.83017404  0.48937939  0.67207566  1
  In3+  In9  1  0.32509479  0.16427450  0.84627266  1
  In3+  In10  1  -0.00401171  0.17082679  0.49891079  1
  In3+  In11  1  0.83908917  -0.00658226  0.49867863  1
  In3+  In12  1  0.49234629  0.65805413  0.82043790  1
  In3+  In13  1  0.16401385  0.15914267  0.66385708  1
  In3+  In14  1  0.65047572  0.83512212  0.49047790  1
  In3+  In15  1  0.85002029  0.66974009  0.15609496  1
  In3+  In16  1  0.64836772  0.83327443  0.17378691  1
  In3+  In17  1  0.16670882  0.33620085  0.84340055  1
  In3+  In18  1  0.00101078  0.50923514  0.49487241  1
  In3+  In19  1  0.83939878  -0.00481124  0.17695932  1
  In3+  In20  1  0.33070902  0.66495120  0.67378977  1
  In3+  In21  1  0.84071953  0.67366062  0.50207851  1
  Ag+  Ag22  1  -0.01587577  0.52205805  0.83378758  1
  Ag+  Ag23  1  0.47645506  -0.00553046  0.48947273  1
  Ag+  Ag24  1  0.47243539  0.83569409  0.36083167  1
  Ag+  Ag25  1  0.31797015  0.01981753  0.67030655  1
  Ag+  Ag26  1  0.16811863  0.16849561  0.01571737  1
  Ag+  Ag27  1  0.49845770  0.68185983  0.47648357  1
  Ag+  Ag28  1  0.33399928  0.51201614  0.14869950  1
  Ag+  Ag29  1  0.86286935  0.14269485  0.66033948  1
  Ag+  Ag30  1  0.02476452  0.68219655  0.00346376  1
  Ag+  Ag31  1  0.33216389  0.51490718  0.84780055  1
  Ag+  Ag32  1  0.64407666  0.33558436  0.30528553  1
  Ag+  Ag33  1  0.47643368  0.83244686  0.65691669  1
  Ag+  Ag34  1  0.50719064  0.36964740  0.47649627  1
  Ag+  Ag35  1  0.16061659  0.18797181  0.31517116  1
  Ag+  Ag36  1  0.18957910  0.01956526  0.16951637  1
  Ag+  Ag37  1  0.63568747  0.51388007  0.83448481  1
  Ag+  Ag38  1  0.32757053  0.31267290  -0.01026423  1
  Ag+  Ag39  1  0.33323923  0.83197505  0.82931434  1
  Ag+  Ag40  1  0.02754325  0.15861684  0.84522239  1
  Ag+  Ag41  1  0.47984758  0.47605498  0.35303908  1
  Ag+  Ag42  1  -0.00110673  0.83533750  0.18698305  1
  Sn2+  Sn43  1  0.32542288  0.17460356  0.16820949  1
  Sn2+  Sn44  1  0.00289310  0.00348390  0.66607982  1
  Sn2+  Sn45  1  0.01005130  0.83736072  0.83428964  1
  Sn2+  Sn46  1  -0.00014002  0.33491398  0.67407293  1
  Sn2+  Sn47  1  0.83145611  0.33034933  0.17142071  1
  Sn2+  Sn48  1  0.49818532  0.50383112  0.00937391  1
  Sn2+  Sn49  1  0.66095695  0.67109955  0.66266064  1
  Sn2+  Sn50  1  0.16938009  0.00025823  0.49430721  1
  Sn2+  Sn51  1  0.32266129  0.83615256  0.16129772  1
  Sn2+  Sn52  1  0.83913689  0.16722032  0.34123201  1
  Sn2+  Sn53  1  0.33876316  0.83632381  0.51306007  1
  Sn2+  Sn54  1  0.66402727  0.16730219  0.50245406  1
  Sn2+  Sn55  1  0.66310654  0.01034948  0.33896259  1
  Sn2+  Sn56  1  0.65850472  -0.00310354  0.66208968  1
  Sn2+  Sn57  1  0.16862716  0.33429739  0.16491674  1
  Sn2+  Sn58  1  0.17148913  0.49555164  0.32976967  1
  Sn2+  Sn59  1  0.83488436  0.83389384  0.32769462  1
  Sn2+  Sn60  1  0.65441438  0.82824041  0.82957125  1
  Sn2+  Sn61  1  0.17526346  0.83954209  0.66452559  1
  Sn2+  Sn62  1  0.84059737  0.49135254  -0.00030403  1
  Sn2+  Sn63  1  0.16908222  -0.00374022  0.84329914  1
  Sn2+  Sn64  1  0.16230164  0.66097979  0.83190163  1
  Bi3+  Bi65  1  0.66338008  0.33440396  0.67036906  1
  Bi3+  Bi66  1  0.66300157  0.66363685  -0.00098912  1
  Bi3+  Bi67  1  0.33101542  0.49999573  0.50111099  1
  Bi3+  Bi68  1  0.33308434  0.32886063  0.33213723  1
  Bi3+  Bi69  1  0.66632921  0.66548171  0.33281281  1
  Bi3+  Bi70  1  0.49791618  0.33448481  0.83286500  1
  Bi3+  Bi71  1  0.49861861  -0.00624987  0.82767170  1
  Bi3+  Bi72  1  0.33209753  0.16301129  0.50112878  1
  Bi3+  Bi73  1  0.49987492  0.15492579  0.66572908  1
  Bi3+  Bi74  1  0.66902980  0.00310291  0.00119882  1
  Bi3+  Bi75  1  0.66571887  0.17226614  0.83661506  1
  Bi3+  Bi76  1  0.84034644  0.33177267  0.83776691  1
  Bi3+  Bi77  1  0.50023713  0.66494394  0.16847788  1
  Bi3+  Bi78  1  0.50224361  0.83152521  -0.00416373  1
  Bi3+  Bi79  1  0.83593745  0.83280142  0.66625344  1
  Bi3+  Bi80  1  0.82418748  0.33042067  0.50308256  1
  Bi3+  Bi81  1  0.16868885  0.83618873  -0.00196055  1
  Bi3+  Bi82  1  0.83207365  0.49972836  0.33718575  1
  Bi3+  Bi83  1  0.00676781  0.33370875  -0.00125799  1
  Bi3+  Bi84  1  0.66864075  0.16417134  0.16929804  1
  Bi3+  Bi85  1  0.16263133  0.49687353  0.66392080  1
  Te2-  Te86  1  0.16717887  0.16556363  0.16834482  1
  Te2-  Te87  1  0.16966287  0.16633813  0.50642626  1
  Te2-  Te88  1  0.17232427  0.16702185  0.81834778  1
  Te2-  Te89  1  0.17802342  0.50711046  0.16697679  1
  Te2-  Te90  1  0.16305990  0.49975271  0.50083424  1
  Te2-  Te91  1  0.18220367  0.49085375  0.82662320  1
  Te2-  Te92  1  0.16182878  0.82221839  0.16432137  1
  Te2-  Te93  1  0.17111119  0.82821158  0.49708777  1
  Te2-  Te94  1  0.17805267  0.83465384  0.83570016  1
  Te2-  Te95  1  0.50155921  0.16617770  0.16915817  1
  Te2-  Te96  1  0.49771157  0.14829913  0.50475317  1
  Te2-  Te97  1  0.49932244  0.16566526  0.83110807  1
  Te2-  Te98  1  0.48941618  0.50489842  0.17388700  1
  Te2-  Te99  1  0.49598812  0.51618973  0.49492328  1
  Te2-  Te100  1  0.48671948  0.50010567  0.83274896  1
  Te2-  Te101  1  0.49027458  0.83030738  0.15929636  1
  Te2-  Te102  1  0.49979531  0.83777903  0.50688069  1
  Te2-  Te103  1  0.49077895  0.83111418  0.83433714  1
  Te2-  Te104  1  0.83062010  0.16293116  0.17575770  1
  Te2-  Te105  1  0.83420552  0.16787341  0.50940417  1
  Te2-  Te106  1  0.82778282  0.17018837  0.81467241  1
  Te2-  Te107  1  0.83532517  0.50305137  0.17034401  1
  Te2-  Te108  1  0.83956331  0.49666964  0.50499093  1
  Te2-  Te109  1  0.83899531  0.49298105  0.82899898  1
  Te2-  Te110  1  0.84834481  0.83107902  0.16906425  1
  Te2-  Te111  1  0.83411494  0.83431608  0.50137365  1
  Te2-  Te112  1  0.83283523  0.83217144  0.83003410  1
  Te2-  Te113  1  0.16771332  -0.00127577  0.01316846  1
  Te2-  Te114  1  0.16315118  -0.00974366  0.32124429  1
  Te2-  Te115  1  0.17028286  -0.00189884  0.66736514  1
  Te2-  Te116  1  0.17373246  0.32365704  -0.00305317  1
  Te2-  Te117  1  0.16678511  0.33411552  0.33844803  1
  Te2-  Te118  1  0.16434019  0.33417473  0.65781446  1
  Te2-  Te119  1  0.17153479  0.66907361  -0.00169838  1
  Te2-  Te120  1  0.16520127  0.66639928  0.33683414  1
  Te2-  Te121  1  0.17078943  0.66315105  0.66092917  1
  Te2-  Te122  1  0.50453374  -0.00272948  -0.00260320  1
  Te2-  Te123  1  0.50429672  -0.01477390  0.34291617  1
  Te2-  Te124  1  0.50098126  -0.01151660  0.66815568  1
  Te2-  Te125  1  0.47997969  0.33642952  -0.00415415  1
  Te2-  Te126  1  0.50074999  0.33018613  0.33432665  1
  Te2-  Te127  1  0.50070021  0.32850115  0.67227039  1
  Te2-  Te128  1  0.50100456  0.66803021  0.00244739  1
  Te2-  Te129  1  0.50612962  0.68678768  0.32795779  1
  Te2-  Te130  1  0.49873333  0.67931432  0.67118244  1
  Te2-  Te131  1  0.83075304  0.00712846  0.00118958  1
  Te2-  Te132  1  0.83483080  0.00430196  0.33824424  1
  Te2-  Te133  1  0.83295484  -0.00346023  0.65762453  1
  Te2-  Te134  1  0.84126034  0.32672449  0.00099238  1
  Te2-  Te135  1  0.83091293  0.33590787  0.33914366  1
  Te2-  Te136  1  0.82860356  0.33356771  0.66914560  1
  Te2-  Te137  1  0.82572561  0.66151871  0.00275515  1
  Te2-  Te138  1  0.82906285  0.66362041  0.33913517  1
  Te2-  Te139  1  0.83073464  0.66752472  0.66091954  1
  Te2-  Te140  1  0.01540192  0.16812865  -0.00604821  1
  Te2-  Te141  1  0.01172019  0.15706673  0.33620796  1
  Te2-  Te142  1  0.00824639  0.16341158  0.66075733  1
  Te2-  Te143  1  0.00133238  0.49441471  -0.01290382  1
  Te2-  Te144  1  -0.00066832  0.50119158  0.33439849  1
  Te2-  Te145  1  0.00048432  0.49950202  0.68299463  1
  Te2-  Te146  1  0.00487648  0.82876140  -0.00792280  1
  Te2-  Te147  1  0.00375710  0.84094246  0.33511065  1
  Te2-  Te148  1  0.00245731  0.83433327  0.67079963  1
  Te2-  Te149  1  0.32106398  0.16374966  0.00181680  1
  Te2-  Te150  1  0.31785846  0.16664450  0.33690084  1
  Te2-  Te151  1  0.33406492  0.16768574  0.66190042  1
  Te2-  Te152  1  0.33821236  0.51207998  -0.00071393  1
  Te2-  Te153  1  0.33244638  0.49438235  0.33948054  1
  Te2-  Te154  1  0.33077988  0.50589434  0.66181773  1
  Te2-  Te155  1  0.33480787  0.82522338  -0.01088258  1
  Te2-  Te156  1  0.32526300  0.83076677  0.33289403  1
  Te2-  Te157  1  0.33056960  0.81951803  0.67848982  1
  Te2-  Te158  1  0.66598156  0.16845883  0.00257267  1
  Te2-  Te159  1  0.66688377  0.17595082  0.33200713  1
  Te2-  Te160  1  0.66204628  0.16736933  0.67077283  1
  Te2-  Te161  1  0.66572243  0.49902584  -0.01020134  1
  Te2-  Te162  1  0.66953098  0.49766223  0.33263022  1
  Te2-  Te163  1  0.67029443  0.50057640  0.67861654  1
  Te2-  Te164  1  0.66644044  0.83482778  -0.00017920  1
  Te2-  Te165  1  0.67522804  0.83307373  0.33542648  1
  Te2-  Te166  1  0.67362538  0.83184515  0.67064190  1
  Te2-  Te167  1  -0.00696234  -0.01169158  0.17172854  1
  Te2-  Te168  1  0.00062602  0.01001848  0.49766426  1
  Te2-  Te169  1  0.00469813  0.00823361  0.82990036  1
  Te2-  Te170  1  0.00250095  0.33320011  0.16472927  1
  Te2-  Te171  1  -0.01183934  0.32412989  0.50603822  1
  Te2-  Te172  1  0.00505288  0.31524525  0.83637289  1
  Te2-  Te173  1  0.00348840  0.67152955  0.15544180  1
  Te2-  Te174  1  -0.00188171  0.66428671  0.50038431  1
  Te2-  Te175  1  0.00428783  0.66911422  0.84611589  1
  Te2-  Te176  1  0.33525085  -0.00155300  0.16910008  1
  Te2-  Te177  1  0.32934399  -0.00231806  0.51549876  1
  Te2-  Te178  1  0.33545743  0.00913062  0.82233988  1
  Te2-  Te179  1  0.32603780  0.33713260  0.17061683  1
  Te2-  Te180  1  0.35363909  0.33326917  0.49708155  1
  Te2-  Te181  1  0.33202500  0.32239740  0.83984604  1
  Te2-  Te182  1  0.33079360  0.66236948  0.16409189  1
  Te2-  Te183  1  0.34270506  0.66698979  0.50197692  1
  Te2-  Te184  1  0.33442915  0.66383727  0.83198142  1
  Te2-  Te185  1  0.67593231  -0.00222944  0.16608517  1
  Te2-  Te186  1  0.68100463  -0.00506667  0.49701479  1
  Te2-  Te187  1  0.66446775  0.00386744  0.83676922  1
  Te2-  Te188  1  0.66979206  0.33051436  0.15885454  1
  Te2-  Te189  1  0.65806164  0.33551598  0.50773796  1
  Te2-  Te190  1  0.66753408  0.33452085  0.83678469  1
  Te2-  Te191  1  0.66870423  0.67113589  0.16556045  1
  Te2-  Te192  1  0.65140005  0.67799951  0.49650056  1
  Te2-  Te193  1  0.65821685  0.65962147  0.83601456  1
  Pb2+  Pb194  1  0.33897877  0.66249300  0.33178068  1
  Pb2+  Pb195  1  -0.00173572  0.32989453  0.33877311  1
  Pb2+  Pb196  1  0.66874982  0.50463948  0.50058236  1
  Pb2+  Pb197  1  0.83554697  0.00054196  0.82852012  1
  Pb2+  Pb198  1  0.33227256  -0.00147473  0.34039852  1
  Pb2+  Pb199  1  0.66265180  0.50265394  0.16417056  1
  Pb2+  Pb200  1  0.50302059  -0.00205958  0.17370972  1
  Pb2+  Pb201  1  0.00067154  0.66576440  0.67425497  1
  Pb2+  Pb202  1  0.00586489  0.50345594  0.15839635  1
  Pb2+  Pb203  1  -0.00204149  0.16124693  0.16215257  1
  Pb2+  Pb204  1  0.82945783  0.66374848  0.83219057  1
  Pb2+  Pb205  1  0.50325229  0.50619089  0.66060513  1
  Pb2+  Pb206  1  0.49645558  0.15971584  0.33967978  1
  Pb2+  Pb207  1  0.17105103  0.49689973  -0.00458684  1
  Pb2+  Pb208  1  0.00338161  0.83878712  0.50245952  1
  Pb2+  Pb209  1  0.00175467  -0.00467861  0.00015209  1
  Pb2+  Pb210  1  0.49385881  0.33822858  0.16540830  1
  Pb2+  Pb211  1  0.33207947  -0.00582174  -0.00548125  1
  Pb2+  Pb212  1  -0.00314861  0.67060828  0.32717656  1
  Pb2+  Pb213  1  0.49555873  0.16851680  0.00009334  1
  Pb2+  Pb214  1  0.83558738  0.83350259  0.00162095  1
  Pb2+  Pb215  1  0.33086697  0.33574905  0.67172571  1
