# generated using pymatgen
data_In22Ag21Sn22Bi21(Te54Pb11)2
_symmetry_space_group_name_H-M   'P 1'
_cell_length_a   19.17405829
_cell_length_b   19.18755484
_cell_length_c   19.19161741
_cell_angle_alpha   89.99927710
_cell_angle_beta   89.98694037
_cell_angle_gamma   89.98244283
_symmetry_Int_Tables_number   1
_chemical_formula_structural   In22Ag21Sn22Bi21(Te54Pb11)2
_chemical_formula_sum   'In22 Ag21 Sn22 Bi21 Te108 Pb22'
_cell_volume   7060.65876465
_cell_formula_units_Z   1
loop_
 _symmetry_equiv_pos_site_id
 _symmetry_equiv_pos_as_xyz
  1  'x, y, z'
loop_
 _atom_type_symbol
 _atom_type_oxidation_number
  In3+  3.0
  Ag+  1.0
  Sn2+  2.0
  Bi3+  3.0
  Te2-  -2.0
  Pb2+  2.0
loop_
 _atom_site_type_symbol
 _atom_site_label
 _atom_site_symmetry_multiplicity
 _atom_site_fract_x
 _atom_site_fract_y
 _atom_site_fract_z
 _atom_site_occupancy
  In3+  In0  1  0.02679841  0.16646181  0.51465356  1
  In3+  In1  1  -0.00552315  0.67130126  0.32526414  1
  In3+  In2  1  0.16073302  0.50161367  0.34889099  1
  In3+  In3  1  0.81927600  0.49063116  -0.01440452  1
  In3+  In4  1  0.66388362  0.65698048  0.66440797  1
  In3+  In5  1  0.16827675  -0.01883403  0.83475354  1
  In3+  In6  1  0.33380503  0.48662878  0.18020592  1
  In3+  In7  1  0.16236783  0.85054104  0.65060854  1
  In3+  In8  1  0.34183189  0.85296396  0.49632063  1
  In3+  In9  1  0.49460637  0.66170058  0.52653453  1
  In3+  In10  1  0.83008732  0.17838893  0.67353513  1
  In3+  In11  1  -0.00874005  0.34593671  0.00497118  1
  In3+  In12  1  0.32444985  0.64497906  0.66575924  1
  In3+  In13  1  -0.01535054  0.49072271  0.16908864  1
  In3+  In14  1  0.48569384  0.18422747  0.66073450  1
  In3+  In15  1  0.85719880  0.01914408  0.50363300  1
  In3+  In16  1  0.31654568  0.34274776  0.66810999  1
  In3+  In17  1  0.32814063  0.00483253  0.01500350  1
  In3+  In18  1  0.50012324  0.35111521  0.50225147  1
  In3+  In19  1  0.68866872  0.63921938  -0.01023240  1
  In3+  In20  1  0.67328794  0.34702081  0.33456329  1
  In3+  In21  1  0.50398463  0.50329871  0.35565813  1
  Ag+  Ag22  1  0.85907753  0.49984688  0.33778287  1
  Ag+  Ag23  1  0.67424014  0.35686517  0.63636322  1
  Ag+  Ag24  1  0.47099972  0.64370918  0.82077952  1
  Ag+  Ag25  1  0.02128385  0.00320830  0.68133515  1
  Ag+  Ag26  1  0.16777379  0.35449832  0.19343364  1
  Ag+  Ag27  1  0.33527204  0.18851391  0.48618031  1
  Ag+  Ag28  1  0.63501912  0.32493918  -0.02683701  1
  Ag+  Ag29  1  -0.00147757  0.64562990  0.02432503  1
  Ag+  Ag30  1  0.80661694  0.36140891  0.16973339  1
  Ag+  Ag31  1  0.15080759  -0.03409491  0.47679641  1
  Ag+  Ag32  1  0.33247271  0.51809250  0.48115187  1
  Ag+  Ag33  1  0.19842635  0.02747153  0.19375758  1
  Ag+  Ag34  1  0.86492996  0.86117938  0.34244430  1
  Ag+  Ag35  1  0.33135478  0.18868676  0.19143698  1
  Ag+  Ag36  1  0.68905603  0.48048120  0.49826001  1
  Ag+  Ag37  1  0.02472163  0.63400233  0.66212594  1
  Ag+  Ag38  1  0.30571284  0.02337758  0.30935628  1
  Ag+  Ag39  1  0.18902696  0.86259315  0.35810118  1
  Ag+  Ag40  1  0.13030700  0.50938384  0.64262374  1
  Ag+  Ag41  1  0.48478193  0.47502605  0.65491142  1
  Ag+  Ag42  1  0.83273250  0.33093813  0.81346073  1
  Sn2+  Sn43  1  0.84804277  0.00334469  0.16775514  1
  Sn2+  Sn44  1  0.83939783  0.83070711  0.65719059  1
  Sn2+  Sn45  1  0.32661640  0.66784445  -0.00412744  1
  Sn2+  Sn46  1  -0.00578723  0.32939920  0.32252424  1
  Sn2+  Sn47  1  0.66166447  0.17333189  0.16249293  1
  Sn2+  Sn48  1  0.82658168  0.50369939  0.65898302  1
  Sn2+  Sn49  1  0.49333828  0.66420242  0.15715180  1
  Sn2+  Sn50  1  0.32782663  0.16855452  0.83314306  1
  Sn2+  Sn51  1  0.32264449  0.82924252  0.17217534  1
  Sn2+  Sn52  1  0.34033308  0.49774467  0.83811710  1
  Sn2+  Sn53  1  0.67541419  0.83094513  0.82868577  1
  Sn2+  Sn54  1  0.49811136  0.16194008  0.33660075  1
  Sn2+  Sn55  1  0.83163835  0.83006683  0.01139241  1
  Sn2+  Sn56  1  0.16393861  0.66272995  0.50392533  1
  Sn2+  Sn57  1  0.16912890  0.16719555  0.00993187  1
  Sn2+  Sn58  1  0.00281956  0.17348807  0.83585119  1
  Sn2+  Sn59  1  0.15817471  0.33538742  0.83414823  1
  Sn2+  Sn60  1  0.15911691  0.65815433  0.83176274  1
  Sn2+  Sn61  1  0.66974035  0.66751471  0.33533325  1
  Sn2+  Sn62  1  0.66350730  0.50147835  0.17978657  1
  Sn2+  Sn63  1  0.32487683  0.33232749  -0.00759848  1
  Sn2+  Sn64  1  0.00665035  0.50400706  0.50050467  1
  Bi3+  Bi65  1  0.82644845  0.66709193  0.16746885  1
  Bi3+  Bi66  1  0.67229540  0.49846477  0.82644601  1
  Bi3+  Bi67  1  0.17291541  0.50139006  -0.00227861  1
  Bi3+  Bi68  1  0.66857468  0.82737717  0.49672825  1
  Bi3+  Bi69  1  0.00895388  0.16672596  0.16526924  1
  Bi3+  Bi70  1  0.66734260  0.83089116  0.16465113  1
  Bi3+  Bi71  1  0.82990394  0.16901497  0.32905852  1
  Bi3+  Bi72  1  0.16664031  0.83089526  0.00421275  1
  Bi3+  Bi73  1  0.16971228  0.33342870  0.50396038  1
  Bi3+  Bi74  1  0.50131020  0.82794953  -0.00196792  1
  Bi3+  Bi75  1  0.50028846  0.00270418  0.16931387  1
  Bi3+  Bi76  1  0.66020767  -0.00054723  0.33247924  1
  Bi3+  Bi77  1  -0.00008653  0.83456114  0.16362375  1
  Bi3+  Bi78  1  0.50066677  0.50475278  -0.00210082  1
  Bi3+  Bi79  1  0.49568992  0.83599496  0.66759265  1
  Bi3+  Bi80  1  0.49551122  -0.00156298  0.49925802  1
  Bi3+  Bi81  1  0.00085772  -0.00183885  -0.00582482  1
  Bi3+  Bi82  1  0.49758158  0.00278839  0.83303239  1
  Bi3+  Bi83  1  0.83097126  0.66393836  0.49679541  1
  Bi3+  Bi84  1  0.66915670  -0.00637202  0.66506647  1
  Bi3+  Bi85  1  0.33558860  -0.00246289  0.66689561  1
  Te2-  Te86  1  0.17311062  0.16729951  0.16700038  1
  Te2-  Te87  1  0.18086055  0.17328328  0.50427461  1
  Te2-  Te88  1  0.16234310  0.17630909  0.83595386  1
  Te2-  Te89  1  0.18208825  0.49680473  0.16168488  1
  Te2-  Te90  1  0.17915749  0.49533509  0.50268952  1
  Te2-  Te91  1  0.17101219  0.49581128  0.83626670  1
  Te2-  Te92  1  0.16194381  0.82950547  0.16418139  1
  Te2-  Te93  1  0.16852139  0.82261072  0.49917497  1
  Te2-  Te94  1  0.16939046  0.82767184  0.83811068  1
  Te2-  Te95  1  0.48541484  0.16294142  0.16846470  1
  Te2-  Te96  1  0.48845872  0.15955923  0.50551447  1
  Te2-  Te97  1  0.49984460  0.16520331  0.82573189  1
  Te2-  Te98  1  0.49367574  0.50053620  0.15967449  1
  Te2-  Te99  1  0.48729715  0.50580255  0.51011256  1
  Te2-  Te100  1  0.51114000  0.50416096  0.83621987  1
  Te2-  Te101  1  0.50121232  0.83654396  0.16029556  1
  Te2-  Te102  1  0.50177136  0.82677811  0.50237380  1
  Te2-  Te103  1  0.50641956  0.83965764  0.83400342  1
  Te2-  Te104  1  0.83799503  0.16236202  0.16895059  1
  Te2-  Te105  1  0.83032463  0.16735981  0.49322652  1
  Te2-  Te106  1  0.83556511  0.17491101  0.82927276  1
  Te2-  Te107  1  0.83330700  0.50675540  0.18304063  1
  Te2-  Te108  1  0.83560736  0.50178931  0.48860618  1
  Te2-  Te109  1  0.83368425  0.48823441  0.83431454  1
  Te2-  Te110  1  0.83264491  0.83193907  0.17649638  1
  Te2-  Te111  1  0.82973260  0.82660351  0.48550355  1
  Te2-  Te112  1  0.83208768  0.83358573  0.83339652  1
  Te2-  Te113  1  0.16703453  -0.00693189  -0.00664677  1
  Te2-  Te114  1  0.16354296  0.00363231  0.33641254  1
  Te2-  Te115  1  0.17059894  0.00243401  0.67402077  1
  Te2-  Te116  1  0.16730815  0.33886554  -0.00771326  1
  Te2-  Te117  1  0.16679764  0.34414109  0.34014993  1
  Te2-  Te118  1  0.16250772  0.34875342  0.66638801  1
  Te2-  Te119  1  0.15442054  0.66642344  -0.00234881  1
  Te2-  Te120  1  0.15814989  0.65368681  0.33687766  1
  Te2-  Te121  1  0.17281456  0.65245918  0.66250423  1
  Te2-  Te122  1  0.49532785  -0.00375149  -0.00143906  1
  Te2-  Te123  1  0.49729237  -0.00538125  0.33396563  1
  Te2-  Te124  1  0.50298966  -0.00204929  0.66814499  1
  Te2-  Te125  1  0.49143513  0.33806656  0.00047255  1
  Te2-  Te126  1  0.50238630  0.33769407  0.34468497  1
  Te2-  Te127  1  0.52376573  0.33339441  0.65669694  1
  Te2-  Te128  1  0.49465546  0.66816067  -0.00729882  1
  Te2-  Te129  1  0.50097429  0.65413021  0.32599132  1
  Te2-  Te130  1  0.50524718  0.67595448  0.67954386  1
  Te2-  Te131  1  0.83514627  0.00023044  -0.00228244  1
  Te2-  Te132  1  0.82563518  0.00354128  0.33803096  1
  Te2-  Te133  1  0.83015187  -0.01157345  0.65540698  1
  Te2-  Te134  1  0.84089252  0.34611847  0.02461938  1
  Te2-  Te135  1  0.82789276  0.33623783  0.32206068  1
  Te2-  Te136  1  0.82276071  0.33077569  0.66201630  1
  Te2-  Te137  1  0.84606641  0.66008232  0.00394204  1
  Te2-  Te138  1  0.83864064  0.65324893  0.33384357  1
  Te2-  Te139  1  0.82170183  0.67185044  0.65905890  1
  Te2-  Te140  1  0.00148684  0.16022009  0.00385270  1
  Te2-  Te141  1  -0.00669197  0.16677251  0.32820936  1
  Te2-  Te142  1  -0.00865851  0.15440678  0.66372503  1
  Te2-  Te143  1  0.00813615  0.50068610  0.01155747  1
  Te2-  Te144  1  0.00721934  0.49653500  0.32719972  1
  Te2-  Te145  1  -0.01437033  0.49031471  0.66491098  1
  Te2-  Te146  1  -0.00239619  0.83637942  0.00123981  1
  Te2-  Te147  1  0.00502196  0.82438296  0.32858684  1
  Te2-  Te148  1  0.00924346  0.85066628  0.66212965  1
  Te2-  Te149  1  0.32998072  0.16005434  -0.00378391  1
  Te2-  Te150  1  0.33749771  0.16435724  0.33709781  1
  Te2-  Te151  1  0.33503780  0.16325770  0.67041123  1
  Te2-  Te152  1  0.33622443  0.50376066  -0.00087622  1
  Te2-  Te153  1  0.33984741  0.49805848  0.33458681  1
  Te2-  Te154  1  0.34236116  0.49459727  0.67746004  1
  Te2-  Te155  1  0.33341703  0.83252767  0.00028710  1
  Te2-  Te156  1  0.33098736  0.82905701  0.34272428  1
  Te2-  Te157  1  0.32957308  0.83450955  0.65826173  1
  Te2-  Te158  1  0.66591593  0.18120028  0.00467257  1
  Te2-  Te159  1  0.66426219  0.16180074  0.32881879  1
  Te2-  Te160  1  0.67863990  0.15473816  0.66117155  1
  Te2-  Te161  1  0.66491867  0.48508435  0.00610498  1
  Te2-  Te162  1  0.65710933  0.50025936  0.34668290  1
  Te2-  Te163  1  0.66899376  0.50289754  0.65668867  1
  Te2-  Te164  1  0.66687411  0.83348788  0.00294779  1
  Te2-  Te165  1  0.66667538  0.83360086  0.32966807  1
  Te2-  Te166  1  0.66398998  0.83186130  0.66206849  1
  Te2-  Te167  1  0.00727028  -0.00113188  0.15938450  1
  Te2-  Te168  1  0.01063425  0.00882036  0.50070640  1
  Te2-  Te169  1  0.00617233  0.00409864  0.82982589  1
  Te2-  Te170  1  0.01657684  0.33040418  0.16407457  1
  Te2-  Te171  1  0.00668776  0.32700031  0.49759385  1
  Te2-  Te172  1  -0.01386220  0.33186059  0.84465049  1
  Te2-  Te173  1  -0.00672223  0.66694964  0.17128009  1
  Te2-  Te174  1  -0.00555241  0.65989742  0.51667716  1
  Te2-  Te175  1  0.00183364  0.66489576  0.80938425  1
  Te2-  Te176  1  0.33744054  -0.00882449  0.16793978  1
  Te2-  Te177  1  0.33524619  0.00135123  0.50616786  1
  Te2-  Te178  1  0.33354671  0.00114115  0.83017432  1
  Te2-  Te179  1  0.32206564  0.33337149  0.16535587  1
  Te2-  Te180  1  0.34294950  0.33165507  0.51695764  1
  Te2-  Te181  1  0.33765888  0.33063657  0.82268228  1
  Te2-  Te182  1  0.33468952  0.66995252  0.16618099  1
  Te2-  Te183  1  0.34048092  0.66043533  0.51207253  1
  Te2-  Te184  1  0.32770458  0.66532328  0.82444042  1
  Te2-  Te185  1  0.66405563  -0.00133986  0.16805627  1
  Te2-  Te186  1  0.66006630  -0.00762922  0.49691772  1
  Te2-  Te187  1  0.66426771  0.00241595  0.83190347  1
  Te2-  Te188  1  0.66111984  0.33421168  0.18049690  1
  Te2-  Te189  1  0.65926724  0.33620702  0.49004290  1
  Te2-  Te190  1  0.67944029  0.33973878  0.83455779  1
  Te2-  Te191  1  0.66510397  0.66785748  0.16422063  1
  Te2-  Te192  1  0.65950999  0.66738932  0.50196649  1
  Te2-  Te193  1  0.67335756  0.66165993  0.83703544  1
  Pb2+  Pb194  1  0.83735430  0.33475290  0.49251139  1
  Pb2+  Pb195  1  0.16720277  0.66082180  0.16772567  1
  Pb2+  Pb196  1  0.49873871  0.82117822  0.32965944  1
  Pb2+  Pb197  1  -0.00421932  0.82950294  0.49882528  1
  Pb2+  Pb198  1  0.00109493  0.83136663  0.82790213  1
  Pb2+  Pb199  1  -0.00753061  0.32377317  0.67077033  1
  Pb2+  Pb200  1  0.66756735  0.17517861  0.82770976  1
  Pb2+  Pb201  1  0.65771353  0.16468120  0.49725290  1
  Pb2+  Pb202  1  0.49667650  0.16830498  -0.00086866  1
  Pb2+  Pb203  1  0.00484291  0.50149963  0.83821652  1
  Pb2+  Pb204  1  0.49303867  0.33285147  0.17271097  1
  Pb2+  Pb205  1  0.66675662  0.00488450  0.00172724  1
  Pb2+  Pb206  1  0.50812706  0.33896524  0.82742011  1
  Pb2+  Pb207  1  0.32923384  0.66505021  0.34034197  1
  Pb2+  Pb208  1  0.16664896  0.17403514  0.67087588  1
  Pb2+  Pb209  1  0.83721339  0.00328034  0.82581449  1
  Pb2+  Pb210  1  -0.00262880  -0.00426060  0.33083255  1
  Pb2+  Pb211  1  0.16379795  0.17280105  0.33434077  1
  Pb2+  Pb212  1  0.83889505  0.66200213  0.82935329  1
  Pb2+  Pb213  1  0.83536062  0.17778833  0.00209403  1
  Pb2+  Pb214  1  0.33779797  0.83241031  0.82915447  1
  Pb2+  Pb215  1  0.33567578  0.32988986  0.34359628  1
