# generated using pymatgen
data_In22Ag21Sn22Bi21(Te54Pb11)2
_symmetry_space_group_name_H-M   'P 1'
_cell_length_a   19.14667758
_cell_length_b   19.13267915
_cell_length_c   19.14489298
_cell_angle_alpha   89.99013750
_cell_angle_beta   89.99605866
_cell_angle_gamma   90.00402246
_symmetry_Int_Tables_number   1
_chemical_formula_structural   In22Ag21Sn22Bi21(Te54Pb11)2
_chemical_formula_sum   'In22 Ag21 Sn22 Bi21 Te108 Pb22'
_cell_volume   7013.29564521
_cell_formula_units_Z   1
loop_
 _symmetry_equiv_pos_site_id
 _symmetry_equiv_pos_as_xyz
  1  'x, y, z'
loop_
 _atom_type_symbol
 _atom_type_oxidation_number
  In3+  3.0
  Ag+  1.0
  Sn2+  2.0
  Bi3+  3.0
  Te2-  -2.0
  Pb2+  2.0
loop_
 _atom_site_type_symbol
 _atom_site_label
 _atom_site_symmetry_multiplicity
 _atom_site_fract_x
 _atom_site_fract_y
 _atom_site_fract_z
 _atom_site_occupancy
  In3+  In0  1  0.66256396  0.14317210  0.49374457  1
  In3+  In1  1  0.66441543  0.67064251  0.65959196  1
  In3+  In2  1  0.50639171  -0.01372346  0.49700261  1
  In3+  In3  1  0.32932396  0.00170140  0.65465331  1
  In3+  In4  1  0.33975701  0.82800282  0.47896696  1
  In3+  In5  1  0.32071529  0.84725284  0.83213075  1
  In3+  In6  1  0.66595812  0.82287038  0.82638026  1
  In3+  In7  1  0.82920583  0.15723290  0.66415648  1
  In3+  In8  1  0.32385671  0.16653706  0.50394965  1
  In3+  In9  1  0.15866531  0.83348863  0.01101351  1
  In3+  In10  1  0.66822266  0.67277626  0.35167449  1
  In3+  In11  1  0.80837181  0.69289135  0.16774308  1
  In3+  In12  1  0.66043359  0.67865681  -0.00247062  1
  In3+  In13  1  0.18283955  0.17338308  0.34059498  1
  In3+  In14  1  0.51186511  0.15858892  0.32917519  1
  In3+  In15  1  -0.01176895  0.82937397  0.19625678  1
  In3+  In16  1  0.83420401  0.14913815  0.33628431  1
  In3+  In17  1  0.00731529  0.67605356  0.66561922  1
  In3+  In18  1  0.34109497  0.00183331  0.00015342  1
  In3+  In19  1  0.51176992  0.32306262  0.19968260  1
  In3+  In20  1  0.48799443  0.67816571  0.83537834  1
  In3+  In21  1  0.00358261  0.31918909  0.63682537  1
  Ag+  Ag22  1  0.14158075  0.69953499  0.47089881  1
  Ag+  Ag23  1  0.50322572  0.67673608  0.48554876  1
  Ag+  Ag24  1  0.52406801  0.30748507  0.50135463  1
  Ag+  Ag25  1  0.16660632  0.14616044  0.64438872  1
  Ag+  Ag26  1  0.85207298  -0.02941354  0.48055010  1
  Ag+  Ag27  1  0.81323764  0.84884109  0.33018550  1
  Ag+  Ag28  1  0.81100366  0.01862629  0.14623759  1
  Ag+  Ag29  1  0.85185228  0.17269512  -0.02650311  1
  Ag+  Ag30  1  0.19174450  0.68972238  0.80721660  1
  Ag+  Ag31  1  0.67585561  0.13125373  0.16118989  1
  Ag+  Ag32  1  0.02056637  0.83434832  0.85217058  1
  Ag+  Ag33  1  0.51007901  0.69456691  0.18960442  1
  Ag+  Ag34  1  0.33581395  0.15366349  0.85160251  1
  Ag+  Ag35  1  0.18271472  0.31302216  0.48990020  1
  Ag+  Ag36  1  0.51570446  0.80880057  0.33600021  1
  Ag+  Ag37  1  0.63361756  0.83047877  0.18905448  1
  Ag+  Ag38  1  0.68208958  0.83718066  0.48398386  1
  Ag+  Ag39  1  0.52603904  -0.01960066  0.19916012  1
  Ag+  Ag40  1  0.16782098  0.80362424  0.36167860  1
  Ag+  Ag41  1  -0.01949194  0.83681802  0.49845616  1
  Ag+  Ag42  1  -0.01474669  0.30838023  0.33168211  1
  Sn2+  Sn43  1  0.49959388  -0.00054478  0.83048852  1
  Sn2+  Sn44  1  0.50253916  0.83310520  0.01478733  1
  Sn2+  Sn45  1  0.50249854  0.50143334  0.33333151  1
  Sn2+  Sn46  1  0.15892918  0.83167561  0.66427123  1
  Sn2+  Sn47  1  -0.00421866  0.67558281  0.33958735  1
  Sn2+  Sn48  1  0.83512049  0.83582199  0.65621653  1
  Sn2+  Sn49  1  0.00655534  0.50477253  0.49995116  1
  Sn2+  Sn50  1  0.16237076  0.49490861  0.34484337  1
  Sn2+  Sn51  1  0.66630588  0.51401080  0.16387867  1
  Sn2+  Sn52  1  0.15996593  -0.00572063  0.49639492  1
  Sn2+  Sn53  1  0.83829658  0.67168518  0.49513014  1
  Sn2+  Sn54  1  -0.01079982  0.15620915  0.16774310  1
  Sn2+  Sn55  1  -0.00593305  0.50719748  0.17076134  1
  Sn2+  Sn56  1  0.83584055  -0.00719606  0.83601794  1
  Sn2+  Sn57  1  0.16274778  0.16732313  -0.00535498  1
  Sn2+  Sn58  1  0.67633944  0.33599144  0.33432519  1
  Sn2+  Sn59  1  0.83316962  0.31715678  0.17321647  1
  Sn2+  Sn60  1  0.83536605  0.84131960  0.00326582  1
  Sn2+  Sn61  1  -0.00473924  0.33001283  0.01572352  1
  Sn2+  Sn62  1  0.32991988  0.67701957  0.65957222  1
  Sn2+  Sn63  1  0.33129362  0.32778169  -0.00566689  1
  Sn2+  Sn64  1  -0.00410053  -0.00177310  0.00137636  1
  Bi3+  Bi65  1  0.83550797  0.67010840  0.83538912  1
  Bi3+  Bi66  1  -0.00160867  -0.00202728  0.66688044  1
  Bi3+  Bi67  1  0.16293897  0.50017986  0.66579639  1
  Bi3+  Bi68  1  0.50038758  0.16627478  0.00256840  1
  Bi3+  Bi69  1  0.33191970  0.66977874  0.00088964  1
  Bi3+  Bi70  1  -0.00356282  0.67062506  0.00025454  1
  Bi3+  Bi71  1  0.33280474  0.33627776  0.33342121  1
  Bi3+  Bi72  1  0.16669781  0.50388335  0.00243611  1
  Bi3+  Bi73  1  0.16392386  0.00511447  0.16167785  1
  Bi3+  Bi74  1  0.00252080  -0.00302946  0.33280364  1
  Bi3+  Bi75  1  0.16495786  0.33278133  0.83331445  1
  Bi3+  Bi76  1  0.50250224  0.49840105  0.00188261  1
  Bi3+  Bi77  1  0.83135048  0.33706964  0.49671309  1
  Bi3+  Bi78  1  0.50065169  0.50143699  0.66269998  1
  Bi3+  Bi79  1  0.66725722  0.49874542  0.83271205  1
  Bi3+  Bi80  1  0.66518454  -0.00340127  0.00001033  1
  Bi3+  Bi81  1  0.66711815  -0.00094527  0.66854198  1
  Bi3+  Bi82  1  0.83555138  0.50730421  0.33282776  1
  Bi3+  Bi83  1  0.83494460  0.50569808  0.66539345  1
  Bi3+  Bi84  1  0.16466000  0.33228505  0.17405880  1
  Bi3+  Bi85  1  0.32672687  0.83347401  0.15851230  1
  Te2-  Te86  1  0.16229258  0.16960537  0.16295384  1
  Te2-  Te87  1  0.16534364  0.16610156  0.49753585  1
  Te2-  Te88  1  0.17861259  0.17110350  0.83870141  1
  Te2-  Te89  1  0.16382067  0.49566079  0.16618953  1
  Te2-  Te90  1  0.16548343  0.50792238  0.50508211  1
  Te2-  Te91  1  0.16669761  0.49784449  0.83691261  1
  Te2-  Te92  1  0.16564414  0.84011040  0.16525102  1
  Te2-  Te93  1  0.18796595  0.83551579  0.50676000  1
  Te2-  Te94  1  0.16687558  0.83181079  0.83195599  1
  Te2-  Te95  1  0.50684780  0.17090712  0.17079999  1
  Te2-  Te96  1  0.51049169  0.16162468  0.49131403  1
  Te2-  Te97  1  0.49166512  0.16675838  0.83418523  1
  Te2-  Te98  1  0.50738908  0.49157524  0.16290422  1
  Te2-  Te99  1  0.50005739  0.52060149  0.50425981  1
  Te2-  Te100  1  0.50491189  0.50282875  0.83231784  1
  Te2-  Te101  1  0.48627962  0.83972007  0.17596011  1
  Te2-  Te102  1  0.49282049  0.83157808  0.48636013  1
  Te2-  Te103  1  0.50995700  0.83086651  0.83647285  1
  Te2-  Te104  1  0.82181339  0.16071322  0.18135523  1
  Te2-  Te105  1  0.82106764  0.17378863  0.49466604  1
  Te2-  Te106  1  0.83402284  0.16387932  0.82693490  1
  Te2-  Te107  1  0.83385467  0.49324438  0.17027625  1
  Te2-  Te108  1  0.83366955  0.50554327  0.50033250  1
  Te2-  Te109  1  0.83246135  0.50241895  0.83250250  1
  Te2-  Te110  1  0.83812654  0.83882200  0.17654909  1
  Te2-  Te111  1  0.82970349  0.82652362  0.48932787  1
  Te2-  Te112  1  0.82377855  0.83045556  0.83227436  1
  Te2-  Te113  1  0.16597609  -0.00405960  -0.00028461  1
  Te2-  Te114  1  0.16461308  0.01684898  0.32805088  1
  Te2-  Te115  1  0.16508078  -0.00055715  0.66391671  1
  Te2-  Te116  1  0.16518754  0.33789986  0.00508364  1
  Te2-  Te117  1  0.16721193  0.32818452  0.34085974  1
  Te2-  Te118  1  0.15480585  0.33954688  0.66407870  1
  Te2-  Te119  1  0.16616107  0.66722029  -0.00391773  1
  Te2-  Te120  1  0.16723216  0.65634152  0.33277976  1
  Te2-  Te121  1  0.16163237  0.66171697  0.66738570  1
  Te2-  Te122  1  0.49904948  0.00159577  -0.00113883  1
  Te2-  Te123  1  0.49948582  0.00460408  0.34078807  1
  Te2-  Te124  1  0.50145532  0.00088926  0.66064164  1
  Te2-  Te125  1  0.49613320  0.33391801  -0.00218828  1
  Te2-  Te126  1  0.49819647  0.34049449  0.35090379  1
  Te2-  Te127  1  0.49949973  0.33747561  0.65213869  1
  Te2-  Te128  1  0.49844776  0.66258325  -0.00469902  1
  Te2-  Te129  1  0.50905998  0.66123388  0.33303000  1
  Te2-  Te130  1  0.50326589  0.66573419  0.67875920  1
  Te2-  Te131  1  0.82982573  0.01020163  -0.00024982  1
  Te2-  Te132  1  0.83859052  -0.00511143  0.33634322  1
  Te2-  Te133  1  0.83267768  0.00121062  0.66423798  1
  Te2-  Te134  1  0.83565402  0.32049886  0.00562911  1
  Te2-  Te135  1  0.84085087  0.34324059  0.33520120  1
  Te2-  Te136  1  0.84408889  0.34035142  0.66131288  1
  Te2-  Te137  1  0.83348835  0.66957717  0.00566162  1
  Te2-  Te138  1  0.82881036  0.66855645  0.32140633  1
  Te2-  Te139  1  0.83011741  0.66718554  0.66856586  1
  Te2-  Te140  1  -0.00441780  0.16066574  0.00396701  1
  Te2-  Te141  1  -0.00961654  0.16042094  0.33143407  1
  Te2-  Te142  1  0.01455180  0.16398537  0.66633867  1
  Te2-  Te143  1  0.00266859  0.50460938  0.00267018  1
  Te2-  Te144  1  -0.00244992  0.51253406  0.33318816  1
  Te2-  Te145  1  -0.00327198  0.50621557  0.66552066  1
  Te2-  Te146  1  0.00019049  0.83274138  -0.00051802  1
  Te2-  Te147  1  0.01882793  0.83549129  0.34759819  1
  Te2-  Te148  1  -0.00289973  0.83476885  0.65230613  1
  Te2-  Te149  1  0.33565353  0.16233600  -0.00056281  1
  Te2-  Te150  1  0.34008800  0.17141554  0.33862938  1
  Te2-  Te151  1  0.32044294  0.15772002  0.65828813  1
  Te2-  Te152  1  0.33354621  0.50197691  0.00055783  1
  Te2-  Te153  1  0.33334982  0.49847143  0.33471841  1
  Te2-  Te154  1  0.33385650  0.50548155  0.66763999  1
  Te2-  Te155  1  0.33527124  0.83188332  -0.00857790  1
  Te2-  Te156  1  0.31658272  0.83550881  0.32826705  1
  Te2-  Te157  1  0.33481553  0.84388138  0.67948604  1
  Te2-  Te158  1  0.66117439  0.16134518  0.01258571  1
  Te2-  Te159  1  0.66419733  0.16741682  0.33112388  1
  Te2-  Te160  1  0.66643683  0.16173084  0.66297330  1
  Te2-  Te161  1  0.66592036  0.50039295  -0.00344393  1
  Te2-  Te162  1  0.67133316  0.51494950  0.32962227  1
  Te2-  Te163  1  0.66883910  0.50370185  0.66928108  1
  Te2-  Te164  1  0.66916074  0.83416599  -0.00461313  1
  Te2-  Te165  1  0.66529490  0.82362788  0.33458461  1
  Te2-  Te166  1  0.66617197  0.83413391  0.67056842  1
  Te2-  Te167  1  0.00311533  -0.01103119  0.16859047  1
  Te2-  Te168  1  -0.00343169  -0.00763619  0.50232679  1
  Te2-  Te169  1  -0.00327657  -0.01432217  0.82824110  1
  Te2-  Te170  1  0.00374179  0.33129731  0.17762746  1
  Te2-  Te171  1  -0.00553295  0.33336100  0.48470091  1
  Te2-  Te172  1  0.00469664  0.33195552  0.84471169  1
  Te2-  Te173  1  0.00074500  0.67778301  0.16277742  1
  Te2-  Te174  1  0.00060012  0.67782607  0.50662202  1
  Te2-  Te175  1  -0.00513607  0.68294022  0.83484143  1
  Te2-  Te176  1  0.32909469  -0.00155231  0.15728782  1
  Te2-  Te177  1  0.33516234  0.00637948  0.50314163  1
  Te2-  Te178  1  0.33804956  0.00398077  0.83647122  1
  Te2-  Te179  1  0.32988530  0.33248926  0.16941668  1
  Te2-  Te180  1  0.32846331  0.32392386  0.49603779  1
  Te2-  Te181  1  0.32868417  0.32802968  0.83057703  1
  Te2-  Te182  1  0.34466532  0.67071958  0.16222466  1
  Te2-  Te183  1  0.34522351  0.67602363  0.50453507  1
  Te2-  Te184  1  0.33384822  0.67318903  0.83533141  1
  Te2-  Te185  1  0.66730265  -0.01703178  0.16265110  1
  Te2-  Te186  1  0.66513060  -0.01091699  0.50424955  1
  Te2-  Te187  1  0.66639503  -0.00260686  0.83216825  1
  Te2-  Te188  1  0.66210085  0.34003120  0.17710766  1
  Te2-  Te189  1  0.66958663  0.33702747  0.49504363  1
  Te2-  Te190  1  0.66921451  0.33256534  0.83256014  1
  Te2-  Te191  1  0.65666198  0.68170587  0.15391854  1
  Te2-  Te192  1  0.66003131  0.68352785  0.50465775  1
  Te2-  Te193  1  0.67208372  0.66360098  0.83858176  1
  Pb2+  Pb194  1  0.33361303  0.49887728  0.50134092  1
  Pb2+  Pb195  1  0.84026027  0.32993603  0.83423489  1
  Pb2+  Pb196  1  0.67231157  0.33047563  0.66215399  1
  Pb2+  Pb197  1  0.66373674  0.16228402  0.84176509  1
  Pb2+  Pb198  1  -0.01000798  0.16140730  0.49971971  1
  Pb2+  Pb199  1  0.33203589  0.00021856  0.33280703  1
  Pb2+  Pb200  1  0.49224299  0.16881664  0.65985184  1
  Pb2+  Pb201  1  0.66257061  0.50650605  0.49732855  1
  Pb2+  Pb202  1  0.00265464  0.51110783  0.83160541  1
  Pb2+  Pb203  1  0.33415976  0.49930891  0.83382995  1
  Pb2+  Pb204  1  0.16959904  0.66924094  0.16492976  1
  Pb2+  Pb205  1  0.49868676  0.83234844  0.66020345  1
  Pb2+  Pb206  1  0.32443207  0.33093151  0.66273741  1
  Pb2+  Pb207  1  0.00562194  0.16259740  0.83388681  1
  Pb2+  Pb208  1  0.33985905  0.50058134  0.16780210  1
  Pb2+  Pb209  1  0.83421867  0.49872014  0.00644162  1
  Pb2+  Pb210  1  0.33737793  0.16551776  0.16831573  1
  Pb2+  Pb211  1  0.16741226  0.00212989  0.83091586  1
  Pb2+  Pb212  1  0.66515710  0.32895294  0.01102864  1
  Pb2+  Pb213  1  0.67043036  -0.00420970  0.32961050  1
  Pb2+  Pb214  1  0.49793031  0.33376573  0.82800412  1
  Pb2+  Pb215  1  0.33689172  0.66972477  0.33550756  1
