# generated using pymatgen
data_In22Ag21Sn22Bi21(Te54Pb11)2
_symmetry_space_group_name_H-M   'P 1'
_cell_length_a   19.17822910
_cell_length_b   19.15902485
_cell_length_c   19.16627083
_cell_angle_alpha   89.99527128
_cell_angle_beta   90.02546293
_cell_angle_gamma   90.02416235
_symmetry_Int_Tables_number   1
_chemical_formula_structural   In22Ag21Sn22Bi21(Te54Pb11)2
_chemical_formula_sum   'In22 Ag21 Sn22 Bi21 Te108 Pb22'
_cell_volume   7042.37976364
_cell_formula_units_Z   1
loop_
 _symmetry_equiv_pos_site_id
 _symmetry_equiv_pos_as_xyz
  1  'x, y, z'
loop_
 _atom_type_symbol
 _atom_type_oxidation_number
  In3+  3.0
  Ag+  1.0
  Sn2+  2.0
  Bi3+  3.0
  Te2-  -2.0
  Pb2+  2.0
loop_
 _atom_site_type_symbol
 _atom_site_label
 _atom_site_symmetry_multiplicity
 _atom_site_fract_x
 _atom_site_fract_y
 _atom_site_fract_z
 _atom_site_occupancy
  In3+  In0  1  0.01390956  0.66008665  0.33019360  1
  In3+  In1  1  0.84726542  0.66862696  0.49640732  1
  In3+  In2  1  0.63585124  0.67272893  -0.00091491  1
  In3+  In3  1  0.17833358  0.65151681  0.16145684  1
  In3+  In4  1  0.33814311  0.17816849  0.51235232  1
  In3+  In5  1  0.66249409  0.01280565  0.00643954  1
  In3+  In6  1  0.85264360  0.00593049  0.83376898  1
  In3+  In7  1  0.32733119  0.16782444  0.84608677  1
  In3+  In8  1  0.00164868  0.16496912  0.15714274  1
  In3+  In9  1  0.16550762  0.32060519  0.83075306  1
  In3+  In10  1  0.49060920  0.17421671  0.69525394  1
  In3+  In11  1  0.33665994  0.82615747  0.49339850  1
  In3+  In12  1  0.64911214  0.00562779  0.33316801  1
  In3+  In13  1  0.81989988  0.83037103  -0.00214471  1
  In3+  In14  1  0.15741556  0.46965802  0.68023123  1
  In3+  In15  1  0.18030281  0.00603329  0.16028736  1
  In3+  In16  1  0.67881012  -0.00027458  0.69221344  1
  In3+  In17  1  0.49136474  0.14972241  0.31689410  1
  In3+  In18  1  0.32643658  0.66448628  0.67734286  1
  In3+  In19  1  0.15907396  0.16501302  0.33310564  1
  In3+  In20  1  0.49528308  0.66529433  0.51642158  1
  In3+  In21  1  0.01840664  -0.00213296  -0.00624419  1
  Ag+  Ag22  1  0.15209677  0.16768107  0.69531571  1
  Ag+  Ag23  1  0.86669509  0.30379170  0.80999673  1
  Ag+  Ag24  1  0.47465323  0.68534261  0.83557416  1
  Ag+  Ag25  1  0.47834276  0.14205117  0.00875709  1
  Ag+  Ag26  1  0.31641664  0.69316771  0.33422933  1
  Ag+  Ag27  1  0.30843562  0.02915916  0.35369877  1
  Ag+  Ag28  1  0.01936196  0.47078399  0.85861507  1
  Ag+  Ag29  1  0.51711539  0.30766748  0.47323356  1
  Ag+  Ag30  1  0.85797829  0.36133535  0.19595001  1
  Ag+  Ag31  1  0.31169095  0.30721777  0.00068736  1
  Ag+  Ag32  1  0.86840851  0.47418500  0.36752315  1
  Ag+  Ag33  1  0.47975420  -0.00300153  0.18339562  1
  Ag+  Ag34  1  0.69135727  0.29755917  0.65565719  1
  Ag+  Ag35  1  -0.02787618  0.37098154  0.63872965  1
  Ag+  Ag36  1  0.85551364  0.83342238  0.69656619  1
  Ag+  Ag37  1  0.15130782  -0.02054887  0.80538809  1
  Ag+  Ag38  1  0.49580959  0.84723765  0.01579299  1
  Ag+  Ag39  1  -0.03312465  0.47455854  0.53070638  1
  Ag+  Ag40  1  0.03425095  0.02708076  0.64761600  1
  Ag+  Ag41  1  0.18083987  0.16893465  0.00134058  1
  Ag+  Ag42  1  0.32721877  0.67069328  -0.01864221  1
  Sn2+  Sn43  1  0.83470154  0.16292441  0.32970726  1
  Sn2+  Sn44  1  0.33558854  0.84164442  0.83509817  1
  Sn2+  Sn45  1  0.48704357  0.67612949  0.15704923  1
  Sn2+  Sn46  1  0.66008025  0.49238248  0.49925503  1
  Sn2+  Sn47  1  0.33361711  0.16971714  0.16102345  1
  Sn2+  Sn48  1  0.33978539  -0.01126624  0.00109368  1
  Sn2+  Sn49  1  0.33554921  0.33102201  0.32627570  1
  Sn2+  Sn50  1  0.33216530  0.83652384  0.16178662  1
  Sn2+  Sn51  1  -0.00109758  0.82912438  0.82920293  1
  Sn2+  Sn52  1  0.50371142  0.49544812  0.66973440  1
  Sn2+  Sn53  1  -0.00113641  0.67239838  0.66398947  1
  Sn2+  Sn54  1  0.65684938  0.83167213  0.16078570  1
  Sn2+  Sn55  1  0.66981073  0.34072865  -0.01055536  1
  Sn2+  Sn56  1  0.66243206  0.83202641  0.83009512  1
  Sn2+  Sn57  1  0.49645835  0.82428260  0.32571855  1
  Sn2+  Sn58  1  0.17542211  0.33743198  0.49817418  1
  Sn2+  Sn59  1  0.16508804  0.32634658  0.15359884  1
  Sn2+  Sn60  1  -0.00106077  -0.00557322  0.33794249  1
  Sn2+  Sn61  1  0.17585118  0.83480808  0.32999862  1
  Sn2+  Sn62  1  0.49521941  0.00317537  0.50107030  1
  Sn2+  Sn63  1  0.17635132  0.49445654  -0.00341426  1
  Sn2+  Sn64  1  0.00109817  0.67205583  0.00127460  1
  Bi3+  Bi65  1  0.33347298  0.49793594  0.49958640  1
  Bi3+  Bi66  1  0.50443123  0.50260237  0.33571514  1
  Bi3+  Bi67  1  0.17253449  0.49488021  0.33529528  1
  Bi3+  Bi68  1  0.66556687  0.49724886  0.16461577  1
  Bi3+  Bi69  1  0.50098221  0.33906843  0.83580308  1
  Bi3+  Bi70  1  0.49785377  0.50127755  -0.00042375  1
  Bi3+  Bi71  1  0.49498465  0.83656615  0.66780833  1
  Bi3+  Bi72  1  0.83337176  0.00337469  0.16131471  1
  Bi3+  Bi73  1  0.00530589  0.16380913  0.83259598  1
  Bi3+  Bi74  1  0.33932149  -0.00002130  0.66210143  1
  Bi3+  Bi75  1  0.83676684  0.49660143  -0.00380666  1
  Bi3+  Bi76  1  0.66983923  0.16689204  0.16745944  1
  Bi3+  Bi77  1  0.66384011  0.66987683  0.33051915  1
  Bi3+  Bi78  1  0.00118283  0.83190076  0.49864125  1
  Bi3+  Bi79  1  0.67051331  0.50090728  0.83232420  1
  Bi3+  Bi80  1  0.83407179  0.83260141  0.32967212  1
  Bi3+  Bi81  1  0.82965123  0.16821742  0.00026119  1
  Bi3+  Bi82  1  0.49310684  -0.00272613  0.83280716  1
  Bi3+  Bi83  1  0.00540512  0.33209274  0.33591992  1
  Bi3+  Bi84  1  -0.00075401  0.84055199  0.16588041  1
  Bi3+  Bi85  1  0.83171267  0.66960000  0.83243203  1
  Te2-  Te86  1  0.15921543  0.16282750  0.16269119  1
  Te2-  Te87  1  0.18159540  0.17166365  0.48649640  1
  Te2-  Te88  1  0.17138691  0.16772113  0.84523299  1
  Te2-  Te89  1  0.16645481  0.49730310  0.16891912  1
  Te2-  Te90  1  0.17112019  0.49648502  0.49734003  1
  Te2-  Te91  1  0.16222986  0.49663590  0.83128458  1
  Te2-  Te92  1  0.16063125  0.84789660  0.17020431  1
  Te2-  Te93  1  0.16671101  0.83311662  0.49332041  1
  Te2-  Te94  1  0.16813825  0.83852415  0.83738796  1
  Te2-  Te95  1  0.50567929  0.14955619  0.16049169  1
  Te2-  Te96  1  0.48819142  0.16437578  0.48367186  1
  Te2-  Te97  1  0.49204548  0.16599905  0.85286183  1
  Te2-  Te98  1  0.50358059  0.50258421  0.16553581  1
  Te2-  Te99  1  0.49445408  0.50499608  0.50168509  1
  Te2-  Te100  1  0.50352758  0.50308335  0.83547322  1
  Te2-  Te101  1  0.49963510  0.84430844  0.16170299  1
  Te2-  Te102  1  0.49282375  0.82898988  0.50129469  1
  Te2-  Te103  1  0.49715180  0.83183868  0.82925882  1
  Te2-  Te104  1  0.83509840  0.16633616  0.16417708  1
  Te2-  Te105  1  0.83319857  0.16397012  0.49885177  1
  Te2-  Te106  1  0.83225711  0.16240424  0.83551707  1
  Te2-  Te107  1  0.82940777  0.49956642  0.16011069  1
  Te2-  Te108  1  0.82932970  0.51292035  0.50174790  1
  Te2-  Te109  1  0.83397915  0.50608383  0.83595841  1
  Te2-  Te110  1  0.83402516  0.83673805  0.16077693  1
  Te2-  Te111  1  0.83642503  0.82687868  0.49250881  1
  Te2-  Te112  1  0.83046706  0.83679736  0.84264243  1
  Te2-  Te113  1  0.16926986  0.01329799  0.00692625  1
  Te2-  Te114  1  0.16714175  0.00851154  0.32431404  1
  Te2-  Te115  1  0.17820374  0.01412362  0.66605819  1
  Te2-  Te116  1  0.16610954  0.32651224  -0.00292584  1
  Te2-  Te117  1  0.16814263  0.33045586  0.32644369  1
  Te2-  Te118  1  0.16967288  0.31958922  0.67034174  1
  Te2-  Te119  1  0.17407125  0.66687536  0.00851849  1
  Te2-  Te120  1  0.17057868  0.66149146  0.32585441  1
  Te2-  Te121  1  0.17314356  0.67181208  0.66714460  1
  Te2-  Te122  1  0.50812033  -0.00502661  -0.00698266  1
  Te2-  Te123  1  0.49820352  -0.00338071  0.32944286  1
  Te2-  Te124  1  0.50109354  0.00352744  0.66812788  1
  Te2-  Te125  1  0.50617829  0.34058178  -0.00319955  1
  Te2-  Te126  1  0.50031831  0.34095365  0.33178601  1
  Te2-  Te127  1  0.49886889  0.32658230  0.67433441  1
  Te2-  Te128  1  0.48490009  0.66352167  -0.00914521  1
  Te2-  Te129  1  0.50407162  0.66449063  0.32425973  1
  Te2-  Te130  1  0.48820274  0.67094856  0.67487360  1
  Te2-  Te131  1  0.82356455  -0.00004614  -0.00345926  1
  Te2-  Te132  1  0.83763490  -0.00253611  0.32798467  1
  Te2-  Te133  1  0.83099921  -0.01459179  0.68029111  1
  Te2-  Te134  1  0.83058177  0.33328372  -0.00852003  1
  Te2-  Te135  1  0.83860378  0.33302224  0.33764536  1
  Te2-  Te136  1  0.83360218  0.33562712  0.67073691  1
  Te2-  Te137  1  0.84102040  0.66913476  -0.00170273  1
  Te2-  Te138  1  0.82512619  0.67134361  0.33816763  1
  Te2-  Te139  1  0.83093759  0.68330074  0.66792222  1
  Te2-  Te140  1  -0.00801396  0.15734074  -0.00311807  1
  Te2-  Te141  1  0.00352816  0.16641841  0.33404480  1
  Te2-  Te142  1  0.00665361  0.16791711  0.67313047  1
  Te2-  Te143  1  0.00261329  0.50135811  0.00111804  1
  Te2-  Te144  1  0.00794259  0.49980360  0.33537872  1
  Te2-  Te145  1  0.01176723  0.51116986  0.66736911  1
  Te2-  Te146  1  0.00174079  0.84395168  0.00298018  1
  Te2-  Te147  1  -0.00115121  0.82997271  0.33186595  1
  Te2-  Te148  1  -0.00140653  0.83144153  0.66210598  1
  Te2-  Te149  1  0.33299757  0.16004265  0.00046096  1
  Te2-  Te150  1  0.33880981  0.16771520  0.31927196  1
  Te2-  Te151  1  0.33742668  0.16344171  0.66413422  1
  Te2-  Te152  1  0.33260733  0.51472555  -0.00033576  1
  Te2-  Te153  1  0.33727907  0.49593492  0.33595252  1
  Te2-  Te154  1  0.32953233  0.50658450  0.66211886  1
  Te2-  Te155  1  0.34515976  0.82607236  -0.00214319  1
  Te2-  Te156  1  0.33515177  0.83919561  0.33738010  1
  Te2-  Te157  1  0.33331684  0.83507195  0.66072797  1
  Te2-  Te158  1  0.66809895  0.17074851  0.00422192  1
  Te2-  Te159  1  0.66524517  0.16527113  0.32935370  1
  Te2-  Te160  1  0.66485034  0.15316922  0.66777039  1
  Te2-  Te161  1  0.66858274  0.50824381  -0.00066811  1
  Te2-  Te162  1  0.66790367  0.50474015  0.32983237  1
  Te2-  Te163  1  0.66244991  0.50853353  0.66813081  1
  Te2-  Te164  1  0.65840943  0.82520000  -0.00135893  1
  Te2-  Te165  1  0.66843978  0.83516250  0.32614235  1
  Te2-  Te166  1  0.65688822  0.84537684  0.66271199  1
  Te2-  Te167  1  -0.00556887  0.00427444  0.16747141  1
  Te2-  Te168  1  -0.00106970  -0.00371368  0.50679520  1
  Te2-  Te169  1  0.00736682  -0.00168367  0.83517245  1
  Te2-  Te170  1  -0.00202140  0.32500701  0.17051779  1
  Te2-  Te171  1  0.00481971  0.33330466  0.49779834  1
  Te2-  Te172  1  0.01029117  0.32792450  0.82948099  1
  Te2-  Te173  1  0.00579005  0.67652411  0.16733774  1
  Te2-  Te174  1  0.00197508  0.66980868  0.49365209  1
  Te2-  Te175  1  -0.00578113  0.67270385  0.83367837  1
  Te2-  Te176  1  0.33444952  -0.00367856  0.16037099  1
  Te2-  Te177  1  0.33534356  -0.00123161  0.49538016  1
  Te2-  Te178  1  0.33248168  0.00684635  0.82973611  1
  Te2-  Te179  1  0.33200370  0.33060819  0.15233057  1
  Te2-  Te180  1  0.34012121  0.33195903  0.49992093  1
  Te2-  Te181  1  0.33321100  0.32658270  0.84720205  1
  Te2-  Te182  1  0.32912592  0.67371144  0.18225216  1
  Te2-  Te183  1  0.33975991  0.66789593  0.48483447  1
  Te2-  Te184  1  0.32887404  0.67050341  0.83092099  1
  Te2-  Te185  1  0.67219327  0.00123333  0.16527528  1
  Te2-  Te186  1  0.66437609  -0.00148063  0.48650949  1
  Te2-  Te187  1  0.65741785  0.00015286  0.84454489  1
  Te2-  Te188  1  0.66769971  0.33254031  0.16431502  1
  Te2-  Te189  1  0.65675385  0.33382056  0.51368941  1
  Te2-  Te190  1  0.66238464  0.34000680  0.82208946  1
  Te2-  Te191  1  0.66159731  0.66434367  0.16140094  1
  Te2-  Te192  1  0.65085426  0.66367429  0.49623154  1
  Te2-  Te193  1  0.67001878  0.66627609  0.84034022  1
  Pb2+  Pb194  1  0.66262715  0.67532688  0.66917327  1
  Pb2+  Pb195  1  0.17568622  0.83863917  0.00339619  1
  Pb2+  Pb196  1  0.16380224  0.83979717  0.66689401  1
  Pb2+  Pb197  1  0.33493211  0.33491702  0.67309291  1
  Pb2+  Pb198  1  0.83061728  -0.00369800  0.50597363  1
  Pb2+  Pb199  1  0.49996867  0.32242498  0.16232141  1
  Pb2+  Pb200  1  0.33303917  0.49682984  0.83479237  1
  Pb2+  Pb201  1  0.66785182  0.33654000  0.33347160  1
  Pb2+  Pb202  1  0.65974036  0.17490217  0.83478678  1
  Pb2+  Pb203  1  0.82524975  0.33530263  0.50641855  1
  Pb2+  Pb204  1  0.83204430  0.66661110  0.16848517  1
  Pb2+  Pb205  1  0.65989612  0.16527800  0.50085974  1
  Pb2+  Pb206  1  0.16870206  0.00287626  0.49726708  1
  Pb2+  Pb207  1  0.66359238  0.83042113  0.49398455  1
  Pb2+  Pb208  1  0.84090115  0.16097273  0.66613827  1
  Pb2+  Pb209  1  0.00775363  0.16751618  0.50496344  1
  Pb2+  Pb210  1  -0.00332711  0.32897285  -0.00332754  1
  Pb2+  Pb211  1  0.16057959  0.66767339  0.83658762  1
  Pb2+  Pb212  1  0.83360280  0.51034962  0.67024543  1
  Pb2+  Pb213  1  -0.00312920  0.50203557  0.16841482  1
  Pb2+  Pb214  1  0.17195669  0.66315281  0.50131845  1
  Pb2+  Pb215  1  0.33606067  0.50018046  0.16535859  1
