# generated using pymatgen
data_In22Ag21Sn22Bi21(Te54Pb11)2
_symmetry_space_group_name_H-M   'P 1'
_cell_length_a   19.15461699
_cell_length_b   19.15667622
_cell_length_c   19.15403094
_cell_angle_alpha   90.00186478
_cell_angle_beta   90.00405367
_cell_angle_gamma   89.99901117
_symmetry_Int_Tables_number   1
_chemical_formula_structural   In22Ag21Sn22Bi21(Te54Pb11)2
_chemical_formula_sum   'In22 Ag21 Sn22 Bi21 Te108 Pb22'
_cell_volume   7028.35702400
_cell_formula_units_Z   1
loop_
 _symmetry_equiv_pos_site_id
 _symmetry_equiv_pos_as_xyz
  1  'x, y, z'
loop_
 _atom_type_symbol
 _atom_type_oxidation_number
  In3+  3.0
  Ag+  1.0
  Sn2+  2.0
  Bi3+  3.0
  Te2-  -2.0
  Pb2+  2.0
loop_
 _atom_site_type_symbol
 _atom_site_label
 _atom_site_symmetry_multiplicity
 _atom_site_fract_x
 _atom_site_fract_y
 _atom_site_fract_z
 _atom_site_occupancy
  In3+  In0  1  0.66901999  0.82420065  0.80261734  1
  In3+  In1  1  0.15621619  0.16697196  0.66695262  1
  In3+  In2  1  0.50277641  0.32206117  0.51082629  1
  In3+  In3  1  0.65673499  0.50660061  0.50623306  1
  In3+  In4  1  0.16619575  0.83442290  -0.02645723  1
  In3+  In5  1  0.83754507  0.35630064  0.16244349  1
  In3+  In6  1  0.84172825  0.50146414  0.66856198  1
  In3+  In7  1  0.16631830  0.50920710  0.35899703  1
  In3+  In8  1  0.82086899  0.16690496  0.01036618  1
  In3+  In9  1  0.17909261  0.65551001  0.83019496  1
  In3+  In10  1  0.83020726  0.51901849  0.00629374  1
  In3+  In11  1  0.32371228  0.84570890  0.82608215  1
  In3+  In12  1  -0.00186326  0.82440028  0.18410155  1
  In3+  In13  1  0.84721345  0.01332278  0.81994707  1
  In3+  In14  1  0.52240341  0.68230320  0.50960966  1
  In3+  In15  1  0.32894247  0.33301020  0.66661182  1
  In3+  In16  1  0.33266060  0.16738538  0.82536946  1
  In3+  In17  1  0.82099950  0.49818254  0.35564093  1
  In3+  In18  1  0.68009592  0.33011517  0.66367476  1
  In3+  In19  1  0.16760844  -0.00061416  0.18505481  1
  In3+  In20  1  0.67360278  0.33198822  0.00745216  1
  In3+  In21  1  0.16359978  -0.00158282  0.82760395  1
  Ag+  Ag22  1  0.80390019  -0.03556236  0.47548465  1
  Ag+  Ag23  1  0.14511233  -0.01007957  0.48972191  1
  Ag+  Ag24  1  0.51791912  -0.02580296  0.53242256  1
  Ag+  Ag25  1  0.68459361  0.68845640  0.65860626  1
  Ag+  Ag26  1  0.84955664  0.67788906  0.19124940  1
  Ag+  Ag27  1  0.19266905  0.52769113  0.65803380  1
  Ag+  Ag28  1  0.16549855  0.81626660  0.66807706  1
  Ag+  Ag29  1  0.30202236  0.52705137  0.14778668  1
  Ag+  Ag30  1  0.16803455  0.13755472  -0.02330109  1
  Ag+  Ag31  1  0.47309825  0.69624417  0.80125069  1
  Ag+  Ag32  1  0.31301103  -0.01748232  0.66417040  1
  Ag+  Ag33  1  0.85408683  0.67347977  0.47706407  1
  Ag+  Ag34  1  -0.01966910  0.33196478  0.65266248  1
  Ag+  Ag35  1  0.69693535  0.85783587  0.49398565  1
  Ag+  Ag36  1  0.33201492  0.68879751  -0.02283320  1
  Ag+  Ag37  1  0.69801818  0.14793497  0.50948823  1
  Ag+  Ag38  1  0.67319540  0.51152463  0.19407136  1
  Ag+  Ag39  1  0.31163932  0.35785158  -0.00185269  1
  Ag+  Ag40  1  -0.00891184  0.81808844  0.52542633  1
  Ag+  Ag41  1  0.82554693  0.86022439  0.36799797  1
  Ag+  Ag42  1  0.80858764  0.13337525  0.63224789  1
  Sn2+  Sn43  1  0.16879095  0.33434428  0.16339503  1
  Sn2+  Sn44  1  0.32869160  0.33478388  0.31444656  1
  Sn2+  Sn45  1  0.16438382  0.68007242  0.50634400  1
  Sn2+  Sn46  1  0.33938458  0.49989933  0.49277475  1
  Sn2+  Sn47  1  0.00599316  0.66760092  -0.00021107  1
  Sn2+  Sn48  1  -0.00015452  0.33715968  0.34715819  1
  Sn2+  Sn49  1  0.83272869  0.16879325  0.33657833  1
  Sn2+  Sn50  1  0.67073300  0.67381912  0.33928959  1
  Sn2+  Sn51  1  -0.00764745  0.82805435  0.82436387  1
  Sn2+  Sn52  1  0.66279082  -0.00130048  0.66940250  1
  Sn2+  Sn53  1  0.49402519  0.50216420  0.32666476  1
  Sn2+  Sn54  1  0.84348848  0.82832462  0.66442572  1
  Sn2+  Sn55  1  -0.00354874  -0.00024800  0.34201870  1
  Sn2+  Sn56  1  0.47802944  0.16990042  -0.00074729  1
  Sn2+  Sn57  1  0.00329911  0.17171850  0.82908752  1
  Sn2+  Sn58  1  -0.00365524  0.49690117  0.16696041  1
  Sn2+  Sn59  1  0.00519780  0.32676808  -0.00053355  1
  Sn2+  Sn60  1  0.17562125  0.32726944  0.50384836  1
  Sn2+  Sn61  1  -0.00642069  0.66026098  0.66794049  1
  Sn2+  Sn62  1  0.83450567  0.33103445  0.83249146  1
  Sn2+  Sn63  1  0.33943984  0.00273973  -0.00624145  1
  Sn2+  Sn64  1  0.67370454  -0.00810974  -0.00133999  1
  Bi3+  Bi65  1  0.49768883  0.50008827  0.00343859  1
  Bi3+  Bi66  1  0.49950222  0.00100809  0.16598075  1
  Bi3+  Bi67  1  0.33281404  0.16492640  0.16270310  1
  Bi3+  Bi68  1  0.00339260  0.16818962  0.16052503  1
  Bi3+  Bi69  1  0.32439380  0.83903741  0.50369604  1
  Bi3+  Bi70  1  0.00422688  0.16714507  0.50103600  1
  Bi3+  Bi71  1  0.50248133  -0.00020249  0.83597698  1
  Bi3+  Bi72  1  0.66648412  0.49925253  0.82859822  1
  Bi3+  Bi73  1  0.33272926  0.66262085  0.33335217  1
  Bi3+  Bi74  1  0.16533778  0.17215875  0.33578015  1
  Bi3+  Bi75  1  0.50466938  0.66287677  0.16821429  1
  Bi3+  Bi76  1  0.49982616  0.16907314  0.33194499  1
  Bi3+  Bi77  1  0.49869546  0.49828821  0.66425034  1
  Bi3+  Bi78  1  0.16777186  0.33206556  0.83262357  1
  Bi3+  Bi79  1  0.83052971  0.66657513  0.82798444  1
  Bi3+  Bi80  1  0.33312608  0.16474331  0.50727573  1
  Bi3+  Bi81  1  0.83906522  0.83537935  -0.00328167  1
  Bi3+  Bi82  1  0.15915157  0.83247569  0.34010071  1
  Bi3+  Bi83  1  0.50043371  0.33438018  0.83676720  1
  Bi3+  Bi84  1  -0.00241278  0.49787264  0.83327138  1
  Bi3+  Bi85  1  0.50249004  0.33542682  0.16600875  1
  Te2-  Te86  1  0.16917806  0.16560959  0.17332961  1
  Te2-  Te87  1  0.16955824  0.15944621  0.49902393  1
  Te2-  Te88  1  0.17245818  0.16886544  0.83208142  1
  Te2-  Te89  1  0.15922037  0.49680696  0.16005259  1
  Te2-  Te90  1  0.16995843  0.50034748  0.51144275  1
  Te2-  Te91  1  0.16408530  0.50043476  0.81991397  1
  Te2-  Te92  1  0.15503057  0.83504239  0.17503316  1
  Te2-  Te93  1  0.16278628  0.84220510  0.50126780  1
  Te2-  Te94  1  0.16741367  0.83379022  0.82099698  1
  Te2-  Te95  1  0.50044764  0.16681393  0.16670795  1
  Te2-  Te96  1  0.49407342  0.16925974  0.49310244  1
  Te2-  Te97  1  0.49918234  0.16746835  0.83645917  1
  Te2-  Te98  1  0.51327261  0.49649339  0.16592939  1
  Te2-  Te99  1  0.49948344  0.49739880  0.49932492  1
  Te2-  Te100  1  0.50389279  0.49778712  0.83529748  1
  Te2-  Te101  1  0.50057977  0.83523026  0.16834384  1
  Te2-  Te102  1  0.49011736  0.83361547  0.49932163  1
  Te2-  Te103  1  0.50749405  0.83411214  0.83483993  1
  Te2-  Te104  1  0.84038201  0.16144265  0.16651611  1
  Te2-  Te105  1  0.84234326  0.16941483  0.49503796  1
  Te2-  Te106  1  0.83841108  0.16301708  0.84338504  1
  Te2-  Te107  1  0.82269953  0.50464931  0.15787008  1
  Te2-  Te108  1  0.82992491  0.50408985  0.50875556  1
  Te2-  Te109  1  0.83008101  0.49915254  0.83372339  1
  Te2-  Te110  1  0.84384592  0.82304705  0.16171656  1
  Te2-  Te111  1  0.84425624  0.81999562  0.50865637  1
  Te2-  Te112  1  0.82707023  0.83266463  0.83363894  1
  Te2-  Te113  1  0.17108234  -0.01150680  -0.01545784  1
  Te2-  Te114  1  0.16601604  0.00043501  0.34130724  1
  Te2-  Te115  1  0.17025775  0.01519027  0.67764980  1
  Te2-  Te116  1  0.16517324  0.33652964  -0.00474433  1
  Te2-  Te117  1  0.16608404  0.33405990  0.33332924  1
  Te2-  Te118  1  0.17546149  0.32479590  0.67156715  1
  Te2-  Te119  1  0.17746460  0.67489164  -0.01052767  1
  Te2-  Te120  1  0.16536960  0.66539661  0.33302839  1
  Te2-  Te121  1  0.16158993  0.66854028  0.67430418  1
  Te2-  Te122  1  0.50464230  0.00203860  0.00226512  1
  Te2-  Te123  1  0.49824470  0.00317766  0.32839628  1
  Te2-  Te124  1  0.49845327  0.00185533  0.67520989  1
  Te2-  Te125  1  0.51308324  0.33429322  0.00025840  1
  Te2-  Te126  1  0.49570766  0.33408492  0.32872200  1
  Te2-  Te127  1  0.49057404  0.33619875  0.67211033  1
  Te2-  Te128  1  0.48855706  0.66229683  0.00535257  1
  Te2-  Te129  1  0.49814198  0.66247118  0.33565015  1
  Te2-  Te130  1  0.50206941  0.66065502  0.66201175  1
  Te2-  Te131  1  0.83408871  -0.00058932  -0.00279717  1
  Te2-  Te132  1  0.83406726  0.00637903  0.33663985  1
  Te2-  Te133  1  0.83242816  -0.00380443  0.67217484  1
  Te2-  Te134  1  0.83390720  0.32140407  0.00266658  1
  Te2-  Te135  1  0.83439153  0.34356059  0.32600385  1
  Te2-  Te136  1  0.83398031  0.33689290  0.67093673  1
  Te2-  Te137  1  0.83183896  0.67257055  -0.00787369  1
  Te2-  Te138  1  0.83028552  0.64872012  0.33348753  1
  Te2-  Te139  1  0.82987003  0.65836793  0.66853332  1
  Te2-  Te140  1  0.01954574  0.16544165  0.00125166  1
  Te2-  Te141  1  0.00391622  0.17090076  0.32994853  1
  Te2-  Te142  1  0.00190159  0.17955852  0.66664947  1
  Te2-  Te143  1  -0.01165249  0.49880191  -0.00312772  1
  Te2-  Te144  1  0.01043926  0.49666088  0.33258453  1
  Te2-  Te145  1  -0.00518070  0.48742088  0.67218400  1
  Te2-  Te146  1  0.00549423  0.82951692  -0.00878401  1
  Te2-  Te147  1  -0.00522490  0.83482243  0.33549767  1
  Te2-  Te148  1  0.01252834  0.83346331  0.66947700  1
  Te2-  Te149  1  0.31864318  0.15990789  0.00067327  1
  Te2-  Te150  1  0.33074443  0.16868512  0.33157100  1
  Te2-  Te151  1  0.33389865  0.17495260  0.66996339  1
  Te2-  Te152  1  0.33597027  0.50184378  0.00642012  1
  Te2-  Te153  1  0.32210007  0.49988674  0.32691887  1
  Te2-  Te154  1  0.33509151  0.49163764  0.66589848  1
  Te2-  Te155  1  0.32638145  0.83556854  -0.00975925  1
  Te2-  Te156  1  0.32513084  0.83024868  0.33542678  1
  Te2-  Te157  1  0.32116385  0.83411247  0.66991630  1
  Te2-  Te158  1  0.66962453  0.16696602  0.00096216  1
  Te2-  Te159  1  0.66312902  0.17042731  0.34670251  1
  Te2-  Te160  1  0.67128684  0.17481533  0.65831278  1
  Te2-  Te161  1  0.67175521  0.49276854  -0.00944313  1
  Te2-  Te162  1  0.66835921  0.50268168  0.34186931  1
  Te2-  Te163  1  0.66012325  0.48912473  0.66567103  1
  Te2-  Te164  1  0.67332591  0.83064267  0.00511319  1
  Te2-  Te165  1  0.67974152  0.82949952  0.34684703  1
  Te2-  Te166  1  0.66766493  0.83416527  0.65170499  1
  Te2-  Te167  1  0.00725202  0.00455119  0.17047016  1
  Te2-  Te168  1  0.00053658  0.00786199  0.49943982  1
  Te2-  Te169  1  0.00198666  0.00033039  0.83278264  1
  Te2-  Te170  1  -0.00520788  0.33058061  0.16753165  1
  Te2-  Te171  1  0.00519236  0.33173144  0.50635920  1
  Te2-  Te172  1  0.00407294  0.33583187  0.83417746  1
  Te2-  Te173  1  -0.00560109  0.66546549  0.16067485  1
  Te2-  Te174  1  0.00005397  0.67073985  0.50675134  1
  Te2-  Te175  1  -0.00413855  0.66022464  0.83461604  1
  Te2-  Te176  1  0.33391129  0.00074760  0.16495440  1
  Te2-  Te177  1  0.33559366  0.00176231  0.51497328  1
  Te2-  Te178  1  0.33784109  -0.00054276  0.82411267  1
  Te2-  Te179  1  0.33908966  0.32640956  0.15037554  1
  Te2-  Te180  1  0.33556816  0.33004271  0.49751795  1
  Te2-  Te181  1  0.33609625  0.32487296  0.84947637  1
  Te2-  Te182  1  0.33706940  0.66766481  0.17258057  1
  Te2-  Te183  1  0.32548418  0.66847354  0.49448409  1
  Te2-  Te184  1  0.33298285  0.66847694  0.83158355  1
  Te2-  Te185  1  0.66468189  -0.00023628  0.16761995  1
  Te2-  Te186  1  0.66100613  0.00480358  0.50999996  1
  Te2-  Te187  1  0.66399321  -0.00715767  0.83300783  1
  Te2-  Te188  1  0.66994241  0.33851662  0.16268789  1
  Te2-  Te189  1  0.65865289  0.34087748  0.50693607  1
  Te2-  Te190  1  0.66408626  0.33259843  0.82752380  1
  Te2-  Te191  1  0.66300332  0.65801753  0.16697077  1
  Te2-  Te192  1  0.66879747  0.65896279  0.50979687  1
  Te2-  Te193  1  0.66846189  0.66782733  0.81992614  1
  Pb2+  Pb194  1  0.83806185  -0.01033981  0.16851118  1
  Pb2+  Pb195  1  0.67454317  0.82389493  0.17410436  1
  Pb2+  Pb196  1  0.33350903  0.66384445  0.66087669  1
  Pb2+  Pb197  1  0.50575902  0.82962429  0.33539789  1
  Pb2+  Pb198  1  0.32524162  0.83239913  0.16152995  1
  Pb2+  Pb199  1  0.00244854  0.00387192  0.66305640  1
  Pb2+  Pb200  1  0.16256564  0.50332557  -0.00745563  1
  Pb2+  Pb201  1  0.66404181  0.33564352  0.33636056  1
  Pb2+  Pb202  1  -0.00396898  0.66635075  0.33596892  1
  Pb2+  Pb203  1  0.00065697  0.50388317  0.50408857  1
  Pb2+  Pb204  1  0.65853889  0.66166583  -0.00626056  1
  Pb2+  Pb205  1  0.00298295  -0.00066874  0.00338198  1
  Pb2+  Pb206  1  0.67277018  0.17150771  0.17455820  1
  Pb2+  Pb207  1  0.83086192  0.33508054  0.50095089  1
  Pb2+  Pb208  1  0.33520881  0.49498674  0.83945043  1
  Pb2+  Pb209  1  0.33386205  -0.00009921  0.35028950  1
  Pb2+  Pb210  1  0.67160113  0.16135502  0.82902887  1
  Pb2+  Pb211  1  0.66452073  0.00143117  0.34050730  1
  Pb2+  Pb212  1  0.49495390  0.83525838  0.66822378  1
  Pb2+  Pb213  1  0.16486754  0.66513476  0.16139073  1
  Pb2+  Pb214  1  0.50221324  0.82888159  0.00002626  1
  Pb2+  Pb215  1  0.50405484  0.16638757  0.66195761  1
