# generated using pymatgen
data_In22Ag21Sn22Bi21(Te54Pb11)2
_symmetry_space_group_name_H-M   'P 1'
_cell_length_a   19.13426130
_cell_length_b   19.13146607
_cell_length_c   19.15096687
_cell_angle_alpha   90.00366991
_cell_angle_beta   90.00235571
_cell_angle_gamma   89.99609819
_symmetry_Int_Tables_number   1
_chemical_formula_structural   In22Ag21Sn22Bi21(Te54Pb11)2
_chemical_formula_sum   'In22 Ag21 Sn22 Bi21 Te108 Pb22'
_cell_volume   7010.52681962
_cell_formula_units_Z   1
loop_
 _symmetry_equiv_pos_site_id
 _symmetry_equiv_pos_as_xyz
  1  'x, y, z'
loop_
 _atom_type_symbol
 _atom_type_oxidation_number
  In3+  3.0
  Ag+  1.0
  Sn2+  2.0
  Bi3+  3.0
  Te2-  -2.0
  Pb2+  2.0
loop_
 _atom_site_type_symbol
 _atom_site_label
 _atom_site_symmetry_multiplicity
 _atom_site_fract_x
 _atom_site_fract_y
 _atom_site_fract_z
 _atom_site_occupancy
  In3+  In0  1  0.13851657  0.17509910  0.66990146  1
  In3+  In1  1  0.15948590  0.49836014  0.35010123  1
  In3+  In2  1  0.32316811  -0.02530209  -0.00362808  1
  In3+  In3  1  0.84747314  0.34685612  0.81436780  1
  In3+  In4  1  0.67053499  0.14682001  0.17553163  1
  In3+  In5  1  0.48853946  0.19616596  0.33183340  1
  In3+  In6  1  0.66750461  0.82894622  0.52709569  1
  In3+  In7  1  0.67302724  0.50296862  0.49511947  1
  In3+  In8  1  0.84593066  0.01077062  0.49674431  1
  In3+  In9  1  0.16617304  0.51484341  0.00187747  1
  In3+  In10  1  0.84703140  0.82645537  -0.00517271  1
  In3+  In11  1  0.51298078  0.81569035  0.00326811  1
  In3+  In12  1  0.50367893  0.00239442  0.85378260  1
  In3+  In13  1  0.84336090  0.50840658  0.34421055  1
  In3+  In14  1  0.49735541  0.83522207  0.67985374  1
  In3+  In15  1  0.15730882  0.01190893  0.17174843  1
  In3+  In16  1  -0.00816989  0.50128292  0.50141540  1
  In3+  In17  1  0.34019289  0.50796242  0.81975767  1
  In3+  In18  1  0.16157876  0.17021239  -0.01589139  1
  In3+  In19  1  0.13795326  0.33428226  0.49408195  1
  In3+  In20  1  0.84930445  0.17895511  0.33682900  1
  In3+  In21  1  0.16255774  0.65824494  0.84322910  1
  Ag+  Ag22  1  0.83387070  0.35257416  0.51489898  1
  Ag+  Ag23  1  0.83678272  0.14140639  0.68136687  1
  Ag+  Ag24  1  0.18453420  0.35678840  0.84198918  1
  Ag+  Ag25  1  0.83479101  0.50168654  0.64804153  1
  Ag+  Ag26  1  0.69003205  0.81660839  0.18351024  1
  Ag+  Ag27  1  0.35814052  0.65811485  -0.01545500  1
  Ag+  Ag28  1  -0.01663674  0.80671571  0.82889816  1
  Ag+  Ag29  1  0.14391819  0.19863198  0.30559366  1
  Ag+  Ag30  1  0.53489883  0.50357260  0.35123322  1
  Ag+  Ag31  1  0.46764252  0.52030081  -0.02119179  1
  Ag+  Ag32  1  0.30689616  0.66453924  0.68938510  1
  Ag+  Ag33  1  -0.00146047  0.33452157  0.31778715  1
  Ag+  Ag34  1  0.02625530  -0.02151487  -0.00260514  1
  Ag+  Ag35  1  -0.00192755  0.33215177  0.65064839  1
  Ag+  Ag36  1  0.02034947  0.18756454  0.84449799  1
  Ag+  Ag37  1  -0.00110778  0.68368023  -0.02788168  1
  Ag+  Ag38  1  0.52313722  0.66272910  0.14335188  1
  Ag+  Ag39  1  0.85354524  0.68296533  0.52090779  1
  Ag+  Ag40  1  0.68969220  0.81086086  0.83714858  1
  Ag+  Ag41  1  -0.01235332  0.69232886  0.31570427  1
  Ag+  Ag42  1  0.80571150  0.65283169  0.85739580  1
  Sn2+  Sn43  1  0.83535693  0.66301008  0.16827610  1
  Sn2+  Sn44  1  0.83375648  0.16311252  -0.01601779  1
  Sn2+  Sn45  1  0.83183919  0.33733675  0.17288912  1
  Sn2+  Sn46  1  0.51589223  0.33681990  0.50296068  1
  Sn2+  Sn47  1  0.00159913  0.00678983  0.68860447  1
  Sn2+  Sn48  1  -0.00283851  0.49587025  0.83035473  1
  Sn2+  Sn49  1  0.16625359  0.66674760  0.50501083  1
  Sn2+  Sn50  1  0.83395243  0.82664100  0.33205560  1
  Sn2+  Sn51  1  0.33728939  0.49990519  0.50007650  1
  Sn2+  Sn52  1  0.49443866  0.17838801  0.00599127  1
  Sn2+  Sn53  1  -0.01125988  0.82448901  0.50886690  1
  Sn2+  Sn54  1  0.65454847  0.50313472  0.16339921  1
  Sn2+  Sn55  1  0.15424098  0.48924487  0.67117547  1
  Sn2+  Sn56  1  0.33667071  0.16072790  0.15967354  1
  Sn2+  Sn57  1  0.16443897  0.83378302  -0.00201214  1
  Sn2+  Sn58  1  0.50609288  0.81591943  0.32609992  1
  Sn2+  Sn59  1  0.66427405  -0.00582689  0.33420673  1
  Sn2+  Sn60  1  0.67011787  0.49937682  0.83094447  1
  Sn2+  Sn61  1  0.15575163  -0.00629763  0.83573078  1
  Sn2+  Sn62  1  0.32415272  0.17076182  0.83314164  1
  Sn2+  Sn63  1  0.16557680  0.01054355  0.49608029  1
  Sn2+  Sn64  1  0.49621277  0.67352701  0.82665294  1
  Bi3+  Bi65  1  0.83534543  -0.00057641  0.83399270  1
  Bi3+  Bi66  1  0.50070841  0.34468407  0.16671133  1
  Bi3+  Bi67  1  0.33298712  0.82825062  0.16577530  1
  Bi3+  Bi68  1  0.33117765  0.83313353  0.83343181  1
  Bi3+  Bi69  1  0.50188019  0.66805506  0.49628296  1
  Bi3+  Bi70  1  0.16473175  0.66664551  0.16917995  1
  Bi3+  Bi71  1  0.50332546  -0.00290166  0.49604828  1
  Bi3+  Bi72  1  -0.00315027  0.33325135  0.00109815  1
  Bi3+  Bi73  1  0.32968847  0.66474926  0.33265488  1
  Bi3+  Bi74  1  0.00196074  0.16523679  0.50558695  1
  Bi3+  Bi75  1  0.67430735  0.33760175  0.66791777  1
  Bi3+  Bi76  1  0.33200610  0.83135193  0.50124757  1
  Bi3+  Bi77  1  0.66897652  0.33549511  0.00080537  1
  Bi3+  Bi78  1  0.66638108  0.16881183  0.83452542  1
  Bi3+  Bi79  1  0.66567651  0.00238322  -0.00269872  1
  Bi3+  Bi80  1  0.83717216  0.49701446  0.00182752  1
  Bi3+  Bi81  1  -0.00047085  0.65958567  0.66345964  1
  Bi3+  Bi82  1  0.33418506  0.16899210  0.50130327  1
  Bi3+  Bi83  1  0.33269919  0.00048098  0.33226682  1
  Bi3+  Bi84  1  0.67133620  0.66469143  0.66505098  1
  Bi3+  Bi85  1  0.33502724  0.50233062  0.16621205  1
  Te2-  Te86  1  0.16787440  0.16380962  0.16623506  1
  Te2-  Te87  1  0.16983785  0.17650738  0.51004120  1
  Te2-  Te88  1  0.16496531  0.16033377  0.82760251  1
  Te2-  Te89  1  0.16868393  0.50099312  0.16057313  1
  Te2-  Te90  1  0.17021927  0.49190793  0.50399645  1
  Te2-  Te91  1  0.17150736  0.50301962  0.83832598  1
  Te2-  Te92  1  0.16907623  0.83159250  0.16407278  1
  Te2-  Te93  1  0.16794553  0.83554637  0.50127499  1
  Te2-  Te94  1  0.17121519  0.83240806  0.83713894  1
  Te2-  Te95  1  0.50049141  0.17357820  0.17243074  1
  Te2-  Te96  1  0.50000464  0.16377069  0.49226720  1
  Te2-  Te97  1  0.50083344  0.16239167  0.83373129  1
  Te2-  Te98  1  0.49659118  0.50793434  0.16202972  1
  Te2-  Te99  1  0.50485959  0.50213142  0.49810654  1
  Te2-  Te100  1  0.49393936  0.50194738  0.83461332  1
  Te2-  Te101  1  0.49451965  0.81743947  0.15694676  1
  Te2-  Te102  1  0.49863598  0.83154909  0.49538737  1
  Te2-  Te103  1  0.49098091  0.84183404  0.83922680  1
  Te2-  Te104  1  0.82489721  0.16641872  0.17956660  1
  Te2-  Te105  1  0.83695850  0.16481433  0.48973292  1
  Te2-  Te106  1  0.82875291  0.16345975  0.82703149  1
  Te2-  Te107  1  0.82816770  0.50068129  0.16234856  1
  Te2-  Te108  1  0.83373359  0.50119065  0.49661712  1
  Te2-  Te109  1  0.83330644  0.50626793  0.84155564  1
  Te2-  Te110  1  0.83276364  0.83033724  0.15839877  1
  Te2-  Te111  1  0.83117085  0.82638710  0.49502483  1
  Te2-  Te112  1  0.83691792  0.83768111  0.84100060  1
  Te2-  Te113  1  0.17165507  0.00665304  0.00348150  1
  Te2-  Te114  1  0.17025611  -0.00014530  0.32937237  1
  Te2-  Te115  1  0.16261305  0.00960349  0.66680711  1
  Te2-  Te116  1  0.16272058  0.32438789  -0.01272952  1
  Te2-  Te117  1  0.15830079  0.33986154  0.33837008  1
  Te2-  Te118  1  0.15178598  0.32927626  0.67775902  1
  Te2-  Te119  1  0.14982452  0.66811650  0.00075720  1
  Te2-  Te120  1  0.16116241  0.65621407  0.33534210  1
  Te2-  Te121  1  0.16219029  0.66027247  0.66391972  1
  Te2-  Te122  1  0.49633505  0.01005356  0.00411927  1
  Te2-  Te123  1  0.49526660  -0.00933729  0.33430218  1
  Te2-  Te124  1  0.49922959  -0.00662453  0.65862336  1
  Te2-  Te125  1  0.50409074  0.34022486  0.00365355  1
  Te2-  Te126  1  0.50317353  0.35347380  0.33279418  1
  Te2-  Te127  1  0.50516096  0.33544620  0.66512798  1
  Te2-  Te128  1  0.50504194  0.66172736  -0.00411259  1
  Te2-  Te129  1  0.49561221  0.65189527  0.33592944  1
  Te2-  Te130  1  0.50675227  0.67421484  0.66121857  1
  Te2-  Te131  1  0.82717566  0.00318253  -0.00079632  1
  Te2-  Te132  1  0.83032412  -0.00370148  0.34233685  1
  Te2-  Te133  1  0.83636905  -0.00507893  0.66158009  1
  Te2-  Te134  1  0.83154889  0.33076346  0.00469110  1
  Te2-  Te135  1  0.84217698  0.33142169  0.33099004  1
  Te2-  Te136  1  0.83530145  0.34925285  0.66583164  1
  Te2-  Te137  1  0.84960452  0.66727298  -0.00272304  1
  Te2-  Te138  1  0.84255596  0.66001403  0.32967062  1
  Te2-  Te139  1  0.83438441  0.65717063  0.66439003  1
  Te2-  Te140  1  0.00408921  0.17068662  -0.00860488  1
  Te2-  Te141  1  0.00412761  0.17047747  0.33962583  1
  Te2-  Te142  1  -0.01463670  0.17526135  0.66527026  1
  Te2-  Te143  1  0.00414522  0.49433159  -0.00033590  1
  Te2-  Te144  1  -0.00144422  0.48437455  0.34487190  1
  Te2-  Te145  1  -0.00726480  0.49322753  0.65869767  1
  Te2-  Te146  1  -0.00127262  0.83402854  -0.01529739  1
  Te2-  Te147  1  -0.00327320  0.83653752  0.33842412  1
  Te2-  Te148  1  0.00076209  0.82913959  0.67514684  1
  Te2-  Te149  1  0.32925798  0.17044949  -0.00032888  1
  Te2-  Te150  1  0.33121822  0.16181896  0.33592236  1
  Te2-  Te151  1  0.34033890  0.16592112  0.66425713  1
  Te2-  Te152  1  0.32315261  0.51143704  0.00201694  1
  Te2-  Te153  1  0.32108798  0.50293092  0.33263660  1
  Te2-  Te154  1  0.33005448  0.51215467  0.66923140  1
  Te2-  Te155  1  0.33548340  0.82079151  -0.00025570  1
  Te2-  Te156  1  0.33481408  0.83183697  0.33496008  1
  Te2-  Te157  1  0.33527368  0.81863056  0.66649777  1
  Te2-  Te158  1  0.66469922  0.16938522  0.00183337  1
  Te2-  Te159  1  0.65741299  0.16177176  0.32797193  1
  Te2-  Te160  1  0.67948235  0.17353276  0.66621946  1
  Te2-  Te161  1  0.67332036  0.49875628  -0.00318929  1
  Te2-  Te162  1  0.68222635  0.49972632  0.33559467  1
  Te2-  Te163  1  0.67609823  0.49997719  0.66596291  1
  Te2-  Te164  1  0.66054463  0.83986258  -0.01672704  1
  Te2-  Te165  1  0.66512584  0.83428060  0.32616732  1
  Te2-  Te166  1  0.66098158  0.82936668  0.68558155  1
  Te2-  Te167  1  0.00412471  -0.00154264  0.15205003  1
  Te2-  Te168  1  0.00020125  -0.00051105  0.50689333  1
  Te2-  Te169  1  -0.00326525  0.00232604  0.84546627  1
  Te2-  Te170  1  0.00035432  0.33134831  0.16877340  1
  Te2-  Te171  1  -0.01095784  0.33097514  0.50405490  1
  Te2-  Te172  1  -0.00510985  0.33315849  0.83878027  1
  Te2-  Te173  1  0.00309471  0.66443486  0.17338894  1
  Te2-  Te174  1  -0.00172085  0.65746467  0.50049930  1
  Te2-  Te175  1  0.01075739  0.66189129  0.82524099  1
  Te2-  Te176  1  0.32784586  -0.00644686  0.16465956  1
  Te2-  Te177  1  0.33351781  -0.00260152  0.49953800  1
  Te2-  Te178  1  0.33325291  -0.00189040  0.84095180  1
  Te2-  Te179  1  0.33533397  0.33431305  0.16823544  1
  Te2-  Te180  1  0.34519404  0.33124022  0.50136191  1
  Te2-  Te181  1  0.32961768  0.33511882  0.83034178  1
  Te2-  Te182  1  0.32651833  0.66596791  0.16998830  1
  Te2-  Te183  1  0.33519410  0.66886238  0.49516835  1
  Te2-  Te184  1  0.32834913  0.66601976  0.83726852  1
  Te2-  Te185  1  0.66230098  -0.00736943  0.16108834  1
  Te2-  Te186  1  0.66526465  -0.00918541  0.49930390  1
  Te2-  Te187  1  0.66481359  0.00661785  0.83440962  1
  Te2-  Te188  1  0.66299342  0.33667000  0.16339267  1
  Te2-  Te189  1  0.67924113  0.33793323  0.50235093  1
  Te2-  Te190  1  0.67198001  0.33187795  0.83538199  1
  Te2-  Te191  1  0.66879347  0.67085632  0.16561351  1
  Te2-  Te192  1  0.66684449  0.66444302  0.50199538  1
  Te2-  Te193  1  0.66228623  0.66466209  0.82944589  1
  Pb2+  Pb194  1  0.32906306  0.33469401  0.33709540  1
  Pb2+  Pb195  1  0.83164401  -0.00258843  0.17171213  1
  Pb2+  Pb196  1  0.50008534  0.33161839  0.83482426  1
  Pb2+  Pb197  1  0.68046885  0.67123985  -0.00020067  1
  Pb2+  Pb198  1  0.67309486  0.32962528  0.33215426  1
  Pb2+  Pb199  1  0.83479634  0.82312262  0.66845908  1
  Pb2+  Pb200  1  0.50766722  0.16566338  0.66443605  1
  Pb2+  Pb201  1  0.16462935  0.82649868  0.33391151  1
  Pb2+  Pb202  1  0.66876948  0.66802542  0.33342132  1
  Pb2+  Pb203  1  -0.00036562  0.82982847  0.15885097  1
  Pb2+  Pb204  1  0.66938930  0.00256994  0.66646194  1
  Pb2+  Pb205  1  0.16535877  0.83357446  0.66965846  1
  Pb2+  Pb206  1  -0.00659544  0.16507649  0.15876699  1
  Pb2+  Pb207  1  0.33021550  -0.00314048  0.67239134  1
  Pb2+  Pb208  1  0.31975055  0.33621715  0.66439309  1
  Pb2+  Pb209  1  0.67005703  0.16309603  0.49526629  1
  Pb2+  Pb210  1  -0.00341995  0.50004786  0.17181295  1
  Pb2+  Pb211  1  0.50316933  0.50501119  0.66586399  1
  Pb2+  Pb212  1  0.49570189  -0.00649496  0.16948614  1
  Pb2+  Pb213  1  -0.00048134  0.00358596  0.33369694  1
  Pb2+  Pb214  1  0.33172807  0.34159767  -0.00199465  1
  Pb2+  Pb215  1  0.16667661  0.33338101  0.15763073  1
