# generated using pymatgen
data_In22Ag21Sn22Bi21(Te54Pb11)2
_symmetry_space_group_name_H-M   'P 1'
_cell_length_a   19.19007591
_cell_length_b   19.20793790
_cell_length_c   19.21232667
_cell_angle_alpha   90.00416556
_cell_angle_beta   90.02975682
_cell_angle_gamma   90.03759371
_symmetry_Int_Tables_number   1
_chemical_formula_structural   In22Ag21Sn22Bi21(Te54Pb11)2
_chemical_formula_sum   'In22 Ag21 Sn22 Bi21 Te108 Pb22'
_cell_volume   7081.69543328
_cell_formula_units_Z   1
loop_
 _symmetry_equiv_pos_site_id
 _symmetry_equiv_pos_as_xyz
  1  'x, y, z'
loop_
 _atom_type_symbol
 _atom_type_oxidation_number
  In3+  3.0
  Ag+  1.0
  Sn2+  2.0
  Bi3+  3.0
  Te2-  -2.0
  Pb2+  2.0
loop_
 _atom_site_type_symbol
 _atom_site_label
 _atom_site_symmetry_multiplicity
 _atom_site_fract_x
 _atom_site_fract_y
 _atom_site_fract_z
 _atom_site_occupancy
  In3+  In0  1  0.16693115  0.16969163  -0.00449673  1
  In3+  In1  1  0.49327866  -0.00455513  0.51385332  1
  In3+  In2  1  0.83610142  0.18971854  0.33206129  1
  In3+  In3  1  0.83474753  0.66867257  0.16011759  1
  In3+  In4  1  0.34774322  0.84946383  0.83613593  1
  In3+  In5  1  0.83633184  0.82905699  0.69233236  1
  In3+  In6  1  0.65747584  0.19476388  0.17080046  1
  In3+  In7  1  0.83905532  0.48423163  -0.00137529  1
  In3+  In8  1  0.18190991  0.67526139  0.50577513  1
  In3+  In9  1  0.50784199  0.31480438  0.82145048  1
  In3+  In10  1  0.70025501  0.65759634  -0.00138046  1
  In3+  In11  1  0.15766337  0.81629233  -0.00506405  1
  In3+  In12  1  0.81766746  0.82976586  0.34465596  1
  In3+  In13  1  0.14230904  -0.01538081  0.16977949  1
  In3+  In14  1  0.51482774  0.83177411  0.00978348  1
  In3+  In15  1  -0.02748775  0.33506159  0.66881191  1
  In3+  In16  1  0.50506569  0.64814842  0.49669948  1
  In3+  In17  1  0.85321269  0.83026137  0.00228092  1
  In3+  In18  1  0.17060880  0.81809597  0.35071982  1
  In3+  In19  1  0.01940777  -0.01130631  -0.00276925  1
  In3+  In20  1  0.34235819  0.66616250  -0.00587140  1
  In3+  In21  1  0.85049950  0.00211918  0.83218058  1
  Ag+  Ag22  1  0.53665693  0.51118255  0.30595017  1
  Ag+  Ag23  1  0.36697235  0.54072491  0.20215441  1
  Ag+  Ag24  1  0.83357796  0.64462878  0.82685605  1
  Ag+  Ag25  1  0.00048299  0.81141385  0.18908947  1
  Ag+  Ag26  1  -0.02914204  0.30434599  -0.03716537  1
  Ag+  Ag27  1  0.49570772  0.02091902  0.81243208  1
  Ag+  Ag28  1  0.01067331  0.83936058  0.83141628  1
  Ag+  Ag29  1  0.33935931  0.85397542  0.47079155  1
  Ag+  Ag30  1  0.66680461  0.31038246  0.64845434  1
  Ag+  Ag31  1  -0.00279677  0.64048963  -0.03308621  1
  Ag+  Ag32  1  0.64047359  0.30556560  0.35741912  1
  Ag+  Ag33  1  0.52691590  0.29546747  0.45830870  1
  Ag+  Ag34  1  -0.03150103  0.54036782  0.84941109  1
  Ag+  Ag35  1  -0.02361499  0.19200903  0.86086263  1
  Ag+  Ag36  1  0.65508910  0.67085761  0.65069747  1
  Ag+  Ag37  1  0.80712643  0.36312709  0.52591699  1
  Ag+  Ag38  1  0.68766214  0.51904046  0.18900359  1
  Ag+  Ag39  1  0.64778597  0.65125019  0.35552849  1
  Ag+  Ag40  1  0.52370251  0.18823557  -0.00199770  1
  Ag+  Ag41  1  0.30586211  -0.02327972  0.64028000  1
  Ag+  Ag42  1  -0.00148088  -0.02826470  0.35465070  1
  Sn2+  Sn43  1  0.15938027  0.66480037  0.16385557  1
  Sn2+  Sn44  1  0.15241728  0.66602225  0.83260979  1
  Sn2+  Sn45  1  0.34520237  0.66133309  0.33398867  1
  Sn2+  Sn46  1  0.16226180  0.83203390  0.68015039  1
  Sn2+  Sn47  1  0.66654507  0.83308518  0.83071958  1
  Sn2+  Sn48  1  0.82646077  0.51132786  0.67118948  1
  Sn2+  Sn49  1  0.66425737  -0.00868220  0.67613806  1
  Sn2+  Sn50  1  0.33909577  -0.00051741  0.00207405  1
  Sn2+  Sn51  1  0.31920908  0.83124392  0.15092307  1
  Sn2+  Sn52  1  0.49892285  0.16997830  0.67073215  1
  Sn2+  Sn53  1  0.67828529  0.83027740  0.16384018  1
  Sn2+  Sn54  1  0.34021166  0.68145944  0.67451279  1
  Sn2+  Sn55  1  0.82809490  -0.00126114  0.49485783  1
  Sn2+  Sn56  1  0.49448296  0.34087751  0.15867536  1
  Sn2+  Sn57  1  0.50762941  0.66851558  0.82742029  1
  Sn2+  Sn58  1  0.32786283  0.16679441  0.83126347  1
  Sn2+  Sn59  1  0.83198895  0.15964070  0.00627319  1
  Sn2+  Sn60  1  -0.00345191  0.49488041  0.51051868  1
  Sn2+  Sn61  1  0.00127796  0.50546487  0.15435950  1
  Sn2+  Sn62  1  0.34759339  0.33929766  0.33351957  1
  Sn2+  Sn63  1  0.16737154  0.49631104  0.32916295  1
  Sn2+  Sn64  1  0.66011159  0.33786871  0.00210456  1
  Bi3+  Bi65  1  0.49813747  -0.00039575  0.16503410  1
  Bi3+  Bi66  1  0.33056753  0.50195014  0.50144954  1
  Bi3+  Bi67  1  0.16981419  0.33224934  0.83481297  1
  Bi3+  Bi68  1  0.83151284  -0.00543285  0.16224561  1
  Bi3+  Bi69  1  0.50211264  0.50300479  0.66998833  1
  Bi3+  Bi70  1  -0.00310689  0.66390932  0.66529323  1
  Bi3+  Bi71  1  0.33517278  0.16894314  0.16132023  1
  Bi3+  Bi72  1  0.66481422  -0.00332802  0.00032852  1
  Bi3+  Bi73  1  0.16360447  0.16473298  0.32935280  1
  Bi3+  Bi74  1  0.00572734  0.66366214  0.33309726  1
  Bi3+  Bi75  1  0.66265627  0.50360663  0.83210527  1
  Bi3+  Bi76  1  0.33009233  0.50369029  0.83703843  1
  Bi3+  Bi77  1  0.32792505  0.33773939  0.00200773  1
  Bi3+  Bi78  1  0.16673252  0.33694140  0.50240959  1
  Bi3+  Bi79  1  0.16003270  0.50156642  -0.00103197  1
  Bi3+  Bi80  1  0.16502645  0.33317536  0.16642836  1
  Bi3+  Bi81  1  -0.00222663  0.16569800  0.49585505  1
  Bi3+  Bi82  1  0.00307301  0.33240237  0.33500612  1
  Bi3+  Bi83  1  -0.00102509  0.17240394  0.16858032  1
  Bi3+  Bi84  1  0.83854057  0.50958640  0.33132680  1
  Bi3+  Bi85  1  0.66751481  0.16125580  0.83858984  1
  Te2-  Te86  1  0.16774824  0.16818543  0.16699532  1
  Te2-  Te87  1  0.16640165  0.16867232  0.49456186  1
  Te2-  Te88  1  0.16106237  0.16913192  0.83926079  1
  Te2-  Te89  1  0.16698162  0.49601996  0.16216565  1
  Te2-  Te90  1  0.16560152  0.49862261  0.49921666  1
  Te2-  Te91  1  0.16734786  0.49744797  0.83637693  1
  Te2-  Te92  1  0.14870318  0.83492437  0.15127946  1
  Te2-  Te93  1  0.18276187  0.83050450  0.50522537  1
  Te2-  Te94  1  0.16098289  0.83019761  0.83826210  1
  Te2-  Te95  1  0.50018794  0.16534089  0.15252345  1
  Te2-  Te96  1  0.50118845  0.15858075  0.49818867  1
  Te2-  Te97  1  0.50200585  0.16305378  0.84793234  1
  Te2-  Te98  1  0.50087239  0.50060924  0.16426412  1
  Te2-  Te99  1  0.49240019  0.49726856  0.50730718  1
  Te2-  Te100  1  0.49675230  0.50389190  0.83298411  1
  Te2-  Te101  1  0.49602648  0.83356070  0.16432347  1
  Te2-  Te102  1  0.48606079  0.84241299  0.50013866  1
  Te2-  Te103  1  0.49690353  0.82477175  0.84165703  1
  Te2-  Te104  1  0.83413426  0.16192071  0.17234252  1
  Te2-  Te105  1  0.83595998  0.16076447  0.48928772  1
  Te2-  Te106  1  0.83769452  0.15692499  0.83409940  1
  Te2-  Te107  1  0.83309830  0.50970940  0.15886789  1
  Te2-  Te108  1  0.83586675  0.50397411  0.50129624  1
  Te2-  Te109  1  0.82748967  0.49754385  0.84063073  1
  Te2-  Te110  1  0.84948101  0.83213493  0.15718802  1
  Te2-  Te111  1  0.83430722  0.83616548  0.49678987  1
  Te2-  Te112  1  0.82833831  0.84938042  0.84288620  1
  Te2-  Te113  1  0.16928815  0.00643470  0.00694925  1
  Te2-  Te114  1  0.15437527  0.00344995  0.32442076  1
  Te2-  Te115  1  0.16599051  -0.00039673  0.66989823  1
  Te2-  Te116  1  0.16242798  0.33582698  0.00058627  1
  Te2-  Te117  1  0.16690375  0.32926657  0.33429123  1
  Te2-  Te118  1  0.17639873  0.33371224  0.66580757  1
  Te2-  Te119  1  0.14587052  0.66249724  -0.00071144  1
  Te2-  Te120  1  0.16784636  0.66417764  0.33363900  1
  Te2-  Te121  1  0.16284726  0.67008890  0.66238125  1
  Te2-  Te122  1  0.50343573  -0.01394999  0.00522747  1
  Te2-  Te123  1  0.50266642  0.00155054  0.32583582  1
  Te2-  Te124  1  0.50536920  0.00271911  0.66714883  1
  Te2-  Te125  1  0.49199088  0.33194958  -0.00532049  1
  Te2-  Te126  1  0.50316667  0.34759467  0.32337371  1
  Te2-  Te127  1  0.51504314  0.33745499  0.67021736  1
  Te2-  Te128  1  0.49310275  0.67437644  -0.00147720  1
  Te2-  Te129  1  0.50255600  0.65807198  0.33821214  1
  Te2-  Te130  1  0.50683354  0.66741657  0.66413964  1
  Te2-  Te131  1  0.82588121  -0.00401110  -0.00176487  1
  Te2-  Te132  1  0.84753863  -0.02075708  0.32574795  1
  Te2-  Te133  1  0.82851920  -0.01016472  0.67074663  1
  Te2-  Te134  1  0.83384352  0.33171699  0.00323238  1
  Te2-  Te135  1  0.84088395  0.34382461  0.33817241  1
  Te2-  Te136  1  0.81946436  0.33484080  0.66745582  1
  Te2-  Te137  1  0.84999824  0.67852890  -0.00973974  1
  Te2-  Te138  1  0.84412655  0.67510329  0.33048396  1
  Te2-  Te139  1  0.83418189  0.67281621  0.67789663  1
  Te2-  Te140  1  0.00048905  0.16433048  0.00661486  1
  Te2-  Te141  1  -0.00219560  0.16700338  0.33171889  1
  Te2-  Te142  1  -0.00342991  0.17226601  0.65718170  1
  Te2-  Te143  1  -0.00621927  0.49536149  -0.00956195  1
  Te2-  Te144  1  -0.00015430  0.49861220  0.33396920  1
  Te2-  Te145  1  -0.00839404  0.49936416  0.67266670  1
  Te2-  Te146  1  0.00390084  0.83809570  -0.01401090  1
  Te2-  Te147  1  0.01978204  0.82816856  0.33442829  1
  Te2-  Te148  1  -0.00675372  0.83042770  0.67434987  1
  Te2-  Te149  1  0.32546664  0.17262671  0.00073886  1
  Te2-  Te150  1  0.33014360  0.16806341  0.32653222  1
  Te2-  Te151  1  0.33925010  0.16440562  0.67381489  1
  Te2-  Te152  1  0.32610006  0.50362041  -0.00037009  1
  Te2-  Te153  1  0.33123610  0.50281747  0.33800069  1
  Te2-  Te154  1  0.33661970  0.50887364  0.67168266  1
  Te2-  Te155  1  0.31446338  0.82572964  -0.00722717  1
  Te2-  Te156  1  0.32212223  0.82966797  0.32600142  1
  Te2-  Te157  1  0.33206366  0.83922289  0.68338282  1
  Te2-  Te158  1  0.66966027  0.16465709  0.00123546  1
  Te2-  Te159  1  0.67136037  0.16744930  0.32273106  1
  Te2-  Te160  1  0.66441148  0.16403885  0.67710691  1
  Te2-  Te161  1  0.67325073  0.50478934  -0.00761516  1
  Te2-  Te162  1  0.68032250  0.50912043  0.33384465  1
  Te2-  Te163  1  0.66607214  0.51828817  0.67206309  1
  Te2-  Te164  1  0.66652766  0.82944376  0.00348147  1
  Te2-  Te165  1  0.66615555  0.82450436  0.32808645  1
  Te2-  Te166  1  0.67283335  0.82289857  0.67179667  1
  Te2-  Te167  1  -0.00673198  0.00865071  0.15255837  1
  Te2-  Te168  1  -0.00222422  -0.00049063  0.49994745  1
  Te2-  Te169  1  0.00336689  -0.00837071  0.84120841  1
  Te2-  Te170  1  0.00237081  0.33525615  0.16919337  1
  Te2-  Te171  1  0.00394675  0.33055250  0.50114673  1
  Te2-  Te172  1  0.00717309  0.33171200  0.82028190  1
  Te2-  Te173  1  -0.00744433  0.66545757  0.17043622  1
  Te2-  Te174  1  0.00606238  0.66423745  0.49992099  1
  Te2-  Te175  1  -0.00702361  0.68174545  0.82338239  1
  Te2-  Te176  1  0.33517592  0.00344386  0.16270526  1
  Te2-  Te177  1  0.33796663  -0.00011706  0.49983142  1
  Te2-  Te178  1  0.34650052  0.00016597  0.84056840  1
  Te2-  Te179  1  0.32724082  0.33283441  0.16453141  1
  Te2-  Te180  1  0.33018607  0.33750353  0.50026141  1
  Te2-  Te181  1  0.33463842  0.33581810  0.83847466  1
  Te2-  Te182  1  0.32742481  0.67340439  0.15842173  1
  Te2-  Te183  1  0.33410066  0.66341298  0.50376493  1
  Te2-  Te184  1  0.32775491  0.66384369  0.83696371  1
  Te2-  Te185  1  0.66840692  -0.00560539  0.16350619  1
  Te2-  Te186  1  0.66840109  -0.00061123  0.50044233  1
  Te2-  Te187  1  0.65076265  0.00170439  0.83826593  1
  Te2-  Te188  1  0.66605067  0.34318029  0.16000660  1
  Te2-  Te189  1  0.66629307  0.33099560  0.50076430  1
  Te2-  Te190  1  0.66131557  0.33070770  0.84011254  1
  Te2-  Te191  1  0.67865643  0.66261836  0.15224016  1
  Te2-  Te192  1  0.66163185  0.67013238  0.50138607  1
  Te2-  Te193  1  0.67778740  0.66459174  0.84840255  1
  Pb2+  Pb194  1  0.83372154  0.66988772  0.50522877  1
  Pb2+  Pb195  1  0.49917151  0.16985744  0.32210952  1
  Pb2+  Pb196  1  0.66734860  0.16614656  0.50136899  1
  Pb2+  Pb197  1  0.00542730  0.83042374  0.50604115  1
  Pb2+  Pb198  1  0.34744008  0.33608489  0.66795993  1
  Pb2+  Pb199  1  0.65795591  0.83526981  0.50362799  1
  Pb2+  Pb200  1  0.67725005  -0.00327217  0.33203094  1
  Pb2+  Pb201  1  0.16097350  0.49982474  0.66811386  1
  Pb2+  Pb202  1  0.16522631  -0.00081429  0.49546138  1
  Pb2+  Pb203  1  0.50095952  0.83603191  0.67014401  1
  Pb2+  Pb204  1  -0.00205344  0.00284137  0.67251932  1
  Pb2+  Pb205  1  0.49473530  0.83429582  0.33465616  1
  Pb2+  Pb206  1  0.83167351  0.16136862  0.65999150  1
  Pb2+  Pb207  1  0.33716718  0.17068298  0.50365673  1
  Pb2+  Pb208  1  0.17689519  -0.00193386  0.83872329  1
  Pb2+  Pb209  1  0.66080843  0.49693834  0.50008048  1
  Pb2+  Pb210  1  0.16616777  0.16820294  0.66990309  1
  Pb2+  Pb211  1  0.50656245  0.66661735  0.16521952  1
  Pb2+  Pb212  1  0.83240415  0.32819053  0.83393831  1
  Pb2+  Pb213  1  0.83280403  0.33794519  0.17306788  1
  Pb2+  Pb214  1  0.32878373  -0.00197154  0.32804832  1
  Pb2+  Pb215  1  0.50076165  0.50129260  0.00025544  1
