# generated using pymatgen
data_In22Ag21Sn22Bi21(Te54Pb11)2
_symmetry_space_group_name_H-M   'P 1'
_cell_length_a   19.18477772
_cell_length_b   19.18765920
_cell_length_c   19.18303955
_cell_angle_alpha   90.00993142
_cell_angle_beta   90.00691171
_cell_angle_gamma   90.01428628
_symmetry_Int_Tables_number   1
_chemical_formula_structural   In22Ag21Sn22Bi21(Te54Pb11)2
_chemical_formula_sum   'In22 Ag21 Sn22 Bi21 Te108 Pb22'
_cell_volume   7061.48704624
_cell_formula_units_Z   1
loop_
 _symmetry_equiv_pos_site_id
 _symmetry_equiv_pos_as_xyz
  1  'x, y, z'
loop_
 _atom_type_symbol
 _atom_type_oxidation_number
  In3+  3.0
  Ag+  1.0
  Sn2+  2.0
  Bi3+  3.0
  Te2-  -2.0
  Pb2+  2.0
loop_
 _atom_site_type_symbol
 _atom_site_label
 _atom_site_symmetry_multiplicity
 _atom_site_fract_x
 _atom_site_fract_y
 _atom_site_fract_z
 _atom_site_occupancy
  In3+  In0  1  0.34968670  0.83872790  0.83099824  1
  In3+  In1  1  0.18499394  0.31856183  0.16491508  1
  In3+  In2  1  0.02130852  0.49417106  0.16717650  1
  In3+  In3  1  0.35332714  0.66705018  0.00395909  1
  In3+  In4  1  0.16268580  0.83693675  0.68465166  1
  In3+  In5  1  0.00990540  0.33424276  0.63565283  1
  In3+  In6  1  0.82510858  0.01268028  0.49502060  1
  In3+  In7  1  0.01679591  0.00302611  0.01070850  1
  In3+  In8  1  0.66876287  0.66275425  0.00294300  1
  In3+  In9  1  0.67677919  0.83735405  0.81703759  1
  In3+  In10  1  0.65850071  0.51486760  0.17524243  1
  In3+  In11  1  0.33250503  0.81927332  0.47646529  1
  In3+  In12  1  0.18910448  0.16967401  -0.00221820  1
  In3+  In13  1  0.82513832  0.16975163  0.02608808  1
  In3+  In14  1  0.33064374  0.52012824  0.83118311  1
  In3+  In15  1  0.31838461  0.00101032  0.66693331  1
  In3+  In16  1  0.63587124  0.33454132  0.01182217  1
  In3+  In17  1  0.50195333  0.84748047  0.00828898  1
  In3+  In18  1  0.66363560  -0.01516631  0.00036487  1
  In3+  In19  1  0.19555420  0.67143272  0.16261097  1
  In3+  In20  1  0.83004993  0.48184725  -0.00255487  1
  In3+  In21  1  0.16886992  0.52036501  0.67238068  1
  Ag+  Ag22  1  0.52515663  0.33059907  0.18932844  1
  Ag+  Ag23  1  -0.04214029  0.03103703  0.30357290  1
  Ag+  Ag24  1  0.51880810  0.14531473  0.00136748  1
  Ag+  Ag25  1  0.18918493  -0.00113214  0.86152581  1
  Ag+  Ag26  1  0.48209499  -0.02566138  0.83190418  1
  Ag+  Ag27  1  0.00604495  0.13955712  0.47975950  1
  Ag+  Ag28  1  0.31494929  0.16742497  0.18256342  1
  Ag+  Ag29  1  0.32945919  0.69925323  0.64160848  1
  Ag+  Ag30  1  0.52276867  0.81877047  0.36973039  1
  Ag+  Ag31  1  0.33633752  0.30949537  0.00050884  1
  Ag+  Ag32  1  0.70174604  0.80521058  0.48277576  1
  Ag+  Ag33  1  0.85922817  0.31833318  0.49570779  1
  Ag+  Ag34  1  -0.03345539  0.30737128  0.32595451  1
  Ag+  Ag35  1  0.36332168  0.63846573  0.30458032  1
  Ag+  Ag36  1  0.79722529  0.69527898  0.52838265  1
  Ag+  Ag37  1  0.80509839  0.80523693  0.63469877  1
  Ag+  Ag38  1  0.86873703  0.19334801  0.35128192  1
  Ag+  Ag39  1  0.70740513  0.53044535  0.46624985  1
  Ag+  Ag40  1  0.33451739  -0.01484811  0.30870271  1
  Ag+  Ag41  1  0.50119542  0.69683895  0.18908469  1
  Ag+  Ag42  1  0.65970224  0.85479183  0.14448357  1
  Sn2+  Sn43  1  0.33321947  0.32796213  0.32565379  1
  Sn2+  Sn44  1  0.17397254  0.82802716  -0.00162033  1
  Sn2+  Sn45  1  -0.01185340  0.82128685  0.16966720  1
  Sn2+  Sn46  1  0.66403642  0.32749675  0.34151162  1
  Sn2+  Sn47  1  0.49533616  0.01177472  0.16904264  1
  Sn2+  Sn48  1  0.17127081  0.16459151  0.33615899  1
  Sn2+  Sn49  1  0.16771991  0.32148970  0.83338123  1
  Sn2+  Sn50  1  0.66595297  0.50245331  0.82785615  1
  Sn2+  Sn51  1  0.16644333  0.49372951  -0.00056940  1
  Sn2+  Sn52  1  0.33918362  0.16824910  0.83582374  1
  Sn2+  Sn53  1  0.83283642  0.49404210  0.65117380  1
  Sn2+  Sn54  1  0.49704079  0.83518486  0.66729658  1
  Sn2+  Sn55  1  0.34148699  0.00179677  -0.00291712  1
  Sn2+  Sn56  1  -0.00465436  0.00787323  0.67031567  1
  Sn2+  Sn57  1  0.49916345  0.00005291  0.50906885  1
  Sn2+  Sn58  1  0.32505756  0.16112092  0.49000860  1
  Sn2+  Sn59  1  0.83326225  0.66720493  0.82948172  1
  Sn2+  Sn60  1  0.16714942  0.49874500  0.34008401  1
  Sn2+  Sn61  1  0.82824447  0.33506439  0.17177996  1
  Sn2+  Sn62  1  0.16576964  0.32810017  0.48877996  1
  Sn2+  Sn63  1  0.01090696  0.83672423  0.49828413  1
  Sn2+  Sn64  1  0.49446681  0.66445453  0.50025812  1
  Bi3+  Bi65  1  0.83347879  0.00263888  0.82941270  1
  Bi3+  Bi66  1  0.33571129  0.49875548  0.50220650  1
  Bi3+  Bi67  1  0.66341557  0.16320641  0.16890064  1
  Bi3+  Bi68  1  0.50182628  0.50067855  -0.00018590  1
  Bi3+  Bi69  1  0.49436785  0.33197538  0.83323703  1
  Bi3+  Bi70  1  0.16454142  0.83235755  0.33185295  1
  Bi3+  Bi71  1  0.16758697  0.00028485  0.49895841  1
  Bi3+  Bi72  1  -0.00372579  0.83720495  0.83538820  1
  Bi3+  Bi73  1  0.49431810  0.50147094  0.66661917  1
  Bi3+  Bi74  1  0.49433698  0.33086553  0.49829603  1
  Bi3+  Bi75  1  0.49783293  0.16341233  0.32715444  1
  Bi3+  Bi76  1  0.82379486  0.66539023  0.16618865  1
  Bi3+  Bi77  1  0.83419283  0.16484101  0.66149908  1
  Bi3+  Bi78  1  0.50171780  0.66519697  0.83283089  1
  Bi3+  Bi79  1  0.00414597  0.50201543  0.49685137  1
  Bi3+  Bi80  1  0.67097552  0.33769862  0.66617588  1
  Bi3+  Bi81  1  0.66733584  0.00143466  0.66546877  1
  Bi3+  Bi82  1  0.83316875  0.83151528  0.33088537  1
  Bi3+  Bi83  1  -0.00043596  0.16516717  0.83666481  1
  Bi3+  Bi84  1  0.00077122  0.67156236  0.33426618  1
  Bi3+  Bi85  1  0.65082653  -0.00163055  0.33720205  1
  Te2-  Te86  1  0.16831729  0.16728451  0.15649412  1
  Te2-  Te87  1  0.15661811  0.16557223  0.50272230  1
  Te2-  Te88  1  0.16262412  0.15209058  0.84659046  1
  Te2-  Te89  1  0.17217640  0.51158094  0.16637363  1
  Te2-  Te90  1  0.17114246  0.49698423  0.50806631  1
  Te2-  Te91  1  0.16995061  0.49957727  0.83272232  1
  Te2-  Te92  1  0.16405800  0.82607766  0.16538241  1
  Te2-  Te93  1  0.17743952  0.83376468  0.49876763  1
  Te2-  Te94  1  0.15889131  0.84867960  0.83886202  1
  Te2-  Te95  1  0.50516330  0.17639845  0.16240407  1
  Te2-  Te96  1  0.49479444  0.16843630  0.49918976  1
  Te2-  Te97  1  0.50018442  0.17252186  0.84661058  1
  Te2-  Te98  1  0.50666086  0.48199419  0.16294355  1
  Te2-  Te99  1  0.49667182  0.49609863  0.50408483  1
  Te2-  Te100  1  0.49519650  0.50028814  0.83158397  1
  Te2-  Te101  1  0.50820170  0.84089551  0.15758506  1
  Te2-  Te102  1  0.48287616  0.83759714  0.50773339  1
  Te2-  Te103  1  0.50397267  0.82738008  0.83760096  1
  Te2-  Te104  1  0.82991318  0.16710690  0.18182742  1
  Te2-  Te105  1  0.84876061  0.16676836  0.49746355  1
  Te2-  Te106  1  0.83615838  0.16549614  0.82692835  1
  Te2-  Te107  1  0.81496805  0.50462257  0.15583083  1
  Te2-  Te108  1  0.84326915  0.49542259  0.49829001  1
  Te2-  Te109  1  0.83381373  0.50172826  0.84245877  1
  Te2-  Te110  1  0.81671452  0.82901688  0.16594186  1
  Te2-  Te111  1  0.84388453  0.83904283  0.49696689  1
  Te2-  Te112  1  0.83356701  0.83677206  0.82754316  1
  Te2-  Te113  1  0.16836639  0.00046221  0.00591916  1
  Te2-  Te114  1  0.18093013  -0.00354630  0.33929878  1
  Te2-  Te115  1  0.16458935  -0.00501287  0.66567857  1
  Te2-  Te116  1  0.17290551  0.33313054  0.00668343  1
  Te2-  Te117  1  0.17341177  0.33277528  0.31935152  1
  Te2-  Te118  1  0.15924785  0.33017131  0.66890635  1
  Te2-  Te119  1  0.16243781  0.66448438  0.01027648  1
  Te2-  Te120  1  0.16360698  0.66974876  0.32078207  1
  Te2-  Te121  1  0.18159089  0.67159801  0.66962170  1
  Te2-  Te122  1  0.50827558  -0.00042915  -0.01631669  1
  Te2-  Te123  1  0.48883589  0.00300315  0.33734503  1
  Te2-  Te124  1  0.50667235  -0.00322529  0.68203296  1
  Te2-  Te125  1  0.48554711  0.34081301  -0.00661059  1
  Te2-  Te126  1  0.49663195  0.33037244  0.33457607  1
  Te2-  Te127  1  0.49846608  0.33443831  0.66847761  1
  Te2-  Te128  1  0.50674278  0.66210754  -0.00413670  1
  Te2-  Te129  1  0.49888314  0.67779208  0.33555512  1
  Te2-  Te130  1  0.48040676  0.66418925  0.67204790  1
  Te2-  Te131  1  0.81630761  0.00734305  -0.00512067  1
  Te2-  Te132  1  0.82319750  -0.00593079  0.34146711  1
  Te2-  Te133  1  0.83053825  0.00089671  0.66411425  1
  Te2-  Te134  1  0.83581009  0.33033283  0.00053035  1
  Te2-  Te135  1  0.82104732  0.33422046  0.34442765  1
  Te2-  Te136  1  0.83426059  0.32972165  0.65423799  1
  Te2-  Te137  1  0.82371381  0.66856647  0.00080385  1
  Te2-  Te138  1  0.83548391  0.66892972  0.33157034  1
  Te2-  Te139  1  0.83170735  0.66203711  0.66882021  1
  Te2-  Te140  1  -0.01420229  0.15742970  0.00040086  1
  Te2-  Te141  1  0.01340525  0.16213364  0.33402263  1
  Te2-  Te142  1  -0.00495698  0.17795638  0.67327768  1
  Te2-  Te143  1  -0.00363933  0.49953177  0.00907299  1
  Te2-  Te144  1  0.00723830  0.50712631  0.33043573  1
  Te2-  Te145  1  0.00534376  0.49377164  0.66470038  1
  Te2-  Te146  1  0.00047935  0.84267409  0.00080842  1
  Te2-  Te147  1  0.00061637  0.83525939  0.32946885  1
  Te2-  Te148  1  0.00997643  0.83302710  0.67164692  1
  Te2-  Te149  1  0.33815477  0.16150452  -0.00607772  1
  Te2-  Te150  1  0.33610401  0.16553060  0.33014011  1
  Te2-  Te151  1  0.33023228  0.15970591  0.66887090  1
  Te2-  Te152  1  0.33374444  0.51288297  -0.00446751  1
  Te2-  Te153  1  0.33039023  0.49941820  0.33704471  1
  Te2-  Te154  1  0.32942649  0.49876247  0.66865354  1
  Te2-  Te155  1  0.33543364  0.83159990  -0.00413407  1
  Te2-  Te156  1  0.32659034  0.83969956  0.32874191  1
  Te2-  Te157  1  0.32656125  0.84044338  0.68066322  1
  Te2-  Te158  1  0.66258502  0.17959632  0.00609596  1
  Te2-  Te159  1  0.66270635  0.15955424  0.33343076  1
  Te2-  Te160  1  0.66824213  0.16840820  0.66727406  1
  Te2-  Te161  1  0.66545894  0.49205163  -0.00619291  1
  Te2-  Te162  1  0.66447471  0.49804201  0.32970886  1
  Te2-  Te163  1  0.66078714  0.49900160  0.66685422  1
  Te2-  Te164  1  0.65938480  0.83106813  -0.00222780  1
  Te2-  Te165  1  0.66584569  0.84018575  0.34410061  1
  Te2-  Te166  1  0.66634996  0.83661506  0.66304421  1
  Te2-  Te167  1  -0.00277414  -0.00356275  0.16499860  1
  Te2-  Te168  1  0.00687991  -0.00375643  0.50955081  1
  Te2-  Te169  1  -0.00516097  0.00062395  0.83683213  1
  Te2-  Te170  1  -0.01118845  0.34458292  0.18212353  1
  Te2-  Te171  1  0.00445513  0.34026263  0.48230357  1
  Te2-  Te172  1  0.00542871  0.32908198  0.84317056  1
  Te2-  Te173  1  -0.01390085  0.66155971  0.17068363  1
  Te2-  Te174  1  -0.00180131  0.66509519  0.49773149  1
  Te2-  Te175  1  0.00203212  0.67080263  0.83443026  1
  Te2-  Te176  1  0.33880046  0.01439985  0.16189310  1
  Te2-  Te177  1  0.33097656  0.00497865  0.51418916  1
  Te2-  Te178  1  0.33400561  -0.00620556  0.82963022  1
  Te2-  Te179  1  0.33271668  0.32004339  0.15612780  1
  Te2-  Te180  1  0.33050129  0.33335579  0.50147756  1
  Te2-  Te181  1  0.32817737  0.32947391  0.84384018  1
  Te2-  Te182  1  0.35156656  0.66656713  0.16155817  1
  Te2-  Te183  1  0.33249373  0.66434286  0.49802443  1
  Te2-  Te184  1  0.33573258  0.67846263  0.84310165  1
  Te2-  Te185  1  0.66048030  0.00028255  0.16535562  1
  Te2-  Te186  1  0.66478859  0.00186723  0.50241653  1
  Te2-  Te187  1  0.67043359  -0.00678678  0.83160130  1
  Te2-  Te188  1  0.66996755  0.32781458  0.16403975  1
  Te2-  Te189  1  0.65538457  0.33769333  0.50512563  1
  Te2-  Te190  1  0.66457913  0.33510896  0.82843944  1
  Te2-  Te191  1  0.65300230  0.66680943  0.15895040  1
  Te2-  Te192  1  0.65534845  0.66230895  0.50145081  1
  Te2-  Te193  1  0.66510212  0.67227602  0.83605503  1
  Pb2+  Pb194  1  0.67129507  0.17338888  0.49915980  1
  Pb2+  Pb195  1  0.16228654  0.16286182  0.67409219  1
  Pb2+  Pb196  1  0.34161507  0.84043873  0.16512353  1
  Pb2+  Pb197  1  0.49803258  0.50760915  0.33241712  1
  Pb2+  Pb198  1  0.83224483  0.83879868  -0.00404534  1
  Pb2+  Pb199  1  -0.00542358  0.67088176  0.00389603  1
  Pb2+  Pb200  1  0.82986564  -0.00037621  0.16777417  1
  Pb2+  Pb201  1  0.00188431  0.49598263  0.83583848  1
  Pb2+  Pb202  1  0.16983513  -0.00322262  0.17529700  1
  Pb2+  Pb203  1  0.83896108  0.49918061  0.32719511  1
  Pb2+  Pb204  1  0.00452421  0.32966288  0.01080757  1
  Pb2+  Pb205  1  0.66657963  0.67319998  0.32921679  1
  Pb2+  Pb206  1  0.32653500  0.33169093  0.67670758  1
  Pb2+  Pb207  1  0.66545398  0.16333179  0.83980638  1
  Pb2+  Pb208  1  0.65473941  0.66657882  0.66667574  1
  Pb2+  Pb209  1  0.16495803  0.66552381  0.49108594  1
  Pb2+  Pb210  1  0.33929433  0.48665982  0.16174344  1
  Pb2+  Pb211  1  -0.00100913  0.17375420  0.16732471  1
  Pb2+  Pb212  1  0.49574531  0.16075248  0.67445204  1
  Pb2+  Pb213  1  0.00498486  0.66628000  0.66334868  1
  Pb2+  Pb214  1  0.83491489  0.33420931  0.82773822  1
  Pb2+  Pb215  1  0.16917207  0.67485215  0.84074280  1
