# generated using pymatgen
data_In22Ag21Sn22Bi21(Te54Pb11)2
_symmetry_space_group_name_H-M   'P 1'
_cell_length_a   19.14462052
_cell_length_b   19.18398038
_cell_length_c   19.17631485
_cell_angle_alpha   89.98896298
_cell_angle_beta   89.98709013
_cell_angle_gamma   89.98434600
_symmetry_Int_Tables_number   1
_chemical_formula_structural   In22Ag21Sn22Bi21(Te54Pb11)2
_chemical_formula_sum   'In22 Ag21 Sn22 Bi21 Te108 Pb22'
_cell_volume   7042.88505385
_cell_formula_units_Z   1
loop_
 _symmetry_equiv_pos_site_id
 _symmetry_equiv_pos_as_xyz
  1  'x, y, z'
loop_
 _atom_type_symbol
 _atom_type_oxidation_number
  In3+  3.0
  Ag+  1.0
  Sn2+  2.0
  Bi3+  3.0
  Te2-  -2.0
  Pb2+  2.0
loop_
 _atom_site_type_symbol
 _atom_site_label
 _atom_site_symmetry_multiplicity
 _atom_site_fract_x
 _atom_site_fract_y
 _atom_site_fract_z
 _atom_site_occupancy
  In3+  In0  1  0.00037489  0.48903577  0.49699398  1
  In3+  In1  1  0.16235425  0.68418844  0.49845752  1
  In3+  In2  1  0.31709984  -0.00000081  0.66186535  1
  In3+  In3  1  0.81358724  0.16739581  0.00847275  1
  In3+  In4  1  0.00522738  0.32606853  -0.01036576  1
  In3+  In5  1  0.33511902  0.16741548  0.84359563  1
  In3+  In6  1  0.32662991  0.81544505  0.50374822  1
  In3+  In7  1  0.83070532  0.32069376  0.83802320  1
  In3+  In8  1  0.83186670  0.67184743  0.49078828  1
  In3+  In9  1  0.16837872  0.33078774  0.83513288  1
  In3+  In10  1  0.17663304  0.16584139  0.67373623  1
  In3+  In11  1  0.49802847  0.15633185  0.32126302  1
  In3+  In12  1  0.51139898  0.50083173  0.34144195  1
  In3+  In13  1  -0.00925617  0.50877688  0.18526164  1
  In3+  In14  1  0.52465711  0.67001805  0.50012831  1
  In3+  In15  1  -0.00196708  0.82227816  0.48299261  1
  In3+  In16  1  0.33107295  0.33603190  0.00139877  1
  In3+  In17  1  0.66412326  0.32404888  -0.00696694  1
  In3+  In18  1  0.66302818  0.15328881  0.48619622  1
  In3+  In19  1  0.16579459  0.67016768  0.14647794  1
  In3+  In20  1  0.66378078  0.34347879  0.31496810  1
  In3+  In21  1  0.16534634  0.50084537  0.33958970  1
  Ag+  Ag22  1  0.33915897  0.69597830  0.02784675  1
  Ag+  Ag23  1  0.15703979  0.52817954  0.64443596  1
  Ag+  Ag24  1  0.68648530  0.17618086  0.18748916  1
  Ag+  Ag25  1  0.81441708  0.02700934  0.86310741  1
  Ag+  Ag26  1  0.16609645  0.03704578  0.14156170  1
  Ag+  Ag27  1  0.17133593  0.14444951  0.03351702  1
  Ag+  Ag28  1  0.63582093  0.47827087  0.84051170  1
  Ag+  Ag29  1  0.02340204  0.66880178  0.32843139  1
  Ag+  Ag30  1  0.02345559  0.31098550  0.32317958  1
  Ag+  Ag31  1  0.69577406  0.50321993  0.47582996  1
  Ag+  Ag32  1  0.35562695  0.86879757  0.85238073  1
  Ag+  Ag33  1  0.63774707  -0.02101634  0.01942087  1
  Ag+  Ag34  1  0.19261405  -0.02387674  0.47192674  1
  Ag+  Ag35  1  0.80548010  0.67120764  0.19203591  1
  Ag+  Ag36  1  0.33207406  0.84493588  0.14248640  1
  Ag+  Ag37  1  0.30168594  0.13743093  0.13929443  1
  Ag+  Ag38  1  0.66860185  0.63341437  0.64274624  1
  Ag+  Ag39  1  0.16078985  0.85203534  0.02307271  1
  Ag+  Ag40  1  0.53262455  0.31054204  0.84931533  1
  Ag+  Ag41  1  0.63694936  0.13942433  0.83780742  1
  Ag+  Ag42  1  0.69255843  0.69772494  0.29712148  1
  Sn2+  Sn43  1  0.83171942  0.82759314  0.67701822  1
  Sn2+  Sn44  1  -0.00378200  -0.00123079  0.66615464  1
  Sn2+  Sn45  1  0.16474263  -0.00622184  0.83592057  1
  Sn2+  Sn46  1  0.66330320  0.66589059  -0.00428347  1
  Sn2+  Sn47  1  0.67213943  0.82713597  0.50745180  1
  Sn2+  Sn48  1  0.82861079  0.50216840  0.67487889  1
  Sn2+  Sn49  1  0.66745515  -0.00331645  0.31504220  1
  Sn2+  Sn50  1  0.49354575  0.00042905  0.50069930  1
  Sn2+  Sn51  1  0.49043553  0.83000391  0.00565805  1
  Sn2+  Sn52  1  0.83829288  -0.01917898  0.16282079  1
  Sn2+  Sn53  1  0.66857552  0.00624846  0.67710008  1
  Sn2+  Sn54  1  0.83913846  0.34131114  0.16685574  1
  Sn2+  Sn55  1  0.51038008  0.00260267  0.82787420  1
  Sn2+  Sn56  1  0.32643126  -0.00064647  0.32525402  1
  Sn2+  Sn57  1  0.82262835  0.33875241  0.50184489  1
  Sn2+  Sn58  1  0.83923503  0.83307175  0.00272309  1
  Sn2+  Sn59  1  0.16741786  0.83685776  0.67690725  1
  Sn2+  Sn60  1  0.16204734  0.34203508  0.16190392  1
  Sn2+  Sn61  1  0.00464576  -0.00281742  0.33732163  1
  Sn2+  Sn62  1  0.33703777  0.66716501  0.32731879  1
  Sn2+  Sn63  1  0.66177338  0.84155250  0.16131546  1
  Sn2+  Sn64  1  0.01406646  0.83497494  0.16194137  1
  Bi3+  Bi65  1  0.32960065  0.49597624  0.16634737  1
  Bi3+  Bi66  1  0.83390262  0.16375742  0.66971731  1
  Bi3+  Bi67  1  0.00291480  0.50045309  0.83043264  1
  Bi3+  Bi68  1  0.66821946  0.33483645  0.66875095  1
  Bi3+  Bi69  1  0.00195923  0.00155525  0.00296733  1
  Bi3+  Bi70  1  -0.00272623  0.16475252  0.49888972  1
  Bi3+  Bi71  1  0.32786988  0.49816323  0.49978165  1
  Bi3+  Bi72  1  0.83211284  0.67000952  0.83601087  1
  Bi3+  Bi73  1  0.00158560  0.83224889  0.83442550  1
  Bi3+  Bi74  1  0.16776481  0.49667808  -0.00045244  1
  Bi3+  Bi75  1  0.33353984  0.16643596  0.50037241  1
  Bi3+  Bi76  1  0.49880894  0.50266044  0.00176802  1
  Bi3+  Bi77  1  0.50305606  0.83395715  0.66671554  1
  Bi3+  Bi78  1  0.50569667  0.33616609  0.50432052  1
  Bi3+  Bi79  1  0.83128587  0.00158536  0.49725548  1
  Bi3+  Bi80  1  0.17079743  0.66547414  0.82757642  1
  Bi3+  Bi81  1  0.33311071  -0.00099585  -0.00107364  1
  Bi3+  Bi82  1  0.66483291  0.83592841  0.83741867  1
  Bi3+  Bi83  1  0.16196847  0.32781760  0.50021027  1
  Bi3+  Bi84  1  0.33262235  0.33265901  0.66737054  1
  Bi3+  Bi85  1  0.32711495  0.49566773  0.83334135  1
  Te2-  Te86  1  0.16596477  0.18218779  0.17756155  1
  Te2-  Te87  1  0.16389067  0.16563340  0.50847875  1
  Te2-  Te88  1  0.17545437  0.16881962  0.82790838  1
  Te2-  Te89  1  0.16616124  0.50368399  0.16482849  1
  Te2-  Te90  1  0.16275215  0.49159242  0.50162563  1
  Te2-  Te91  1  0.16502084  0.49642116  0.83359963  1
  Te2-  Te92  1  0.18137999  0.82067268  0.16323622  1
  Te2-  Te93  1  0.15861344  0.83856685  0.50484369  1
  Te2-  Te94  1  0.16421620  0.82697142  0.83346942  1
  Te2-  Te95  1  0.49423151  0.16625089  0.17071527  1
  Te2-  Te96  1  0.50071537  0.17263697  0.49598513  1
  Te2-  Te97  1  0.49082571  0.17019826  0.83353660  1
  Te2-  Te98  1  0.49569909  0.49880033  0.16883417  1
  Te2-  Te99  1  0.49044991  0.50113238  0.49734317  1
  Te2-  Te100  1  0.48952735  0.49852581  0.83745100  1
  Te2-  Te101  1  0.48457160  0.83375285  0.16503540  1
  Te2-  Te102  1  0.50624678  0.82898956  0.50468044  1
  Te2-  Te103  1  0.49827616  0.83608249  0.83086132  1
  Te2-  Te104  1  0.83023304  0.16792681  0.15902603  1
  Te2-  Te105  1  0.82727148  0.16784785  0.50389759  1
  Te2-  Te106  1  0.84217784  0.16725789  0.83449244  1
  Te2-  Te107  1  0.83712296  0.51554630  0.16713059  1
  Te2-  Te108  1  0.84214796  0.50377552  0.50755329  1
  Te2-  Te109  1  0.84253807  0.50485082  0.83388987  1
  Te2-  Te110  1  0.83441984  0.82262268  0.16130528  1
  Te2-  Te111  1  0.83750504  0.83488474  0.50425852  1
  Te2-  Te112  1  0.83592730  0.83446372  0.83841093  1
  Te2-  Te113  1  0.16817433  -0.00318013  -0.00273356  1
  Te2-  Te114  1  0.16358602  -0.00307373  0.33196627  1
  Te2-  Te115  1  0.16556815  0.00565866  0.66925736  1
  Te2-  Te116  1  0.16670518  0.33473409  -0.00450654  1
  Te2-  Te117  1  0.16567884  0.34246433  0.33761896  1
  Te2-  Te118  1  0.16917008  0.32551446  0.66429268  1
  Te2-  Te119  1  0.17627163  0.65936547  -0.00687271  1
  Te2-  Te120  1  0.17015862  0.66015349  0.34749800  1
  Te2-  Te121  1  0.16351511  0.67235148  0.66068115  1
  Te2-  Te122  1  0.49389649  -0.00070184  -0.00416789  1
  Te2-  Te123  1  0.49919510  0.00203687  0.33822208  1
  Te2-  Te124  1  0.50266872  -0.00215642  0.66625025  1
  Te2-  Te125  1  0.50651360  0.33804611  -0.00715739  1
  Te2-  Te126  1  0.50783336  0.33882041  0.33997595  1
  Te2-  Te127  1  0.49828891  0.33418641  0.66730982  1
  Te2-  Te128  1  0.48787301  0.66638014  0.00102961  1
  Te2-  Te129  1  0.50169931  0.65832631  0.34581925  1
  Te2-  Te130  1  0.51655177  0.66941623  0.65702061  1
  Te2-  Te131  1  0.84271211  0.00652498  0.00569313  1
  Te2-  Te132  1  0.83440584  0.00038253  0.33135539  1
  Te2-  Te133  1  0.83044606  0.00125233  0.66087739  1
  Te2-  Te134  1  0.84148774  0.32574486  -0.00019961  1
  Te2-  Te135  1  0.81635619  0.33434403  0.33437108  1
  Te2-  Te136  1  0.83320611  0.33069503  0.67023207  1
  Te2-  Te137  1  0.83632565  0.66817339  -0.00318800  1
  Te2-  Te138  1  0.82890688  0.66643802  0.33900607  1
  Te2-  Te139  1  0.81839406  0.66859645  0.67091151  1
  Te2-  Te140  1  0.02177244  0.17173614  0.00063240  1
  Te2-  Te141  1  -0.00349107  0.16667825  0.33644391  1
  Te2-  Te142  1  -0.00205439  0.16627479  0.66189402  1
  Te2-  Te143  1  0.00510180  0.48917935  -0.00364223  1
  Te2-  Te144  1  0.00727724  0.51684058  0.33989323  1
  Te2-  Te145  1  0.00780850  0.50251469  0.66440377  1
  Te2-  Te146  1  0.01200977  0.83358824  0.00110692  1
  Te2-  Te147  1  0.00156884  0.82344781  0.33034444  1
  Te2-  Te148  1  -0.00175682  0.83659295  0.67143445  1
  Te2-  Te149  1  0.32092961  0.16701388  -0.00208680  1
  Te2-  Te150  1  0.34089489  0.16496446  0.33895504  1
  Te2-  Te151  1  0.33504447  0.16601721  0.66214383  1
  Te2-  Te152  1  0.33282984  0.49563500  0.00053193  1
  Te2-  Te153  1  0.32598300  0.50009960  0.33376636  1
  Te2-  Te154  1  0.32180808  0.49611346  0.66344339  1
  Te2-  Te155  1  0.33017611  0.83743141  -0.00827267  1
  Te2-  Te156  1  0.33432090  0.83501541  0.35216349  1
  Te2-  Te157  1  0.33690503  0.84008000  0.65698452  1
  Te2-  Te158  1  0.66614439  0.17210894  -0.01701587  1
  Te2-  Te159  1  0.65720603  0.16568378  0.33154106  1
  Te2-  Te160  1  0.67315188  0.17096510  0.68732101  1
  Te2-  Te161  1  0.66127277  0.49755150  -0.00882167  1
  Te2-  Te162  1  0.66456885  0.49853073  0.33010118  1
  Te2-  Te163  1  0.66764331  0.49322642  0.68891244  1
  Te2-  Te164  1  0.66473151  0.83615251  0.00304966  1
  Te2-  Te165  1  0.66448228  0.83704041  0.33062637  1
  Te2-  Te166  1  0.66488124  0.83928507  0.67119973  1
  Te2-  Te167  1  0.01253037  -0.00372703  0.16409970  1
  Te2-  Te168  1  -0.00689573  0.00333454  0.49681557  1
  Te2-  Te169  1  -0.00041498  -0.00643040  0.83771652  1
  Te2-  Te170  1  -0.00733640  0.34793285  0.18315748  1
  Te2-  Te171  1  -0.00286512  0.33165785  0.48705581  1
  Te2-  Te172  1  -0.00020870  0.33602620  0.83228149  1
  Te2-  Te173  1  0.01272183  0.66197327  0.17496847  1
  Te2-  Te174  1  -0.00009289  0.67107420  0.49446950  1
  Te2-  Te175  1  0.00227329  0.66637925  0.83362216  1
  Te2-  Te176  1  0.31869352  -0.00417537  0.16646967  1
  Te2-  Te177  1  0.33251986  0.00559616  0.50438999  1
  Te2-  Te178  1  0.33401305  0.01042016  0.82785309  1
  Te2-  Te179  1  0.33204172  0.33520096  0.16136823  1
  Te2-  Te180  1  0.33199701  0.33270294  0.50158591  1
  Te2-  Te181  1  0.32920421  0.32968568  0.82921991  1
  Te2-  Te182  1  0.32431193  0.65833657  0.16945458  1
  Te2-  Te183  1  0.32454103  0.66218635  0.49828449  1
  Te2-  Te184  1  0.33086541  0.65982971  0.82508920  1
  Te2-  Te185  1  0.66832382  0.00471671  0.15965791  1
  Te2-  Te186  1  0.66847320  0.00082682  0.49876399  1
  Te2-  Te187  1  0.67245112  -0.00366548  0.84145226  1
  Te2-  Te188  1  0.67121608  0.32322103  0.16179241  1
  Te2-  Te189  1  0.66532954  0.35761869  0.50892630  1
  Te2-  Te190  1  0.67629328  0.33615278  0.83733435  1
  Te2-  Te191  1  0.66167455  0.66969729  0.15771328  1
  Te2-  Te192  1  0.67681560  0.65596724  0.49868389  1
  Te2-  Te193  1  0.67046615  0.67693482  0.83857352  1
  Pb2+  Pb194  1  0.49219440  0.00075130  0.16817791  1
  Pb2+  Pb195  1  -0.00298814  0.17046218  0.16398236  1
  Pb2+  Pb196  1  0.49451095  0.66735539  0.17068436  1
  Pb2+  Pb197  1  0.83347984  0.83204627  0.33010914  1
  Pb2+  Pb198  1  0.82780086  0.16845540  0.33104762  1
  Pb2+  Pb199  1  0.50069162  0.33073926  0.16438355  1
  Pb2+  Pb200  1  0.33895072  0.66935052  0.66377288  1
  Pb2+  Pb201  1  0.00819496  0.16193738  0.83530083  1
  Pb2+  Pb202  1  0.50798186  0.16559801  0.66376870  1
  Pb2+  Pb203  1  0.33662035  0.33308054  0.32858700  1
  Pb2+  Pb204  1  0.16945042  0.82852605  0.32744199  1
  Pb2+  Pb205  1  0.83303097  0.49737161  -0.00155897  1
  Pb2+  Pb206  1  0.50054821  0.66538476  0.83380785  1
  Pb2+  Pb207  1  0.83696780  0.49993338  0.33756549  1
  Pb2+  Pb208  1  -0.01324807  0.66823828  0.66183638  1
  Pb2+  Pb209  1  0.00440146  0.66168598  0.00752253  1
  Pb2+  Pb210  1  0.49888233  0.50129574  0.66705671  1
  Pb2+  Pb211  1  0.00082731  0.33613086  0.65981108  1
  Pb2+  Pb212  1  0.49644828  0.16763161  0.00481522  1
  Pb2+  Pb213  1  0.16964417  0.16353596  0.34234316  1
  Pb2+  Pb214  1  0.66806108  0.49588487  0.15887587  1
  Pb2+  Pb215  1  0.49886583  0.82904832  0.33370666  1
