# generated using pymatgen
data_In22Ag21Sn22Bi21(Te54Pb11)2
_symmetry_space_group_name_H-M   'P 1'
_cell_length_a   19.17242808
_cell_length_b   19.15516404
_cell_length_c   19.15504992
_cell_angle_alpha   90.00968120
_cell_angle_beta   89.98692176
_cell_angle_gamma   90.00919658
_symmetry_Int_Tables_number   1
_chemical_formula_structural   In22Ag21Sn22Bi21(Te54Pb11)2
_chemical_formula_sum   'In22 Ag21 Sn22 Bi21 Te108 Pb22'
_cell_volume   7034.71096109
_cell_formula_units_Z   1
loop_
 _symmetry_equiv_pos_site_id
 _symmetry_equiv_pos_as_xyz
  1  'x, y, z'
loop_
 _atom_type_symbol
 _atom_type_oxidation_number
  In3+  3.0
  Ag+  1.0
  Sn2+  2.0
  Bi3+  3.0
  Te2-  -2.0
  Pb2+  2.0
loop_
 _atom_site_type_symbol
 _atom_site_label
 _atom_site_symmetry_multiplicity
 _atom_site_fract_x
 _atom_site_fract_y
 _atom_site_fract_z
 _atom_site_occupancy
  In3+  In0  1  0.15306916  0.16820518  0.67074507  1
  In3+  In1  1  0.33349517  -0.00803655  -0.01199119  1
  In3+  In2  1  -0.01943587  0.16606983  0.50025397  1
  In3+  In3  1  0.15469389  0.33221777  0.49839739  1
  In3+  In4  1  0.84458723  0.49992489  0.67076635  1
  In3+  In5  1  -0.01117492  -0.01599850  0.67242570  1
  In3+  In6  1  0.49913040  0.67014344  0.17921109  1
  In3+  In7  1  0.50397846  0.49221089  0.34337061  1
  In3+  In8  1  0.83570673  0.16782158  -0.02265683  1
  In3+  In9  1  0.34145062  0.18948389  0.82760323  1
  In3+  In10  1  0.34272842  0.49674058  0.15676123  1
  In3+  In11  1  0.67183271  0.50516054  0.84813580  1
  In3+  In12  1  0.66231630  0.83196561  0.85254780  1
  In3+  In13  1  -0.01469432  0.33701623  0.67405794  1
  In3+  In14  1  0.16888348  0.35343353  0.15900679  1
  In3+  In15  1  0.68956120  0.84198319  0.49520785  1
  In3+  In16  1  0.33244576  0.15227085  0.14742978  1
  In3+  In17  1  0.15518868  0.68034661  0.82998752  1
  In3+  In18  1  0.50561305  -0.01674470  0.17557426  1
  In3+  In19  1  0.34434585  0.48032233  0.49483295  1
  In3+  In20  1  0.32327738  0.15384377  0.49700428  1
  In3+  In21  1  0.49609999  0.68839524  0.50041243  1
  Ag+  Ag22  1  0.69139592  0.31210899  0.01518664  1
  Ag+  Ag23  1  0.84444665  0.81701830  0.35466133  1
  Ag+  Ag24  1  0.82370316  0.32975332  0.48037392  1
  Ag+  Ag25  1  0.35661244  0.30495753  0.01612445  1
  Ag+  Ag26  1  0.02169527  0.14558413  0.86270858  1
  Ag+  Ag27  1  0.85954213  0.69742100  0.83913559  1
  Ag+  Ag28  1  -0.00130760  0.85208867  0.13427150  1
  Ag+  Ag29  1  0.47377972  0.32579597  0.47129499  1
  Ag+  Ag30  1  0.63864565  0.47332300  0.14923423  1
  Ag+  Ag31  1  -0.03616285  0.80687861  0.83422004  1
  Ag+  Ag32  1  0.52917357  0.31164306  0.85336476  1
  Ag+  Ag33  1  0.35129894  0.83646587  0.49761434  1
  Ag+  Ag34  1  -0.00460664  0.86590197  0.48194010  1
  Ag+  Ag35  1  0.85841525  0.15879676  0.67573736  1
  Ag+  Ag36  1  0.13720428  0.64765364  0.13217845  1
  Ag+  Ag37  1  0.83293188  0.81022006  -0.01729023  1
  Ag+  Ag38  1  0.34261431  -0.02104901  0.31019225  1
  Ag+  Ag39  1  0.31781214  0.82918462  0.85650528  1
  Ag+  Ag40  1  0.69093522  -0.00275835  0.32130646  1
  Ag+  Ag41  1  -0.03042010  0.69416892  0.65295922  1
  Ag+  Ag42  1  -0.02356438  0.51588751  0.85493921  1
  Sn2+  Sn43  1  0.67214146  0.66565221  0.00033045  1
  Sn2+  Sn44  1  0.00046713  -0.01182123  0.33255523  1
  Sn2+  Sn45  1  0.50755810  0.83429122  -0.00512317  1
  Sn2+  Sn46  1  0.16334274  0.67164934  0.50803773  1
  Sn2+  Sn47  1  0.16885181  -0.00813095  0.50384850  1
  Sn2+  Sn48  1  0.66112570  -0.00132976  0.00691459  1
  Sn2+  Sn49  1  0.82620095  0.16379322  0.33642825  1
  Sn2+  Sn50  1  0.15936059  0.83220015  0.66584238  1
  Sn2+  Sn51  1  0.83232155  0.65606039  0.50776976  1
  Sn2+  Sn52  1  0.66308184  0.16837898  0.16762583  1
  Sn2+  Sn53  1  0.50368188  0.33390062  0.15234199  1
  Sn2+  Sn54  1  0.66559068  -0.00237530  0.66219129  1
  Sn2+  Sn55  1  0.67222627  0.17436000  0.83274819  1
  Sn2+  Sn56  1  0.83861525  0.33654042  0.17243002  1
  Sn2+  Sn57  1  0.50150615  0.00422039  0.83927314  1
  Sn2+  Sn58  1  0.83089717  0.50855688  0.33935938  1
  Sn2+  Sn59  1  -0.00120636  0.33659975  -0.01083739  1
  Sn2+  Sn60  1  0.49039054  0.83315797  0.66583719  1
  Sn2+  Sn61  1  0.33912271  0.33540478  0.67440443  1
  Sn2+  Sn62  1  0.33267765  -0.00687610  0.66906535  1
  Sn2+  Sn63  1  0.49694384  0.16346805  0.33370092  1
  Sn2+  Sn64  1  0.69105434  0.83052884  0.17439147  1
  Bi3+  Bi65  1  0.16346859  0.33605554  0.82957175  1
  Bi3+  Bi66  1  0.00170934  0.33180407  0.33219428  1
  Bi3+  Bi67  1  0.16763588  0.16611212  0.33685565  1
  Bi3+  Bi68  1  0.50254762  0.49533019  0.66444623  1
  Bi3+  Bi69  1  0.66953349  0.49639547  0.49743974  1
  Bi3+  Bi70  1  0.82964443  0.00255716  0.16789872  1
  Bi3+  Bi71  1  0.66779486  0.67031258  0.33433458  1
  Bi3+  Bi72  1  0.49897469  0.16929715  0.66611118  1
  Bi3+  Bi73  1  -0.00383895  0.50312900  0.16510961  1
  Bi3+  Bi74  1  0.49942942  0.01173947  0.50030758  1
  Bi3+  Bi75  1  0.33205928  0.67196889  0.66341680  1
  Bi3+  Bi76  1  0.33309831  0.67188403  0.33879971  1
  Bi3+  Bi77  1  0.83353769  0.33699345  0.83393170  1
  Bi3+  Bi78  1  0.16822302  0.49336389  0.66501518  1
  Bi3+  Bi79  1  0.50441422  0.66588745  0.83064699  1
  Bi3+  Bi80  1  0.49902231  0.50261110  -0.00525810  1
  Bi3+  Bi81  1  0.16510609  -0.00252793  0.17210547  1
  Bi3+  Bi82  1  -0.00001553  0.49792886  0.50067676  1
  Bi3+  Bi83  1  0.66449657  0.16813044  0.50042157  1
  Bi3+  Bi84  1  -0.00250361  0.67075129  -0.00138538  1
  Bi3+  Bi85  1  0.66727294  0.66624461  0.66395437  1
  Te2-  Te86  1  0.17482476  0.16178146  0.17071255  1
  Te2-  Te87  1  0.17147357  0.16991011  0.50198542  1
  Te2-  Te88  1  0.16234157  0.17086950  0.82664920  1
  Te2-  Te89  1  0.16584070  0.50820205  0.16786531  1
  Te2-  Te90  1  0.16576262  0.49790483  0.50389476  1
  Te2-  Te91  1  0.16811618  0.49802175  0.82595797  1
  Te2-  Te92  1  0.15417911  0.83886053  0.16768283  1
  Te2-  Te93  1  0.14023294  0.83214590  0.50894727  1
  Te2-  Te94  1  0.17242371  0.83187848  0.83191100  1
  Te2-  Te95  1  0.48937886  0.17387655  0.17008355  1
  Te2-  Te96  1  0.49991511  0.17746823  0.50199642  1
  Te2-  Te97  1  0.49850302  0.16937952  0.83197169  1
  Te2-  Te98  1  0.49696242  0.50458929  0.16247836  1
  Te2-  Te99  1  0.50391836  0.47743089  0.50026030  1
  Te2-  Te100  1  0.50142768  0.50292154  0.82872635  1
  Te2-  Te101  1  0.50212182  0.83118849  0.16554978  1
  Te2-  Te102  1  0.50066304  0.84647948  0.50158071  1
  Te2-  Te103  1  0.51172921  0.83024891  0.83117475  1
  Te2-  Te104  1  0.83039184  0.16684036  0.17718205  1
  Te2-  Te105  1  0.82764202  0.17793235  0.50377355  1
  Te2-  Te106  1  0.83242887  0.17240460  0.82197490  1
  Te2-  Te107  1  0.83537988  0.50118734  0.17173493  1
  Te2-  Te108  1  0.83425536  0.48817547  0.50545734  1
  Te2-  Te109  1  0.83438770  0.49622261  0.82625889  1
  Te2-  Te110  1  0.84456381  0.84297577  0.15746000  1
  Te2-  Te111  1  0.84379627  0.83067333  0.50176823  1
  Te2-  Te112  1  0.81515428  0.83946408  0.83596448  1
  Te2-  Te113  1  0.17398170  0.00271278  0.00200074  1
  Te2-  Te114  1  0.16727011  0.00484079  0.33524765  1
  Te2-  Te115  1  0.16606784  0.01131330  0.66124998  1
  Te2-  Te116  1  0.16191683  0.33366516  -0.00060794  1
  Te2-  Te117  1  0.16491275  0.32984732  0.32962628  1
  Te2-  Te118  1  0.17513808  0.32847696  0.66411942  1
  Te2-  Te119  1  0.16763516  0.66960241  -0.00778631  1
  Te2-  Te120  1  0.17130534  0.66820274  0.34156308  1
  Te2-  Te121  1  0.17142201  0.65930505  0.67207883  1
  Te2-  Te122  1  0.49903674  -0.00017401  0.01275840  1
  Te2-  Te123  1  0.48789921  0.00282310  0.33074756  1
  Te2-  Te124  1  0.50303705  0.00270840  0.66438461  1
  Te2-  Te125  1  0.49709085  0.34018848  -0.00515473  1
  Te2-  Te126  1  0.50073873  0.33662557  0.32558305  1
  Te2-  Te127  1  0.49800485  0.33405853  0.67736845  1
  Te2-  Te128  1  0.50743076  0.66715374  -0.00461323  1
  Te2-  Te129  1  0.50175905  0.66013192  0.33832144  1
  Te2-  Te130  1  0.50196634  0.66141561  0.66140881  1
  Te2-  Te131  1  0.82870696  0.01400758  0.00495345  1
  Te2-  Te132  1  0.83812208  0.00031064  0.33068120  1
  Te2-  Te133  1  0.83597104  0.01086982  0.66448889  1
  Te2-  Te134  1  0.83676435  0.32733995  0.00071144  1
  Te2-  Te135  1  0.83840039  0.33466328  0.33118151  1
  Te2-  Te136  1  0.83375615  0.33275170  0.67123367  1
  Te2-  Te137  1  0.83185309  0.66316446  -0.01388411  1
  Te2-  Te138  1  0.82915283  0.67147014  0.33621273  1
  Te2-  Te139  1  0.82886129  0.65795743  0.67833488  1
  Te2-  Te140  1  -0.00857315  0.16753058  0.00426726  1
  Te2-  Te141  1  0.00153502  0.16655374  0.34240630  1
  Te2-  Te142  1  0.00079592  0.18147553  0.65306101  1
  Te2-  Te143  1  -0.00089585  0.50298393  0.00160667  1
  Te2-  Te144  1  -0.00060915  0.49668892  0.33458760  1
  Te2-  Te145  1  0.00349030  0.49143623  0.66249525  1
  Te2-  Te146  1  -0.01269269  0.82993993  -0.01417439  1
  Te2-  Te147  1  -0.00880804  0.83401646  0.33834409  1
  Te2-  Te148  1  0.00001235  0.83128259  0.68971717  1
  Te2-  Te149  1  0.33485491  0.16172753  -0.00866542  1
  Te2-  Te150  1  0.32952138  0.16587331  0.34384109  1
  Te2-  Te151  1  0.33818351  0.16439395  0.67693065  1
  Te2-  Te152  1  0.33532155  0.50426256  0.00278813  1
  Te2-  Te153  1  0.34277734  0.50382749  0.33769381  1
  Te2-  Te154  1  0.33647297  0.50504532  0.65501512  1
  Te2-  Te155  1  0.33942011  0.83781111  0.00444788  1
  Te2-  Te156  1  0.33361956  0.83624776  0.34466414  1
  Te2-  Te157  1  0.33040997  0.83175278  0.64963368  1
  Te2-  Te158  1  0.67293383  0.16699824  0.00130732  1
  Te2-  Te159  1  0.66510096  0.15550532  0.33667755  1
  Te2-  Te160  1  0.66044151  0.16398990  0.66549967  1
  Te2-  Te161  1  0.66097018  0.50279741  0.00527795  1
  Te2-  Te162  1  0.66353925  0.50342809  0.33450421  1
  Te2-  Te163  1  0.66492301  0.50277843  0.65990168  1
  Te2-  Te164  1  0.67708017  0.83554457  0.00612264  1
  Te2-  Te165  1  0.67509338  0.83671382  0.34035865  1
  Te2-  Te166  1  0.66428883  0.82950849  0.64879565  1
  Te2-  Te167  1  0.00037573  -0.00437064  0.16504750  1
  Te2-  Te168  1  0.00131856  0.01202157  0.51192783  1
  Te2-  Te169  1  0.00103501  0.00677229  0.82355630  1
  Te2-  Te170  1  0.00751393  0.33641911  0.16688583  1
  Te2-  Te171  1  -0.00248882  0.33244763  0.49411347  1
  Te2-  Te172  1  0.00122684  0.33098198  0.82898857  1
  Te2-  Te173  1  -0.00335769  0.66437430  0.16627789  1
  Te2-  Te174  1  -0.00692116  0.65844305  0.51338374  1
  Te2-  Te175  1  0.00426443  0.65845436  0.83504095  1
  Te2-  Te176  1  0.33397214  0.00205953  0.16597293  1
  Te2-  Te177  1  0.33865153  0.00104005  0.50676668  1
  Te2-  Te178  1  0.34237368  -0.01968451  0.83536104  1
  Te2-  Te179  1  0.32508548  0.34073394  0.15672831  1
  Te2-  Te180  1  0.33068956  0.33090750  0.50091414  1
  Te2-  Te181  1  0.32496433  0.33736415  0.84226599  1
  Te2-  Te182  1  0.34267704  0.66422884  0.17590499  1
  Te2-  Te183  1  0.33429002  0.68086251  0.50019349  1
  Te2-  Te184  1  0.34210264  0.68130555  0.82681481  1
  Te2-  Te185  1  0.66138327  0.00080865  0.17687392  1
  Te2-  Te186  1  0.66206083  0.00145975  0.49332762  1
  Te2-  Te187  1  0.65919161  0.00106153  0.83496373  1
  Te2-  Te188  1  0.67006815  0.33187993  0.15968584  1
  Te2-  Te189  1  0.67568570  0.33213569  0.49688754  1
  Te2-  Te190  1  0.67201604  0.33680290  0.84159564  1
  Te2-  Te191  1  0.65904638  0.67104357  0.17275399  1
  Te2-  Te192  1  0.66546821  0.66132953  0.49784659  1
  Te2-  Te193  1  0.66508783  0.66781503  0.82806302  1
  Pb2+  Pb194  1  0.16132480  0.83568471  0.00218039  1
  Pb2+  Pb195  1  0.66619807  0.33267661  0.66971706  1
  Pb2+  Pb196  1  0.00094216  0.66782213  0.34411514  1
  Pb2+  Pb197  1  0.83151589  0.83388079  0.66755769  1
  Pb2+  Pb198  1  0.33390895  0.50801299  0.82737287  1
  Pb2+  Pb199  1  0.82922557  0.49592024  0.00217447  1
  Pb2+  Pb200  1  0.16690208  0.50049910  -0.00548010  1
  Pb2+  Pb201  1  -0.00321094  -0.00417318  -0.00633816  1
  Pb2+  Pb202  1  0.17248296  -0.00235601  0.82682586  1
  Pb2+  Pb203  1  0.83251059  0.00524312  0.49721813  1
  Pb2+  Pb204  1  0.34095023  0.67060502  0.00018245  1
  Pb2+  Pb205  1  0.50560441  0.83317473  0.33471309  1
  Pb2+  Pb206  1  0.50707994  0.16954998  0.00372148  1
  Pb2+  Pb207  1  -0.00055504  0.16473610  0.17439154  1
  Pb2+  Pb208  1  0.83081192  0.00538452  0.83373032  1
  Pb2+  Pb209  1  0.16157869  0.83552494  0.33903332  1
  Pb2+  Pb210  1  0.83087045  0.67316843  0.16203147  1
  Pb2+  Pb211  1  0.17255609  0.50199447  0.33639508  1
  Pb2+  Pb212  1  0.16473600  0.16938549  -0.00151738  1
  Pb2+  Pb213  1  0.32473505  0.83112649  0.17631129  1
  Pb2+  Pb214  1  0.33428229  0.32945654  0.32569353  1
  Pb2+  Pb215  1  0.66773815  0.32738532  0.33003800  1
