# generated using pymatgen
data_In22Ag21Sn22Bi21(Te54Pb11)2
_symmetry_space_group_name_H-M   'P 1'
_cell_length_a   19.11543010
_cell_length_b   19.13844387
_cell_length_c   19.14369929
_cell_angle_alpha   89.99934243
_cell_angle_beta   90.00915476
_cell_angle_gamma   89.99740336
_symmetry_Int_Tables_number   1
_chemical_formula_structural   In22Ag21Sn22Bi21(Te54Pb11)2
_chemical_formula_sum   'In22 Ag21 Sn22 Bi21 Te108 Pb22'
_cell_volume   7003.52292452
_cell_formula_units_Z   1
loop_
 _symmetry_equiv_pos_site_id
 _symmetry_equiv_pos_as_xyz
  1  'x, y, z'
loop_
 _atom_type_symbol
 _atom_type_oxidation_number
  In3+  3.0
  Ag+  1.0
  Sn2+  2.0
  Bi3+  3.0
  Te2-  -2.0
  Pb2+  2.0
loop_
 _atom_site_type_symbol
 _atom_site_label
 _atom_site_symmetry_multiplicity
 _atom_site_fract_x
 _atom_site_fract_y
 _atom_site_fract_z
 _atom_site_occupancy
  In3+  In0  1  0.68244920  -0.00763071  0.67015046  1
  In3+  In1  1  0.17193846  0.49194953  0.33312347  1
  In3+  In2  1  0.14008921  0.66383070  0.49338228  1
  In3+  In3  1  0.15800851  0.35359472  0.16651350  1
  In3+  In4  1  0.00083348  0.33087301  0.32052038  1
  In3+  In5  1  -0.00166487  0.18015187  0.82562330  1
  In3+  In6  1  0.48257025  -0.00199387  0.83665549  1
  In3+  In7  1  0.82280708  0.34187344  0.16492908  1
  In3+  In8  1  0.16115230  0.32188316  0.51428099  1
  In3+  In9  1  0.52203145  0.16827069  0.66938931  1
  In3+  In10  1  0.00022944  0.01553939  0.68487315  1
  In3+  In11  1  0.33860336  0.00642787  0.69640014  1
  In3+  In12  1  0.49529392  0.48413404  0.33147337  1
  In3+  In13  1  0.83945842  0.82778922  0.67187923  1
  In3+  In14  1  0.69041563  0.50290303  0.84269920  1
  In3+  In15  1  0.15965927  0.83131110  -0.01653120  1
  In3+  In16  1  0.51366034  0.49965858  0.67613540  1
  In3+  In17  1  0.67619351  0.83156900  0.49002603  1
  In3+  In18  1  0.32944218  0.64824327  0.65288855  1
  In3+  In19  1  0.48241744  0.84014771  0.00301390  1
  In3+  In20  1  -0.00386980  0.84083876  0.50077959  1
  In3+  In21  1  0.00200128  0.01660639  -0.00211793  1
  Ag+  Ag22  1  0.35411094  0.32578528  0.30316979  1
  Ag+  Ag23  1  0.69931344  0.50292127  0.14208575  1
  Ag+  Ag24  1  -0.01202212  0.83198724  0.80644457  1
  Ag+  Ag25  1  0.30461280  0.02556920  0.00478189  1
  Ag+  Ag26  1  0.47159075  0.83844747  0.35483393  1
  Ag+  Ag27  1  0.36195372  0.19643655  0.82886887  1
  Ag+  Ag28  1  0.83694326  0.83029504  0.31031457  1
  Ag+  Ag29  1  0.14723884  0.66306672  0.19503615  1
  Ag+  Ag30  1  0.00577880  0.49300296  0.18800217  1
  Ag+  Ag31  1  0.16137866  0.47630638  0.68912604  1
  Ag+  Ag32  1  -0.00579849  0.48277137  0.84776358  1
  Ag+  Ag33  1  0.83513635  0.68850486  0.52786548  1
  Ag+  Ag34  1  0.82096334  0.18832081  0.63777334  1
  Ag+  Ag35  1  0.52364530  0.36151662  0.83057473  1
  Ag+  Ag36  1  0.83096014  0.19183380  0.31123556  1
  Ag+  Ag37  1  0.85228300  0.64325926  0.16392881  1
  Ag+  Ag38  1  0.68103301  0.13586837  0.18433547  1
  Ag+  Ag39  1  0.01167041  0.35493127  -0.01944395  1
  Ag+  Ag40  1  0.16126245  0.31733926  0.86410520  1
  Ag+  Ag41  1  -0.00134446  0.35002626  0.68339150  1
  Ag+  Ag42  1  -0.00270108  0.19002146  0.47576998  1
  Sn2+  Sn43  1  0.84335742  0.32739179  0.83475941  1
  Sn2+  Sn44  1  0.84427059  0.32684101  0.50245559  1
  Sn2+  Sn45  1  0.16468247  -0.00578491  0.49743198  1
  Sn2+  Sn46  1  0.31337678  0.49350510  0.82942747  1
  Sn2+  Sn47  1  0.15775683  0.83516495  0.32744967  1
  Sn2+  Sn48  1  0.84184034  0.82776730  0.00137387  1
  Sn2+  Sn49  1  0.67318414  0.81690092  0.17200904  1
  Sn2+  Sn50  1  0.16175584  0.65811692  0.83233616  1
  Sn2+  Sn51  1  0.84037464  0.66437497  0.84518837  1
  Sn2+  Sn52  1  0.16331246  0.50170184  -0.00312224  1
  Sn2+  Sn53  1  0.49773639  0.66432013  0.83392868  1
  Sn2+  Sn54  1  0.49894409  0.50028133  0.00095051  1
  Sn2+  Sn55  1  0.16441379  -0.00910542  0.16793006  1
  Sn2+  Sn56  1  0.33051454  0.49869736  0.50073603  1
  Sn2+  Sn57  1  0.67330853  0.00101376  0.33635858  1
  Sn2+  Sn58  1  0.67467321  0.82725434  0.83550749  1
  Sn2+  Sn59  1  0.16776621  0.17285774  0.00397806  1
  Sn2+  Sn60  1  0.33024020  0.32595776  -0.00919637  1
  Sn2+  Sn61  1  0.83258327  0.00456880  0.17832742  1
  Sn2+  Sn62  1  0.84215557  0.49702613  0.00310162  1
  Sn2+  Sn63  1  0.66831860  0.67524499  0.00827022  1
  Sn2+  Sn64  1  0.33879663  0.01373200  0.32444602  1
  Bi3+  Bi65  1  0.66791849  0.66897975  0.33179877  1
  Bi3+  Bi66  1  0.83167641  0.16698244  0.00050964  1
  Bi3+  Bi67  1  0.83592055  -0.00430868  0.83873101  1
  Bi3+  Bi68  1  0.66444871  0.50054938  0.49863635  1
  Bi3+  Bi69  1  -0.00112353  0.49886929  0.49802094  1
  Bi3+  Bi70  1  0.83505248  0.00014423  0.50240725  1
  Bi3+  Bi71  1  0.16826345  0.83350801  0.66458731  1
  Bi3+  Bi72  1  0.49748894  0.00223680  0.50023066  1
  Bi3+  Bi73  1  0.33569636  0.82694872  0.83238584  1
  Bi3+  Bi74  1  0.67040455  0.33614893  -0.00247723  1
  Bi3+  Bi75  1  0.32826806  0.49989346  0.16479200  1
  Bi3+  Bi76  1  0.49944985  0.66813780  0.16604023  1
  Bi3+  Bi77  1  0.00207432  0.66401432  -0.00010852  1
  Bi3+  Bi78  1  0.16059467  0.16625800  0.66941258  1
  Bi3+  Bi79  1  0.50075217  0.00112650  0.16455672  1
  Bi3+  Bi80  1  0.32540594  0.33043992  0.66996651  1
  Bi3+  Bi81  1  -0.00050149  0.83138479  0.16971835  1
  Bi3+  Bi82  1  0.49966501  0.16855894  -0.00461860  1
  Bi3+  Bi83  1  0.33074558  0.83643453  0.50041173  1
  Bi3+  Bi84  1  0.33307657  0.66042125  -0.00421841  1
  Bi3+  Bi85  1  0.82759572  0.50556148  0.33404310  1
  Te2-  Te86  1  0.16696946  0.15692375  0.16202757  1
  Te2-  Te87  1  0.14988901  0.16726263  0.50224075  1
  Te2-  Te88  1  0.15198934  0.17198165  0.83651728  1
  Te2-  Te89  1  0.16199418  0.51027239  0.17146547  1
  Te2-  Te90  1  0.16478093  0.50787113  0.48702525  1
  Te2-  Te91  1  0.15037707  0.50256938  0.83491676  1
  Te2-  Te92  1  0.16257551  0.82313543  0.17098270  1
  Te2-  Te93  1  0.16694893  0.82659838  0.49929014  1
  Te2-  Te94  1  0.17301928  0.83323392  0.82874247  1
  Te2-  Te95  1  0.50120245  0.16652436  0.16194687  1
  Te2-  Te96  1  0.49996885  0.16412582  0.50714764  1
  Te2-  Te97  1  0.50303304  0.15303086  0.82777322  1
  Te2-  Te98  1  0.49168712  0.50299484  0.17143021  1
  Te2-  Te99  1  0.50021149  0.49981984  0.50254028  1
  Te2-  Te100  1  0.49188529  0.50532763  0.82620480  1
  Te2-  Te101  1  0.50556622  0.83496092  0.15675903  1
  Te2-  Te102  1  0.49977578  0.83926899  0.50086666  1
  Te2-  Te103  1  0.49975694  0.83737069  0.83559046  1
  Te2-  Te104  1  0.82637137  0.16424629  0.16411371  1
  Te2-  Te105  1  0.84668278  0.16135670  0.49770491  1
  Te2-  Te106  1  0.84053249  0.15927216  0.83717727  1
  Te2-  Te107  1  0.84461769  0.49570464  0.17116422  1
  Te2-  Te108  1  0.82914871  0.49229414  0.49501026  1
  Te2-  Te109  1  0.84423749  0.49964000  0.83312179  1
  Te2-  Te110  1  0.83553741  0.83983456  0.16174457  1
  Te2-  Te111  1  0.83281531  0.83631633  0.51237308  1
  Te2-  Te112  1  0.83905041  0.83296885  0.83072529  1
  Te2-  Te113  1  0.15971970  -0.00498871  0.00391618  1
  Te2-  Te114  1  0.16779208  0.00078416  0.33328254  1
  Te2-  Te115  1  0.16059854  -0.00125496  0.66339541  1
  Te2-  Te116  1  0.15695833  0.33273936  0.01023823  1
  Te2-  Te117  1  0.16074987  0.33719781  0.32266778  1
  Te2-  Te118  1  0.15497490  0.32916357  0.66525138  1
  Te2-  Te119  1  0.17081198  0.67043740  -0.00508676  1
  Te2-  Te120  1  0.16938052  0.66282155  0.33975759  1
  Te2-  Te121  1  0.17621218  0.67224024  0.65982994  1
  Te2-  Te122  1  0.50316851  0.00111290  -0.00139285  1
  Te2-  Te123  1  0.50221827  -0.01031197  0.33158154  1
  Te2-  Te124  1  0.49458470  0.00937666  0.66473706  1
  Te2-  Te125  1  0.50314690  0.33203467  -0.01921349  1
  Te2-  Te126  1  0.49821014  0.32946018  0.33346762  1
  Te2-  Te127  1  0.49202055  0.33427942  0.68197394  1
  Te2-  Te128  1  0.49707775  0.66793857  0.00134484  1
  Te2-  Te129  1  0.50359873  0.68945264  0.32782508  1
  Te2-  Te130  1  0.49086635  0.66015525  0.66572276  1
  Te2-  Te131  1  0.84026909  0.00103923  0.00182004  1
  Te2-  Te132  1  0.83043301  -0.01458682  0.34071929  1
  Te2-  Te133  1  0.84018291  -0.00804649  0.67029440  1
  Te2-  Te134  1  0.83538887  0.32965851  0.00409327  1
  Te2-  Te135  1  0.83806049  0.33934159  0.32812189  1
  Te2-  Te136  1  0.84656230  0.32856625  0.66859919  1
  Te2-  Te137  1  0.83481152  0.66225883  0.01177815  1
  Te2-  Te138  1  0.82807488  0.66580556  0.31402914  1
  Te2-  Te139  1  0.83449017  0.67163822  0.67469895  1
  Te2-  Te140  1  -0.00458496  0.16914503  -0.00539834  1
  Te2-  Te141  1  -0.01405732  0.17542697  0.32823401  1
  Te2-  Te142  1  -0.00106237  0.16440921  0.67220655  1
  Te2-  Te143  1  0.00149438  0.50198179  -0.00494966  1
  Te2-  Te144  1  -0.00199874  0.49385803  0.33619331  1
  Te2-  Te145  1  0.01314588  0.49580529  0.65745662  1
  Te2-  Te146  1  0.00603618  0.82898805  0.00795241  1
  Te2-  Te147  1  -0.00962209  0.83190417  0.33730636  1
  Te2-  Te148  1  0.00473956  0.82936205  0.65827102  1
  Te2-  Te149  1  0.33794788  0.16814495  -0.01805450  1
  Te2-  Te150  1  0.33306104  0.17588250  0.33481023  1
  Te2-  Te151  1  0.32306252  0.16559405  0.68280400  1
  Te2-  Te152  1  0.33280985  0.49723638  -0.00081351  1
  Te2-  Te153  1  0.33302141  0.48266311  0.33027853  1
  Te2-  Te154  1  0.31202577  0.49502822  0.66185082  1
  Te2-  Te155  1  0.32898688  0.82544499  -0.00282316  1
  Te2-  Te156  1  0.32471431  0.83593453  0.33733497  1
  Te2-  Te157  1  0.33110255  0.84473218  0.66639376  1
  Te2-  Te158  1  0.66489760  0.17220288  0.00631541  1
  Te2-  Te159  1  0.67851170  0.16590690  0.32728697  1
  Te2-  Te160  1  0.67744740  0.16301466  0.66824570  1
  Te2-  Te161  1  0.66588289  0.49920025  -0.00341867  1
  Te2-  Te162  1  0.65843119  0.50467750  0.33794243  1
  Te2-  Te163  1  0.66889764  0.50088178  0.66392755  1
  Te2-  Te164  1  0.67129445  0.83140664  -0.00286466  1
  Te2-  Te165  1  0.68334048  0.83058051  0.33747614  1
  Te2-  Te166  1  0.66731158  0.83836766  0.66816050  1
  Te2-  Te167  1  0.00045749  -0.00287942  0.16291546  1
  Te2-  Te168  1  -0.00108535  -0.00746312  0.50392022  1
  Te2-  Te169  1  -0.00218249  -0.02029387  0.83940424  1
  Te2-  Te170  1  0.00433937  0.34485173  0.16655905  1
  Te2-  Te171  1  0.00474148  0.33605220  0.49341298  1
  Te2-  Te172  1  0.00240254  0.33487670  0.83437761  1
  Te2-  Te173  1  0.00341441  0.66675587  0.16235669  1
  Te2-  Te174  1  -0.01551960  0.66647282  0.50026288  1
  Te2-  Te175  1  -0.00097012  0.68390172  0.83880107  1
  Te2-  Te176  1  0.33627539  -0.00019684  0.15462609  1
  Te2-  Te177  1  0.33355166  -0.00112648  0.49188131  1
  Te2-  Te178  1  0.33003667  -0.00903983  0.85568623  1
  Te2-  Te179  1  0.32694904  0.33712728  0.15857557  1
  Te2-  Te180  1  0.32133126  0.33136647  0.50761294  1
  Te2-  Te181  1  0.31013351  0.33499184  0.83173842  1
  Te2-  Te182  1  0.33373214  0.66273581  0.16228324  1
  Te2-  Te183  1  0.33941667  0.67012666  0.50024462  1
  Te2-  Te184  1  0.33193313  0.66455823  0.83241754  1
  Te2-  Te185  1  0.66320957  -0.00880900  0.16929151  1
  Te2-  Te186  1  0.66418842  -0.00429286  0.50829649  1
  Te2-  Te187  1  0.67313896  -0.00363446  0.82641978  1
  Te2-  Te188  1  0.66803142  0.35217419  0.15998385  1
  Te2-  Te189  1  0.66560238  0.33472609  0.50082857  1
  Te2-  Te190  1  0.67177235  0.34345771  0.83362055  1
  Te2-  Te191  1  0.66006103  0.65134874  0.16730512  1
  Te2-  Te192  1  0.68208894  0.66695344  0.50073373  1
  Te2-  Te193  1  0.66757893  0.65911899  0.83686184  1
  Pb2+  Pb194  1  0.50327797  0.15720078  0.33315072  1
  Pb2+  Pb195  1  0.67077228  0.33302926  0.66668704  1
  Pb2+  Pb196  1  0.49354330  0.33383548  0.51199841  1
  Pb2+  Pb197  1  0.51076483  0.66748238  0.49505108  1
  Pb2+  Pb198  1  0.66476486  0.67065109  0.67001048  1
  Pb2+  Pb199  1  0.67915467  0.16463089  0.49279192  1
  Pb2+  Pb200  1  0.32374474  0.16479007  0.51128983  1
  Pb2+  Pb201  1  0.33405255  0.16817537  0.16073200  1
  Pb2+  Pb202  1  0.00709271  0.65933891  0.67209315  1
  Pb2+  Pb203  1  0.67123436  0.16776966  0.83940715  1
  Pb2+  Pb204  1  0.84536141  0.49550991  0.66416001  1
  Pb2+  Pb205  1  0.66862271  0.33514870  0.32928676  1
  Pb2+  Pb206  1  0.16308161  0.00767306  0.83407382  1
  Pb2+  Pb207  1  0.33196322  0.83395728  0.17024880  1
  Pb2+  Pb208  1  0.16299395  0.17070931  0.33225114  1
  Pb2+  Pb209  1  0.67079459  -0.00119763  0.00035994  1
  Pb2+  Pb210  1  0.33879408  0.65571661  0.33271076  1
  Pb2+  Pb211  1  -0.00162309  0.17367489  0.16249742  1
  Pb2+  Pb212  1  0.50003418  0.33567314  0.15370356  1
  Pb2+  Pb213  1  -0.00499013  0.66359727  0.32980577  1
  Pb2+  Pb214  1  0.49874845  0.83789874  0.66584798  1
  Pb2+  Pb215  1  -0.00260234  0.00357304  0.33471906  1
