# generated using pymatgen
data_In22Ag21Sn22Bi21(Te54Pb11)2
_symmetry_space_group_name_H-M   'P 1'
_cell_length_a   19.14247720
_cell_length_b   19.13501666
_cell_length_c   19.13892479
_cell_angle_alpha   89.99070023
_cell_angle_beta   89.98674312
_cell_angle_gamma   89.98446704
_symmetry_Int_Tables_number   1
_chemical_formula_structural   In22Ag21Sn22Bi21(Te54Pb11)2
_chemical_formula_sum   'In22 Ag21 Sn22 Bi21 Te108 Pb22'
_cell_volume   7010.42723167
_cell_formula_units_Z   1
loop_
 _symmetry_equiv_pos_site_id
 _symmetry_equiv_pos_as_xyz
  1  'x, y, z'
loop_
 _atom_type_symbol
 _atom_type_oxidation_number
  In3+  3.0
  Ag+  1.0
  Sn2+  2.0
  Bi3+  3.0
  Te2-  -2.0
  Pb2+  2.0
loop_
 _atom_site_type_symbol
 _atom_site_label
 _atom_site_symmetry_multiplicity
 _atom_site_fract_x
 _atom_site_fract_y
 _atom_site_fract_z
 _atom_site_occupancy
  In3+  In0  1  -0.01012584  0.48789482  0.16597036  1
  In3+  In1  1  0.52017132  0.34135954  0.50006299  1
  In3+  In2  1  0.32526281  0.82815966  0.16267417  1
  In3+  In3  1  0.81563223  0.17789124  0.33293060  1
  In3+  In4  1  0.51193958  0.17165085  0.67807496  1
  In3+  In5  1  0.13948942  -0.00583705  0.84332812  1
  In3+  In6  1  0.32785696  0.33721679  0.34685759  1
  In3+  In7  1  0.36096469  0.17331619  0.51742684  1
  In3+  In8  1  0.33535051  0.01746939  0.67479145  1
  In3+  In9  1  0.50345453  0.34042073  0.15322956  1
  In3+  In10  1  0.35386072  0.16817036  0.16070402  1
  In3+  In11  1  0.01506759  0.69054918  -0.00264283  1
  In3+  In12  1  0.66637735  0.63941913  0.67315451  1
  In3+  In13  1  -0.00367291  0.48063862  0.84693353  1
  In3+  In14  1  0.50780720  0.81530796  0.66272451  1
  In3+  In15  1  0.69104100  0.83650509  0.49828190  1
  In3+  In16  1  0.65525220  0.33091624  0.33263958  1
  In3+  In17  1  0.51174476  0.16782721  -0.00771234  1
  In3+  In18  1  0.32101262  -0.00127588  -0.00408249  1
  In3+  In19  1  0.83191265  0.32051004  0.51457417  1
  In3+  In20  1  0.50602252  0.65769286  0.85092846  1
  In3+  In21  1  0.67216408  0.65059201  -0.00259515  1
  Ag+  Ag22  1  0.51956914  0.47888953  0.33285539  1
  Ag+  Ag23  1  0.81206003  0.80767724  0.00380171  1
  Ag+  Ag24  1  0.19665052  0.35718544  0.84298799  1
  Ag+  Ag25  1  0.66811250  0.17162116  0.51594480  1
  Ag+  Ag26  1  0.02622869  0.35405391  -0.00748958  1
  Ag+  Ag27  1  0.68090179  0.46662203  0.85383534  1
  Ag+  Ag28  1  0.66552809  0.31172795  -0.02096238  1
  Ag+  Ag29  1  0.36049924  0.34014763  0.67182631  1
  Ag+  Ag30  1  0.79385674  0.34131878  0.86443387  1
  Ag+  Ag31  1  0.49840247  0.51802851  -0.02590362  1
  Ag+  Ag32  1  0.80870047  0.17869477  0.70385347  1
  Ag+  Ag33  1  0.68199856  0.33273784  0.68512773  1
  Ag+  Ag34  1  0.65755837  0.18843350  0.16445437  1
  Ag+  Ag35  1  0.70032633  0.17682174  0.81442846  1
  Ag+  Ag36  1  0.82867217  -0.02159593  0.85000844  1
  Ag+  Ag37  1  -0.01176208  0.80861558  0.46582645  1
  Ag+  Ag38  1  0.14765327  0.82540944  0.00342007  1
  Ag+  Ag39  1  0.16748252  0.81841496  0.30491441  1
  Ag+  Ag40  1  0.83819017  0.67877378  0.14266172  1
  Ag+  Ag41  1  0.14346049  0.64765154  0.83391466  1
  Ag+  Ag42  1  -0.02481343  -0.00152339  0.01663778  1
  Sn2+  Sn43  1  0.16059130  0.33301317  0.51517761  1
  Sn2+  Sn44  1  0.51399464  0.66152217  0.16431226  1
  Sn2+  Sn45  1  0.15989277  0.17087013  -0.00100647  1
  Sn2+  Sn46  1  0.17077916  0.16386632  0.33401182  1
  Sn2+  Sn47  1  0.49826438  0.33806807  0.83067191  1
  Sn2+  Sn48  1  0.83161898  0.85203935  0.67656604  1
  Sn2+  Sn49  1  0.83010661  -0.00603089  0.15785597  1
  Sn2+  Sn50  1  0.49196875  0.82718962  0.34021779  1
  Sn2+  Sn51  1  0.33542926  0.66627374  0.66995873  1
  Sn2+  Sn52  1  0.66369717  0.49570313  0.15066799  1
  Sn2+  Sn53  1  0.32633061  0.00239420  0.33238313  1
  Sn2+  Sn54  1  0.51727937  -0.00071366  0.83250812  1
  Sn2+  Sn55  1  -0.00185447  0.00190745  0.32979019  1
  Sn2+  Sn56  1  0.50179987  0.66641474  0.49110475  1
  Sn2+  Sn57  1  -0.00702041  0.16147059  0.49883429  1
  Sn2+  Sn58  1  0.82437721  0.49916697  0.33177909  1
  Sn2+  Sn59  1  0.32733542  0.66841542  -0.00090918  1
  Sn2+  Sn60  1  0.67095971  0.84681808  0.83294033  1
  Sn2+  Sn61  1  0.16977460  0.50715523  0.32945342  1
  Sn2+  Sn62  1  0.32344718  0.84157134  0.49615621  1
  Sn2+  Sn63  1  -0.00290293  0.67246545  0.67151427  1
  Sn2+  Sn64  1  0.49848374  0.49292199  0.66771741  1
  Bi3+  Bi65  1  -0.00079361  0.00364468  0.66473412  1
  Bi3+  Bi66  1  0.16196617  0.16486774  0.66576845  1
  Bi3+  Bi67  1  0.83276049  0.00196161  0.49920618  1
  Bi3+  Bi68  1  0.83230338  0.66701460  0.50141735  1
  Bi3+  Bi69  1  -0.00184695  0.83376889  0.16265225  1
  Bi3+  Bi70  1  -0.00042355  0.83550074  0.83201880  1
  Bi3+  Bi71  1  0.17100040  0.83240248  0.67432712  1
  Bi3+  Bi72  1  0.83093051  0.16771032  0.00648852  1
  Bi3+  Bi73  1  0.49736058  -0.00087836  0.50320237  1
  Bi3+  Bi74  1  -0.00276583  0.16679569  0.16327954  1
  Bi3+  Bi75  1  0.66614973  0.82900542  0.16768837  1
  Bi3+  Bi76  1  0.66876904  0.00613954  0.66787600  1
  Bi3+  Bi77  1  0.83168154  0.49593980  0.66667812  1
  Bi3+  Bi78  1  0.33146251  0.67006678  0.33426870  1
  Bi3+  Bi79  1  0.33842130  0.83650287  0.83311392  1
  Bi3+  Bi80  1  0.66661259  0.00289259  -0.00167970  1
  Bi3+  Bi81  1  -0.00545094  0.33518646  0.67375789  1
  Bi3+  Bi82  1  0.33014145  0.16411413  0.83561228  1
  Bi3+  Bi83  1  0.83103867  0.33473348  0.16982443  1
  Bi3+  Bi84  1  0.16678000  0.00397181  0.50276195  1
  Bi3+  Bi85  1  0.00178919  0.16947606  0.83560760  1
  Te2-  Te86  1  0.15908433  0.16833701  0.16313691  1
  Te2-  Te87  1  0.16291376  0.16621710  0.50143377  1
  Te2-  Te88  1  0.16719980  0.15503319  0.83111122  1
  Te2-  Te89  1  0.16611795  0.50027097  0.16605892  1
  Te2-  Te90  1  0.16446261  0.50009187  0.50005686  1
  Te2-  Te91  1  0.16369006  0.50123026  0.83481794  1
  Te2-  Te92  1  0.16845245  0.83465592  0.15528150  1
  Te2-  Te93  1  0.16623051  0.84060800  0.51145563  1
  Te2-  Te94  1  0.17362603  0.84220472  0.83646976  1
  Te2-  Te95  1  0.50577619  0.17141783  0.16453104  1
  Te2-  Te96  1  0.51223368  0.16372582  0.50199496  1
  Te2-  Te97  1  0.49129058  0.16496542  0.83390404  1
  Te2-  Te98  1  0.50591869  0.49232381  0.18056068  1
  Te2-  Te99  1  0.50107438  0.49498304  0.49432156  1
  Te2-  Te100  1  0.50931886  0.50676692  0.82552040  1
  Te2-  Te101  1  0.50263147  0.82874564  0.17041105  1
  Te2-  Te102  1  0.49075232  0.83799955  0.50616311  1
  Te2-  Te103  1  0.50109476  0.83658181  0.82205727  1
  Te2-  Te104  1  0.83560155  0.16596597  0.17362560  1
  Te2-  Te105  1  0.82219381  0.16622461  0.48932102  1
  Te2-  Te106  1  0.84260859  0.19012791  0.84700228  1
  Te2-  Te107  1  0.83523894  0.49959421  0.17045691  1
  Te2-  Te108  1  0.83218369  0.50155380  0.50143018  1
  Te2-  Te109  1  0.82549099  0.48840864  0.82856536  1
  Te2-  Te110  1  0.83256909  0.82668438  0.15634944  1
  Te2-  Te111  1  0.84643243  0.83618500  0.50162462  1
  Te2-  Te112  1  0.83493383  0.83134107  0.83944851  1
  Te2-  Te113  1  0.17047414  -0.00200392  -0.00512032  1
  Te2-  Te114  1  0.16729045  -0.00379776  0.34037055  1
  Te2-  Te115  1  0.16729382  0.00004535  0.66814558  1
  Te2-  Te116  1  0.17322066  0.33228148  -0.01164172  1
  Te2-  Te117  1  0.17203181  0.33518927  0.33646309  1
  Te2-  Te118  1  0.15525486  0.32774854  0.67561774  1
  Te2-  Te119  1  0.16976251  0.67630144  -0.01328422  1
  Te2-  Te120  1  0.16894477  0.67242675  0.33465193  1
  Te2-  Te121  1  0.16633211  0.66962937  0.68192204  1
  Te2-  Te122  1  0.50343754  0.00931004  -0.00081705  1
  Te2-  Te123  1  0.49396029  -0.00372183  0.33990176  1
  Te2-  Te124  1  0.50118707  0.01386655  0.66461836  1
  Te2-  Te125  1  0.51306150  0.32283632  0.00287791  1
  Te2-  Te126  1  0.48793944  0.33654371  0.34651543  1
  Te2-  Te127  1  0.50436806  0.32604965  0.65066259  1
  Te2-  Te128  1  0.50149283  0.66557402  0.00396272  1
  Te2-  Te129  1  0.49393316  0.66467762  0.33224850  1
  Te2-  Te130  1  0.50558440  0.66461970  0.65724008  1
  Te2-  Te131  1  0.82867325  0.00402259  -0.00312588  1
  Te2-  Te132  1  0.83535069  0.00062061  0.33582274  1
  Te2-  Te133  1  0.83369598  0.01457228  0.66003739  1
  Te2-  Te134  1  0.81459953  0.33096349  0.01116341  1
  Te2-  Te135  1  0.83510499  0.33226690  0.33106317  1
  Te2-  Te136  1  0.83061032  0.32745271  0.66595089  1
  Te2-  Te137  1  0.82336220  0.66188768  -0.00317823  1
  Te2-  Te138  1  0.83293052  0.66646778  0.34002025  1
  Te2-  Te139  1  0.82688191  0.66810968  0.66278809  1
  Te2-  Te140  1  -0.00208187  0.15057180  0.00037062  1
  Te2-  Te141  1  0.00369180  0.16339791  0.32912467  1
  Te2-  Te142  1  -0.00159911  0.16938317  0.66710363  1
  Te2-  Te143  1  -0.00144636  0.49956750  -0.00135664  1
  Te2-  Te144  1  0.00023477  0.49760466  0.32281777  1
  Te2-  Te145  1  -0.00651858  0.50085164  0.67482201  1
  Te2-  Te146  1  0.00186588  0.84500904  -0.00262748  1
  Te2-  Te147  1  0.01206549  0.83309554  0.32412410  1
  Te2-  Te148  1  0.00115627  0.83755144  0.67111007  1
  Te2-  Te149  1  0.33097953  0.16031095  0.00105221  1
  Te2-  Te150  1  0.32803793  0.16950840  0.32067772  1
  Te2-  Te151  1  0.32664385  0.18163399  0.66871571  1
  Te2-  Te152  1  0.34968399  0.50066676  -0.00120371  1
  Te2-  Te153  1  0.32692075  0.50032932  0.33249451  1
  Te2-  Te154  1  0.33740684  0.49118635  0.66618613  1
  Te2-  Te155  1  0.33724708  0.83917729  0.00136066  1
  Te2-  Te156  1  0.32264503  0.83272300  0.32330018  1
  Te2-  Te157  1  0.33506902  0.82974008  0.66887802  1
  Te2-  Te158  1  0.66459399  0.16559913  0.01530393  1
  Te2-  Te159  1  0.66413193  0.17350068  0.31811927  1
  Te2-  Te160  1  0.66538485  0.17330221  0.66570349  1
  Te2-  Te161  1  0.65008464  0.50284143  -0.00700501  1
  Te2-  Te162  1  0.66645093  0.49130582  0.33399326  1
  Te2-  Te163  1  0.66902101  0.48562070  0.66844670  1
  Te2-  Te164  1  0.66792831  0.83999167  -0.00060739  1
  Te2-  Te165  1  0.66439761  0.83107474  0.33528413  1
  Te2-  Te166  1  0.66679126  0.84445114  0.66560847  1
  Te2-  Te167  1  -0.00288479  -0.00144276  0.16325536  1
  Te2-  Te168  1  -0.00017889  0.00061539  0.50113589  1
  Te2-  Te169  1  -0.01799525  0.00124292  0.82547604  1
  Te2-  Te170  1  -0.00191940  0.33315846  0.14890816  1
  Te2-  Te171  1  -0.00805990  0.33052362  0.50181553  1
  Te2-  Te172  1  -0.00089861  0.33061493  0.84259314  1
  Te2-  Te173  1  -0.00861558  0.67106505  0.15101993  1
  Te2-  Te174  1  -0.00133394  0.66776594  0.50375915  1
  Te2-  Te175  1  -0.00164304  0.67354370  0.84101030  1
  Te2-  Te176  1  0.33420658  0.00839486  0.16279040  1
  Te2-  Te177  1  0.33309256  0.01263958  0.50331481  1
  Te2-  Te178  1  0.34407367  0.00029653  0.83643316  1
  Te2-  Te179  1  0.34355545  0.32611934  0.16518758  1
  Te2-  Te180  1  0.32515997  0.32266205  0.49874582  1
  Te2-  Te181  1  0.33910220  0.32843659  0.82079948  1
  Te2-  Te182  1  0.33594706  0.67230615  0.16727155  1
  Te2-  Te183  1  0.33542427  0.66969563  0.49940393  1
  Te2-  Te184  1  0.34932377  0.67336097  0.83315526  1
  Te2-  Te185  1  0.66920685  -0.00929724  0.16688929  1
  Te2-  Te186  1  0.66604278  0.00399266  0.50404882  1
  Te2-  Te187  1  0.67986056  0.01649497  0.83072190  1
  Te2-  Te188  1  0.66396441  0.33587005  0.17714401  1
  Te2-  Te189  1  0.67263792  0.32065564  0.48828978  1
  Te2-  Te190  1  0.65092568  0.32223984  0.82898132  1
  Te2-  Te191  1  0.67594675  0.66743090  0.16141264  1
  Te2-  Te192  1  0.66806430  0.67442631  0.50655030  1
  Te2-  Te193  1  0.65747332  0.67696915  0.82867908  1
  Pb2+  Pb194  1  0.66679857  0.49729345  0.50298007  1
  Pb2+  Pb195  1  -0.00210541  0.49850426  0.49959399  1
  Pb2+  Pb196  1  0.49480234  0.17000656  0.33460987  1
  Pb2+  Pb197  1  0.34283477  0.33023577  -0.00510054  1
  Pb2+  Pb198  1  0.83663092  0.83405717  0.32542218  1
  Pb2+  Pb199  1  0.34035404  0.50053219  0.16481217  1
  Pb2+  Pb200  1  0.00352875  0.32876694  0.32674871  1
  Pb2+  Pb201  1  0.16552994  0.49574342  0.66921543  1
  Pb2+  Pb202  1  0.50039993  -0.00281181  0.16765713  1
  Pb2+  Pb203  1  0.82787547  0.49461620  -0.00056720  1
  Pb2+  Pb204  1  0.33410082  0.49574552  0.49999283  1
  Pb2+  Pb205  1  0.50311568  0.83616920  -0.00342523  1
  Pb2+  Pb206  1  0.66613896  0.00215761  0.33695402  1
  Pb2+  Pb207  1  0.16838194  0.67187402  0.51012145  1
  Pb2+  Pb208  1  0.17304306  0.33283717  0.16436397  1
  Pb2+  Pb209  1  0.33710704  0.50326081  0.83322949  1
  Pb2+  Pb210  1  0.82822704  0.65790652  0.82973674  1
  Pb2+  Pb211  1  -0.00057064  0.66499615  0.32522008  1
  Pb2+  Pb212  1  0.66506617  0.66195818  0.33324961  1
  Pb2+  Pb213  1  0.16667574  0.00208773  0.16670536  1
  Pb2+  Pb214  1  0.17142124  0.50151680  -0.00097769  1
  Pb2+  Pb215  1  0.16337628  0.66716318  0.16173868  1
