# generated using pymatgen
data_In22Ag21Sn22Bi21(Te54Pb11)2
_symmetry_space_group_name_H-M   'P 1'
_cell_length_a   19.14454125
_cell_length_b   19.17159195
_cell_length_c   19.15142073
_cell_angle_alpha   89.99018376
_cell_angle_beta   90.01246066
_cell_angle_gamma   89.99841627
_symmetry_Int_Tables_number   1
_chemical_formula_structural   In22Ag21Sn22Bi21(Te54Pb11)2
_chemical_formula_sum   'In22 Ag21 Sn22 Bi21 Te108 Pb22'
_cell_volume   7029.17120425
_cell_formula_units_Z   1
loop_
 _symmetry_equiv_pos_site_id
 _symmetry_equiv_pos_as_xyz
  1  'x, y, z'
loop_
 _atom_type_symbol
 _atom_type_oxidation_number
  In3+  3.0
  Ag+  1.0
  Sn2+  2.0
  Bi3+  3.0
  Te2-  -2.0
  Pb2+  2.0
loop_
 _atom_site_type_symbol
 _atom_site_label
 _atom_site_symmetry_multiplicity
 _atom_site_fract_x
 _atom_site_fract_y
 _atom_site_fract_z
 _atom_site_occupancy
  In3+  In0  1  0.48516329  0.33303395  0.18020701  1
  In3+  In1  1  0.49911146  0.33364614  0.83996328  1
  In3+  In2  1  0.02092470  0.66664895  -0.00452578  1
  In3+  In3  1  0.16998874  0.84738520  -0.01725189  1
  In3+  In4  1  0.33209215  0.16236044  0.16066461  1
  In3+  In5  1  0.33114869  0.16101864  0.49794454  1
  In3+  In6  1  0.33560561  0.51602753  0.51112114  1
  In3+  In7  1  0.33026943  0.15274240  0.83111910  1
  In3+  In8  1  0.17743142  0.83497800  0.65507592  1
  In3+  In9  1  0.80128409  0.66631706  0.51362873  1
  In3+  In10  1  0.18490296  0.66738421  0.15174901  1
  In3+  In11  1  0.48868036  0.15812477  0.65995501  1
  In3+  In12  1  0.49616346  -0.01542990  0.47256028  1
  In3+  In13  1  0.49040649  0.15744447  -0.00116903  1
  In3+  In14  1  0.32975947  0.82548349  0.83622767  1
  In3+  In15  1  0.81837941  0.66341288  0.83185512  1
  In3+  In16  1  0.01399601  0.15972009  0.83287922  1
  In3+  In17  1  0.81901661  0.82695755  0.00355383  1
  In3+  In18  1  0.16879878  0.31581714  0.82905914  1
  In3+  In19  1  0.34002152  0.66437674  -0.00837452  1
  In3+  In20  1  0.49459680  0.16925831  0.32649996  1
  In3+  In21  1  0.64346499  0.50365547  0.17210014  1
  Ag+  Ag22  1  0.69512280  0.49869259  0.81266885  1
  Ag+  Ag23  1  0.33367387  0.81987224  0.47923689  1
  Ag+  Ag24  1  0.31360615  -0.02199811  0.02527310  1
  Ag+  Ag25  1  0.48462302  0.51763533  0.30563746  1
  Ag+  Ag26  1  0.15385388  0.53054222  0.68495524  1
  Ag+  Ag27  1  0.32794925  0.51960093  0.15644082  1
  Ag+  Ag28  1  0.80396327  0.19687067  0.64742179  1
  Ag+  Ag29  1  0.33084609  0.69348550  0.64620390  1
  Ag+  Ag30  1  0.14380789  0.02754862  0.53285369  1
  Ag+  Ag31  1  0.18948412  0.02175145  0.14812697  1
  Ag+  Ag32  1  0.49466089  0.69090399  0.52666634  1
  Ag+  Ag33  1  0.68921413  0.67185489  0.66745166  1
  Ag+  Ag34  1  0.16476408  0.13496994  0.64019279  1
  Ag+  Ag35  1  0.68825076  0.80324369  0.49805864  1
  Ag+  Ag36  1  0.48301771  -0.01273589  0.16822671  1
  Ag+  Ag37  1  0.48024158  0.69515530  0.19970621  1
  Ag+  Ag38  1  0.86211021  0.29860457  0.53644342  1
  Ag+  Ag39  1  0.16868097  0.66780265  0.81557930  1
  Ag+  Ag40  1  0.51674782  0.80363103  0.31376756  1
  Ag+  Ag41  1  0.17480839  0.01495201  0.85356074  1
  Ag+  Ag42  1  0.18866715  0.18603897  0.00131607  1
  Sn2+  Sn43  1  0.17588151  0.83358777  0.33301577  1
  Sn2+  Sn44  1  0.33064335  0.50070263  0.83312302  1
  Sn2+  Sn45  1  0.84498032  -0.00179074  0.83340975  1
  Sn2+  Sn46  1  0.01534618  0.50228489  0.16541148  1
  Sn2+  Sn47  1  0.49286813  0.66698047  0.82569803  1
  Sn2+  Sn48  1  0.16964571  0.49395762  -0.01290579  1
  Sn2+  Sn49  1  0.49259592  -0.00136171  0.84301594  1
  Sn2+  Sn50  1  0.17760241  0.50371058  0.33529215  1
  Sn2+  Sn51  1  0.50199160  0.82905880  0.65543047  1
  Sn2+  Sn52  1  0.65801888  0.66395280  -0.01048804  1
  Sn2+  Sn53  1  0.01179527  0.50336006  0.83229522  1
  Sn2+  Sn54  1  0.66512203  0.34339857  0.66509018  1
  Sn2+  Sn55  1  0.83563144  0.32959506  0.83388809  1
  Sn2+  Sn56  1  0.33108480  0.34256047  0.33803345  1
  Sn2+  Sn57  1  0.01637730  0.66121222  0.66989433  1
  Sn2+  Sn58  1  0.00622786  0.15962327  0.16218822  1
  Sn2+  Sn59  1  0.82638944  0.50540525  0.00098347  1
  Sn2+  Sn60  1  0.00106817  0.66831806  0.32928929  1
  Sn2+  Sn61  1  0.66656653  -0.00520777  0.66596576  1
  Sn2+  Sn62  1  0.01116400  0.00042379  0.33217941  1
  Sn2+  Sn63  1  0.01145294  0.32761084  0.67029290  1
  Sn2+  Sn64  1  0.33470791  0.83483903  0.17353091  1
  Bi3+  Bi65  1  0.49335951  0.49799447  0.66835545  1
  Bi3+  Bi66  1  0.33271382  0.66609739  0.33298770  1
  Bi3+  Bi67  1  0.82906452  0.50254225  0.33091956  1
  Bi3+  Bi68  1  0.65960777  0.16878326  0.50341411  1
  Bi3+  Bi69  1  0.83332994  0.00339342  0.16588171  1
  Bi3+  Bi70  1  0.82900774  0.66450778  0.16207906  1
  Bi3+  Bi71  1  0.83121896  0.83315674  0.67096313  1
  Bi3+  Bi72  1  -0.00069010  0.33675866  0.33186504  1
  Bi3+  Bi73  1  0.33799791  -0.00061390  0.66911715  1
  Bi3+  Bi74  1  0.83251045  0.33654364  0.16843202  1
  Bi3+  Bi75  1  0.65871218  0.50044696  0.50551231  1
  Bi3+  Bi76  1  0.00207456  -0.00381834  0.66954759  1
  Bi3+  Bi77  1  0.66671256  0.33927490  -0.00559073  1
  Bi3+  Bi78  1  0.49753708  0.49943805  -0.00451507  1
  Bi3+  Bi79  1  0.00229675  0.83030970  0.83388637  1
  Bi3+  Bi80  1  0.66422126  0.00101298  -0.00483413  1
  Bi3+  Bi81  1  0.32888405  0.00088443  0.33365185  1
  Bi3+  Bi82  1  0.83245271  0.16431085  -0.01064762  1
  Bi3+  Bi83  1  0.33368604  0.33008762  0.67103927  1
  Bi3+  Bi84  1  0.50138089  0.33042922  0.50717109  1
  Bi3+  Bi85  1  0.17040309  0.66823293  0.50042713  1
  Te2-  Te86  1  0.16617778  0.16715613  0.15208185  1
  Te2-  Te87  1  0.17409808  0.16507510  0.49508590  1
  Te2-  Te88  1  0.16979436  0.16270984  0.84963020  1
  Te2-  Te89  1  0.17638002  0.50881301  0.16675479  1
  Te2-  Te90  1  0.17798933  0.50404838  0.50057483  1
  Te2-  Te91  1  0.17043716  0.51226166  0.83001325  1
  Te2-  Te92  1  0.17266034  0.81722660  0.16992680  1
  Te2-  Te93  1  0.18385892  0.83192228  0.50154020  1
  Te2-  Te94  1  0.16954024  0.81960323  0.83563070  1
  Te2-  Te95  1  0.49713087  0.17878600  0.16393630  1
  Te2-  Te96  1  0.49619986  0.16820630  0.50257603  1
  Te2-  Te97  1  0.49177551  0.16898596  0.83967344  1
  Te2-  Te98  1  0.49144674  0.48932384  0.16161335  1
  Te2-  Te99  1  0.49270634  0.49030290  0.50579710  1
  Te2-  Te100  1  0.49248527  0.49638955  0.83369356  1
  Te2-  Te101  1  0.50045045  0.83851238  0.17132714  1
  Te2-  Te102  1  0.48139667  0.83647959  0.50472826  1
  Te2-  Te103  1  0.48960867  0.83207450  0.83356608  1
  Te2-  Te104  1  0.83479586  0.16887467  0.16020143  1
  Te2-  Te105  1  0.82608331  0.16067613  0.50642520  1
  Te2-  Te106  1  0.83704314  0.16369474  0.83019920  1
  Te2-  Te107  1  0.83906792  0.49912323  0.16713294  1
  Te2-  Te108  1  0.82394406  0.50756602  0.49410678  1
  Te2-  Te109  1  0.83990090  0.50748569  0.83498007  1
  Te2-  Te110  1  0.83394052  0.83319601  0.16483255  1
  Te2-  Te111  1  0.83407432  0.82603588  0.50545123  1
  Te2-  Te112  1  0.83570779  0.82753466  0.83612290  1
  Te2-  Te113  1  0.16963263  -0.00430992  0.00349025  1
  Te2-  Te114  1  0.16863990  -0.00500743  0.32118546  1
  Te2-  Te115  1  0.17082490  -0.01102578  0.67217380  1
  Te2-  Te116  1  0.16700815  0.33242866  -0.00743066  1
  Te2-  Te117  1  0.16343484  0.33642781  0.33367140  1
  Te2-  Te118  1  0.17094824  0.33141809  0.67616326  1
  Te2-  Te119  1  0.17317201  0.66024733  0.00261957  1
  Te2-  Te120  1  0.16938568  0.66507421  0.33619135  1
  Te2-  Te121  1  0.17927843  0.67368239  0.66444645  1
  Te2-  Te122  1  0.50348222  0.00512008  0.01206691  1
  Te2-  Te123  1  0.49362068  0.01161501  0.31936539  1
  Te2-  Te124  1  0.49940149  0.00273293  0.67999378  1
  Te2-  Te125  1  0.50519325  0.33341391  -0.00267219  1
  Te2-  Te126  1  0.49567938  0.32946357  0.33815257  1
  Te2-  Te127  1  0.49751001  0.32917850  0.67426391  1
  Te2-  Te128  1  0.49585314  0.66263531  -0.00340094  1
  Te2-  Te129  1  0.49195639  0.65957975  0.34049894  1
  Te2-  Te130  1  0.47637294  0.66051545  0.67110811  1
  Te2-  Te131  1  0.83064341  0.00036273  -0.00014836  1
  Te2-  Te132  1  0.83577050  0.00045828  0.33162791  1
  Te2-  Te133  1  0.83635003  -0.00426267  0.67261864  1
  Te2-  Te134  1  0.83062560  0.33312828  0.00085332  1
  Te2-  Te135  1  0.83535276  0.33878124  0.33249191  1
  Te2-  Te136  1  0.83642997  0.33656388  0.67485127  1
  Te2-  Te137  1  0.82637772  0.66776294  -0.00213374  1
  Te2-  Te138  1  0.83437448  0.66456710  0.32616707  1
  Te2-  Te139  1  0.84146645  0.66945307  0.67105146  1
  Te2-  Te140  1  -0.00659360  0.16790101  -0.01005609  1
  Te2-  Te141  1  0.00014401  0.17058983  0.33456944  1
  Te2-  Te142  1  0.01773924  0.15866984  0.67725856  1
  Te2-  Te143  1  0.00310560  0.50845917  -0.00008550  1
  Te2-  Te144  1  0.00003220  0.50031238  0.33153430  1
  Te2-  Te145  1  0.00934855  0.50089164  0.66689348  1
  Te2-  Te146  1  0.01144509  0.82625172  -0.00364960  1
  Te2-  Te147  1  0.00296971  0.83172293  0.33431437  1
  Te2-  Te148  1  -0.00156306  0.83134177  0.67220499  1
  Te2-  Te149  1  0.33630132  0.16419197  0.00326321  1
  Te2-  Te150  1  0.33801432  0.16611732  0.32793703  1
  Te2-  Te151  1  0.32206278  0.16364714  0.67547673  1
  Te2-  Te152  1  0.33458718  0.50392156  0.00814306  1
  Te2-  Te153  1  0.33860753  0.50089313  0.33251022  1
  Te2-  Te154  1  0.33139698  0.49139939  0.66426013  1
  Te2-  Te155  1  0.32510810  0.83330705  0.00091738  1
  Te2-  Te156  1  0.34008051  0.83728700  0.33209026  1
  Te2-  Te157  1  0.33275300  0.83844329  0.68003592  1
  Te2-  Te158  1  0.66675642  0.17080573  -0.00393875  1
  Te2-  Te159  1  0.66128787  0.16626315  0.33630125  1
  Te2-  Te160  1  0.66055282  0.16873096  0.66611802  1
  Te2-  Te161  1  0.66113667  0.50101418  -0.00270712  1
  Te2-  Te162  1  0.66293921  0.50085861  0.33422427  1
  Te2-  Te163  1  0.66009863  0.50927683  0.66904384  1
  Te2-  Te164  1  0.66282869  0.83515215  -0.00444241  1
  Te2-  Te165  1  0.65870889  0.83176191  0.34908520  1
  Te2-  Te166  1  0.66918079  0.82406827  0.65511334  1
  Te2-  Te167  1  -0.00579185  0.00003923  0.16859392  1
  Te2-  Te168  1  0.00198671  -0.00014647  0.50213241  1
  Te2-  Te169  1  0.01641107  -0.00438537  0.83141176  1
  Te2-  Te170  1  -0.00363646  0.33174887  0.16723301  1
  Te2-  Te171  1  -0.00043157  0.33394043  0.49795899  1
  Te2-  Te172  1  0.00818243  0.33161951  0.82784068  1
  Te2-  Te173  1  -0.00780281  0.66282646  0.15818523  1
  Te2-  Te174  1  0.00895614  0.66689401  0.49998883  1
  Te2-  Te175  1  0.01360895  0.66979799  0.83846718  1
  Te2-  Te176  1  0.33569051  0.00769136  0.16846155  1
  Te2-  Te177  1  0.34448302  0.00683323  0.50170905  1
  Te2-  Te178  1  0.32708341  0.00030526  0.83491618  1
  Te2-  Te179  1  0.33310640  0.32463549  0.17106733  1
  Te2-  Te180  1  0.33867722  0.31874252  0.50478816  1
  Te2-  Te181  1  0.32845548  0.32966437  0.83299776  1
  Te2-  Te182  1  0.33932783  0.66631052  0.16706612  1
  Te2-  Te183  1  0.33824056  0.66920223  0.49855154  1
  Te2-  Te184  1  0.32368636  0.66950539  0.84178209  1
  Te2-  Te185  1  0.67258275  -0.00015744  0.16098622  1
  Te2-  Te186  1  0.65041191  0.00642761  0.50532903  1
  Te2-  Te187  1  0.66683972  -0.00067262  0.83410731  1
  Te2-  Te188  1  0.67050699  0.34272124  0.16032470  1
  Te2-  Te189  1  0.66620478  0.33490132  0.50437367  1
  Te2-  Te190  1  0.66897213  0.34745234  0.83234023  1
  Te2-  Te191  1  0.66685783  0.65895497  0.16107294  1
  Te2-  Te192  1  0.64551829  0.66130376  0.51414590  1
  Te2-  Te193  1  0.66650727  0.65988783  0.82230734  1
  Pb2+  Pb194  1  0.66331634  0.16956455  0.16467708  1
  Pb2+  Pb195  1  -0.00037932  0.50216614  0.49999410  1
  Pb2+  Pb196  1  -0.00009737  0.33972308  -0.00480803  1
  Pb2+  Pb197  1  0.83392017  0.50245072  0.66349525  1
  Pb2+  Pb198  1  0.66000414  0.66633938  0.33632726  1
  Pb2+  Pb199  1  0.00880801  0.83013751  0.16648267  1
  Pb2+  Pb200  1  0.33655207  0.33356986  0.00076182  1
  Pb2+  Pb201  1  0.83307482  0.16997594  0.33488226  1
  Pb2+  Pb202  1  0.49226586  0.83498403  0.00353805  1
  Pb2+  Pb203  1  0.17050626  0.33643014  0.50678163  1
  Pb2+  Pb204  1  0.65857670  0.82911096  0.82304829  1
  Pb2+  Pb205  1  0.82455489  -0.00635079  0.50442230  1
  Pb2+  Pb206  1  0.00018957  0.16672695  0.51034944  1
  Pb2+  Pb207  1  0.82836090  0.83170773  0.33537838  1
  Pb2+  Pb208  1  0.66317537  0.33558847  0.33206523  1
  Pb2+  Pb209  1  0.66353627  0.17416000  0.82976985  1
  Pb2+  Pb210  1  0.00431195  0.00077435  -0.00011024  1
  Pb2+  Pb211  1  0.16830290  0.16323128  0.32249054  1
  Pb2+  Pb212  1  0.01351744  0.83289673  0.50210706  1
  Pb2+  Pb213  1  0.16580780  0.33917825  0.16456414  1
  Pb2+  Pb214  1  0.66483315  0.82896556  0.17024516  1
  Pb2+  Pb215  1  0.66277402  -0.00350496  0.33318656  1
