# generated using pymatgen
data_In22Ag21Sn22Bi21(Te54Pb11)2
_symmetry_space_group_name_H-M   'P 1'
_cell_length_a   19.15823662
_cell_length_b   19.15605776
_cell_length_c   19.18028065
_cell_angle_alpha   89.99954162
_cell_angle_beta   89.99963225
_cell_angle_gamma   89.99200375
_symmetry_Int_Tables_number   1
_chemical_formula_structural   In22Ag21Sn22Bi21(Te54Pb11)2
_chemical_formula_sum   'In22 Ag21 Sn22 Bi21 Te108 Pb22'
_cell_volume   7039.09171621
_cell_formula_units_Z   1
loop_
 _symmetry_equiv_pos_site_id
 _symmetry_equiv_pos_as_xyz
  1  'x, y, z'
loop_
 _atom_type_symbol
 _atom_type_oxidation_number
  In3+  3.0
  Ag+  1.0
  Sn2+  2.0
  Bi3+  3.0
  Te2-  -2.0
  Pb2+  2.0
loop_
 _atom_site_type_symbol
 _atom_site_label
 _atom_site_symmetry_multiplicity
 _atom_site_fract_x
 _atom_site_fract_y
 _atom_site_fract_z
 _atom_site_occupancy
  In3+  In0  1  0.84090936  0.49717316  -0.01919570  1
  In3+  In1  1  0.32873277  0.83519500  0.18202436  1
  In3+  In2  1  0.00014052  0.32425431  -0.00738200  1
  In3+  In3  1  0.52000876  0.51651797  0.33392891  1
  In3+  In4  1  0.17249367  0.00300304  0.83380824  1
  In3+  In5  1  0.84127517  0.51051017  0.32960724  1
  In3+  In6  1  0.30648400  0.34010592  0.00223829  1
  In3+  In7  1  0.47467060  0.16755772  -0.01730812  1
  In3+  In8  1  0.31939927  0.16809886  0.82254730  1
  In3+  In9  1  0.67091320  0.16569787  0.19145100  1
  In3+  In10  1  0.00856739  -0.01685616  -0.00395339  1
  In3+  In11  1  0.83900736  0.67494473  0.81919485  1
  In3+  In12  1  0.15943454  0.33393652  0.17711434  1
  In3+  In13  1  0.68350709  0.82971306  0.16982307  1
  In3+  In14  1  0.49905619  0.85290784  0.64987557  1
  In3+  In15  1  0.50573605  0.66983793  0.81380625  1
  In3+  In16  1  0.16570445  0.65621048  0.50168856  1
  In3+  In17  1  0.17062089  0.00254310  0.49398713  1
  In3+  In18  1  0.32335785  0.31383654  0.65944951  1
  In3+  In19  1  0.67407502  -0.01253499  0.33105901  1
  In3+  In20  1  0.32735392  0.34583791  0.34965340  1
  In3+  In21  1  0.00932789  -0.00763880  0.33075724  1
  Ag+  Ag22  1  0.85851302  0.12938976  0.64601896  1
  Ag+  Ag23  1  0.52350959  0.00407763  0.51997019  1
  Ag+  Ag24  1  0.85576393  0.16583495  0.35811118  1
  Ag+  Ag25  1  0.85613925  0.31017409  0.81557740  1
  Ag+  Ag26  1  0.14634064  0.16817799  0.02159567  1
  Ag+  Ag27  1  -0.01920428  0.69441527  0.63279349  1
  Ag+  Ag28  1  0.30392694  0.02733990  0.36193069  1
  Ag+  Ag29  1  0.14734012  0.14185780  0.66368160  1
  Ag+  Ag30  1  0.80388905  0.67223067  0.47010140  1
  Ag+  Ag31  1  0.48255053  0.15339694  0.63959971  1
  Ag+  Ag32  1  0.32089296  0.01575530  0.64894553  1
  Ag+  Ag33  1  0.13954851  0.52049317  0.01969526  1
  Ag+  Ag34  1  0.68717712  0.51701569  0.85513410  1
  Ag+  Ag35  1  0.16758949  0.81452181  0.02510428  1
  Ag+  Ag36  1  0.70570390  0.64560987  0.35654259  1
  Ag+  Ag37  1  0.31374931  0.83887058  0.48404460  1
  Ag+  Ag38  1  0.18349918  0.49931013  0.35510442  1
  Ag+  Ag39  1  0.01112493  0.63871361  0.34508939  1
  Ag+  Ag40  1  0.86032619  0.81378028  0.33456290  1
  Ag+  Ag41  1  0.02464823  0.82514672  0.16140408  1
  Ag+  Ag42  1  0.16585851  0.35133134  0.52099134  1
  Sn2+  Sn43  1  0.66866447  0.16750322  0.51134033  1
  Sn2+  Sn44  1  0.83229610  0.17351333  -0.00601190  1
  Sn2+  Sn45  1  0.50213731  0.49327705  0.00106380  1
  Sn2+  Sn46  1  -0.00415582  0.16356001  0.16846262  1
  Sn2+  Sn47  1  0.16310664  0.82270818  0.33691749  1
  Sn2+  Sn48  1  -0.00159903  0.83120119  0.83787664  1
  Sn2+  Sn49  1  -0.00463671  0.33503693  0.66365427  1
  Sn2+  Sn50  1  0.67209340  0.33185068  -0.00738650  1
  Sn2+  Sn51  1  0.17033654  0.33329965  0.82866888  1
  Sn2+  Sn52  1  0.50099173  0.48555998  0.66704671  1
  Sn2+  Sn53  1  0.83463687  0.66762316  0.16907937  1
  Sn2+  Sn54  1  0.31961661  0.66875200  0.33671201  1
  Sn2+  Sn55  1  0.32989834  0.14688089  0.49860634  1
  Sn2+  Sn56  1  -0.00073731  0.17343537  0.50486596  1
  Sn2+  Sn57  1  0.49529077  -0.00310743  0.82586439  1
  Sn2+  Sn58  1  0.32673450  0.49955819  0.16809524  1
  Sn2+  Sn59  1  0.83687909  0.33212997  0.17437833  1
  Sn2+  Sn60  1  0.83397414  0.83278630  0.64557625  1
  Sn2+  Sn61  1  0.17666061  0.83454847  0.66665458  1
  Sn2+  Sn62  1  -0.00087450  0.50897620  0.16929185  1
  Sn2+  Sn63  1  0.67546553  0.00962789  0.00121678  1
  Sn2+  Sn64  1  0.01450808  -0.00441433  0.66363448  1
  Bi3+  Bi65  1  0.49651363  0.83928295  0.33276402  1
  Bi3+  Bi66  1  0.00400790  0.83725667  0.49818055  1
  Bi3+  Bi67  1  0.32959645  0.00023243  -0.00228486  1
  Bi3+  Bi68  1  0.83514622  0.50053700  0.66268645  1
  Bi3+  Bi69  1  0.49818577  0.00104260  0.16418596  1
  Bi3+  Bi70  1  0.16373977  0.00635377  0.16130286  1
  Bi3+  Bi71  1  0.49898243  0.33193400  0.16447581  1
  Bi3+  Bi72  1  0.33223833  0.66948615  0.66856634  1
  Bi3+  Bi73  1  0.66661660  0.66921146  0.00676311  1
  Bi3+  Bi74  1  0.33544445  0.49462028  0.83247000  1
  Bi3+  Bi75  1  0.66809625  0.17372527  0.83274303  1
  Bi3+  Bi76  1  -0.00312987  0.66593053  0.00681342  1
  Bi3+  Bi77  1  0.66434162  0.33472050  0.66878328  1
  Bi3+  Bi78  1  0.66526215  0.49993924  0.50415138  1
  Bi3+  Bi79  1  -0.00331126  0.32825675  0.33122893  1
  Bi3+  Bi80  1  0.83319494  0.00472123  0.16867122  1
  Bi3+  Bi81  1  0.49559330  0.16203216  0.33010543  1
  Bi3+  Bi82  1  0.50265727  0.33443094  0.83384304  1
  Bi3+  Bi83  1  0.33065844  0.83544941  0.83289956  1
  Bi3+  Bi84  1  0.16833200  0.50284152  0.67384722  1
  Bi3+  Bi85  1  0.49825664  0.66543534  0.16778668  1
  Te2-  Te86  1  0.16595958  0.17182121  0.16945074  1
  Te2-  Te87  1  0.16927405  0.15511629  0.51251668  1
  Te2-  Te88  1  0.16927511  0.16146913  0.81344349  1
  Te2-  Te89  1  0.16836787  0.48735008  0.15862896  1
  Te2-  Te90  1  0.16818607  0.49946868  0.50339147  1
  Te2-  Te91  1  0.17289018  0.50037127  0.83644339  1
  Te2-  Te92  1  0.17110328  0.84083946  0.17094345  1
  Te2-  Te93  1  0.16532856  0.84500077  0.49960995  1
  Te2-  Te94  1  0.16729016  0.84269599  0.82919405  1
  Te2-  Te95  1  0.50828814  0.16633854  0.16387789  1
  Te2-  Te96  1  0.49788317  0.15495051  0.49486418  1
  Te2-  Te97  1  0.50522041  0.16909585  0.83425670  1
  Te2-  Te98  1  0.49727837  0.49803132  0.17141519  1
  Te2-  Te99  1  0.50060075  0.49610661  0.49374005  1
  Te2-  Te100  1  0.49668269  0.49922004  0.83427357  1
  Te2-  Te101  1  0.48814728  0.83474695  0.16723626  1
  Te2-  Te102  1  0.49884543  0.85141982  0.49722009  1
  Te2-  Te103  1  0.49591934  0.82822698  0.83639262  1
  Te2-  Te104  1  0.82516158  0.16710783  0.15951731  1
  Te2-  Te105  1  0.83263681  0.16843796  0.50773906  1
  Te2-  Te106  1  0.83180599  0.16770202  0.83323036  1
  Te2-  Te107  1  0.83550166  0.49666139  0.17533962  1
  Te2-  Te108  1  0.83018859  0.51131280  0.49898631  1
  Te2-  Te109  1  0.83152292  0.51140307  0.82821782  1
  Te2-  Te110  1  0.83351010  0.84086333  0.18465603  1
  Te2-  Te111  1  0.83850121  0.82069485  0.48746264  1
  Te2-  Te112  1  0.83443852  0.82809116  0.83793014  1
  Te2-  Te113  1  0.16281023  0.01636450  -0.00155640  1
  Te2-  Te114  1  0.16404104  0.00068742  0.32546089  1
  Te2-  Te115  1  0.17421865  -0.00455447  0.67177755  1
  Te2-  Te116  1  0.15810721  0.31757827  -0.00784546  1
  Te2-  Te117  1  0.16996623  0.34623102  0.32862846  1
  Te2-  Te118  1  0.16857051  0.33959463  0.66811524  1
  Te2-  Te119  1  0.16270978  0.66528795  0.00226640  1
  Te2-  Te120  1  0.16114293  0.65221638  0.33653919  1
  Te2-  Te121  1  0.16781839  0.66485121  0.66220940  1
  Te2-  Te122  1  0.49735275  0.00666269  0.00116835  1
  Te2-  Te123  1  0.50666851  0.00030178  0.32283564  1
  Te2-  Te124  1  0.49177050  0.00620531  0.66658261  1
  Te2-  Te125  1  0.50271419  0.32633965  0.00016346  1
  Te2-  Te126  1  0.48706329  0.32745761  0.32729624  1
  Te2-  Te127  1  0.49562848  0.32620321  0.66760972  1
  Te2-  Te128  1  0.50274065  0.66461000  0.00729495  1
  Te2-  Te129  1  0.49156533  0.67114901  0.32898130  1
  Te2-  Te130  1  0.49776410  0.65833404  0.66254028  1
  Te2-  Te131  1  0.84497454  -0.00306388  0.00576607  1
  Te2-  Te132  1  0.82532413  0.02045070  0.32747727  1
  Te2-  Te133  1  0.83605692  -0.01262699  0.66657572  1
  Te2-  Te134  1  0.83963561  0.34395536  0.00031394  1
  Te2-  Te135  1  0.83571475  0.31628834  0.33614969  1
  Te2-  Te136  1  0.83384092  0.33915154  0.67290587  1
  Te2-  Te137  1  0.83102403  0.65939108  0.00586286  1
  Te2-  Te138  1  0.84994559  0.66511658  0.32793359  1
  Te2-  Te139  1  0.84111294  0.66639658  0.66673664  1
  Te2-  Te140  1  -0.00167370  0.17279579  0.00346656  1
  Te2-  Te141  1  0.00168570  0.16717385  0.33355682  1
  Te2-  Te142  1  -0.00119336  0.16627835  0.66389384  1
  Te2-  Te143  1  -0.00375533  0.50081588  0.00353328  1
  Te2-  Te144  1  -0.00478687  0.49207551  0.32940935  1
  Te2-  Te145  1  0.00259177  0.49946349  0.66632074  1
  Te2-  Te146  1  0.01286858  0.83102501  0.01017158  1
  Te2-  Te147  1  0.00456449  0.84157584  0.33246446  1
  Te2-  Te148  1  0.00289881  0.83603905  0.66475573  1
  Te2-  Te149  1  0.32476843  0.16562801  -0.01168318  1
  Te2-  Te150  1  0.33289609  0.16775498  0.33188074  1
  Te2-  Te151  1  0.33785847  0.16095415  0.66862245  1
  Te2-  Te152  1  0.33512259  0.49227674  -0.00502524  1
  Te2-  Te153  1  0.32883622  0.49811399  0.33121174  1
  Te2-  Te154  1  0.33285499  0.50360029  0.66854790  1
  Te2-  Te155  1  0.31730799  0.83681700  -0.00583325  1
  Te2-  Te156  1  0.33162430  0.83103672  0.33668638  1
  Te2-  Te157  1  0.34708451  0.82988681  0.67346727  1
  Te2-  Te158  1  0.67149466  0.16611715  -0.00655925  1
  Te2-  Te159  1  0.65810921  0.16884773  0.34167813  1
  Te2-  Te160  1  0.66856090  0.17322894  0.67088204  1
  Te2-  Te161  1  0.66922452  0.50326996  -0.00063244  1
  Te2-  Te162  1  0.67770693  0.50233723  0.33655991  1
  Te2-  Te163  1  0.66801489  0.49911858  0.66572096  1
  Te2-  Te164  1  0.66737719  0.83393452  0.00880705  1
  Te2-  Te165  1  0.65865245  0.83412763  0.32501888  1
  Te2-  Te166  1  0.65645654  0.83443403  0.66685157  1
  Te2-  Te167  1  0.00124898  -0.00126290  0.16775153  1
  Te2-  Te168  1  0.00491847  0.00136317  0.49431162  1
  Te2-  Te169  1  0.00529792  -0.00389136  0.83745719  1
  Te2-  Te170  1  0.00305966  0.33272032  0.16667478  1
  Te2-  Te171  1  0.01381904  0.33210868  0.49567927  1
  Te2-  Te172  1  -0.00029945  0.33356577  0.83659239  1
  Te2-  Te173  1  -0.00243558  0.67864296  0.16652557  1
  Te2-  Te174  1  0.01225402  0.67425250  0.49197939  1
  Te2-  Te175  1  -0.00355361  0.67007111  0.84218712  1
  Te2-  Te176  1  0.33161499  -0.00337423  0.16059764  1
  Te2-  Te177  1  0.32237855  -0.01103003  0.50203727  1
  Te2-  Te178  1  0.33282114  0.00212035  0.83579319  1
  Te2-  Te179  1  0.33666789  0.33195577  0.15321031  1
  Te2-  Te180  1  0.31934060  0.33099805  0.50376963  1
  Te2-  Te181  1  0.33920760  0.32978007  0.83184366  1
  Te2-  Te182  1  0.33292506  0.66898179  0.16870709  1
  Te2-  Te183  1  0.32123089  0.68303257  0.50495174  1
  Te2-  Te184  1  0.33736709  0.66560373  0.83283702  1
  Te2-  Te185  1  0.66427944  0.00215805  0.16508251  1
  Te2-  Te186  1  0.66994616  0.00216917  0.49623533  1
  Te2-  Te187  1  0.66363475  0.00169481  0.83570804  1
  Te2-  Te188  1  0.66291772  0.32887659  0.16405702  1
  Te2-  Te189  1  0.66470503  0.33712233  0.50318817  1
  Te2-  Te190  1  0.66363803  0.33925719  0.83099573  1
  Te2-  Te191  1  0.66179761  0.67051057  0.16922644  1
  Te2-  Te192  1  0.65716114  0.66428882  0.49629767  1
  Te2-  Te193  1  0.66182278  0.66221386  0.84024046  1
  Pb2+  Pb194  1  -0.00200442  0.50614110  0.49946199  1
  Pb2+  Pb195  1  0.16712287  0.17588480  0.34544795  1
  Pb2+  Pb196  1  0.83899027  0.82826622  0.01303343  1
  Pb2+  Pb197  1  0.49173031  0.32217406  0.49836871  1
  Pb2+  Pb198  1  0.33473514  0.50772024  0.49960833  1
  Pb2+  Pb199  1  0.16278635  0.66182744  0.17070190  1
  Pb2+  Pb200  1  0.83324489  0.00093639  0.83664873  1
  Pb2+  Pb201  1  0.66246904  0.33383667  0.33218609  1
  Pb2+  Pb202  1  0.33311716  0.66394146  0.00162667  1
  Pb2+  Pb203  1  0.66773490  0.83436763  0.49421604  1
  Pb2+  Pb204  1  0.83753046  -0.00520521  0.49165801  1
  Pb2+  Pb205  1  0.66554260  0.83114779  0.83651774  1
  Pb2+  Pb206  1  0.00152047  0.16413241  0.83414162  1
  Pb2+  Pb207  1  0.33685083  0.16557264  0.16100590  1
  Pb2+  Pb208  1  0.66363309  0.00653203  0.66654862  1
  Pb2+  Pb209  1  0.00241988  0.50084398  0.83278310  1
  Pb2+  Pb210  1  0.84029658  0.33648791  0.50474551  1
  Pb2+  Pb211  1  0.49059177  0.83704729  0.00144054  1
  Pb2+  Pb212  1  0.48909394  0.67782056  0.49638088  1
  Pb2+  Pb213  1  0.66765047  0.50113492  0.16349940  1
  Pb2+  Pb214  1  0.67280059  0.66809922  0.66607380  1
  Pb2+  Pb215  1  0.16576249  0.67346729  0.83066067  1
