# generated using pymatgen
data_In22Ag21Sn22Bi21(Te54Pb11)2
_symmetry_space_group_name_H-M   'P 1'
_cell_length_a   19.13216670
_cell_length_b   19.18781194
_cell_length_c   19.18352772
_cell_angle_alpha   89.99025070
_cell_angle_beta   89.98884480
_cell_angle_gamma   89.99811327
_symmetry_Int_Tables_number   1
_chemical_formula_structural   In22Ag21Sn22Bi21(Te54Pb11)2
_chemical_formula_sum   'In22 Ag21 Sn22 Bi21 Te108 Pb22'
_cell_volume   7042.35751266
_cell_formula_units_Z   1
loop_
 _symmetry_equiv_pos_site_id
 _symmetry_equiv_pos_as_xyz
  1  'x, y, z'
loop_
 _atom_type_symbol
 _atom_type_oxidation_number
  In3+  3.0
  Ag+  1.0
  Sn2+  2.0
  Bi3+  3.0
  Te2-  -2.0
  Pb2+  2.0
loop_
 _atom_site_type_symbol
 _atom_site_label
 _atom_site_symmetry_multiplicity
 _atom_site_fract_x
 _atom_site_fract_y
 _atom_site_fract_z
 _atom_site_occupancy
  In3+  In0  1  0.51449126  0.50217581  0.67206193  1
  In3+  In1  1  0.18629646  0.83756015  0.00230729  1
  In3+  In2  1  0.67824865  0.50271262  0.18688761  1
  In3+  In3  1  0.65390299  0.01338151  0.66471835  1
  In3+  In4  1  0.17109908  0.33166812  0.15097085  1
  In3+  In5  1  0.13750108  0.49836411  0.33734634  1
  In3+  In6  1  0.51692666  0.00180988  0.48866780  1
  In3+  In7  1  0.84437174  0.16348588  0.67279623  1
  In3+  In8  1  0.36287731  0.49036203  0.50037842  1
  In3+  In9  1  0.15032454  0.14980871  0.67419185  1
  In3+  In10  1  0.51605951  -0.00053988  0.83594066  1
  In3+  In11  1  -0.00190015  0.32480463  0.34639184  1
  In3+  In12  1  0.49877461  0.14321685  0.67189792  1
  In3+  In13  1  0.66791211  0.66158016  0.33060300  1
  In3+  In14  1  0.52204280  0.50170038  0.32302279  1
  In3+  In15  1  0.66423826  0.32416513  0.01083103  1
  In3+  In16  1  0.00140080  0.50140488  0.50343635  1
  In3+  In17  1  0.66715528  -0.00373091  0.00767551  1
  In3+  In18  1  0.15411126  0.66273457  0.82570773  1
  In3+  In19  1  0.83118431  0.48369479  0.66747053  1
  In3+  In20  1  0.33647673  0.65891714  -0.00739890  1
  In3+  In21  1  -0.00082570  0.49120635  0.16207097  1
  Ag+  Ag22  1  0.83457764  0.48134376  0.36616029  1
  Ag+  Ag23  1  0.35846709  0.14129280  0.50059080  1
  Ag+  Ag24  1  0.66447168  0.03103430  0.30813200  1
  Ag+  Ag25  1  0.16660807  0.02490234  0.47057676  1
  Ag+  Ag26  1  -0.00279414  -0.00170845  0.69298549  1
  Ag+  Ag27  1  0.66128932  0.47855082  0.48452878  1
  Ag+  Ag28  1  0.52091527  0.84510477  0.64172223  1
  Ag+  Ag29  1  0.66676308  0.14210963  0.20175059  1
  Ag+  Ag30  1  0.00405254  0.35264058  0.68280960  1
  Ag+  Ag31  1  0.01258910  0.46718068  0.79992438  1
  Ag+  Ag32  1  0.02897685  0.19563313  0.14568783  1
  Ag+  Ag33  1  0.66624309  0.14005792  0.85155961  1
  Ag+  Ag34  1  0.18154655  0.01747116  0.81947314  1
  Ag+  Ag35  1  0.63737616  0.31498984  0.30162326  1
  Ag+  Ag36  1  0.80508027  0.47417541  0.02308136  1
  Ag+  Ag37  1  0.48634662  0.13888413  0.30822441  1
  Ag+  Ag38  1  0.15024638  0.63304899  0.13937951  1
  Ag+  Ag39  1  0.48611800  0.86029453  -0.01179527  1
  Ag+  Ag40  1  0.18256556  0.30879582  0.80682688  1
  Ag+  Ag41  1  -0.00424491  0.64675644  0.69223188  1
  Ag+  Ag42  1  0.63916530  0.85374725  0.19869300  1
  Sn2+  Sn43  1  0.84619657  -0.00205945  0.50497069  1
  Sn2+  Sn44  1  0.50048717  0.67679474  0.82567623  1
  Sn2+  Sn45  1  0.84320550  0.00585549  0.82805295  1
  Sn2+  Sn46  1  0.66199320  0.82975915  0.50121692  1
  Sn2+  Sn47  1  0.50764283  0.50245757  -0.00435195  1
  Sn2+  Sn48  1  0.83253933  0.83622297  0.66672179  1
  Sn2+  Sn49  1  0.49968075  0.32461734  0.17466047  1
  Sn2+  Sn50  1  -0.01535687  0.00756518  0.33247892  1
  Sn2+  Sn51  1  0.16980460  0.83100214  0.33289853  1
  Sn2+  Sn52  1  0.17616981  0.17140628  0.34634557  1
  Sn2+  Sn53  1  0.50708496  0.83108629  0.32358267  1
  Sn2+  Sn54  1  0.67669847  0.67566546  0.66193952  1
  Sn2+  Sn55  1  0.33576391  0.33275946  -0.00148036  1
  Sn2+  Sn56  1  0.16298906  0.33078992  0.50669786  1
  Sn2+  Sn57  1  0.83104837  0.33263386  0.49505362  1
  Sn2+  Sn58  1  0.15911069  0.00223109  0.16787533  1
  Sn2+  Sn59  1  0.66501741  0.67089871  0.00455881  1
  Sn2+  Sn60  1  0.00587142  0.83576042  0.82947089  1
  Sn2+  Sn61  1  -0.00038130  0.00477230  0.00190918  1
  Sn2+  Sn62  1  0.83073032  0.66143459  0.49887525  1
  Sn2+  Sn63  1  0.50196463  0.17466562  0.00089724  1
  Sn2+  Sn64  1  -0.00923319  0.16800683  0.83537604  1
  Bi3+  Bi65  1  0.83372777  0.83387501  0.33302738  1
  Bi3+  Bi66  1  0.83456972  0.33554471  0.82989454  1
  Bi3+  Bi67  1  0.66819833  0.83029720  0.83427642  1
  Bi3+  Bi68  1  0.83271786  0.00192468  0.16920764  1
  Bi3+  Bi69  1  0.83289149  0.66650952  0.82839775  1
  Bi3+  Bi70  1  0.67547132  0.49998589  0.83086835  1
  Bi3+  Bi71  1  0.16449902  0.50491040  0.00083679  1
  Bi3+  Bi72  1  0.00284890  0.67194926  0.00210848  1
  Bi3+  Bi73  1  0.00061486  0.16505226  0.49612855  1
  Bi3+  Bi74  1  0.49967979  0.66332921  0.16314750  1
  Bi3+  Bi75  1  0.16150461  0.83349606  0.67226536  1
  Bi3+  Bi76  1  0.32940288  0.33407898  0.66476965  1
  Bi3+  Bi77  1  0.82826593  0.82951780  0.00049141  1
  Bi3+  Bi78  1  0.33033359  0.66619401  0.33540017  1
  Bi3+  Bi79  1  -0.00218530  0.66865740  0.33072203  1
  Bi3+  Bi80  1  0.33190249  0.83247015  0.17013820  1
  Bi3+  Bi81  1  -0.00085642  0.83690257  0.16441521  1
  Bi3+  Bi82  1  0.66854847  0.16901950  0.50434475  1
  Bi3+  Bi83  1  0.83657793  0.66665443  0.16203213  1
  Bi3+  Bi84  1  0.32678853  0.83993155  0.50225059  1
  Bi3+  Bi85  1  0.16289553  0.66807918  0.49687108  1
  Te2-  Te86  1  0.17098503  0.17582250  0.17331786  1
  Te2-  Te87  1  0.16194319  0.16887442  0.50418285  1
  Te2-  Te88  1  0.16243079  0.16496129  0.82803705  1
  Te2-  Te89  1  0.16452838  0.49236214  0.17088009  1
  Te2-  Te90  1  0.15776581  0.50362753  0.49374655  1
  Te2-  Te91  1  0.15237669  0.50812867  0.83695273  1
  Te2-  Te92  1  0.16642128  0.83540955  0.16472253  1
  Te2-  Te93  1  0.16513794  0.83071690  0.50037719  1
  Te2-  Te94  1  0.16658009  0.82162825  0.83818646  1
  Te2-  Te95  1  0.51410094  0.17002576  0.16812764  1
  Te2-  Te96  1  0.50384552  0.15533429  0.51326096  1
  Te2-  Te97  1  0.51228503  0.15875202  0.82845079  1
  Te2-  Te98  1  0.50706293  0.50190705  0.16888020  1
  Te2-  Te99  1  0.51568455  0.50415443  0.50695458  1
  Te2-  Te100  1  0.50076284  0.50415110  0.82765855  1
  Te2-  Te101  1  0.49965421  0.82599086  0.16270031  1
  Te2-  Te102  1  0.49202222  0.84530302  0.49806827  1
  Te2-  Te103  1  0.50570445  0.84206295  0.84342454  1
  Te2-  Te104  1  0.81523006  0.16189075  0.16940458  1
  Te2-  Te105  1  0.83460567  0.16318041  0.50642706  1
  Te2-  Te106  1  0.81787664  0.16938413  0.82650330  1
  Te2-  Te107  1  0.83204813  0.50580354  0.16339745  1
  Te2-  Te108  1  0.83450649  0.50344278  0.51216672  1
  Te2-  Te109  1  0.84242061  0.50161659  0.82349199  1
  Te2-  Te110  1  0.83198606  0.83117681  0.16591571  1
  Te2-  Te111  1  0.83158584  0.83379788  0.49541084  1
  Te2-  Te112  1  0.83236294  0.83224278  0.83606055  1
  Te2-  Te113  1  0.16483065  -0.00759230  0.00071743  1
  Te2-  Te114  1  0.16211792  0.00338848  0.32542741  1
  Te2-  Te115  1  0.15302300  -0.00288018  0.67620343  1
  Te2-  Te116  1  0.16819074  0.33908053  -0.00132838  1
  Te2-  Te117  1  0.15540837  0.34108989  0.33994700  1
  Te2-  Te118  1  0.15707291  0.32989658  0.66472927  1
  Te2-  Te119  1  0.17054518  0.67040936  0.00017682  1
  Te2-  Te120  1  0.16456221  0.66194674  0.33273256  1
  Te2-  Te121  1  0.14932562  0.66838719  0.66585485  1
  Te2-  Te122  1  0.50738699  0.00570377  -0.00619260  1
  Te2-  Te123  1  0.51622530  -0.00139258  0.33668262  1
  Te2-  Te124  1  0.49805706  -0.01267087  0.67506663  1
  Te2-  Te125  1  0.50096885  0.33651557  -0.00077551  1
  Te2-  Te126  1  0.49974191  0.35047127  0.33416766  1
  Te2-  Te127  1  0.49688001  0.34678508  0.66692333  1
  Te2-  Te128  1  0.49622588  0.66228325  0.00108911  1
  Te2-  Te129  1  0.49939194  0.66222155  0.33014728  1
  Te2-  Te130  1  0.49994219  0.66808573  0.66888429  1
  Te2-  Te131  1  0.82584524  -0.00485556  0.00085674  1
  Te2-  Te132  1  0.81428535  -0.00585425  0.33305264  1
  Te2-  Te133  1  0.84501088  0.00293786  0.66546630  1
  Te2-  Te134  1  0.83036489  0.33403761  -0.00535355  1
  Te2-  Te135  1  0.84250744  0.33786314  0.33487051  1
  Te2-  Te136  1  0.84876557  0.32781798  0.66719210  1
  Te2-  Te137  1  0.83593365  0.66544790  -0.00221136  1
  Te2-  Te138  1  0.83252982  0.67152452  0.32479136  1
  Te2-  Te139  1  0.84741116  0.67735362  0.66902732  1
  Te2-  Te140  1  -0.00077923  0.16923612  0.00507660  1
  Te2-  Te141  1  0.00137125  0.17096921  0.33397691  1
  Te2-  Te142  1  -0.00194871  0.15230572  0.66237997  1
  Te2-  Te143  1  0.00346321  0.51004595  0.00811461  1
  Te2-  Te144  1  -0.01522754  0.50672598  0.33092112  1
  Te2-  Te145  1  -0.00696360  0.50257307  0.65796059  1
  Te2-  Te146  1  -0.00624977  0.83413817  0.00279901  1
  Te2-  Te147  1  -0.00017199  0.83472907  0.32923299  1
  Te2-  Te148  1  0.00111112  0.84827021  0.67018416  1
  Te2-  Te149  1  0.33441039  0.17249411  0.00009967  1
  Te2-  Te150  1  0.34557175  0.16900912  0.34521010  1
  Te2-  Te151  1  0.34453828  0.17399763  0.65526513  1
  Te2-  Te152  1  0.32995583  0.50247316  0.00331637  1
  Te2-  Te153  1  0.33698375  0.50566292  0.34787663  1
  Te2-  Te154  1  0.33117268  0.49885803  0.65746729  1
  Te2-  Te155  1  0.34168840  0.82921438  0.00637122  1
  Te2-  Te156  1  0.33528932  0.83174477  0.33393434  1
  Te2-  Te157  1  0.32587930  0.83258589  0.66611505  1
  Te2-  Te158  1  0.66198956  0.17313764  -0.00509161  1
  Te2-  Te159  1  0.65881705  0.17705086  0.34583153  1
  Te2-  Te160  1  0.65689924  0.16581725  0.66652040  1
  Te2-  Te161  1  0.66585366  0.50144199  -0.00947897  1
  Te2-  Te162  1  0.68127862  0.50414932  0.34145624  1
  Te2-  Te163  1  0.67360732  0.50835024  0.66826676  1
  Te2-  Te164  1  0.66722097  0.83760856  -0.00350604  1
  Te2-  Te165  1  0.66842413  0.82112970  0.33701270  1
  Te2-  Te166  1  0.66491652  0.83363003  0.67032042  1
  Te2-  Te167  1  -0.00697675  -0.00058499  0.16681695  1
  Te2-  Te168  1  0.01017078  0.00434227  0.48758031  1
  Te2-  Te169  1  -0.00118085  0.00563537  0.84329936  1
  Te2-  Te170  1  0.00428634  0.33695182  0.16861406  1
  Te2-  Te171  1  -0.00479646  0.33416828  0.49715761  1
  Te2-  Te172  1  -0.00277801  0.32408058  0.82747475  1
  Te2-  Te173  1  0.00723566  0.67120960  0.16686287  1
  Te2-  Te174  1  0.00001916  0.66063626  0.49141311  1
  Te2-  Te175  1  -0.00336736  0.66872217  0.83938621  1
  Te2-  Te176  1  0.33268606  -0.00219874  0.16746978  1
  Te2-  Te177  1  0.31564820  0.00034468  0.50044488  1
  Te2-  Te178  1  0.32709663  0.00233389  0.83396284  1
  Te2-  Te179  1  0.33130277  0.33551606  0.16606091  1
  Te2-  Te180  1  0.33266315  0.33993396  0.50370476  1
  Te2-  Te181  1  0.32577727  0.33435264  0.82870343  1
  Te2-  Te182  1  0.33440804  0.67075122  0.17225727  1
  Te2-  Te183  1  0.32798966  0.67237024  0.49816416  1
  Te2-  Te184  1  0.33384217  0.66555903  0.83728851  1
  Te2-  Te185  1  0.66732865  -0.00573043  0.16218833  1
  Te2-  Te186  1  0.66982256  0.00092805  0.51252384  1
  Te2-  Te187  1  0.67231862  -0.00385085  0.82072347  1
  Te2-  Te188  1  0.66633838  0.34771703  0.16322667  1
  Te2-  Te189  1  0.67168443  0.33356825  0.50180375  1
  Te2-  Te190  1  0.67020301  0.34103038  0.83126624  1
  Te2-  Te191  1  0.66752649  0.66043848  0.16818548  1
  Te2-  Te192  1  0.66907994  0.67147740  0.49802226  1
  Te2-  Te193  1  0.66871169  0.66564153  0.83264855  1
  Pb2+  Pb194  1  0.33490463  0.50394880  0.17631114  1
  Pb2+  Pb195  1  0.33305083  0.00189546  -0.00145860  1
  Pb2+  Pb196  1  0.49950876  -0.00286788  0.16652057  1
  Pb2+  Pb197  1  0.32282199  0.00472167  0.66491403  1
  Pb2+  Pb198  1  0.83497641  0.32960682  0.16814063  1
  Pb2+  Pb199  1  0.33498840  0.00325963  0.33770080  1
  Pb2+  Pb200  1  0.33551226  0.83654864  0.83326185  1
  Pb2+  Pb201  1  0.33913146  0.16812628  0.17346598  1
  Pb2+  Pb202  1  0.32639975  0.66699917  0.66710173  1
  Pb2+  Pb203  1  -0.00015199  0.34272937  -0.00602613  1
  Pb2+  Pb204  1  0.83113100  0.16413568  0.00142735  1
  Pb2+  Pb205  1  0.16545958  0.16328360  0.00118739  1
  Pb2+  Pb206  1  -0.00202423  0.83249664  0.50488839  1
  Pb2+  Pb207  1  0.50413212  0.32810532  0.50095058  1
  Pb2+  Pb208  1  0.82690547  0.16823335  0.33572600  1
  Pb2+  Pb209  1  0.32563877  0.33571054  0.33544899  1
  Pb2+  Pb210  1  0.33726380  0.16650330  0.82543187  1
  Pb2+  Pb211  1  0.16423324  0.49557057  0.66520313  1
  Pb2+  Pb212  1  0.32476504  0.49955536  0.83233401  1
  Pb2+  Pb213  1  0.50100763  0.33141975  0.83219109  1
  Pb2+  Pb214  1  0.67282593  0.33557465  0.66651034  1
  Pb2+  Pb215  1  0.50045832  0.67250523  0.50186989  1
