# generated using pymatgen
data_In22Ag21Sn22Bi21(Te54Pb11)2
_symmetry_space_group_name_H-M   'P 1'
_cell_length_a   19.17551873
_cell_length_b   19.17148117
_cell_length_c   19.18990413
_cell_angle_alpha   89.98878191
_cell_angle_beta   90.00741147
_cell_angle_gamma   89.98858786
_symmetry_Int_Tables_number   1
_chemical_formula_structural   In22Ag21Sn22Bi21(Te54Pb11)2
_chemical_formula_sum   'In22 Ag21 Sn22 Bi21 Te108 Pb22'
_cell_volume   7054.65164165
_cell_formula_units_Z   1
loop_
 _symmetry_equiv_pos_site_id
 _symmetry_equiv_pos_as_xyz
  1  'x, y, z'
loop_
 _atom_type_symbol
 _atom_type_oxidation_number
  In3+  3.0
  Ag+  1.0
  Sn2+  2.0
  Bi3+  3.0
  Te2-  -2.0
  Pb2+  2.0
loop_
 _atom_site_type_symbol
 _atom_site_label
 _atom_site_symmetry_multiplicity
 _atom_site_fract_x
 _atom_site_fract_y
 _atom_site_fract_z
 _atom_site_occupancy
  In3+  In0  1  0.16256061  0.33720065  0.49321637  1
  In3+  In1  1  0.65902837  0.34232794  0.32688350  1
  In3+  In2  1  0.50011677  0.50091004  0.30617863  1
  In3+  In3  1  -0.00691618  0.31034236  -0.02100230  1
  In3+  In4  1  0.18146650  0.49284950  0.00441285  1
  In3+  In5  1  0.48941782  0.66146290  0.84825401  1
  In3+  In6  1  0.01421726  0.49442162  0.14710012  1
  In3+  In7  1  0.14793407  0.82193564  0.66632554  1
  In3+  In8  1  0.00296519  0.84749684  0.83512532  1
  In3+  In9  1  0.49229438  0.34453420  0.15165323  1
  In3+  In10  1  0.69286256  0.50387246  0.49891638  1
  In3+  In11  1  0.16974141  -0.00619850  0.48330361  1
  In3+  In12  1  0.85648511  0.50096707  0.66982241  1
  In3+  In13  1  0.16763999  0.48154049  0.65311359  1
  In3+  In14  1  0.33084046  0.33193749  0.31220119  1
  In3+  In15  1  0.49929493  0.64607392  0.49923082  1
  In3+  In16  1  0.49668031  0.02450492  0.15693452  1
  In3+  In17  1  0.67089024  0.49534485  0.84894811  1
  In3+  In18  1  0.82170837  0.83437646  -0.01272445  1
  In3+  In19  1  0.48586950  0.82308830  0.33677099  1
  In3+  In20  1  0.84526940  0.50366626  0.32829536  1
  In3+  In21  1  0.66414670  0.64977094  0.66783725  1
  Ag+  Ag22  1  0.30787880  0.63528235  -0.03218458  1
  Ag+  Ag23  1  0.13855245  0.29923546  0.13383976  1
  Ag+  Ag24  1  0.15018696  0.64520126  0.50475617  1
  Ag+  Ag25  1  -0.02921790  0.20359595  0.86574112  1
  Ag+  Ag26  1  0.17615183  0.19716933  0.02869870  1
  Ag+  Ag27  1  -0.00169676  0.50637524  0.48114833  1
  Ag+  Ag28  1  0.47885813  0.50206036  -0.01361097  1
  Ag+  Ag29  1  0.18322309  0.83100536  0.30985293  1
  Ag+  Ag30  1  0.66983087  0.48189202  0.14757848  1
  Ag+  Ag31  1  -0.02033438  0.33713868  0.65225830  1
  Ag+  Ag32  1  0.69377639  0.18851624  0.16894331  1
  Ag+  Ag33  1  0.32576624  0.03153075  0.00252226  1
  Ag+  Ag34  1  0.30661178  0.50725446  0.87050570  1
  Ag+  Ag35  1  0.83645566  0.47948077  0.03150358  1
  Ag+  Ag36  1  0.34950449  0.33254410  0.01329080  1
  Ag+  Ag37  1  0.33330732  0.20109253  0.14377855  1
  Ag+  Ag38  1  0.79585881  0.19315832  -0.03179571  1
  Ag+  Ag39  1  0.85264712  0.66319397  0.50681163  1
  Ag+  Ag40  1  0.68847616  0.80120963  0.81033455  1
  Ag+  Ag41  1  0.31735968  0.50374808  0.16994362  1
  Ag+  Ag42  1  0.86216386  0.31320617  0.85995173  1
  Sn2+  Sn43  1  0.48919717  0.00097459  0.49521571  1
  Sn2+  Sn44  1  0.32987078  -0.00130568  0.68117553  1
  Sn2+  Sn45  1  0.83006736  0.66264206  0.17141247  1
  Sn2+  Sn46  1  0.00347231  0.01812536  0.66307399  1
  Sn2+  Sn47  1  0.00348530  0.66820001  0.33425870  1
  Sn2+  Sn48  1  0.33579738  0.16758905  0.49645738  1
  Sn2+  Sn49  1  0.32865575  0.49656099  0.48960822  1
  Sn2+  Sn50  1  0.17156149  0.66800229  0.17642238  1
  Sn2+  Sn51  1  0.82832153  0.17047005  0.32939800  1
  Sn2+  Sn52  1  0.49511191  0.66254606  0.16054283  1
  Sn2+  Sn53  1  0.17378169  0.32891622  0.83796392  1
  Sn2+  Sn54  1  0.01000251  0.66065054  0.00141925  1
  Sn2+  Sn55  1  0.83223010  0.82378008  0.66601491  1
  Sn2+  Sn56  1  0.00076362  0.81512779  0.50053705  1
  Sn2+  Sn57  1  0.66929961  0.17450919  0.48441290  1
  Sn2+  Sn58  1  0.32513781  0.18345286  0.84243777  1
  Sn2+  Sn59  1  0.33326888  0.66636271  0.66390157  1
  Sn2+  Sn60  1  0.16548526  0.66073814  0.82717945  1
  Sn2+  Sn61  1  0.17173337  0.00801741  0.15815800  1
  Sn2+  Sn62  1  0.67205533  0.33649434  0.66233182  1
  Sn2+  Sn63  1  0.33283095  0.00359777  0.30976457  1
  Sn2+  Sn64  1  0.48990606  0.33736062  0.49630383  1
  Bi3+  Bi65  1  -0.00294436  0.50561747  0.83953566  1
  Bi3+  Bi66  1  0.83428525  0.66309381  0.83049103  1
  Bi3+  Bi67  1  0.33549251  0.33445930  0.67422994  1
  Bi3+  Bi68  1  0.66560636  0.82927184  0.17040381  1
  Bi3+  Bi69  1  0.49868511  -0.00599617  0.83537915  1
  Bi3+  Bi70  1  0.50138861  0.17136696  0.33390552  1
  Bi3+  Bi71  1  0.50028473  0.83499286  0.66745578  1
  Bi3+  Bi72  1  0.66557864  0.00195416  0.00214839  1
  Bi3+  Bi73  1  0.66564618  0.00178875  0.66801824  1
  Bi3+  Bi74  1  0.83418913  0.33680537  0.50088758  1
  Bi3+  Bi75  1  0.33623436  0.82537391  0.16349630  1
  Bi3+  Bi76  1  0.00352813  0.17185515  0.50357200  1
  Bi3+  Bi77  1  0.33208401  0.66435248  0.33519471  1
  Bi3+  Bi78  1  0.49859229  0.33772712  0.83350506  1
  Bi3+  Bi79  1  0.00946885  -0.00153297  -0.00096008  1
  Bi3+  Bi80  1  0.17226264  -0.00211848  0.83730617  1
  Bi3+  Bi81  1  0.50192626  0.16801436  0.66719775  1
  Bi3+  Bi82  1  0.83586285  0.82622229  0.33639574  1
  Bi3+  Bi83  1  0.17023282  0.82996977  -0.00186887  1
  Bi3+  Bi84  1  0.17069879  0.16530530  0.67161187  1
  Bi3+  Bi85  1  0.66658406  0.66377710  0.33555822  1
  Te2-  Te86  1  0.18490973  0.16397142  0.17412070  1
  Te2-  Te87  1  0.16594876  0.16756020  0.50778586  1
  Te2-  Te88  1  0.16980743  0.16004100  0.83059720  1
  Te2-  Te89  1  0.16704014  0.50375038  0.16190420  1
  Te2-  Te90  1  0.15724035  0.49777345  0.50142013  1
  Te2-  Te91  1  0.15993512  0.50639103  0.84524204  1
  Te2-  Te92  1  0.16899902  0.83211722  0.16242757  1
  Te2-  Te93  1  0.16180780  0.84439467  0.51457434  1
  Te2-  Te94  1  0.16484241  0.82966001  0.83040286  1
  Te2-  Te95  1  0.48293495  0.17667239  0.17145649  1
  Te2-  Te96  1  0.50402145  0.16876920  0.50126158  1
  Te2-  Te97  1  0.49491158  0.16767756  0.83136967  1
  Te2-  Te98  1  0.51968501  0.49542686  0.15885818  1
  Te2-  Te99  1  0.49066930  0.49519896  0.50581514  1
  Te2-  Te100  1  0.51336039  0.50435786  0.83968809  1
  Te2-  Te101  1  0.49894440  0.82771872  0.17513552  1
  Te2-  Te102  1  0.49913804  0.84262352  0.49987285  1
  Te2-  Te103  1  0.50111584  0.82819220  0.83238632  1
  Te2-  Te104  1  0.83938656  0.16598520  0.17488891  1
  Te2-  Te105  1  0.83803819  0.16956478  0.49421809  1
  Te2-  Te106  1  0.83113784  0.17173097  0.82835656  1
  Te2-  Te107  1  0.81571711  0.50502439  0.17801220  1
  Te2-  Te108  1  0.84553946  0.50279704  0.50589594  1
  Te2-  Te109  1  0.83039950  0.50322730  0.82226849  1
  Te2-  Te110  1  0.83148237  0.82833893  0.17383304  1
  Te2-  Te111  1  0.83614513  0.81917762  0.50039080  1
  Te2-  Te112  1  0.83147460  0.82886422  0.83160913  1
  Te2-  Te113  1  0.17619360  -0.00622294  -0.00215757  1
  Te2-  Te114  1  0.17051030  -0.01413092  0.33057242  1
  Te2-  Te115  1  0.16962299  0.00147907  0.67590129  1
  Te2-  Te116  1  0.15617385  0.34150536  -0.00476792  1
  Te2-  Te117  1  0.17854842  0.33910844  0.33767588  1
  Te2-  Te118  1  0.17392360  0.32954584  0.67224460  1
  Te2-  Te119  1  0.16697113  0.66626576  0.00174383  1
  Te2-  Te120  1  0.17091681  0.67711893  0.34778224  1
  Te2-  Te121  1  0.16934777  0.67170818  0.65539897  1
  Te2-  Te122  1  0.49892439  -0.00079642  -0.00141836  1
  Te2-  Te123  1  0.49196287  0.00909901  0.33165380  1
  Te2-  Te124  1  0.50000553  0.00260083  0.67013136  1
  Te2-  Te125  1  0.49637943  0.34635217  -0.00341430  1
  Te2-  Te126  1  0.49906433  0.33595400  0.33706283  1
  Te2-  Te127  1  0.50109387  0.33141904  0.66872336  1
  Te2-  Te128  1  0.50548853  0.65230945  -0.00195796  1
  Te2-  Te129  1  0.49973349  0.66129225  0.33824269  1
  Te2-  Te130  1  0.50489388  0.67291008  0.65986981  1
  Te2-  Te131  1  0.83734694  -0.00648077  0.00198064  1
  Te2-  Te132  1  0.83180747  -0.00540696  0.33676999  1
  Te2-  Te133  1  0.83113040  -0.00149096  0.66860158  1
  Te2-  Te134  1  0.84151094  0.32843475  0.00403748  1
  Te2-  Te135  1  0.82743977  0.34265662  0.34024955  1
  Te2-  Te136  1  0.83136964  0.34508536  0.66219746  1
  Te2-  Te137  1  0.83934326  0.68054816  -0.00429346  1
  Te2-  Te138  1  0.82942087  0.66001515  0.34621270  1
  Te2-  Te139  1  0.82648891  0.66148806  0.65876954  1
  Te2-  Te140  1  0.01487010  0.16045711  -0.00058813  1
  Te2-  Te141  1  0.00230045  0.16747320  0.33746569  1
  Te2-  Te142  1  0.00593301  0.17980063  0.66534240  1
  Te2-  Te143  1  -0.01932782  0.50135690  0.00119100  1
  Te2-  Te144  1  -0.00286873  0.50435894  0.33394015  1
  Te2-  Te145  1  0.01245086  0.48923440  0.67488379  1
  Te2-  Te146  1  0.00631732  0.83476266  -0.00585156  1
  Te2-  Te147  1  -0.00309921  0.82944588  0.33495353  1
  Te2-  Te148  1  -0.00354248  0.83758213  0.67126393  1
  Te2-  Te149  1  0.32409015  0.18032228  -0.00072669  1
  Te2-  Te150  1  0.33860989  0.17466018  0.33923952  1
  Te2-  Te151  1  0.33822757  0.16780552  0.66848669  1
  Te2-  Te152  1  0.33146842  0.49738384  0.01503762  1
  Te2-  Te153  1  0.34197171  0.49984779  0.32364597  1
  Te2-  Te154  1  0.32091165  0.49799591  0.66136248  1
  Te2-  Te155  1  0.33311364  0.81464084  0.00324918  1
  Te2-  Te156  1  0.32856666  0.83270133  0.33025146  1
  Te2-  Te157  1  0.33923841  0.83430691  0.66948040  1
  Te2-  Te158  1  0.66318616  0.16178663  0.01836461  1
  Te2-  Te159  1  0.66398693  0.16820333  0.31922711  1
  Te2-  Te160  1  0.66425417  0.16600071  0.66255526  1
  Te2-  Te161  1  0.69180606  0.49900526  0.00012999  1
  Te2-  Te162  1  0.65447843  0.50131221  0.34800784  1
  Te2-  Te163  1  0.65868206  0.49959643  0.65055782  1
  Te2-  Te164  1  0.66817022  0.83654165  0.00543147  1
  Te2-  Te165  1  0.67130769  0.82848005  0.33523636  1
  Te2-  Te166  1  0.66452058  0.83968945  0.67141521  1
  Te2-  Te167  1  0.00271566  -0.00274096  0.16203792  1
  Te2-  Te168  1  0.00830505  0.00565687  0.50419593  1
  Te2-  Te169  1  0.00471912  0.00103952  0.83315341  1
  Te2-  Te170  1  0.00586896  0.34439381  0.17272310  1
  Te2-  Te171  1  0.00354619  0.33696134  0.50638277  1
  Te2-  Te172  1  0.00514576  0.34349232  0.83024205  1
  Te2-  Te173  1  -0.00001172  0.65276204  0.16826513  1
  Te2-  Te174  1  0.00233644  0.65607633  0.50210585  1
  Te2-  Te175  1  -0.00286620  0.66950292  0.83207628  1
  Te2-  Te176  1  0.34127424  -0.00991132  0.15173582  1
  Te2-  Te177  1  0.32633171  0.00286913  0.50044289  1
  Te2-  Te178  1  0.33728925  0.00333460  0.84874023  1
  Te2-  Te179  1  0.33868350  0.34891361  0.16351358  1
  Te2-  Te180  1  0.32365097  0.33424851  0.51035217  1
  Te2-  Te181  1  0.33828879  0.35456528  0.83386569  1
  Te2-  Te182  1  0.33386068  0.66049279  0.17393920  1
  Te2-  Te183  1  0.34349255  0.66535280  0.49646898  1
  Te2-  Te184  1  0.33757563  0.65164879  0.82685522  1
  Te2-  Te185  1  0.65334360  -0.00850262  0.16510454  1
  Te2-  Te186  1  0.66709849  0.00323542  0.50420500  1
  Te2-  Te187  1  0.66115779  0.00271680  0.83742017  1
  Te2-  Te188  1  0.65970624  0.33296096  0.17504717  1
  Te2-  Te189  1  0.67096410  0.33445690  0.49452848  1
  Te2-  Te190  1  0.66129420  0.34007173  0.83181503  1
  Te2-  Te191  1  0.66270673  0.66847299  0.17421962  1
  Te2-  Te192  1  0.65804987  0.65947606  0.49988020  1
  Te2-  Te193  1  0.67167305  0.65798776  0.82525655  1
  Pb2+  Pb194  1  0.32985281  0.83406002  0.50198815  1
  Pb2+  Pb195  1  0.49390152  0.17154341  0.00284129  1
  Pb2+  Pb196  1  0.16985459  0.16586335  0.34002105  1
  Pb2+  Pb197  1  0.66613194  0.82909256  0.50634523  1
  Pb2+  Pb198  1  0.83602988  0.33484741  0.17149225  1
  Pb2+  Pb199  1  0.83354795  0.00456097  0.83814334  1
  Pb2+  Pb200  1  0.83838430  0.17078447  0.66223500  1
  Pb2+  Pb201  1  0.66022950  -0.00148183  0.33563624  1
  Pb2+  Pb202  1  0.83834215  -0.01027542  0.50380241  1
  Pb2+  Pb203  1  0.66558541  0.33374855  0.00250621  1
  Pb2+  Pb204  1  0.00797201  0.16943125  0.16388419  1
  Pb2+  Pb205  1  -0.00008878  0.82290202  0.16332137  1
  Pb2+  Pb206  1  0.49100122  0.50439823  0.67379486  1
  Pb2+  Pb207  1  0.33460713  0.82937995  0.83782901  1
  Pb2+  Pb208  1  0.66183641  0.17104249  0.83773344  1
  Pb2+  Pb209  1  0.00290963  0.33579744  0.34014817  1
  Pb2+  Pb210  1  0.82627543  -0.00012654  0.16662811  1
  Pb2+  Pb211  1  0.67335859  0.66359137  0.00168714  1
  Pb2+  Pb212  1  -0.00010151  0.66235500  0.66670632  1
  Pb2+  Pb213  1  0.49807158  0.82583549  0.00473481  1
  Pb2+  Pb214  1  0.00105305  -0.00165160  0.33218187  1
  Pb2+  Pb215  1  0.16757740  0.50921001  0.33048955  1
