# generated using pymatgen
data_In22Ag21Sn22Bi21(Te54Pb11)2
_symmetry_space_group_name_H-M   'P 1'
_cell_length_a   19.12810492
_cell_length_b   19.12317954
_cell_length_c   19.11072589
_cell_angle_alpha   90.00810968
_cell_angle_beta   90.00229464
_cell_angle_gamma   90.00671789
_symmetry_Int_Tables_number   1
_chemical_formula_structural   In22Ag21Sn22Bi21(Te54Pb11)2
_chemical_formula_sum   'In22 Ag21 Sn22 Bi21 Te108 Pb22'
_cell_volume   6990.51582716
_cell_formula_units_Z   1
loop_
 _symmetry_equiv_pos_site_id
 _symmetry_equiv_pos_as_xyz
  1  'x, y, z'
loop_
 _atom_type_symbol
 _atom_type_oxidation_number
  In3+  3.0
  Ag+  1.0
  Sn2+  2.0
  Bi3+  3.0
  Te2-  -2.0
  Pb2+  2.0
loop_
 _atom_site_type_symbol
 _atom_site_label
 _atom_site_symmetry_multiplicity
 _atom_site_fract_x
 _atom_site_fract_y
 _atom_site_fract_z
 _atom_site_occupancy
  In3+  In0  1  0.82054233  0.16014649  0.66300377  1
  In3+  In1  1  0.50917382  0.49859931  0.00168481  1
  In3+  In2  1  0.49703724  0.33269216  0.83243214  1
  In3+  In3  1  0.34777712  -0.00534339  0.34299248  1
  In3+  In4  1  0.32376961  0.35121177  -0.00445208  1
  In3+  In5  1  0.82614096  0.15066567  0.31720801  1
  In3+  In6  1  0.16774872  0.82310731  -0.00253049  1
  In3+  In7  1  0.00181540  0.34762104  -0.01814911  1
  In3+  In8  1  0.33566569  0.16809644  0.50775288  1
  In3+  In9  1  0.50999115  -0.00153738  0.51040731  1
  In3+  In10  1  0.16974353  0.47820586  0.68951927  1
  In3+  In11  1  0.83213204  0.31450809  0.16310211  1
  In3+  In12  1  0.83191188  0.32120004  0.49735549  1
  In3+  In13  1  0.33039178  0.82757663  0.83089800  1
  In3+  In14  1  0.81863026  0.33409964  0.83948948  1
  In3+  In15  1  0.01063590  0.67192577  0.31258069  1
  In3+  In16  1  0.34184611  0.82988625  0.17063773  1
  In3+  In17  1  0.67228990  0.31047896  0.33756076  1
  In3+  In18  1  0.68576742  0.33514286  0.66610341  1
  In3+  In19  1  0.17834620  0.66509579  0.15806366  1
  In3+  In20  1  0.33918076  0.66152325  -0.00352738  1
  In3+  In21  1  0.33155111  0.31814152  0.67930054  1
  Ag+  Ag22  1  0.69176602  0.84332738  0.52290519  1
  Ag+  Ag23  1  0.35453677  0.69637617  0.33616367  1
  Ag+  Ag24  1  0.66954965  0.85978563  0.81713578  1
  Ag+  Ag25  1  0.80961910  0.01825190  0.50195329  1
  Ag+  Ag26  1  0.47692744  0.64056537  0.16431248  1
  Ag+  Ag27  1  0.32264025  0.52716793  0.16562213  1
  Ag+  Ag28  1  0.64040578  0.14137305  0.17033957  1
  Ag+  Ag29  1  0.19299559  0.36123484  0.50228285  1
  Ag+  Ag30  1  0.65857827  -0.02954271  0.64279347  1
  Ag+  Ag31  1  0.83269664  0.68795097  0.85684035  1
  Ag+  Ag32  1  0.80717689  -0.00450270  0.14426265  1
  Ag+  Ag33  1  0.81191049  0.52239642  0.00175260  1
  Ag+  Ag34  1  0.51907931  0.17675000  0.66259772  1
  Ag+  Ag35  1  0.14848975  0.33446266  0.85552477  1
  Ag+  Ag36  1  -0.00731174  0.64718270  0.00416546  1
  Ag+  Ag37  1  0.16560426  0.81157702  0.30497848  1
  Ag+  Ag38  1  0.69195393  0.49695926  0.80872527  1
  Ag+  Ag39  1  0.51249307  -0.00900133  0.19564192  1
  Ag+  Ag40  1  0.16802281  0.51973672  0.01171202  1
  Ag+  Ag41  1  0.36565519  0.02291341  0.68325764  1
  Ag+  Ag42  1  0.67994045  -0.01010305  0.34559862  1
  Sn2+  Sn43  1  0.66714152  0.66713159  0.67188786  1
  Sn2+  Sn44  1  0.50241377  0.16622702  0.00081004  1
  Sn2+  Sn45  1  -0.01294063  -0.00737320  0.33113582  1
  Sn2+  Sn46  1  0.84025845  0.49974960  0.67872750  1
  Sn2+  Sn47  1  -0.00161658  0.00413573  0.00534120  1
  Sn2+  Sn48  1  0.00716563  0.16574516  0.50232623  1
  Sn2+  Sn49  1  0.51954763  0.66786967  0.83641843  1
  Sn2+  Sn50  1  0.67033750  0.51412366  0.50496772  1
  Sn2+  Sn51  1  0.00088066  0.83672822  0.16397193  1
  Sn2+  Sn52  1  0.83313320  0.83642376  0.32804318  1
  Sn2+  Sn53  1  -0.00892154  0.51064335  0.83682067  1
  Sn2+  Sn54  1  0.33710250  0.67180469  0.65928493  1
  Sn2+  Sn55  1  -0.01032964  0.82814002  0.83969102  1
  Sn2+  Sn56  1  0.33517331  0.16111932  0.83644292  1
  Sn2+  Sn57  1  0.16327919  0.16292961  0.66575587  1
  Sn2+  Sn58  1  -0.00324463  0.50055548  0.49938575  1
  Sn2+  Sn59  1  0.50060149  0.84066019  0.66878094  1
  Sn2+  Sn60  1  -0.00295737  0.83564217  0.49827771  1
  Sn2+  Sn61  1  0.83707781  0.82820208  -0.00245349  1
  Sn2+  Sn62  1  0.00814973  0.33202102  0.66878464  1
  Sn2+  Sn63  1  0.17522751  0.49654843  0.33011214  1
  Sn2+  Sn64  1  0.17657103  -0.00648866  0.17451885  1
  Bi3+  Bi65  1  0.16096924  0.16328322  0.33371881  1
  Bi3+  Bi66  1  0.16478807  -0.00085224  0.49842578  1
  Bi3+  Bi67  1  0.33230472  0.32986793  0.32992440  1
  Bi3+  Bi68  1  0.33173552  0.16337603  0.16611992  1
  Bi3+  Bi69  1  0.16438035  0.66720042  0.49500666  1
  Bi3+  Bi70  1  0.66591145  0.83445786  0.16495916  1
  Bi3+  Bi71  1  0.50058217  -0.00070240  0.82947871  1
  Bi3+  Bi72  1  0.66568341  0.67611516  0.33258703  1
  Bi3+  Bi73  1  0.32693700  0.83573913  0.50029509  1
  Bi3+  Bi74  1  0.16703699  0.83006904  0.66643261  1
  Bi3+  Bi75  1  -0.00461457  0.00100461  0.66430443  1
  Bi3+  Bi76  1  0.49925798  0.50161402  0.32970025  1
  Bi3+  Bi77  1  0.83321025  0.67561135  0.16600993  1
  Bi3+  Bi78  1  0.66344122  0.00018620  -0.00144610  1
  Bi3+  Bi79  1  0.33182572  0.50431198  0.83607076  1
  Bi3+  Bi80  1  0.17057396  0.16592809  -0.00304128  1
  Bi3+  Bi81  1  0.83358332  0.66741299  0.49741504  1
  Bi3+  Bi82  1  -0.00018187  0.16393509  0.16980586  1
  Bi3+  Bi83  1  0.83527183  0.16510552  -0.00082872  1
  Bi3+  Bi84  1  0.66840640  0.50056936  0.17136908  1
  Bi3+  Bi85  1  -0.00169102  0.33517066  0.33813959  1
  Te2-  Te86  1  0.16562695  0.16564766  0.16705788  1
  Te2-  Te87  1  0.17302594  0.16257114  0.49658817  1
  Te2-  Te88  1  0.17148615  0.18156147  0.83427482  1
  Te2-  Te89  1  0.17300145  0.50950034  0.16308596  1
  Te2-  Te90  1  0.16455879  0.50601959  0.49411048  1
  Te2-  Te91  1  0.17075402  0.48788397  0.83936911  1
  Te2-  Te92  1  0.17223453  0.82828814  0.15859153  1
  Te2-  Te93  1  0.16453486  0.83150168  0.50047452  1
  Te2-  Te94  1  0.16906292  0.82938778  0.83389958  1
  Te2-  Te95  1  0.49436228  0.16052053  0.16474297  1
  Te2-  Te96  1  0.49490447  0.15988310  0.51193123  1
  Te2-  Te97  1  0.49398977  0.16902545  0.82705642  1
  Te2-  Te98  1  0.50408426  0.49549476  0.16025977  1
  Te2-  Te99  1  0.49943490  0.50287865  0.49924788  1
  Te2-  Te100  1  0.49166391  0.50275593  0.84475158  1
  Te2-  Te101  1  0.49369296  0.84590865  0.16501451  1
  Te2-  Te102  1  0.48750809  0.84159597  0.50122191  1
  Te2-  Te103  1  0.50956030  0.83138672  0.82967792  1
  Te2-  Te104  1  0.83760406  0.14898162  0.16453041  1
  Te2-  Te105  1  0.83272376  0.16696789  0.50720934  1
  Te2-  Te106  1  0.83125496  0.17549205  0.83389064  1
  Te2-  Te107  1  0.83125365  0.51027013  0.15488671  1
  Te2-  Te108  1  0.83085001  0.50465702  0.50276138  1
  Te2-  Te109  1  0.83555959  0.48720069  0.84594924  1
  Te2-  Te110  1  0.83160170  0.84420242  0.16467372  1
  Te2-  Te111  1  0.83688091  0.82944714  0.49630615  1
  Te2-  Te112  1  0.81940317  0.83173765  0.83367529  1
  Te2-  Te113  1  0.16592400  0.00447246  -0.00191841  1
  Te2-  Te114  1  0.15819672  0.00301801  0.33607656  1
  Te2-  Te115  1  0.16195265  -0.00529031  0.66313660  1
  Te2-  Te116  1  0.16773002  0.32792282  0.00341586  1
  Te2-  Te117  1  0.16537821  0.32837490  0.34750435  1
  Te2-  Te118  1  0.17668406  0.33171256  0.64946266  1
  Te2-  Te119  1  0.16304652  0.66906827  0.00278828  1
  Te2-  Te120  1  0.16098188  0.66458283  0.32828383  1
  Te2-  Te121  1  0.16874198  0.66825585  0.66396229  1
  Te2-  Te122  1  0.49906595  0.00410968  -0.00872533  1
  Te2-  Te123  1  0.49950077  0.00253489  0.34195330  1
  Te2-  Te124  1  0.51076374  0.00796410  0.66548223  1
  Te2-  Te125  1  0.49543840  0.33364317  -0.00974565  1
  Te2-  Te126  1  0.50016479  0.33611404  0.33544609  1
  Te2-  Te127  1  0.48628180  0.32479374  0.67413225  1
  Te2-  Te128  1  0.49265772  0.65973480  0.01074858  1
  Te2-  Te129  1  0.49737828  0.66405489  0.32080924  1
  Te2-  Te130  1  0.49723946  0.66518223  0.66814969  1
  Te2-  Te131  1  0.83189800  0.00184120  -0.00256801  1
  Te2-  Te132  1  0.82739502  0.00233220  0.35000675  1
  Te2-  Te133  1  0.82903797  0.00580200  0.65586638  1
  Te2-  Te134  1  0.84264418  0.32717814  -0.00130618  1
  Te2-  Te135  1  0.83315701  0.32958526  0.34043536  1
  Te2-  Te136  1  0.83687770  0.33472263  0.66949471  1
  Te2-  Te137  1  0.84418503  0.66665423  0.00243186  1
  Te2-  Te138  1  0.83379720  0.66798912  0.33062118  1
  Te2-  Te139  1  0.83240232  0.65839374  0.66073435  1
  Te2-  Te140  1  0.00138275  0.17159362  0.00486442  1
  Te2-  Te141  1  -0.00601550  0.16852145  0.33398966  1
  Te2-  Te142  1  -0.00104379  0.16366104  0.66639351  1
  Te2-  Te143  1  0.01739264  0.49923415  -0.00298716  1
  Te2-  Te144  1  0.00100822  0.49845927  0.33222585  1
  Te2-  Te145  1  0.01167317  0.49596483  0.66731291  1
  Te2-  Te146  1  0.00778486  0.84228486  -0.00337323  1
  Te2-  Te147  1  0.01088043  0.82702032  0.32792162  1
  Te2-  Te148  1  0.00176329  0.83480058  0.67119280  1
  Te2-  Te149  1  0.33346686  0.16841371  0.00024839  1
  Te2-  Te150  1  0.32722580  0.16293465  0.33167025  1
  Te2-  Te151  1  0.32610176  0.16356817  0.66612851  1
  Te2-  Te152  1  0.32206037  0.50454856  0.00732202  1
  Te2-  Te153  1  0.33645893  0.49115019  0.31916818  1
  Te2-  Te154  1  0.32506445  0.50393375  0.66950192  1
  Te2-  Te155  1  0.32577793  0.82657018  -0.00370232  1
  Te2-  Te156  1  0.31834282  0.83902020  0.32836582  1
  Te2-  Te157  1  0.32998010  0.83137847  0.66733128  1
  Te2-  Te158  1  0.67049598  0.16500940  0.01640304  1
  Te2-  Te159  1  0.67034873  0.15476761  0.32155701  1
  Te2-  Te160  1  0.66690316  0.18061055  0.66802932  1
  Te2-  Te161  1  0.66466618  0.49725970  0.00713453  1
  Te2-  Te162  1  0.66312498  0.51098877  0.33690943  1
  Te2-  Te163  1  0.66464217  0.49170237  0.66260270  1
  Te2-  Te164  1  0.66807966  0.83548903  0.00013139  1
  Te2-  Te165  1  0.66598346  0.83903056  0.32775492  1
  Te2-  Te166  1  0.66346645  0.82711540  0.66991962  1
  Te2-  Te167  1  0.00528431  0.00206373  0.16920722  1
  Te2-  Te168  1  0.00093726  -0.00069735  0.50192002  1
  Te2-  Te169  1  -0.00044868  -0.00165708  0.82895814  1
  Te2-  Te170  1  -0.00480536  0.32953528  0.17537376  1
  Te2-  Te171  1  -0.01068059  0.33369458  0.49928981  1
  Te2-  Te172  1  0.00330236  0.33690795  0.83019549  1
  Te2-  Te173  1  -0.00297213  0.67060621  0.15678496  1
  Te2-  Te174  1  0.00012552  0.66734592  0.49491296  1
  Te2-  Te175  1  -0.01259037  0.66988066  0.84185673  1
  Te2-  Te176  1  0.33413391  -0.00178824  0.17242737  1
  Te2-  Te177  1  0.32825370  0.00015109  0.49942459  1
  Te2-  Te178  1  0.33703503  -0.01106635  0.82479650  1
  Te2-  Te179  1  0.33348828  0.32609443  0.16564511  1
  Te2-  Te180  1  0.33681284  0.32665493  0.49393646  1
  Te2-  Te181  1  0.33669399  0.33865632  0.83329474  1
  Te2-  Te182  1  0.33226691  0.67306851  0.17063156  1
  Te2-  Te183  1  0.32879808  0.67096944  0.48470184  1
  Te2-  Te184  1  0.33502040  0.66931487  0.83880022  1
  Te2-  Te185  1  0.65974846  -0.00469995  0.16249162  1
  Te2-  Te186  1  0.66259948  -0.00949210  0.49717599  1
  Te2-  Te187  1  0.66283525  0.00674108  0.83289776  1
  Te2-  Te188  1  0.67572570  0.33813445  0.17633757  1
  Te2-  Te189  1  0.67535673  0.33513757  0.50014682  1
  Te2-  Te190  1  0.66387420  0.34679443  0.83016799  1
  Te2-  Te191  1  0.66929456  0.66905913  0.16841706  1
  Te2-  Te192  1  0.66869804  0.68457066  0.49508346  1
  Te2-  Te193  1  0.67562446  0.64672919  0.83075387  1
  Pb2+  Pb194  1  0.33091416  0.49904733  0.49332673  1
  Pb2+  Pb195  1  0.83256667  0.49780589  0.32749770  1
  Pb2+  Pb196  1  0.49741617  0.16821739  0.33733448  1
  Pb2+  Pb197  1  0.49764874  0.83083189  -0.00199817  1
  Pb2+  Pb198  1  0.00315057  0.16768989  0.83528833  1
  Pb2+  Pb199  1  0.66083040  0.17351151  0.84063279  1
  Pb2+  Pb200  1  0.50345429  0.32800670  0.16291156  1
  Pb2+  Pb201  1  0.33161308  -0.00232802  0.00127650  1
  Pb2+  Pb202  1  -0.00110187  0.50080248  0.16275692  1
  Pb2+  Pb203  1  0.50600678  0.33320553  0.50650781  1
  Pb2+  Pb204  1  0.16677731  0.33914021  0.17405779  1
  Pb2+  Pb205  1  0.66521712  0.16153625  0.49650495  1
  Pb2+  Pb206  1  0.49724172  0.83257887  0.33225159  1
  Pb2+  Pb207  1  0.49529497  0.49618680  0.67503924  1
  Pb2+  Pb208  1  0.83117359  -0.00047584  0.82673955  1
  Pb2+  Pb209  1  0.66973347  0.33228603  0.00486698  1
  Pb2+  Pb210  1  0.83317466  0.83170863  0.66503648  1
  Pb2+  Pb211  1  0.16200178  0.65904742  0.83416606  1
  Pb2+  Pb212  1  -0.00013163  0.66332484  0.66696563  1
  Pb2+  Pb213  1  0.16890126  0.00490870  0.83050654  1
  Pb2+  Pb214  1  0.50119720  0.67204590  0.49835057  1
  Pb2+  Pb215  1  0.66807008  0.66781662  -0.00506224  1
