# generated using pymatgen
data_In22Ag21Sn22Bi21(Te54Pb11)2
_symmetry_space_group_name_H-M   'P 1'
_cell_length_a   19.09735416
_cell_length_b   19.14160034
_cell_length_c   19.12209665
_cell_angle_alpha   89.99793178
_cell_angle_beta   90.02313129
_cell_angle_gamma   89.99092206
_symmetry_Int_Tables_number   1
_chemical_formula_structural   In22Ag21Sn22Bi21(Te54Pb11)2
_chemical_formula_sum   'In22 Ag21 Sn22 Bi21 Te108 Pb22'
_cell_volume   6990.15674174
_cell_formula_units_Z   1
loop_
 _symmetry_equiv_pos_site_id
 _symmetry_equiv_pos_as_xyz
  1  'x, y, z'
loop_
 _atom_type_symbol
 _atom_type_oxidation_number
  In3+  3.0
  Ag+  1.0
  Sn2+  2.0
  Bi3+  3.0
  Te2-  -2.0
  Pb2+  2.0
loop_
 _atom_site_type_symbol
 _atom_site_label
 _atom_site_symmetry_multiplicity
 _atom_site_fract_x
 _atom_site_fract_y
 _atom_site_fract_z
 _atom_site_occupancy
  In3+  In0  1  0.32170280  0.14435907  0.16480443  1
  In3+  In1  1  0.16710454  0.67580212  0.18075714  1
  In3+  In2  1  -0.01357986  0.50058762  0.17117559  1
  In3+  In3  1  0.82572704  0.82700693  0.34131574  1
  In3+  In4  1  0.50586440  -0.00767917  0.80860599  1
  In3+  In5  1  0.82528863  0.66929494  0.17097252  1
  In3+  In6  1  0.83114752  0.50183281  0.63721938  1
  In3+  In7  1  0.33717916  0.67573570  -0.00622138  1
  In3+  In8  1  0.00401203  0.16821374  0.48590671  1
  In3+  In9  1  0.15064504  0.49915381  0.33869134  1
  In3+  In10  1  0.64366168  0.82848140  0.50787458  1
  In3+  In11  1  0.49689978  0.16110737  -0.00629955  1
  In3+  In12  1  0.82662526  0.34098607  0.17295423  1
  In3+  In13  1  0.16799253  0.18049559  0.67371128  1
  In3+  In14  1  0.50562299  0.32031251  0.82770640  1
  In3+  In15  1  0.17657704  -0.01470992  0.82493554  1
  In3+  In16  1  -0.01231789  0.33429802  0.00787698  1
  In3+  In17  1  0.34730546  0.67399138  0.65726172  1
  In3+  In18  1  0.31763929  0.51455200  0.17005565  1
  In3+  In19  1  0.35261537  0.83437761  0.17422362  1
  In3+  In20  1  0.67551171  0.13919344  0.16602404  1
  In3+  In21  1  0.17200181  0.83206726  0.64262718  1
  Ag+  Ag22  1  0.32887992  0.69021334  0.35587058  1
  Ag+  Ag23  1  0.00052754  -0.02082110  0.33521921  1
  Ag+  Ag24  1  0.83737371  -0.02954882  0.19259691  1
  Ag+  Ag25  1  0.00182805  0.52187882  0.51866467  1
  Ag+  Ag26  1  0.33735001  0.84412664  0.81087755  1
  Ag+  Ag27  1  0.51532130  0.82872791  0.67153561  1
  Ag+  Ag28  1  0.85224775  0.52530418  0.33351401  1
  Ag+  Ag29  1  -0.02436735  0.33639922  0.33404591  1
  Ag+  Ag30  1  0.85663206  0.14122072  0.35573180  1
  Ag+  Ag31  1  0.68759933  0.68896925  0.33184951  1
  Ag+  Ag32  1  0.63874110  0.01646962  0.64221735  1
  Ag+  Ag33  1  0.34545326  0.13695121  0.80723223  1
  Ag+  Ag34  1  0.33477037  0.82747994  0.47464852  1
  Ag+  Ag35  1  0.80268959  0.36040246  0.80045436  1
  Ag+  Ag36  1  0.48328178  -0.02635198  0.49869336  1
  Ag+  Ag37  1  0.83989152  0.52339033  -0.01563808  1
  Ag+  Ag38  1  0.16173536  0.85860595  0.32416838  1
  Ag+  Ag39  1  0.83225530  0.68999038  0.52174296  1
  Ag+  Ag40  1  0.67268971  0.82827615  0.19324946  1
  Ag+  Ag41  1  0.66618583  0.35741524  0.67157501  1
  Ag+  Ag42  1  0.50083080  0.64375631  0.85096520  1
  Sn2+  Sn43  1  0.16862192  -0.00191437  0.49413343  1
  Sn2+  Sn44  1  0.83204216  0.16685754  0.67041564  1
  Sn2+  Sn45  1  0.50842821  0.66657790  0.49327977  1
  Sn2+  Sn46  1  0.15562109  0.50723839  0.66735994  1
  Sn2+  Sn47  1  -0.00814558  0.49611999  0.83610046  1
  Sn2+  Sn48  1  0.67925327  0.50347422  0.49274497  1
  Sn2+  Sn49  1  -0.01295219  0.16731748  0.17511897  1
  Sn2+  Sn50  1  0.50969506  0.50324676  0.00003475  1
  Sn2+  Sn51  1  0.50764205  0.00226658  0.17944039  1
  Sn2+  Sn52  1  0.15737800  0.33314591  0.49795457  1
  Sn2+  Sn53  1  0.49638619  0.32720630  0.16202234  1
  Sn2+  Sn54  1  0.32836150  -0.00652708  0.33867065  1
  Sn2+  Sn55  1  -0.00893111  0.83196266  0.17441080  1
  Sn2+  Sn56  1  0.66678097  0.66610361  0.00493452  1
  Sn2+  Sn57  1  0.14986463  -0.01026955  0.16998928  1
  Sn2+  Sn58  1  0.16044785  0.33125081  0.16900501  1
  Sn2+  Sn59  1  0.33477536  -0.00882353  0.66080888  1
  Sn2+  Sn60  1  0.83206730  -0.00119135  0.49955657  1
  Sn2+  Sn61  1  0.00274124  0.66797088  0.65820429  1
  Sn2+  Sn62  1  0.00015948  0.00544922  0.01702147  1
  Sn2+  Sn63  1  0.33168923  0.00097566  -0.00450331  1
  Sn2+  Sn64  1  0.16722326  0.83237246  0.00868167  1
  Bi3+  Bi65  1  0.16992871  0.16470314  -0.00262559  1
  Bi3+  Bi66  1  0.66571564  0.16030367  0.83276032  1
  Bi3+  Bi67  1  0.33072448  0.50228524  0.83589027  1
  Bi3+  Bi68  1  0.66882305  0.50819581  0.16977168  1
  Bi3+  Bi69  1  0.33638794  0.32995130  0.33093937  1
  Bi3+  Bi70  1  0.16347056  0.49798778  0.00225678  1
  Bi3+  Bi71  1  0.67269143  0.00012427  0.33832870  1
  Bi3+  Bi72  1  0.50041396  0.33578559  0.50039441  1
  Bi3+  Bi73  1  0.16882615  0.33180431  0.83529173  1
  Bi3+  Bi74  1  0.00484500  0.00201179  0.66304373  1
  Bi3+  Bi75  1  0.33426219  0.33719597  0.00375412  1
  Bi3+  Bi76  1  0.83548258  0.00326208  0.83257183  1
  Bi3+  Bi77  1  0.50022379  0.50470093  0.33145392  1
  Bi3+  Bi78  1  0.17275667  0.66976032  0.83648936  1
  Bi3+  Bi79  1  0.66701608  0.33573543  0.33657368  1
  Bi3+  Bi80  1  0.65886499  0.83139414  0.83093064  1
  Bi3+  Bi81  1  0.50605822  0.16388726  0.33090253  1
  Bi3+  Bi82  1  0.66568725  0.66851006  0.65857636  1
  Bi3+  Bi83  1  0.83338517  0.83403813  -0.00040054  1
  Bi3+  Bi84  1  0.83199201  0.33333424  0.49345441  1
  Bi3+  Bi85  1  0.83411428  0.16448607  0.00213513  1
  Te2-  Te86  1  0.16603899  0.16238226  0.16014951  1
  Te2-  Te87  1  0.16266638  0.16783322  0.50434887  1
  Te2-  Te88  1  0.18142684  0.16791534  0.83433905  1
  Te2-  Te89  1  0.16663091  0.50096951  0.16270781  1
  Te2-  Te90  1  0.15205626  0.49812994  0.49944714  1
  Te2-  Te91  1  0.16559587  0.50080495  0.83813457  1
  Te2-  Te92  1  0.16003266  0.82909804  0.17513873  1
  Te2-  Te93  1  0.17898334  0.83528370  0.48937291  1
  Te2-  Te94  1  0.18493486  0.83206584  0.84364624  1
  Te2-  Te95  1  0.51101452  0.16467730  0.16864560  1
  Te2-  Te96  1  0.50193220  0.17221064  0.49682825  1
  Te2-  Te97  1  0.49288044  0.15932832  0.83567250  1
  Te2-  Te98  1  0.50526101  0.49740919  0.16425275  1
  Te2-  Te99  1  0.50021910  0.49907809  0.49776935  1
  Te2-  Te100  1  0.49533395  0.49761330  0.83609607  1
  Te2-  Te101  1  0.50558718  0.83532794  0.16646657  1
  Te2-  Te102  1  0.49037051  0.82656921  0.50704548  1
  Te2-  Te103  1  0.49294729  0.84229929  0.82262922  1
  Te2-  Te104  1  0.82675422  0.17262289  0.16128168  1
  Te2-  Te105  1  0.84004388  0.16822863  0.50087862  1
  Te2-  Te106  1  0.83104082  0.16574804  0.83894905  1
  Te2-  Te107  1  0.83200481  0.50465278  0.18019313  1
  Te2-  Te108  1  0.84627309  0.49382008  0.48547584  1
  Te2-  Te109  1  0.83493712  0.49684936  0.84019280  1
  Te2-  Te110  1  0.82491987  0.82617852  0.16329118  1
  Te2-  Te111  1  0.83918558  0.83452788  0.49321581  1
  Te2-  Te112  1  0.83219534  0.83687572  0.83435836  1
  Te2-  Te113  1  0.16421924  0.00344775  -0.00058340  1
  Te2-  Te114  1  0.15583651  0.00658169  0.33340298  1
  Te2-  Te115  1  0.16664192  -0.00801346  0.66952215  1
  Te2-  Te116  1  0.16808605  0.33355707  0.00012323  1
  Te2-  Te117  1  0.17562501  0.34252295  0.33301812  1
  Te2-  Te118  1  0.16658296  0.33528580  0.66923059  1
  Te2-  Te119  1  0.17384995  0.66096838  -0.00059881  1
  Te2-  Te120  1  0.18176003  0.65095754  0.33089205  1
  Te2-  Te121  1  0.16391741  0.67286209  0.67331760  1
  Te2-  Te122  1  0.49732203  0.00720945  0.01186011  1
  Te2-  Te123  1  0.50468189  0.00188123  0.34621960  1
  Te2-  Te124  1  0.49456247  -0.00995788  0.65512945  1
  Te2-  Te125  1  0.49814087  0.33212108  -0.00512763  1
  Te2-  Te126  1  0.50138378  0.33137941  0.33475524  1
  Te2-  Te127  1  0.51082216  0.33534041  0.66580463  1
  Te2-  Te128  1  0.49748099  0.66695227  -0.00334862  1
  Te2-  Te129  1  0.48035602  0.66452034  0.33488690  1
  Te2-  Te130  1  0.50167535  0.67648494  0.66196249  1
  Te2-  Te131  1  0.83572033  -0.00100849  -0.00239390  1
  Te2-  Te132  1  0.83875650  -0.00347378  0.33759383  1
  Te2-  Te133  1  0.84259348  0.00141881  0.66944111  1
  Te2-  Te134  1  0.83608298  0.32686990  0.01171875  1
  Te2-  Te135  1  0.82584450  0.32880527  0.32827702  1
  Te2-  Te136  1  0.82242492  0.33606803  0.65870594  1
  Te2-  Te137  1  0.83543751  0.66997376  0.00489582  1
  Te2-  Te138  1  0.83482205  0.67266468  0.32638800  1
  Te2-  Te139  1  0.83113242  0.65955178  0.66661725  1
  Te2-  Te140  1  0.00349646  0.17211032  0.00544268  1
  Te2-  Te141  1  -0.00446626  0.18321541  0.33188240  1
  Te2-  Te142  1  0.00691386  0.16423685  0.66715607  1
  Te2-  Te143  1  -0.00554665  0.49417723  0.00765671  1
  Te2-  Te144  1  -0.00195299  0.48843889  0.32446073  1
  Te2-  Te145  1  -0.00679313  0.50029698  0.66511020  1
  Te2-  Te146  1  -0.00130677  0.83732578  0.00430527  1
  Te2-  Te147  1  0.01222820  0.83133165  0.32936109  1
  Te2-  Te148  1  0.00851126  0.83723194  0.66628166  1
  Te2-  Te149  1  0.33530131  0.17202195  0.00854883  1
  Te2-  Te150  1  0.33832135  0.16499398  0.32525856  1
  Te2-  Te151  1  0.32673310  0.16423652  0.66483636  1
  Te2-  Te152  1  0.33295891  0.49923299  0.00471109  1
  Te2-  Te153  1  0.33800496  0.49284445  0.32363162  1
  Te2-  Te154  1  0.32688803  0.50874051  0.66895168  1
  Te2-  Te155  1  0.32994262  0.83227267  0.01877003  1
  Te2-  Te156  1  0.32332048  0.83531051  0.32544966  1
  Te2-  Te157  1  0.32301546  0.82637462  0.66590666  1
  Te2-  Te158  1  0.66366812  0.16696927  -0.00074726  1
  Te2-  Te159  1  0.66877712  0.16568581  0.32685723  1
  Te2-  Te160  1  0.66934628  0.15739267  0.67048203  1
  Te2-  Te161  1  0.68338289  0.50616045  0.00523933  1
  Te2-  Te162  1  0.66150570  0.50038548  0.33303407  1
  Te2-  Te163  1  0.67265935  0.50556042  0.66259684  1
  Te2-  Te164  1  0.66774454  0.82859900  -0.00752553  1
  Te2-  Te165  1  0.66904283  0.83515057  0.34121674  1
  Te2-  Te166  1  0.66643149  0.83079839  0.66493028  1
  Te2-  Te167  1  -0.01214664  0.00006745  0.18032245  1
  Te2-  Te168  1  0.00228292  0.00938021  0.49490749  1
  Te2-  Te169  1  0.00184987  0.00044212  0.83100658  1
  Te2-  Te170  1  0.00068116  0.33956843  0.17146424  1
  Te2-  Te171  1  -0.00203794  0.32562425  0.49114080  1
  Te2-  Te172  1  0.00689671  0.33485791  0.83570206  1
  Te2-  Te173  1  0.00874969  0.65891631  0.16763951  1
  Te2-  Te174  1  -0.01284811  0.66732415  0.50251068  1
  Te2-  Te175  1  0.00577140  0.66689391  0.83092895  1
  Te2-  Te176  1  0.33060553  -0.00722036  0.17044151  1
  Te2-  Te177  1  0.33489872  -0.01135121  0.49663079  1
  Te2-  Te178  1  0.33278707  -0.00554982  0.83730317  1
  Te2-  Te179  1  0.33405154  0.33337157  0.16668379  1
  Te2-  Te180  1  0.33428097  0.33383967  0.49908625  1
  Te2-  Te181  1  0.33439375  0.33731374  0.83779662  1
  Te2-  Te182  1  0.32801024  0.66840835  0.15886550  1
  Te2-  Te183  1  0.33222837  0.67024811  0.50422619  1
  Te2-  Te184  1  0.33944066  0.66304930  0.83859626  1
  Te2-  Te185  1  0.67841862  -0.01491622  0.17457090  1
  Te2-  Te186  1  0.66760944  -0.01298553  0.50071224  1
  Te2-  Te187  1  0.66657648  -0.00268327  0.82810507  1
  Te2-  Te188  1  0.66741167  0.34202817  0.17034708  1
  Te2-  Te189  1  0.66557499  0.33400782  0.50233002  1
  Te2-  Te190  1  0.66201272  0.32557210  0.82520577  1
  Te2-  Te191  1  0.66978547  0.67420971  0.17853909  1
  Te2-  Te192  1  0.67953544  0.67377213  0.49445595  1
  Te2-  Te193  1  0.65364203  0.66953077  0.83088271  1
  Pb2+  Pb194  1  0.00489282  0.66540583  0.00021023  1
  Pb2+  Pb195  1  0.32616647  0.50351342  0.49320585  1
  Pb2+  Pb196  1  0.16176653  0.66730982  0.49986692  1
  Pb2+  Pb197  1  0.49619975  0.83219557  0.33809500  1
  Pb2+  Pb198  1  0.16233289  0.17345823  0.33098411  1
  Pb2+  Pb199  1  0.82784933  0.66397496  0.83502931  1
  Pb2+  Pb200  1  0.00485074  0.66283526  0.33418676  1
  Pb2+  Pb201  1  0.00668606  0.16762739  0.83556683  1
  Pb2+  Pb202  1  0.83517657  0.83360050  0.66181197  1
  Pb2+  Pb203  1  0.49578572  0.83944707  -0.00893619  1
  Pb2+  Pb204  1  -0.00780803  0.33198511  0.66242972  1
  Pb2+  Pb205  1  0.01187507  0.83473110  0.83641041  1
  Pb2+  Pb206  1  0.66913647  0.33561072  0.00178818  1
  Pb2+  Pb207  1  0.49846452  0.50831241  0.66787295  1
  Pb2+  Pb208  1  0.67122154  0.16030760  0.49902164  1
  Pb2+  Pb209  1  0.50105315  0.16350373  0.66486747  1
  Pb2+  Pb210  1  0.33332030  0.15725947  0.49566507  1
  Pb2+  Pb211  1  0.66599256  0.50004228  0.83530800  1
  Pb2+  Pb212  1  0.33864044  0.33508546  0.67107988  1
  Pb2+  Pb213  1  0.66609936  -0.00280564  -0.00148597  1
  Pb2+  Pb214  1  0.49949145  0.66572481  0.16614891  1
  Pb2+  Pb215  1  0.00722528  0.84000472  0.49515719  1
