# generated using pymatgen
data_In22Ag21Sn22Bi21(Te54Pb11)2
_symmetry_space_group_name_H-M   'P 1'
_cell_length_a   19.16812008
_cell_length_b   19.15198339
_cell_length_c   19.17590194
_cell_angle_alpha   90.00507526
_cell_angle_beta   90.00886343
_cell_angle_gamma   89.97992152
_symmetry_Int_Tables_number   1
_chemical_formula_structural   In22Ag21Sn22Bi21(Te54Pb11)2
_chemical_formula_sum   'In22 Ag21 Sn22 Bi21 Te108 Pb22'
_cell_volume   7039.61721321
_cell_formula_units_Z   1
loop_
 _symmetry_equiv_pos_site_id
 _symmetry_equiv_pos_as_xyz
  1  'x, y, z'
loop_
 _atom_type_symbol
 _atom_type_oxidation_number
  In3+  3.0
  Ag+  1.0
  Sn2+  2.0
  Bi3+  3.0
  Te2-  -2.0
  Pb2+  2.0
loop_
 _atom_site_type_symbol
 _atom_site_label
 _atom_site_symmetry_multiplicity
 _atom_site_fract_x
 _atom_site_fract_y
 _atom_site_fract_z
 _atom_site_occupancy
  In3+  In0  1  0.17032464  0.30719153  0.17239432  1
  In3+  In1  1  0.32305536  0.83844423  0.17931618  1
  In3+  In2  1  0.51011153  0.31474151  0.49829339  1
  In3+  In3  1  0.51550544  0.67560002  0.51796693  1
  In3+  In4  1  0.00006523  0.85729933  0.50471319  1
  In3+  In5  1  0.17326286  0.31864295  0.82612667  1
  In3+  In6  1  0.16027751  0.48767996  0.00500351  1
  In3+  In7  1  0.67392663  0.33378155  0.31262527  1
  In3+  In8  1  0.81782112  0.85187796  0.66931353  1
  In3+  In9  1  0.16710564  0.49263704  0.34260394  1
  In3+  In10  1  0.16395799  0.66152426  0.86797095  1
  In3+  In11  1  0.30878509  0.18296862  0.48152118  1
  In3+  In12  1  0.67794144  0.83239992  0.83390826  1
  In3+  In13  1  0.31580607  0.68298480  0.65626254  1
  In3+  In14  1  0.48646927  0.00033240  0.82473950  1
  In3+  In15  1  0.82663388  0.01900468  0.83523821  1
  In3+  In16  1  0.01704202  0.49125942  0.16302922  1
  In3+  In17  1  0.02404659  0.32810575  0.33894647  1
  In3+  In18  1  0.49881239  0.83481467  -0.02060365  1
  In3+  In19  1  0.83008608  0.83428515  0.32299920  1
  In3+  In20  1  -0.00252253  0.48745123  0.83368907  1
  In3+  In21  1  0.66942835  0.66415065  0.30489667  1
  Ag+  Ag22  1  0.86350076  0.68626884  0.81161395  1
  Ag+  Ag23  1  -0.01037772  0.16526550  0.48193917  1
  Ag+  Ag24  1  0.31839871  0.31106353  0.35087822  1
  Ag+  Ag25  1  0.64577886  0.13480285  0.83040860  1
  Ag+  Ag26  1  0.00069902  0.31930562  0.02812783  1
  Ag+  Ag27  1  0.19569223  0.00091187  0.19329368  1
  Ag+  Ag28  1  0.14793131  0.16550833  0.64259216  1
  Ag+  Ag29  1  0.14576022  0.14149188  0.35306849  1
  Ag+  Ag30  1  0.52249645  0.83517060  0.66585283  1
  Ag+  Ag31  1  0.80865439  0.18335135  0.64639913  1
  Ag+  Ag32  1  0.69455998  0.15019525  0.19612536  1
  Ag+  Ag33  1  0.14284386  0.64650869  0.17231464  1
  Ag+  Ag34  1  0.14030003  0.33226322  0.52586600  1
  Ag+  Ag35  1  0.02495774  0.13708690  0.18877153  1
  Ag+  Ag36  1  0.31218638  0.02288535  0.02019267  1
  Ag+  Ag37  1  0.69402585  0.69216635  -0.00663651  1
  Ag+  Ag38  1  0.32783576  -0.01795922  0.36167361  1
  Ag+  Ag39  1  0.85154283  0.35038262  0.47181462  1
  Ag+  Ag40  1  0.63427463  0.29482742  0.02128532  1
  Ag+  Ag41  1  0.35037125  0.13879474  0.80279335  1
  Ag+  Ag42  1  0.66609650  0.02243212  0.69266981  1
  Sn2+  Sn43  1  0.32720856  0.83769355  0.50176307  1
  Sn2+  Sn44  1  0.83439482  0.82776912  -0.00402676  1
  Sn2+  Sn45  1  0.83460501  0.16221513  0.33898550  1
  Sn2+  Sn46  1  0.16310482  0.84270836  0.65951568  1
  Sn2+  Sn47  1  0.49519218  -0.00110014  0.16445372  1
  Sn2+  Sn48  1  0.34402375  0.00889667  0.66488284  1
  Sn2+  Sn49  1  0.50257887  0.16446043  0.66458954  1
  Sn2+  Sn50  1  0.66035872  0.83922885  0.15819384  1
  Sn2+  Sn51  1  -0.00401389  0.66309556  0.00075745  1
  Sn2+  Sn52  1  0.83091727  0.16992460  -0.00327811  1
  Sn2+  Sn53  1  0.66131179  0.00829120  0.00251125  1
  Sn2+  Sn54  1  0.00586338  0.67256269  0.66242797  1
  Sn2+  Sn55  1  0.83265558  0.66503392  0.51443778  1
  Sn2+  Sn56  1  0.82961342  0.49462247  -0.00054542  1
  Sn2+  Sn57  1  0.33046880  0.51064204  0.16805426  1
  Sn2+  Sn58  1  0.16242293  0.65950635  0.48406680  1
  Sn2+  Sn59  1  0.67123250  0.83224554  0.50220148  1
  Sn2+  Sn60  1  0.65520728  0.00391778  0.33468916  1
  Sn2+  Sn61  1  -0.00563470  0.00816971  0.66815254  1
  Sn2+  Sn62  1  0.16635902  0.49079778  0.66912771  1
  Sn2+  Sn63  1  0.67068392  0.66711296  0.68484092  1
  Sn2+  Sn64  1  0.15990079  0.83700583  0.32902572  1
  Bi3+  Bi65  1  0.49793512  0.50301245  0.33176456  1
  Bi3+  Bi66  1  0.33126079  0.83270317  0.82908455  1
  Bi3+  Bi67  1  0.33097040  0.66937346  -0.00497378  1
  Bi3+  Bi68  1  0.83545343  0.33446494  0.83532083  1
  Bi3+  Bi69  1  0.49532081  0.66904879  0.83243891  1
  Bi3+  Bi70  1  0.82714875  0.00353191  0.15936378  1
  Bi3+  Bi71  1  0.50051217  0.67031609  0.16355916  1
  Bi3+  Bi72  1  0.33352446  0.16781850  0.16764229  1
  Bi3+  Bi73  1  0.32521563  0.50115993  0.83277050  1
  Bi3+  Bi74  1  -0.00284233  0.66735081  0.33483072  1
  Bi3+  Bi75  1  0.50357745  -0.00464536  0.50505042  1
  Bi3+  Bi76  1  0.49533972  0.16915736  0.33375719  1
  Bi3+  Bi77  1  0.66633229  0.33234549  0.67194684  1
  Bi3+  Bi78  1  0.00534689  0.16776413  0.83582712  1
  Bi3+  Bi79  1  0.66986040  0.49882185  0.15972501  1
  Bi3+  Bi80  1  0.00181810  0.83106053  0.82961118  1
  Bi3+  Bi81  1  0.16559632  0.17025130  -0.00140888  1
  Bi3+  Bi82  1  0.33411277  0.33148347  0.66030313  1
  Bi3+  Bi83  1  0.83113489  0.00133898  0.50220194  1
  Bi3+  Bi84  1  0.67044458  0.50256201  0.83697635  1
  Bi3+  Bi85  1  0.16482845  -0.00066121  0.82858363  1
  Te2-  Te86  1  0.16856770  0.15384781  0.16262004  1
  Te2-  Te87  1  0.16170333  0.18176440  0.49328954  1
  Te2-  Te88  1  0.17169805  0.16406255  0.83724304  1
  Te2-  Te89  1  0.16936871  0.50207852  0.16330827  1
  Te2-  Te90  1  0.16641644  0.48252145  0.49624008  1
  Te2-  Te91  1  0.16265929  0.50741492  0.83578608  1
  Te2-  Te92  1  0.17052151  0.85230630  0.17025011  1
  Te2-  Te93  1  0.15953898  0.83300015  0.49861789  1
  Te2-  Te94  1  0.16589809  0.82889748  0.82714708  1
  Te2-  Te95  1  0.49738058  0.16621302  0.17158132  1
  Te2-  Te96  1  0.50349854  0.15863012  0.49756124  1
  Te2-  Te97  1  0.49509955  0.15565920  0.83274712  1
  Te2-  Te98  1  0.50127698  0.50380648  0.16871532  1
  Te2-  Te99  1  0.49918634  0.52161877  0.49433985  1
  Te2-  Te100  1  0.49605745  0.50336145  0.83238020  1
  Te2-  Te101  1  0.50549343  0.83225028  0.17007191  1
  Te2-  Te102  1  0.49882638  0.83173719  0.50957527  1
  Te2-  Te103  1  0.49561317  0.83434093  0.82209489  1
  Te2-  Te104  1  0.83526830  0.16175647  0.16572259  1
  Te2-  Te105  1  0.84131467  0.15986398  0.50516762  1
  Te2-  Te106  1  0.84409249  0.16882327  0.82942788  1
  Te2-  Te107  1  0.83219473  0.49845855  0.16641515  1
  Te2-  Te108  1  0.83330356  0.49245761  0.49858849  1
  Te2-  Te109  1  0.83767205  0.50109289  0.83710381  1
  Te2-  Te110  1  0.82736170  0.83822943  0.16663317  1
  Te2-  Te111  1  0.84033191  0.83743869  0.51439978  1
  Te2-  Te112  1  0.83557840  0.82912408  0.82604401  1
  Te2-  Te113  1  0.16963165  0.00319732  -0.00910588  1
  Te2-  Te114  1  0.17506796  -0.00213103  0.33912068  1
  Te2-  Te115  1  0.16892779  0.01436450  0.66901491  1
  Te2-  Te116  1  0.15220804  0.33594236  0.00124753  1
  Te2-  Te117  1  0.17707797  0.34078701  0.32407405  1
  Te2-  Te118  1  0.17228591  0.32063503  0.66941031  1
  Te2-  Te119  1  0.16895332  0.66911324  0.02138902  1
  Te2-  Te120  1  0.16151344  0.66893004  0.32342722  1
  Te2-  Te121  1  0.16586507  0.66325544  0.65256247  1
  Te2-  Te122  1  0.50285883  -0.00998924  -0.00846376  1
  Te2-  Te123  1  0.49066702  0.00381851  0.33950818  1
  Te2-  Te124  1  0.51431314  -0.00734992  0.66970387  1
  Te2-  Te125  1  0.49575472  0.33194669  -0.00157181  1
  Te2-  Te126  1  0.49864054  0.33858624  0.34239590  1
  Te2-  Te127  1  0.49937303  0.33626345  0.65943517  1
  Te2-  Te128  1  0.49328988  0.67377057  -0.00209630  1
  Te2-  Te129  1  0.50691495  0.66679348  0.32658540  1
  Te2-  Te130  1  0.49884684  0.67896761  0.67051678  1
  Te2-  Te131  1  0.83295351  -0.00260154  -0.00548340  1
  Te2-  Te132  1  0.82879667  -0.00206065  0.33544277  1
  Te2-  Te133  1  0.82070353  0.00155080  0.66908727  1
  Te2-  Te134  1  0.85027899  0.33261701  -0.00464970  1
  Te2-  Te135  1  0.82553004  0.32644205  0.33086102  1
  Te2-  Te136  1  0.83148320  0.32715256  0.67162786  1
  Te2-  Te137  1  0.83795382  0.66805275  -0.00588516  1
  Te2-  Te138  1  0.83073547  0.67289186  0.33958263  1
  Te2-  Te139  1  0.83653719  0.66394228  0.67031442  1
  Te2-  Te140  1  0.00121622  0.17397683  -0.00245189  1
  Te2-  Te141  1  0.00386238  0.17684220  0.32860844  1
  Te2-  Te142  1  0.00513298  0.16286970  0.67583827  1
  Te2-  Te143  1  0.00503308  0.50611289  0.00339581  1
  Te2-  Te144  1  0.00636052  0.50170332  0.32662512  1
  Te2-  Te145  1  0.00627535  0.49895118  0.67288406  1
  Te2-  Te146  1  0.00155468  0.83238303  -0.00637016  1
  Te2-  Te147  1  -0.00900870  0.83221150  0.34246310  1
  Te2-  Te148  1  0.00135609  0.83801465  0.66480814  1
  Te2-  Te149  1  0.33116884  0.16727541  0.00503617  1
  Te2-  Te150  1  0.33399195  0.16613796  0.32991162  1
  Te2-  Te151  1  0.34321840  0.17049705  0.66152003  1
  Te2-  Te152  1  0.32550469  0.50517498  -0.00236956  1
  Te2-  Te153  1  0.33153026  0.50428027  0.32802862  1
  Te2-  Te154  1  0.32907262  0.49710701  0.66850609  1
  Te2-  Te155  1  0.34140545  0.83124530  -0.00941612  1
  Te2-  Te156  1  0.33319931  0.83782323  0.33346050  1
  Te2-  Te157  1  0.32674052  0.83690803  0.66683859  1
  Te2-  Te158  1  0.67255493  0.16264132  -0.02236604  1
  Te2-  Te159  1  0.66088911  0.17597063  0.33487778  1
  Te2-  Te160  1  0.66458066  0.16918281  0.68065737  1
  Te2-  Te161  1  0.66872589  0.49129250  -0.00211836  1
  Te2-  Te162  1  0.66376103  0.49560753  0.32629431  1
  Te2-  Te163  1  0.66536103  0.50105047  0.67110384  1
  Te2-  Te164  1  0.66454774  0.83668793  -0.00856865  1
  Te2-  Te165  1  0.67496995  0.83165649  0.33225993  1
  Te2-  Te166  1  0.66673320  0.82606487  0.67482338  1
  Te2-  Te167  1  -0.01050871  -0.00247687  0.16701541  1
  Te2-  Te168  1  -0.00292622  0.01309854  0.49970115  1
  Te2-  Te169  1  -0.00080939  -0.00492182  0.83158524  1
  Te2-  Te170  1  0.01283915  0.33965724  0.17403514  1
  Te2-  Te171  1  -0.00359033  0.32198345  0.48800396  1
  Te2-  Te172  1  0.00740588  0.33654781  0.83232391  1
  Te2-  Te173  1  -0.00268084  0.66753868  0.17223852  1
  Te2-  Te174  1  -0.00181619  0.66306932  0.49549936  1
  Te2-  Te175  1  0.00850925  0.66983393  0.83228970  1
  Te2-  Te176  1  0.33958171  -0.00747723  0.16088872  1
  Te2-  Te177  1  0.33983609  0.00256874  0.50633394  1
  Te2-  Te178  1  0.33176907  -0.00460496  0.83283852  1
  Te2-  Te179  1  0.32378341  0.33475382  0.16728197  1
  Te2-  Te180  1  0.34391741  0.33003049  0.49651864  1
  Te2-  Te181  1  0.32969637  0.33988881  0.82733467  1
  Te2-  Te182  1  0.33879830  0.68038159  0.16040055  1
  Te2-  Te183  1  0.32842645  0.67196375  0.50294935  1
  Te2-  Te184  1  0.32724079  0.66568939  0.82712943  1
  Te2-  Te185  1  0.66453713  0.00722503  0.17155987  1
  Te2-  Te186  1  0.66704748  -0.00440226  0.49632970  1
  Te2-  Te187  1  0.67668642  -0.01204712  0.83406834  1
  Te2-  Te188  1  0.66679635  0.33661217  0.15753006  1
  Te2-  Te189  1  0.66268015  0.33399636  0.50950059  1
  Te2-  Te190  1  0.67214293  0.34121437  0.83363880  1
  Te2-  Te191  1  0.66428368  0.66489862  0.14489821  1
  Te2-  Te192  1  0.66857740  0.67251817  0.50720960  1
  Te2-  Te193  1  0.65745259  0.66667260  0.84657226  1
  Pb2+  Pb194  1  0.83714993  0.49997502  0.33247546  1
  Pb2+  Pb195  1  0.00207878  0.00398075  0.33103302  1
  Pb2+  Pb196  1  -0.00217703  0.32716886  0.66310526  1
  Pb2+  Pb197  1  0.50265910  0.50236149  -0.00080504  1
  Pb2+  Pb198  1  0.00205281  0.00969276  0.00083352  1
  Pb2+  Pb199  1  0.50728173  0.83590682  0.33891265  1
  Pb2+  Pb200  1  0.49476064  0.33301162  0.17329720  1
  Pb2+  Pb201  1  0.83118293  0.66602434  0.16228150  1
  Pb2+  Pb202  1  0.33240599  0.49925305  0.49734087  1
  Pb2+  Pb203  1  0.49738414  0.50892429  0.66450356  1
  Pb2+  Pb204  1  0.50154365  0.15836349  0.00335584  1
  Pb2+  Pb205  1  0.32360379  0.33308910  0.00016416  1
  Pb2+  Pb206  1  0.17338431  0.83720891  -0.00003060  1
  Pb2+  Pb207  1  0.00172040  0.83193884  0.16708708  1
  Pb2+  Pb208  1  0.33400014  0.66985396  0.33248785  1
  Pb2+  Pb209  1  0.16938693  0.00904076  0.50354503  1
  Pb2+  Pb210  1  0.84014042  0.32793614  0.16222177  1
  Pb2+  Pb211  1  0.83483825  0.49373638  0.66973495  1
  Pb2+  Pb212  1  0.50492213  0.32547326  0.83160369  1
  Pb2+  Pb213  1  0.66609567  0.50075640  0.49700479  1
  Pb2+  Pb214  1  0.00090940  0.49614394  0.49962552  1
  Pb2+  Pb215  1  0.67535903  0.16767319  0.50794130  1
