# generated using pymatgen
data_In22Ag21Sn22Bi21(Te54Pb11)2
_symmetry_space_group_name_H-M   'P 1'
_cell_length_a   19.11906568
_cell_length_b   19.13343344
_cell_length_c   19.15246782
_cell_angle_alpha   90.00429435
_cell_angle_beta   89.97422182
_cell_angle_gamma   90.00475020
_symmetry_Int_Tables_number   1
_chemical_formula_structural   In22Ag21Sn22Bi21(Te54Pb11)2
_chemical_formula_sum   'In22 Ag21 Sn22 Bi21 Te108 Pb22'
_cell_volume   7006.22805655
_cell_formula_units_Z   1
loop_
 _symmetry_equiv_pos_site_id
 _symmetry_equiv_pos_as_xyz
  1  'x, y, z'
loop_
 _atom_type_symbol
 _atom_type_oxidation_number
  In3+  3.0
  Ag+  1.0
  Sn2+  2.0
  Bi3+  3.0
  Te2-  -2.0
  Pb2+  2.0
loop_
 _atom_site_type_symbol
 _atom_site_label
 _atom_site_symmetry_multiplicity
 _atom_site_fract_x
 _atom_site_fract_y
 _atom_site_fract_z
 _atom_site_occupancy
  In3+  In0  1  0.33777365  0.83277557  0.81939917  1
  In3+  In1  1  0.67102537  0.16747589  0.48655876  1
  In3+  In2  1  0.00015207  0.83597196  0.49971191  1
  In3+  In3  1  0.47069749  0.33271451  0.82985929  1
  In3+  In4  1  0.00102784  0.16536720  0.15314486  1
  In3+  In5  1  0.48895481  0.33977610  0.50422895  1
  In3+  In6  1  0.17078034  0.15251058  0.33899314  1
  In3+  In7  1  0.18746078  0.50604301  0.66394774  1
  In3+  In8  1  0.83469837  0.16122449  0.33488983  1
  In3+  In9  1  0.31739517  0.33638706  0.33143275  1
  In3+  In10  1  0.82999471  0.33117127  0.15485865  1
  In3+  In11  1  0.65539223  0.15193023  0.16588081  1
  In3+  In12  1  0.17994839  0.34087991  0.49738445  1
  In3+  In13  1  0.00116707  0.15822408  0.50402067  1
  In3+  In14  1  0.16970744  0.16546629  -0.02186335  1
  In3+  In15  1  0.49449405  0.50003971  0.31510339  1
  In3+  In16  1  -0.00378670  -0.01744068  0.67068185  1
  In3+  In17  1  0.83189726  -0.01112640  0.84726977  1
  In3+  In18  1  0.19035280  0.51399122  0.33516523  1
  In3+  In19  1  0.16225220  0.34434513  0.84626095  1
  In3+  In20  1  0.63141120  0.50995333  0.83858282  1
  In3+  In21  1  0.66234263  0.66566304  0.34898960  1
  Ag+  Ag22  1  0.19548581  0.69132555  0.50479319  1
  Ag+  Ag23  1  0.83275685  0.85166003  0.68879198  1
  Ag+  Ag24  1  0.29633344  0.80248144  0.52520119  1
  Ag+  Ag25  1  0.64855852  0.69597097  0.64880559  1
  Ag+  Ag26  1  0.32863942  0.52383144  0.84817009  1
  Ag+  Ag27  1  0.46937859  0.52168551  0.01849023  1
  Ag+  Ag28  1  0.65159666  -0.03006693  0.33320938  1
  Ag+  Ag29  1  0.30587986  -0.02251799  0.02727468  1
  Ag+  Ag30  1  0.47954994  0.69041893  0.84551034  1
  Ag+  Ag31  1  0.47594623  0.00248098  0.14112947  1
  Ag+  Ag32  1  0.31631079  0.68615279  0.30718165  1
  Ag+  Ag33  1  -0.00139055  0.81187335  0.86469837  1
  Ag+  Ag34  1  0.86259331  0.14251589  0.69003057  1
  Ag+  Ag35  1  0.19180787  -0.01433707  0.49966421  1
  Ag+  Ag36  1  0.33467511  0.50059308  0.14871651  1
  Ag+  Ag37  1  0.33180614  0.51073357  0.48678104  1
  Ag+  Ag38  1  0.85962246  0.85888878  0.33016837  1
  Ag+  Ag39  1  0.02165295  0.33277105  0.02292141  1
  Ag+  Ag40  1  0.65914372  0.01599589  -0.02526418  1
  Ag+  Ag41  1  -0.00873094  0.15288701  0.85485215  1
  Ag+  Ag42  1  0.30719676  0.33934244  0.68996710  1
  Sn2+  Sn43  1  0.66626215  0.84257633  0.16970288  1
  Sn2+  Sn44  1  0.33675932  0.82368356  0.17165524  1
  Sn2+  Sn45  1  0.66095748  0.32872239  -0.00289126  1
  Sn2+  Sn46  1  -0.00652040  0.84439457  0.17056910  1
  Sn2+  Sn47  1  -0.00488660  0.00431318  0.33343675  1
  Sn2+  Sn48  1  0.67161104  0.83797124  0.50185788  1
  Sn2+  Sn49  1  0.83652476  0.67858821  0.50322528  1
  Sn2+  Sn50  1  0.00636900  0.49360410  0.83227561  1
  Sn2+  Sn51  1  0.16354388  0.16994484  0.66143177  1
  Sn2+  Sn52  1  0.83004237  0.66375830  0.17475571  1
  Sn2+  Sn53  1  0.00972318  0.50007171  0.16657964  1
  Sn2+  Sn54  1  0.00219114  0.66253245  0.33082684  1
  Sn2+  Sn55  1  0.16945352  0.49807167  0.00735468  1
  Sn2+  Sn56  1  0.84131331  0.33143801  0.82862313  1
  Sn2+  Sn57  1  0.34341163  0.64925718  0.66282074  1
  Sn2+  Sn58  1  0.33903817  0.33298222  0.00601438  1
  Sn2+  Sn59  1  0.17305621  0.00274559  0.17439991  1
  Sn2+  Sn60  1  -0.00078902  0.32596391  0.33371188  1
  Sn2+  Sn61  1  0.82953517  0.00247828  0.16684331  1
  Sn2+  Sn62  1  0.33461657  0.15684179  0.83324327  1
  Sn2+  Sn63  1  0.49997818  0.32957110  0.16849568  1
  Sn2+  Sn64  1  0.68396237  0.17560887  0.83261546  1
  Bi3+  Bi65  1  0.83403431  0.00048059  0.49444143  1
  Bi3+  Bi66  1  0.66692367  0.66565273  -0.00244115  1
  Bi3+  Bi67  1  0.83440977  0.49615095  0.66682170  1
  Bi3+  Bi68  1  0.32858128  0.00744586  0.66805962  1
  Bi3+  Bi69  1  0.49820466  0.16833363  -0.00083134  1
  Bi3+  Bi70  1  0.83274543  0.33494134  0.49577256  1
  Bi3+  Bi71  1  0.16222230  0.00198509  0.82247849  1
  Bi3+  Bi72  1  0.50068866  0.16796760  0.66795593  1
  Bi3+  Bi73  1  0.66830936  0.33312216  0.67005024  1
  Bi3+  Bi74  1  0.49782061  0.82934420  0.33464987  1
  Bi3+  Bi75  1  0.83136421  0.49836455  0.33230547  1
  Bi3+  Bi76  1  0.50218092  0.83562611  0.00123723  1
  Bi3+  Bi77  1  0.83584554  0.66517313  0.83060584  1
  Bi3+  Bi78  1  0.50035948  0.66497458  0.50455356  1
  Bi3+  Bi79  1  0.50371739  0.00052887  0.49963324  1
  Bi3+  Bi80  1  0.83685965  0.49635029  -0.00323469  1
  Bi3+  Bi81  1  0.49796358  0.49759809  0.66901333  1
  Bi3+  Bi82  1  -0.00352715  0.66428153  0.65994264  1
  Bi3+  Bi83  1  0.66673751  0.33688201  0.33125003  1
  Bi3+  Bi84  1  0.00130371  0.33521604  0.66372978  1
  Bi3+  Bi85  1  0.16774424  0.83340371  0.33032871  1
  Te2-  Te86  1  0.15822311  0.16522156  0.18185744  1
  Te2-  Te87  1  0.15997222  0.17548436  0.49132308  1
  Te2-  Te88  1  0.16114448  0.16382924  0.82670936  1
  Te2-  Te89  1  0.17775731  0.50061601  0.17771340  1
  Te2-  Te90  1  0.17741462  0.49471641  0.49027649  1
  Te2-  Te91  1  0.17686142  0.49648972  0.83034245  1
  Te2-  Te92  1  0.16778851  0.83670140  0.16846832  1
  Te2-  Te93  1  0.15691734  0.83926650  0.49503189  1
  Te2-  Te94  1  0.14686742  0.83957041  0.83257258  1
  Te2-  Te95  1  0.50049119  0.15618290  0.16506792  1
  Te2-  Te96  1  0.50478228  0.16659086  0.50359513  1
  Te2-  Te97  1  0.50616696  0.17443986  0.83370651  1
  Te2-  Te98  1  0.49344990  0.49811053  0.16112387  1
  Te2-  Te99  1  0.48995202  0.50146613  0.50687743  1
  Te2-  Te100  1  0.47930732  0.48645880  0.83192892  1
  Te2-  Te101  1  0.49686761  0.84610870  0.16687393  1
  Te2-  Te102  1  0.50367725  0.83218350  0.49784129  1
  Te2-  Te103  1  0.50101185  0.83564712  0.83520459  1
  Te2-  Te104  1  0.84620277  0.17164396  0.17053230  1
  Te2-  Te105  1  0.83521430  0.16908937  0.49334772  1
  Te2-  Te106  1  0.84324522  0.16343777  0.83224327  1
  Te2-  Te107  1  0.83705484  0.49338004  0.16429647  1
  Te2-  Te108  1  0.83099852  0.50108726  0.49873641  1
  Te2-  Te109  1  0.84196316  0.49965569  0.83225205  1
  Te2-  Te110  1  0.83559997  0.83310161  0.18277401  1
  Te2-  Te111  1  0.82892833  0.83762669  0.47854318  1
  Te2-  Te112  1  0.84868394  0.83506932  0.83590165  1
  Te2-  Te113  1  0.16595138  0.01165451  -0.00358372  1
  Te2-  Te114  1  0.16645876  -0.00098631  0.34770520  1
  Te2-  Te115  1  0.16543678  0.00186453  0.65347073  1
  Te2-  Te116  1  0.16861978  0.32732026  0.00052727  1
  Te2-  Te117  1  0.16486532  0.33753687  0.33837679  1
  Te2-  Te118  1  0.16472369  0.34042896  0.65254681  1
  Te2-  Te119  1  0.16700213  0.66338303  -0.00191100  1
  Te2-  Te120  1  0.17498634  0.66647659  0.34800571  1
  Te2-  Te121  1  0.16463203  0.65936548  0.65186371  1
  Te2-  Te122  1  0.51120074  0.00107745  -0.00038498  1
  Te2-  Te123  1  0.50596990  -0.00258639  0.33871539  1
  Te2-  Te124  1  0.49824997  0.00223731  0.66568081  1
  Te2-  Te125  1  0.50170227  0.32930592  -0.00275258  1
  Te2-  Te126  1  0.50735836  0.34014915  0.33590417  1
  Te2-  Te127  1  0.50501278  0.33136791  0.66818851  1
  Te2-  Te128  1  0.50384320  0.66124935  -0.01149317  1
  Te2-  Te129  1  0.50014947  0.66258522  0.33743945  1
  Te2-  Te130  1  0.50769100  0.66138060  0.67520686  1
  Te2-  Te131  1  0.82781403  -0.00052700  0.00058883  1
  Te2-  Te132  1  0.83224299  0.00512193  0.33251649  1
  Te2-  Te133  1  0.84243816  0.00090559  0.65637760  1
  Te2-  Te134  1  0.83105924  0.33542909  -0.00079991  1
  Te2-  Te135  1  0.82969954  0.33469090  0.33217024  1
  Te2-  Te136  1  0.83385201  0.33198460  0.66087557  1
  Te2-  Te137  1  0.83382354  0.66043660  -0.00059667  1
  Te2-  Te138  1  0.82655558  0.65845639  0.33410113  1
  Te2-  Te139  1  0.83515012  0.65769612  0.66857266  1
  Te2-  Te140  1  0.00839059  0.18056401  -0.00071814  1
  Te2-  Te141  1  -0.00108770  0.16423876  0.34072460  1
  Te2-  Te142  1  0.00209618  0.17370630  0.65645063  1
  Te2-  Te143  1  0.00264558  0.48452023  0.00152598  1
  Te2-  Te144  1  -0.00571940  0.49874308  0.32727783  1
  Te2-  Te145  1  0.00008890  0.50016569  0.66415894  1
  Te2-  Te146  1  0.00051809  0.83379074  0.01039074  1
  Te2-  Te147  1  0.00592942  0.83033494  0.33701215  1
  Te2-  Te148  1  -0.01702645  0.82947588  0.65606889  1
  Te2-  Te149  1  0.33525148  0.16404007  -0.00486205  1
  Te2-  Te150  1  0.32959370  0.17447703  0.33148258  1
  Te2-  Te151  1  0.33629217  0.17436292  0.67031998  1
  Te2-  Te152  1  0.32673756  0.49349976  -0.00436161  1
  Te2-  Te153  1  0.34188346  0.49091761  0.33976930  1
  Te2-  Te154  1  0.33547592  0.48402678  0.66536553  1
  Te2-  Te155  1  0.34051184  0.83693138  0.00250170  1
  Te2-  Te156  1  0.33286501  0.82960545  0.33303607  1
  Te2-  Te157  1  0.33056543  0.83956279  0.66460634  1
  Te2-  Te158  1  0.66360150  0.16019535  0.00780472  1
  Te2-  Te159  1  0.67356315  0.17447704  0.32344811  1
  Te2-  Te160  1  0.66392953  0.17134905  0.66819112  1
  Te2-  Te161  1  0.67309786  0.49819365  -0.00855443  1
  Te2-  Te162  1  0.66466381  0.50349172  0.33216730  1
  Te2-  Te163  1  0.66867785  0.49479557  0.67658165  1
  Te2-  Te164  1  0.66390642  0.83150017  0.00197176  1
  Te2-  Te165  1  0.65882140  0.82038269  0.33114597  1
  Te2-  Te166  1  0.68257477  0.83665401  0.66580166  1
  Te2-  Te167  1  0.00098592  0.00821902  0.16581329  1
  Te2-  Te168  1  -0.00495586  0.00055039  0.50211087  1
  Te2-  Te169  1  -0.00052071  0.00861215  0.82358758  1
  Te2-  Te170  1  -0.00530071  0.32768289  0.16892062  1
  Te2-  Te171  1  -0.00587801  0.33153211  0.49844740  1
  Te2-  Te172  1  0.00978483  0.33224448  0.82491605  1
  Te2-  Te173  1  -0.00149768  0.66606271  0.16967603  1
  Te2-  Te174  1  -0.00365418  0.66998665  0.49760524  1
  Te2-  Te175  1  -0.00020504  0.66622126  0.82742301  1
  Te2-  Te176  1  0.33045319  0.00269157  0.16877142  1
  Te2-  Te177  1  0.33895833  -0.00006832  0.50571195  1
  Te2-  Te178  1  0.32503901  -0.00982569  0.82964218  1
  Te2-  Te179  1  0.33911170  0.34475964  0.17470370  1
  Te2-  Te180  1  0.33361217  0.33436182  0.48916198  1
  Te2-  Te181  1  0.31747970  0.32251891  0.83540020  1
  Te2-  Te182  1  0.33650599  0.65462179  0.16644643  1
  Te2-  Te183  1  0.34168519  0.66191331  0.50636621  1
  Te2-  Te184  1  0.33450583  0.67151015  0.82464039  1
  Te2-  Te185  1  0.67344393  0.00237982  0.18568914  1
  Te2-  Te186  1  0.66703065  0.00572286  0.48498431  1
  Te2-  Te187  1  0.67884354  0.00279259  0.83015748  1
  Te2-  Te188  1  0.66833826  0.32848834  0.16708805  1
  Te2-  Te189  1  0.67006891  0.32969501  0.49884509  1
  Te2-  Te190  1  0.67486775  0.33436445  0.83205932  1
  Te2-  Te191  1  0.66855175  0.66771790  0.15934158  1
  Te2-  Te192  1  0.66459612  0.66594273  0.50538566  1
  Te2-  Te193  1  0.67447814  0.65939201  0.83417507  1
  Pb2+  Pb194  1  0.33038847  0.16704360  0.50262411  1
  Pb2+  Pb195  1  0.50375623  0.82871822  0.66460328  1
  Pb2+  Pb196  1  0.50349042  0.16919066  0.33541509  1
  Pb2+  Pb197  1  0.49995051  0.00659429  0.83673575  1
  Pb2+  Pb198  1  0.67500076  0.82919793  0.83341123  1
  Pb2+  Pb199  1  0.66496352  0.49797009  0.15927805  1
  Pb2+  Pb200  1  0.65768569  0.49660170  0.50618054  1
  Pb2+  Pb201  1  0.15766864  0.83142806  0.66744016  1
  Pb2+  Pb202  1  0.33656515  0.66817307  -0.00181607  1
  Pb2+  Pb203  1  0.16752338  0.66635296  0.82468089  1
  Pb2+  Pb204  1  0.67266585  0.00508250  0.65732795  1
  Pb2+  Pb205  1  -0.00103121  0.00443119  -0.00476651  1
  Pb2+  Pb206  1  0.17158780  0.83658747  -0.00388168  1
  Pb2+  Pb207  1  0.16809337  0.66801604  0.17236078  1
  Pb2+  Pb208  1  0.83149572  0.83048448  0.01309096  1
  Pb2+  Pb209  1  0.83322258  0.16795035  0.00050042  1
  Pb2+  Pb210  1  0.32919547  0.17304064  0.16179544  1
  Pb2+  Pb211  1  0.33933970  -0.00194676  0.33781317  1
  Pb2+  Pb212  1  0.16558359  0.33394618  0.16889153  1
  Pb2+  Pb213  1  0.00784503  0.49996898  0.49460840  1
  Pb2+  Pb214  1  0.50185415  0.67383880  0.16483593  1
  Pb2+  Pb215  1  0.00135081  0.65508320  0.00057458  1
