# generated using pymatgen
data_In22Ag21Sn22Bi21(Te54Pb11)2
_symmetry_space_group_name_H-M   'P 1'
_cell_length_a   19.12507629
_cell_length_b   19.13127580
_cell_length_c   19.11930629
_cell_angle_alpha   90.01512334
_cell_angle_beta   90.00339652
_cell_angle_gamma   90.00158355
_symmetry_Int_Tables_number   1
_chemical_formula_structural   In22Ag21Sn22Bi21(Te54Pb11)2
_chemical_formula_sum   'In22 Ag21 Sn22 Bi21 Te108 Pb22'
_cell_volume   6995.50745157
_cell_formula_units_Z   1
loop_
 _symmetry_equiv_pos_site_id
 _symmetry_equiv_pos_as_xyz
  1  'x, y, z'
loop_
 _atom_type_symbol
 _atom_type_oxidation_number
  In3+  3.0
  Ag+  1.0
  Sn2+  2.0
  Bi3+  3.0
  Te2-  -2.0
  Pb2+  2.0
loop_
 _atom_site_type_symbol
 _atom_site_label
 _atom_site_symmetry_multiplicity
 _atom_site_fract_x
 _atom_site_fract_y
 _atom_site_fract_z
 _atom_site_occupancy
  In3+  In0  1  0.16799899  0.15291710  0.66437065  1
  In3+  In1  1  0.32725363  0.65701211  0.32447526  1
  In3+  In2  1  0.82936272  0.47823051  0.33705963  1
  In3+  In3  1  0.51659319  0.67420999  0.82837944  1
  In3+  In4  1  0.81990182  0.33030968  0.49082722  1
  In3+  In5  1  -0.02350431  0.34223542  0.66152252  1
  In3+  In6  1  0.15528292  0.83211130  0.01667402  1
  In3+  In7  1  0.51061374  0.18185241  0.66705237  1
  In3+  In8  1  0.81601270  0.00921286  0.49112233  1
  In3+  In9  1  0.80621324  0.49957257  0.66955102  1
  In3+  In10  1  0.66223420  0.67931282  0.67159512  1
  In3+  In11  1  0.16165552  0.66900582  0.50786661  1
  In3+  In12  1  0.83486679  0.50553872  0.01600142  1
  In3+  In13  1  0.33884651  0.83249750  0.49743430  1
  In3+  In14  1  0.50813135  0.34827348  0.82323176  1
  In3+  In15  1  0.83423276  0.83689740  -0.00916083  1
  In3+  In16  1  0.14907932  0.32364712  0.82661030  1
  In3+  In17  1  -0.01710353  0.48705301  0.50153957  1
  In3+  In18  1  0.35833491  0.33289292  0.33997734  1
  In3+  In19  1  0.34357328  -0.00233175  0.65330605  1
  In3+  In20  1  0.67084206  0.66467856  0.31880281  1
  In3+  In21  1  0.84581360  0.00005683  0.18225055  1
  Ag+  Ag22  1  0.64082934  0.85041355  0.85479753  1
  Ag+  Ag23  1  0.47656550  0.02523537  0.82646219  1
  Ag+  Ag24  1  0.51447594  0.66760153  0.18903049  1
  Ag+  Ag25  1  0.52716532  0.30833863  0.47424968  1
  Ag+  Ag26  1  0.66625293  0.52342704  0.13899026  1
  Ag+  Ag27  1  0.15066534  -0.00115973  0.13980371  1
  Ag+  Ag28  1  0.67875321  0.19154665  0.49554239  1
  Ag+  Ag29  1  0.19184629  0.83519473  0.66524198  1
  Ag+  Ag30  1  0.31008946  -0.03103093  0.30226142  1
  Ag+  Ag31  1  0.63513838  0.02211250  0.35206877  1
  Ag+  Ag32  1  0.16446687  0.19223814  0.02765801  1
  Ag+  Ag33  1  0.50249222  0.51098554  0.69238499  1
  Ag+  Ag34  1  0.66069059  0.30577613  0.36860359  1
  Ag+  Ag35  1  -0.01277981  0.50042633  0.85169466  1
  Ag+  Ag36  1  -0.02078020  0.64762847  0.00640454  1
  Ag+  Ag37  1  -0.02253926  0.81085517  0.16457869  1
  Ag+  Ag38  1  0.66583101  0.31579014  0.66571864  1
  Ag+  Ag39  1  0.01687368  0.33419376  0.31523291  1
  Ag+  Ag40  1  0.83050352  0.17862537  0.34793614  1
  Ag+  Ag41  1  0.48727756  0.85282315  0.66930769  1
  Ag+  Ag42  1  0.30812923  0.47939681  0.16862969  1
  Sn2+  Sn43  1  0.50200437  0.50088828  0.01059569  1
  Sn2+  Sn44  1  0.00532252  0.17106287  0.83008907  1
  Sn2+  Sn45  1  -0.00113819  0.16797453  0.49132913  1
  Sn2+  Sn46  1  0.49994839  0.66025768  0.50271127  1
  Sn2+  Sn47  1  0.34098867  0.83026618  0.83149990  1
  Sn2+  Sn48  1  0.66703610  0.83988719  0.16671337  1
  Sn2+  Sn49  1  0.17105532  -0.01066732  0.83367054  1
  Sn2+  Sn50  1  0.50111630  0.00066645  0.50361505  1
  Sn2+  Sn51  1  0.33130726  0.16693036  0.83750245  1
  Sn2+  Sn52  1  0.65591320  0.00057308  0.66595394  1
  Sn2+  Sn53  1  0.33065335  0.49624896  0.83760125  1
  Sn2+  Sn54  1  0.66252783  0.33209893  0.00443552  1
  Sn2+  Sn55  1  0.00395112  0.83786531  0.49528844  1
  Sn2+  Sn56  1  0.16844205  0.67368700  0.16311593  1
  Sn2+  Sn57  1  0.66292534  0.66413749  -0.00098219  1
  Sn2+  Sn58  1  0.82416164  0.33916265  0.83136867  1
  Sn2+  Sn59  1  0.83743687  0.67457534  0.49657844  1
  Sn2+  Sn60  1  0.67015834  0.50003607  0.82973180  1
  Sn2+  Sn61  1  -0.00038052  -0.00391995  0.00621977  1
  Sn2+  Sn62  1  0.18056382  0.50158356  0.67126084  1
  Sn2+  Sn63  1  0.15754676  0.17030079  0.33462707  1
  Sn2+  Sn64  1  0.50323214  0.35018576  0.16341124  1
  Bi3+  Bi65  1  0.33474908  0.33450220  0.00050838  1
  Bi3+  Bi66  1  0.83297995  0.83078845  0.66615481  1
  Bi3+  Bi67  1  0.33560809  0.82841176  0.16610015  1
  Bi3+  Bi68  1  0.66706170  -0.00154338  -0.00031395  1
  Bi3+  Bi69  1  0.66451349  0.83103375  0.50231267  1
  Bi3+  Bi70  1  0.33401684  -0.00189300  -0.00283434  1
  Bi3+  Bi71  1  0.33775962  0.50351730  0.49453574  1
  Bi3+  Bi72  1  0.16841862  0.66595050  0.83034473  1
  Bi3+  Bi73  1  -0.00098378  0.16627063  0.16739449  1
  Bi3+  Bi74  1  0.83621606  0.83354980  0.33288771  1
  Bi3+  Bi75  1  0.50618450  0.50418855  0.33181157  1
  Bi3+  Bi76  1  0.34064201  0.33401272  0.66845507  1
  Bi3+  Bi77  1  0.83792679  0.66380578  0.83091290  1
  Bi3+  Bi78  1  0.33818095  0.17127199  0.50523041  1
  Bi3+  Bi79  1  0.82608298  0.32819791  0.16379327  1
  Bi3+  Bi80  1  0.84184574  0.16443117  -0.00294190  1
  Bi3+  Bi81  1  0.16862578  -0.00194191  0.50365061  1
  Bi3+  Bi82  1  0.66275091  0.50406530  0.50133661  1
  Bi3+  Bi83  1  0.83587415  -0.00250943  0.83007662  1
  Bi3+  Bi84  1  0.66622910  0.16401963  0.17069068  1
  Bi3+  Bi85  1  0.33465129  0.66464822  0.00097642  1
  Te2-  Te86  1  0.16220751  0.15695994  0.17062372  1
  Te2-  Te87  1  0.16989149  0.16724997  0.50723603  1
  Te2-  Te88  1  0.16360058  0.16867826  0.82500786  1
  Te2-  Te89  1  0.16180404  0.49970421  0.16759709  1
  Te2-  Te90  1  0.17726515  0.51022047  0.50166861  1
  Te2-  Te91  1  0.16740332  0.50214790  0.82931011  1
  Te2-  Te92  1  0.17467231  0.84577682  0.16833091  1
  Te2-  Te93  1  0.17054840  0.83181886  0.51024192  1
  Te2-  Te94  1  0.17011404  0.82706066  0.81729498  1
  Te2-  Te95  1  0.50383668  0.16751172  0.16507919  1
  Te2-  Te96  1  0.49951577  0.16761221  0.51028148  1
  Te2-  Te97  1  0.50043692  0.16971222  0.82368221  1
  Te2-  Te98  1  0.51704810  0.51188000  0.16998658  1
  Te2-  Te99  1  0.49849522  0.49915968  0.49388841  1
  Te2-  Te100  1  0.50096994  0.49966470  0.84066041  1
  Te2-  Te101  1  0.49991346  0.82090482  0.16638555  1
  Te2-  Te102  1  0.49942079  0.83153240  0.51551478  1
  Te2-  Te103  1  0.50173340  0.82416283  0.81823049  1
  Te2-  Te104  1  0.83322988  0.16177806  0.15841816  1
  Te2-  Te105  1  0.82714600  0.16715888  0.49688954  1
  Te2-  Te106  1  0.83901866  0.16593814  0.83471146  1
  Te2-  Te107  1  0.81624490  0.49504276  0.16881372  1
  Te2-  Te108  1  0.83009537  0.50174034  0.50442280  1
  Te2-  Te109  1  0.84135866  0.50144793  0.82042786  1
  Te2-  Te110  1  0.83251177  0.83989497  0.16647201  1
  Te2-  Te111  1  0.83350311  0.83991156  0.49964393  1
  Te2-  Te112  1  0.83786809  0.83017939  0.83309058  1
  Te2-  Te113  1  0.17140389  -0.01159927  -0.00568042  1
  Te2-  Te114  1  0.17517135  0.00684330  0.34406452  1
  Te2-  Te115  1  0.17280354  -0.00458851  0.66643208  1
  Te2-  Te116  1  0.17105474  0.33429616  -0.00869930  1
  Te2-  Te117  1  0.16191256  0.32928970  0.33829663  1
  Te2-  Te118  1  0.17860015  0.33642229  0.67552933  1
  Te2-  Te119  1  0.17251092  0.67563904  -0.00327200  1
  Te2-  Te120  1  0.17139879  0.66648611  0.33069925  1
  Te2-  Te121  1  0.16965050  0.67364945  0.66372053  1
  Te2-  Te122  1  0.50078911  -0.00047677  -0.01392672  1
  Te2-  Te123  1  0.49288622  -0.00181567  0.33477064  1
  Te2-  Te124  1  0.49675916  0.00176855  0.67724610  1
  Te2-  Te125  1  0.49643008  0.33256720  -0.00162646  1
  Te2-  Te126  1  0.51464174  0.33800428  0.33065855  1
  Te2-  Te127  1  0.50478740  0.33408356  0.67101888  1
  Te2-  Te128  1  0.49644404  0.66519279  -0.01434898  1
  Te2-  Te129  1  0.50225779  0.66541843  0.33662005  1
  Te2-  Te130  1  0.50698084  0.65857923  0.67358589  1
  Te2-  Te131  1  0.83187545  0.00024545  -0.00443573  1
  Te2-  Te132  1  0.83623651  -0.00414242  0.33702238  1
  Te2-  Te133  1  0.83065340  -0.00244226  0.66608214  1
  Te2-  Te134  1  0.83062761  0.32995282  -0.00164177  1
  Te2-  Te135  1  0.81520068  0.32735519  0.33358904  1
  Te2-  Te136  1  0.82267656  0.33873076  0.66431898  1
  Te2-  Te137  1  0.83259936  0.66491797  -0.00391943  1
  Te2-  Te138  1  0.83153962  0.66806964  0.33411014  1
  Te2-  Te139  1  0.83242528  0.66216811  0.66624443  1
  Te2-  Te140  1  0.00854570  0.16593735  0.00054206  1
  Te2-  Te141  1  -0.01372124  0.18063449  0.33243824  1
  Te2-  Te142  1  0.00605450  0.17815817  0.66487733  1
  Te2-  Te143  1  -0.00906396  0.50041785  -0.00026629  1
  Te2-  Te144  1  -0.01146279  0.48439183  0.34383002  1
  Te2-  Te145  1  0.01118678  0.49232470  0.65159310  1
  Te2-  Te146  1  -0.00000227  0.83599490  0.01421726  1
  Te2-  Te147  1  -0.00180927  0.83187670  0.32289259  1
  Te2-  Te148  1  -0.00747955  0.83020786  0.66163151  1
  Te2-  Te149  1  0.31873792  0.16687326  -0.00038756  1
  Te2-  Te150  1  0.33295757  0.17986574  0.34296432  1
  Te2-  Te151  1  0.32997760  0.16753862  0.66862797  1
  Te2-  Te152  1  0.33454962  0.49969008  0.01273713  1
  Te2-  Te153  1  0.33941664  0.49561596  0.32281126  1
  Te2-  Te154  1  0.34946181  0.49674857  0.66323664  1
  Te2-  Te155  1  0.33034271  0.83073993  -0.00021024  1
  Te2-  Te156  1  0.33604986  0.82892601  0.33953107  1
  Te2-  Te157  1  0.34029289  0.83769673  0.66010932  1
  Te2-  Te158  1  0.67168967  0.16279452  -0.00133255  1
  Te2-  Te159  1  0.67728107  0.16081729  0.33388805  1
  Te2-  Te160  1  0.66383717  0.16734324  0.65151789  1
  Te2-  Te161  1  0.67645770  0.49780690  -0.00680940  1
  Te2-  Te162  1  0.67439370  0.50978185  0.34020004  1
  Te2-  Te163  1  0.65459569  0.49899056  0.66686352  1
  Te2-  Te164  1  0.67329229  0.83309343  -0.00274265  1
  Te2-  Te165  1  0.67305561  0.82442337  0.33666492  1
  Te2-  Te166  1  0.67186296  0.83337556  0.66388680  1
  Te2-  Te167  1  0.00581771  0.00477068  0.16757125  1
  Te2-  Te168  1  0.00488907  0.00328184  0.50303214  1
  Te2-  Te169  1  -0.00198771  0.00000121  0.83617057  1
  Te2-  Te170  1  -0.00795687  0.33138200  0.16782299  1
  Te2-  Te171  1  -0.00602517  0.33352300  0.50725860  1
  Te2-  Te172  1  -0.00214583  0.34684300  0.82290121  1
  Te2-  Te173  1  0.00396330  0.66626479  0.15670028  1
  Te2-  Te174  1  0.00594821  0.66821633  0.49728854  1
  Te2-  Te175  1  0.00130820  0.65698619  0.84287496  1
  Te2-  Te176  1  0.33652075  -0.00333849  0.16034290  1
  Te2-  Te177  1  0.33421952  0.00433106  0.50166830  1
  Te2-  Te178  1  0.33285764  -0.00297855  0.83587751  1
  Te2-  Te179  1  0.33543764  0.33398755  0.16603200  1
  Te2-  Te180  1  0.33764394  0.33762818  0.50140396  1
  Te2-  Te181  1  0.34322182  0.33509632  0.83513986  1
  Te2-  Te182  1  0.33141601  0.66739276  0.16685196  1
  Te2-  Te183  1  0.33149481  0.66888466  0.49281331  1
  Te2-  Te184  1  0.33084740  0.66201775  0.83502809  1
  Te2-  Te185  1  0.66930731  -0.00073104  0.16269712  1
  Te2-  Te186  1  0.66361844  -0.00611273  0.49559535  1
  Te2-  Te187  1  0.67429459  -0.00641474  0.83393563  1
  Te2-  Te188  1  0.66615769  0.32619400  0.16385271  1
  Te2-  Te189  1  0.66679925  0.33973437  0.51326904  1
  Te2-  Te190  1  0.66421287  0.33051757  0.82852293  1
  Te2-  Te191  1  0.66154185  0.67016467  0.16247496  1
  Te2-  Te192  1  0.66852827  0.66832625  0.51155641  1
  Te2-  Te193  1  0.67475034  0.66626938  0.83003286  1
  Pb2+  Pb194  1  -0.00862120  0.50051387  0.17206034  1
  Pb2+  Pb195  1  0.00712301  0.82883691  0.83993990  1
  Pb2+  Pb196  1  0.50460896  0.83467008  0.34042822  1
  Pb2+  Pb197  1  0.49907805  0.83199727  -0.00652199  1
  Pb2+  Pb198  1  0.16771698  0.33863282  0.50714971  1
  Pb2+  Pb199  1  0.16730415  0.32845490  0.16974025  1
  Pb2+  Pb200  1  0.49501283  0.16635834  -0.00494754  1
  Pb2+  Pb201  1  0.83534692  0.16708428  0.66384331  1
  Pb2+  Pb202  1  0.16699064  0.83681123  0.33776769  1
  Pb2+  Pb203  1  0.00685764  0.00781730  0.33547780  1
  Pb2+  Pb204  1  0.16690095  0.50430957  -0.00240688  1
  Pb2+  Pb205  1  0.16649835  0.49658014  0.33436503  1
  Pb2+  Pb206  1  0.83183868  0.66984436  0.16551415  1
  Pb2+  Pb207  1  0.50121273  -0.00763872  0.16580132  1
  Pb2+  Pb208  1  0.66737716  0.15871782  0.82474342  1
  Pb2+  Pb209  1  0.00138120  0.00027105  0.67000603  1
  Pb2+  Pb210  1  -0.00130621  0.33213367  -0.00644653  1
  Pb2+  Pb211  1  0.50868748  0.16296972  0.33746833  1
  Pb2+  Pb212  1  0.33879123  0.66606417  0.66410734  1
  Pb2+  Pb213  1  0.00201828  0.65958191  0.67150023  1
  Pb2+  Pb214  1  0.33428759  0.16514863  0.17335600  1
  Pb2+  Pb215  1  0.00125331  0.66288849  0.33014965  1
