# generated using pymatgen
data_In22Ag21Sn22Bi21(Te54Pb11)2
_symmetry_space_group_name_H-M   'P 1'
_cell_length_a   19.16023494
_cell_length_b   19.13402114
_cell_length_c   19.15923352
_cell_angle_alpha   90.01152961
_cell_angle_beta   90.00556419
_cell_angle_gamma   90.00433969
_symmetry_Int_Tables_number   1
_chemical_formula_structural   In22Ag21Sn22Bi21(Te54Pb11)2
_chemical_formula_sum   'In22 Ag21 Sn22 Bi21 Te108 Pb22'
_cell_volume   7024.01124191
_cell_formula_units_Z   1
loop_
 _symmetry_equiv_pos_site_id
 _symmetry_equiv_pos_as_xyz
  1  'x, y, z'
loop_
 _atom_type_symbol
 _atom_type_oxidation_number
  In3+  3.0
  Ag+  1.0
  Sn2+  2.0
  Bi3+  3.0
  Te2-  -2.0
  Pb2+  2.0
loop_
 _atom_site_type_symbol
 _atom_site_label
 _atom_site_symmetry_multiplicity
 _atom_site_fract_x
 _atom_site_fract_y
 _atom_site_fract_z
 _atom_site_occupancy
  In3+  In0  1  0.00187691  -0.01316605  0.01746529  1
  In3+  In1  1  0.33654438  0.67275449  0.32470041  1
  In3+  In2  1  0.83716703  0.14500596  0.66584270  1
  In3+  In3  1  -0.00337186  0.82447741  0.50387606  1
  In3+  In4  1  0.47965335  0.67512949  0.82391476  1
  In3+  In5  1  0.15715858  0.16240032  0.65661445  1
  In3+  In6  1  0.66465193  0.84071470  0.50091319  1
  In3+  In7  1  -0.00651092  0.35708765  0.66922433  1
  In3+  In8  1  0.66647510  0.15390920  0.51152864  1
  In3+  In9  1  0.00421561  0.14632233  0.83074113  1
  In3+  In10  1  0.67276931  0.34911727  0.66689671  1
  In3+  In11  1  0.14725726  -0.01300662  0.49940475  1
  In3+  In12  1  0.65321737  0.34439968  0.00928727  1
  In3+  In13  1  0.66962191  -0.00888276  0.33855174  1
  In3+  In14  1  0.50827670  -0.01822240  0.83662784  1
  In3+  In15  1  0.01418665  0.66923187  0.34653983  1
  In3+  In16  1  0.01202913  0.00166793  0.33507171  1
  In3+  In17  1  0.48722559  -0.00324726  0.49976769  1
  In3+  In18  1  -0.00777403  0.82940516  0.81622777  1
  In3+  In19  1  0.82969405  0.69242327  0.82072763  1
  In3+  In20  1  0.50141503  0.35962375  0.49080110  1
  In3+  In21  1  0.47828004  0.52123110  0.00483991  1
  Ag+  Ag22  1  0.18437652  0.68919506  0.47908916  1
  Ag+  Ag23  1  0.18612103  0.82430476  0.32853813  1
  Ag+  Ag24  1  0.36097172  0.67985362  0.02618794  1
  Ag+  Ag25  1  0.85314327  -0.00223661  0.81222921  1
  Ag+  Ag26  1  0.36408142  0.51750370  0.85477100  1
  Ag+  Ag27  1  0.30196303  -0.03456607  0.30672507  1
  Ag+  Ag28  1  0.64784902  0.83020430  0.85351883  1
  Ag+  Ag29  1  0.49696459  0.36114833  0.19152642  1
  Ag+  Ag30  1  0.86155247  0.51993493  0.36041612  1
  Ag+  Ag31  1  -0.00253469  0.52256251  0.47698850  1
  Ag+  Ag32  1  0.19444849  -0.03885324  0.13463406  1
  Ag+  Ag33  1  0.18823794  0.52685191  0.32371325  1
  Ag+  Ag34  1  0.47237579  -0.02632075  0.20638230  1
  Ag+  Ag35  1  0.83414960  -0.00671634  0.51260980  1
  Ag+  Ag36  1  -0.00781851  0.67424237  0.64854381  1
  Ag+  Ag37  1  0.47961513  0.81812090  0.01772288  1
  Ag+  Ag38  1  0.48231771  0.84143016  0.31200576  1
  Ag+  Ag39  1  0.81582358  0.83080092  0.66432362  1
  Ag+  Ag40  1  0.33194039  0.50723348  0.18657856  1
  Ag+  Ag41  1  0.68477715  -0.00383042  0.64602635  1
  Ag+  Ag42  1  0.14521721  0.83644726  -0.02513571  1
  Sn2+  Sn43  1  0.83117609  0.66148637  0.17008194  1
  Sn2+  Sn44  1  0.17017170  0.51742529  0.00956683  1
  Sn2+  Sn45  1  0.50033508  0.67555845  0.17132027  1
  Sn2+  Sn46  1  0.83072872  0.67775413  0.49926233  1
  Sn2+  Sn47  1  0.66770044  0.14543644  0.82862229  1
  Sn2+  Sn48  1  0.01070027  0.49671736  0.17219348  1
  Sn2+  Sn49  1  0.66778618  0.67419579  -0.00728302  1
  Sn2+  Sn50  1  0.83395704  0.82786082  0.34225083  1
  Sn2+  Sn51  1  0.83204723  0.16208832  -0.00550840  1
  Sn2+  Sn52  1  -0.00783331  -0.01016274  0.66488639  1
  Sn2+  Sn53  1  0.50160347  0.16439833  0.66533938  1
  Sn2+  Sn54  1  0.17409210  0.82315797  0.66061998  1
  Sn2+  Sn55  1  0.67361378  0.50262976  0.83460298  1
  Sn2+  Sn56  1  0.50930006  0.83739331  0.66540165  1
  Sn2+  Sn57  1  0.33029313  0.83058767  0.50429803  1
  Sn2+  Sn58  1  0.68598837  0.50055264  0.49397692  1
  Sn2+  Sn59  1  0.49700432  0.67942947  0.50262629  1
  Sn2+  Sn60  1  0.33188054  0.83252240  0.84034768  1
  Sn2+  Sn61  1  0.17957536  0.32975871  0.16835796  1
  Sn2+  Sn62  1  0.33782270  0.17429313  0.83433696  1
  Sn2+  Sn63  1  0.32000850  0.66488439  0.66499604  1
  Sn2+  Sn64  1  0.00250243  0.50493373  0.83153608  1
  Bi3+  Bi65  1  0.33632734  0.16760387  0.16859701  1
  Bi3+  Bi66  1  0.66672601  0.33398324  0.33795219  1
  Bi3+  Bi67  1  0.33367290  0.33126642  0.66833337  1
  Bi3+  Bi68  1  -0.00012168  0.33319014  -0.00313830  1
  Bi3+  Bi69  1  0.16499490  0.33413615  0.50193655  1
  Bi3+  Bi70  1  0.50213610  0.16147078  -0.00001558  1
  Bi3+  Bi71  1  0.83653535  0.49906632  -0.00116819  1
  Bi3+  Bi72  1  0.16398187  0.49782533  0.66102488  1
  Bi3+  Bi73  1  0.66563750  0.66580653  0.33449117  1
  Bi3+  Bi74  1  0.16540322  0.16402232  0.00179480  1
  Bi3+  Bi75  1  -0.00144675  0.16306471  0.50306238  1
  Bi3+  Bi76  1  0.16373651  0.66442278  0.16457709  1
  Bi3+  Bi77  1  0.00057266  0.66482127  0.00048412  1
  Bi3+  Bi78  1  0.16912574  0.16550995  0.33135783  1
  Bi3+  Bi79  1  0.33602003  -0.00311791  0.66665359  1
  Bi3+  Bi80  1  0.66259484  0.16754123  0.16500920  1
  Bi3+  Bi81  1  0.50154289  0.15632941  0.32968694  1
  Bi3+  Bi82  1  0.66975040  0.00147006  -0.00068453  1
  Bi3+  Bi83  1  0.83009395  -0.00207093  0.16749324  1
  Bi3+  Bi84  1  0.16290011  0.66536520  0.83395439  1
  Bi3+  Bi85  1  0.50165741  0.33504999  0.83094353  1
  Te2-  Te86  1  0.17073958  0.16368152  0.16678735  1
  Te2-  Te87  1  0.16493331  0.16752308  0.49679496  1
  Te2-  Te88  1  0.16335048  0.16514197  0.83982695  1
  Te2-  Te89  1  0.17837839  0.50073521  0.17593045  1
  Te2-  Te90  1  0.14985185  0.49233338  0.50085731  1
  Te2-  Te91  1  0.16288733  0.50460405  0.83369626  1
  Te2-  Te92  1  0.16365636  0.82738875  0.18242112  1
  Te2-  Te93  1  0.15724118  0.83262762  0.49402283  1
  Te2-  Te94  1  0.16677152  0.82750840  0.82926028  1
  Te2-  Te95  1  0.50065552  0.15959972  0.16505820  1
  Te2-  Te96  1  0.51056067  0.15561040  0.49505256  1
  Te2-  Te97  1  0.50103862  0.16974584  0.83602930  1
  Te2-  Te98  1  0.48988587  0.50401307  0.15620989  1
  Te2-  Te99  1  0.49864604  0.50935100  0.50002593  1
  Te2-  Te100  1  0.50855778  0.50011201  0.84522533  1
  Te2-  Te101  1  0.49784835  0.83518976  0.16316543  1
  Te2-  Te102  1  0.50677328  0.83807614  0.50152612  1
  Te2-  Te103  1  0.50171626  0.82599095  0.83120923  1
  Te2-  Te104  1  0.82875473  0.16571167  0.16574138  1
  Te2-  Te105  1  0.83349548  0.15407395  0.50731202  1
  Te2-  Te106  1  0.83709297  0.15002761  0.82414423  1
  Te2-  Te107  1  0.83510145  0.50176497  0.16098257  1
  Te2-  Te108  1  0.84461563  0.50289978  0.50313245  1
  Te2-  Te109  1  0.83255233  0.49696924  0.83607822  1
  Te2-  Te110  1  0.83264335  0.83254924  0.16806830  1
  Te2-  Te111  1  0.84111686  0.83699988  0.50936166  1
  Te2-  Te112  1  0.83984537  0.84440144  0.81887777  1
  Te2-  Te113  1  0.15755852  -0.00471003  -0.00162271  1
  Te2-  Te114  1  0.16656218  0.00388760  0.34572946  1
  Te2-  Te115  1  0.17052470  -0.00258499  0.65576974  1
  Te2-  Te116  1  0.16380267  0.33216633  0.00350210  1
  Te2-  Te117  1  0.16435409  0.32971823  0.33623177  1
  Te2-  Te118  1  0.16769998  0.32945272  0.66480552  1
  Te2-  Te119  1  0.16122573  0.68171941  -0.00008568  1
  Te2-  Te120  1  0.16550839  0.67167864  0.33373693  1
  Te2-  Te121  1  0.16030066  0.66129430  0.66912850  1
  Te2-  Te122  1  0.50545427  0.00065533  -0.00944670  1
  Te2-  Te123  1  0.51091915  -0.00844802  0.34537527  1
  Te2-  Te124  1  0.49715396  0.00396423  0.66648918  1
  Te2-  Te125  1  0.50190367  0.32483558  -0.00757180  1
  Te2-  Te126  1  0.50216224  0.33004827  0.33760986  1
  Te2-  Te127  1  0.49946965  0.32720905  0.66530565  1
  Te2-  Te128  1  0.50441984  0.67200744  -0.00511336  1
  Te2-  Te129  1  0.49961700  0.68312790  0.33201225  1
  Te2-  Te130  1  0.49715249  0.66582232  0.67182467  1
  Te2-  Te131  1  0.83926356  0.00270560  0.00255999  1
  Te2-  Te132  1  0.82545424  -0.00518683  0.32822204  1
  Te2-  Te133  1  0.83285720  -0.00758211  0.66443024  1
  Te2-  Te134  1  0.83645244  0.33248937  -0.00083681  1
  Te2-  Te135  1  0.82972543  0.33599368  0.33375138  1
  Te2-  Te136  1  0.82686419  0.33282017  0.66538704  1
  Te2-  Te137  1  0.83746559  0.66316907  -0.00147442  1
  Te2-  Te138  1  0.82682279  0.66130571  0.33103090  1
  Te2-  Te139  1  0.84209848  0.67968593  0.66926514  1
  Te2-  Te140  1  0.00131912  0.16955410  -0.00894185  1
  Te2-  Te141  1  0.00291897  0.16517316  0.33693324  1
  Te2-  Te142  1  -0.00290279  0.15852623  0.66906631  1
  Te2-  Te143  1  0.00250276  0.49773889  0.00036868  1
  Te2-  Te144  1  0.00366657  0.51280972  0.33022311  1
  Te2-  Te145  1  0.00262761  0.51358576  0.67168923  1
  Te2-  Te146  1  0.00068167  0.83391722  -0.00041677  1
  Te2-  Te147  1  -0.00549479  0.82720716  0.34607424  1
  Te2-  Te148  1  0.00910771  0.82698853  0.66254430  1
  Te2-  Te149  1  0.32990101  0.16662475  0.00171391  1
  Te2-  Te150  1  0.33865887  0.16084448  0.33246876  1
  Te2-  Te151  1  0.33004347  0.16571701  0.67140355  1
  Te2-  Te152  1  0.32836448  0.51419502  -0.00344841  1
  Te2-  Te153  1  0.33329620  0.50634667  0.33439584  1
  Te2-  Te154  1  0.32828105  0.49526496  0.66807442  1
  Te2-  Te155  1  0.33548437  0.82417059  -0.00534847  1
  Te2-  Te156  1  0.33644143  0.82758885  0.34027189  1
  Te2-  Te157  1  0.33780730  0.83377648  0.66996104  1
  Te2-  Te158  1  0.66749695  0.16768044  -0.00165445  1
  Te2-  Te159  1  0.66299065  0.17122643  0.33310033  1
  Te2-  Te160  1  0.67091551  0.14830890  0.66407448  1
  Te2-  Te161  1  0.67331216  0.50160470  -0.00321117  1
  Te2-  Te162  1  0.66513938  0.49893995  0.33378630  1
  Te2-  Te163  1  0.66465870  0.50369779  0.66374414  1
  Te2-  Te164  1  0.66720836  0.83683215  -0.00049967  1
  Te2-  Te165  1  0.66867261  0.82941466  0.34462251  1
  Te2-  Te166  1  0.66769187  0.84535457  0.65347037  1
  Te2-  Te167  1  -0.00373686  0.00132311  0.17207533  1
  Te2-  Te168  1  -0.00838069  0.00181313  0.49789370  1
  Te2-  Te169  1  0.00103794  -0.00721959  0.83055378  1
  Te2-  Te170  1  0.00249843  0.33546809  0.16401704  1
  Te2-  Te171  1  0.00031445  0.32424089  0.50990045  1
  Te2-  Te172  1  -0.00291304  0.33421233  0.83098069  1
  Te2-  Te173  1  0.00039189  0.66292320  0.16364036  1
  Te2-  Te174  1  -0.00257238  0.66970270  0.50045149  1
  Te2-  Te175  1  -0.00431334  0.67419391  0.83860067  1
  Te2-  Te176  1  0.33244268  0.00169819  0.16688765  1
  Te2-  Te177  1  0.33452534  -0.00312148  0.50539746  1
  Te2-  Te178  1  0.33891467  0.00206025  0.82935165  1
  Te2-  Te179  1  0.34529945  0.33268519  0.16626692  1
  Te2-  Te180  1  0.33733041  0.33178972  0.50455190  1
  Te2-  Te181  1  0.33682759  0.33903245  0.83069587  1
  Te2-  Te182  1  0.33001267  0.65798798  0.17021730  1
  Te2-  Te183  1  0.32706143  0.67023190  0.50078654  1
  Te2-  Te184  1  0.32929839  0.66020826  0.82800293  1
  Te2-  Te185  1  0.66691389  0.00614358  0.16511140  1
  Te2-  Te186  1  0.68188857  -0.00208643  0.49558072  1
  Te2-  Te187  1  0.66074692  -0.01436597  0.83883322  1
  Te2-  Te188  1  0.65054567  0.33164736  0.17073559  1
  Te2-  Te189  1  0.65929881  0.33323501  0.50460087  1
  Te2-  Te190  1  0.66309787  0.32761337  0.81914598  1
  Te2-  Te191  1  0.66214896  0.66830509  0.16911256  1
  Te2-  Te192  1  0.66569658  0.66606013  0.49662242  1
  Te2-  Te193  1  0.67704251  0.67928705  0.83246864  1
  Pb2+  Pb194  1  0.33447670  0.34378460  0.00134651  1
  Pb2+  Pb195  1  0.82494818  0.33648301  0.16668418  1
  Pb2+  Pb196  1  0.82965901  0.32905602  0.49992927  1
  Pb2+  Pb197  1  0.66356420  0.50187329  0.16430397  1
  Pb2+  Pb198  1  -0.00205090  0.34201892  0.33865919  1
  Pb2+  Pb199  1  0.66855084  0.67877722  0.66580211  1
  Pb2+  Pb200  1  0.31987047  0.50278238  0.50047233  1
  Pb2+  Pb201  1  0.32791832  0.82746410  0.16246945  1
  Pb2+  Pb202  1  0.33679352  -0.00729654  -0.00170676  1
  Pb2+  Pb203  1  -0.00038816  0.83136675  0.17485563  1
  Pb2+  Pb204  1  0.16390269  0.33691567  0.83301253  1
  Pb2+  Pb205  1  0.16966992  -0.00381424  0.82502268  1
  Pb2+  Pb206  1  0.49838991  0.51221862  0.32889363  1
  Pb2+  Pb207  1  0.33065084  0.33257064  0.33178182  1
  Pb2+  Pb208  1  0.49572489  0.49702326  0.67245313  1
  Pb2+  Pb209  1  0.33795939  0.16285094  0.50243027  1
  Pb2+  Pb210  1  0.83413956  0.50855477  0.66875798  1
  Pb2+  Pb211  1  0.66536007  0.83769297  0.17049891  1
  Pb2+  Pb212  1  0.00177929  0.16832432  0.16290909  1
  Pb2+  Pb213  1  0.83171015  0.16089536  0.33689273  1
  Pb2+  Pb214  1  0.83027585  0.32199543  0.83178607  1
  Pb2+  Pb215  1  0.83145415  0.83308255  -0.00815652  1
