# generated using pymatgen
data_In22Ag21Sn22Bi21(Te54Pb11)2
_symmetry_space_group_name_H-M   'P 1'
_cell_length_a   19.12418619
_cell_length_b   19.15981247
_cell_length_c   19.15212842
_cell_angle_alpha   90.00222757
_cell_angle_beta   90.00497789
_cell_angle_gamma   90.01943018
_symmetry_Int_Tables_number   1
_chemical_formula_structural   In22Ag21Sn22Bi21(Te54Pb11)2
_chemical_formula_sum   'In22 Ag21 Sn22 Bi21 Te108 Pb22'
_cell_volume   7017.64242217
_cell_formula_units_Z   1
loop_
 _symmetry_equiv_pos_site_id
 _symmetry_equiv_pos_as_xyz
  1  'x, y, z'
loop_
 _atom_type_symbol
 _atom_type_oxidation_number
  In3+  3.0
  Ag+  1.0
  Sn2+  2.0
  Bi3+  3.0
  Te2-  -2.0
  Pb2+  2.0
loop_
 _atom_site_type_symbol
 _atom_site_label
 _atom_site_symmetry_multiplicity
 _atom_site_fract_x
 _atom_site_fract_y
 _atom_site_fract_z
 _atom_site_occupancy
  In3+  In0  1  0.32573160  0.49529968  0.84783264  1
  In3+  In1  1  0.01241245  0.49523091  0.50928444  1
  In3+  In2  1  0.50632589  0.16554753  0.00088760  1
  In3+  In3  1  0.50476052  0.81209746  0.00854412  1
  In3+  In4  1  0.33257350  0.18714677  0.48999484  1
  In3+  In5  1  0.50544514  0.00113633  0.49654078  1
  In3+  In6  1  0.49814767  0.49951593  0.00846242  1
  In3+  In7  1  0.33143593  -0.00238298  0.64941709  1
  In3+  In8  1  0.36028789  0.00435147  0.33485893  1
  In3+  In9  1  0.66953937  0.48030590  0.82834673  1
  In3+  In10  1  0.33986642  0.16537319  0.83175778  1
  In3+  In11  1  -0.00525792  0.65131001  0.64102492  1
  In3+  In12  1  0.15711559  0.18845601  0.00212670  1
  In3+  In13  1  0.67215496  0.14824023  0.19281325  1
  In3+  In14  1  0.83373495  0.02131042  0.49579379  1
  In3+  In15  1  0.83301411  0.85020413  -0.00543207  1
  In3+  In16  1  -0.00312833  0.32651278  0.35764786  1
  In3+  In17  1  0.83837552  0.32979921  0.17787557  1
  In3+  In18  1  -0.00683325  0.64145700  0.33772537  1
  In3+  In19  1  0.85231703  0.33870881  0.83010625  1
  In3+  In20  1  0.50982762  0.65114783  0.50005973  1
  In3+  In21  1  0.16206709  0.82784000  0.35022626  1
  Ag+  Ag22  1  0.68097087  0.17104239  0.49459591  1
  Ag+  Ag23  1  0.13785874  0.50629776  -0.00230955  1
  Ag+  Ag24  1  0.48626658  0.64478424  0.19747922  1
  Ag+  Ag25  1  0.30212710  0.47282106  0.17826350  1
  Ag+  Ag26  1  0.17087289  0.63908498  0.47031997  1
  Ag+  Ag27  1  0.83396808  0.47738070  0.64443295  1
  Ag+  Ag28  1  0.14175114  0.31487766  0.50327215  1
  Ag+  Ag29  1  -0.01913823  0.32411997  0.66312586  1
  Ag+  Ag30  1  0.83429721  0.17113264  0.35459144  1
  Ag+  Ag31  1  0.16001282  0.47686442  0.35587485  1
  Ag+  Ag32  1  0.02399557  0.33018258  0.02375507  1
  Ag+  Ag33  1  0.50311797  0.30211403  0.47468820  1
  Ag+  Ag34  1  -0.02026071  0.14817803  0.49853218  1
  Ag+  Ag35  1  0.81548420  0.66619797  0.50091766  1
  Ag+  Ag36  1  0.66648934  -0.01958973  0.36013245  1
  Ag+  Ag37  1  0.49580281  0.35794763  0.82533498  1
  Ag+  Ag38  1  -0.00299303  0.69073270  -0.02133858  1
  Ag+  Ag39  1  0.15924091  0.80556714  0.64467278  1
  Ag+  Ag40  1  0.85759925  -0.02785433  0.79307589  1
  Ag+  Ag41  1  0.63505011  0.85781771  0.19098744  1
  Ag+  Ag42  1  0.50619425  0.02202578  0.18730310  1
  Sn2+  Sn43  1  0.83721589  0.83882214  0.33379728  1
  Sn2+  Sn44  1  0.32276614  0.33913052  0.34211218  1
  Sn2+  Sn45  1  0.82990160  0.67046021  0.16892310  1
  Sn2+  Sn46  1  0.16577730  0.82350205  0.00084153  1
  Sn2+  Sn47  1  0.00587090  0.50443338  0.15813819  1
  Sn2+  Sn48  1  0.82745114  -0.00426916  0.17685056  1
  Sn2+  Sn49  1  0.50008109  0.66186423  0.82625949  1
  Sn2+  Sn50  1  0.66659364  0.33355047  0.33663844  1
  Sn2+  Sn51  1  0.16336394  0.00136526  0.83770613  1
  Sn2+  Sn52  1  0.84131530  0.16658504  0.66715009  1
  Sn2+  Sn53  1  0.82282071  0.34464151  0.50193716  1
  Sn2+  Sn54  1  -0.00059226  0.17383440  0.81979850  1
  Sn2+  Sn55  1  0.48520452  0.49600909  0.32971969  1
  Sn2+  Sn56  1  0.17897497  0.00125702  0.16938618  1
  Sn2+  Sn57  1  0.50741822  0.49538070  0.66765211  1
  Sn2+  Sn58  1  0.84788449  0.83089765  0.66112670  1
  Sn2+  Sn59  1  0.00234216  0.83158464  0.82772163  1
  Sn2+  Sn60  1  0.50515789  -0.00238330  0.83674876  1
  Sn2+  Sn61  1  -0.00481165  0.82943475  0.50368234  1
  Sn2+  Sn62  1  0.66883989  0.16677153  0.82633510  1
  Sn2+  Sn63  1  0.33798143  0.16951192  0.16288540  1
  Sn2+  Sn64  1  -0.00127384  0.50357916  0.83769359  1
  Bi3+  Bi65  1  0.67927238  0.66803128  0.00166964  1
  Bi3+  Bi66  1  0.33078684  0.66779154  0.33153170  1
  Bi3+  Bi67  1  0.66630956  0.83623964  0.83515586  1
  Bi3+  Bi68  1  0.83248778  0.49912056  -0.00106611  1
  Bi3+  Bi69  1  0.32678331  0.66567572  0.66743781  1
  Bi3+  Bi70  1  0.33798901  0.33614932  0.66998430  1
  Bi3+  Bi71  1  0.16532297  0.66646028  0.83903347  1
  Bi3+  Bi72  1  0.16861555  0.16953353  0.66940929  1
  Bi3+  Bi73  1  -0.00298339  0.83361755  0.16902839  1
  Bi3+  Bi74  1  0.67010561  0.49301420  0.49881707  1
  Bi3+  Bi75  1  0.16868518  0.66902037  0.16503817  1
  Bi3+  Bi76  1  0.67184901  0.50417536  0.16563815  1
  Bi3+  Bi77  1  0.83206016  0.16959194  -0.00575967  1
  Bi3+  Bi78  1  0.66642214  0.33452938  0.00025286  1
  Bi3+  Bi79  1  0.33398968  0.00363083  0.00475986  1
  Bi3+  Bi80  1  0.33282848  0.83517050  0.16483324  1
  Bi3+  Bi81  1  -0.00710839  0.00475121  0.33116266  1
  Bi3+  Bi82  1  0.33234797  0.83343459  0.49865846  1
  Bi3+  Bi83  1  0.66401371  0.00187168  -0.00440254  1
  Bi3+  Bi84  1  0.33739379  0.33239836  0.00286519  1
  Bi3+  Bi85  1  0.66207140  0.00082503  0.66775462  1
  Te2-  Te86  1  0.16453618  0.16922488  0.15845415  1
  Te2-  Te87  1  0.17982141  0.17162677  0.50349112  1
  Te2-  Te88  1  0.16449378  0.16658687  0.83735179  1
  Te2-  Te89  1  0.16317332  0.50774434  0.15058383  1
  Te2-  Te90  1  0.16286923  0.49661092  0.50218909  1
  Te2-  Te91  1  0.16849213  0.50174130  0.84656863  1
  Te2-  Te92  1  0.16608002  0.83361156  0.16382084  1
  Te2-  Te93  1  0.16722642  0.84069672  0.50374330  1
  Te2-  Te94  1  0.16350059  0.83215121  0.84177641  1
  Te2-  Te95  1  0.50958235  0.16695736  0.16214513  1
  Te2-  Te96  1  0.48552447  0.15732207  0.50117646  1
  Te2-  Te97  1  0.49765617  0.15874128  0.83993524  1
  Te2-  Te98  1  0.50737660  0.50387870  0.16359870  1
  Te2-  Te99  1  0.50725945  0.50021334  0.49805470  1
  Te2-  Te100  1  0.51131133  0.50537074  0.82989480  1
  Te2-  Te101  1  0.49491765  0.83147578  0.15894212  1
  Te2-  Te102  1  0.49757546  0.84496264  0.49793367  1
  Te2-  Te103  1  0.50239929  0.83165197  0.83753445  1
  Te2-  Te104  1  0.82459832  0.16874042  0.15800005  1
  Te2-  Te105  1  0.83178103  0.17573217  0.50466270  1
  Te2-  Te106  1  0.83398188  0.17682876  0.83313371  1
  Te2-  Te107  1  0.83487288  0.50074499  0.16539181  1
  Te2-  Te108  1  0.83031275  0.50830667  0.49942373  1
  Te2-  Te109  1  0.82804891  0.49640725  0.83403618  1
  Te2-  Te110  1  0.83616257  0.83170825  0.16596127  1
  Te2-  Te111  1  0.83768928  0.81988435  0.49982390  1
  Te2-  Te112  1  0.83244145  0.83476610  0.83513827  1
  Te2-  Te113  1  0.17176939  -0.00315415  0.00384043  1
  Te2-  Te114  1  0.15773922  -0.00136221  0.32872477  1
  Te2-  Te115  1  0.17327607  0.00856442  0.67344167  1
  Te2-  Te116  1  0.17179194  0.33955260  0.00021232  1
  Te2-  Te117  1  0.16650769  0.33008033  0.34887065  1
  Te2-  Te118  1  0.17852970  0.33298314  0.65459495  1
  Te2-  Te119  1  0.15109296  0.65890883  0.00276098  1
  Te2-  Te120  1  0.16829072  0.67274605  0.32540034  1
  Te2-  Te121  1  0.16288149  0.66301718  0.67631158  1
  Te2-  Te122  1  0.50040423  0.00840948  -0.00256543  1
  Te2-  Te123  1  0.51777351  0.00229750  0.33296252  1
  Te2-  Te124  1  0.49499425  0.00055843  0.67025805  1
  Te2-  Te125  1  0.50055882  0.33038138  -0.00733309  1
  Te2-  Te126  1  0.49416249  0.33855253  0.33117113  1
  Te2-  Te127  1  0.49904595  0.33693318  0.67574061  1
  Te2-  Te128  1  0.50559398  0.65887712  -0.00666961  1
  Te2-  Te129  1  0.49547780  0.66621209  0.34214366  1
  Te2-  Te130  1  0.49352870  0.66738569  0.65698596  1
  Te2-  Te131  1  0.82933993  0.00471999  0.00373042  1
  Te2-  Te132  1  0.82572332  0.01064044  0.33893250  1
  Te2-  Te133  1  0.82796909  -0.00105462  0.65284392  1
  Te2-  Te134  1  0.82688612  0.33372283  -0.01474813  1
  Te2-  Te135  1  0.83967418  0.32415556  0.33478284  1
  Te2-  Te136  1  0.83282260  0.33296452  0.67255854  1
  Te2-  Te137  1  0.84500750  0.66073479  0.00277522  1
  Te2-  Te138  1  0.84253294  0.66712787  0.34330307  1
  Te2-  Te139  1  0.84380058  0.67397189  0.65465232  1
  Te2-  Te140  1  -0.00137886  0.18108118  -0.00398364  1
  Te2-  Te141  1  -0.00912932  0.17107912  0.34667262  1
  Te2-  Te142  1  0.00541321  0.17539866  0.65044079  1
  Te2-  Te143  1  -0.00850262  0.47822114  -0.00499098  1
  Te2-  Te144  1  0.01125295  0.49098013  0.33287337  1
  Te2-  Te145  1  -0.01383281  0.50202965  0.66336728  1
  Te2-  Te146  1  -0.00689978  0.83590524  0.00336236  1
  Te2-  Te147  1  0.00210077  0.84256678  0.33160237  1
  Te2-  Te148  1  0.01088911  0.83725690  0.66931153  1
  Te2-  Te149  1  0.32751179  0.16827731  -0.00067332  1
  Te2-  Te150  1  0.33494809  0.16260041  0.33229281  1
  Te2-  Te151  1  0.33193685  0.16857439  0.67505877  1
  Te2-  Te152  1  0.34324721  0.49559340  0.00478811  1
  Te2-  Te153  1  0.32080206  0.50519899  0.32303288  1
  Te2-  Te154  1  0.33807948  0.50360966  0.66893113  1
  Te2-  Te155  1  0.33914130  0.83662521  0.00124390  1
  Te2-  Te156  1  0.32618061  0.83832518  0.33135278  1
  Te2-  Te157  1  0.32038957  0.83154716  0.66367066  1
  Te2-  Te158  1  0.66688901  0.16830805  -0.00408650  1
  Te2-  Te159  1  0.67878564  0.17630881  0.34062161  1
  Te2-  Te160  1  0.66922984  0.16149677  0.65871714  1
  Te2-  Te161  1  0.66609854  0.50165401  -0.00298914  1
  Te2-  Te162  1  0.66474877  0.49885892  0.33233295  1
  Te2-  Te163  1  0.67965041  0.50137424  0.66446257  1
  Te2-  Te164  1  0.66961699  0.83248106  -0.00072601  1
  Te2-  Te165  1  0.67269288  0.83556751  0.33108125  1
  Te2-  Te166  1  0.66795890  0.83697353  0.66868083  1
  Te2-  Te167  1  -0.00126067  -0.00023638  0.16828739  1
  Te2-  Te168  1  -0.00979790  0.00070385  0.49464903  1
  Te2-  Te169  1  -0.00549322  0.00454466  0.83277560  1
  Te2-  Te170  1  -0.00678924  0.33430743  0.16850123  1
  Te2-  Te171  1  -0.00459116  0.34456085  0.50875349  1
  Te2-  Te172  1  0.00374976  0.33400102  0.81395650  1
  Te2-  Te173  1  0.00243536  0.67164191  0.18172399  1
  Te2-  Te174  1  0.02048190  0.66504521  0.49146579  1
  Te2-  Te175  1  0.00343336  0.66423198  0.83420525  1
  Te2-  Te176  1  0.34866934  0.00096332  0.16976716  1
  Te2-  Te177  1  0.33609614  -0.00481357  0.49105755  1
  Te2-  Te178  1  0.33216734  0.00778469  0.84317653  1
  Te2-  Te179  1  0.33291279  0.32988201  0.16804165  1
  Te2-  Te180  1  0.35402983  0.33755832  0.50220177  1
  Te2-  Te181  1  0.34409273  0.33309077  0.83623390  1
  Te2-  Te182  1  0.34219961  0.67128569  0.16776898  1
  Te2-  Te183  1  0.32069138  0.67186884  0.49895530  1
  Te2-  Te184  1  0.33172612  0.66603957  0.83298934  1
  Te2-  Te185  1  0.65949513  -0.00123757  0.15722141  1
  Te2-  Te186  1  0.66237960  0.01541824  0.50325497  1
  Te2-  Te187  1  0.67412989  -0.00035356  0.83214955  1
  Te2-  Te188  1  0.67630929  0.33993180  0.16314250  1
  Te2-  Te189  1  0.65484980  0.32903237  0.49649694  1
  Te2-  Te190  1  0.64829270  0.32976468  0.83745792  1
  Te2-  Te191  1  0.66398293  0.66602896  0.16003208  1
  Te2-  Te192  1  0.66463951  0.66501177  0.49924856  1
  Te2-  Te193  1  0.66817694  0.67395845  0.83830955  1
  Pb2+  Pb194  1  0.67023019  0.66662570  0.66842577  1
  Pb2+  Pb195  1  0.16318084  0.49824905  0.67264364  1
  Pb2+  Pb196  1  0.17227887  0.33241968  0.82783703  1
  Pb2+  Pb197  1  -0.00693728  0.16827698  0.17062326  1
  Pb2+  Pb198  1  0.33273927  0.50438472  0.49557248  1
  Pb2+  Pb199  1  0.83625222  0.49467840  0.33445178  1
  Pb2+  Pb200  1  0.50142042  0.16937051  0.67009140  1
  Pb2+  Pb201  1  0.32846594  0.66398501  0.00237278  1
  Pb2+  Pb202  1  0.50706694  0.17163401  0.33433817  1
  Pb2+  Pb203  1  0.16486565  0.00700149  0.50054735  1
  Pb2+  Pb204  1  0.67221786  0.84306701  0.50000182  1
  Pb2+  Pb205  1  0.49682411  0.83437955  0.32639229  1
  Pb2+  Pb206  1  0.16219336  0.34119231  0.17541787  1
  Pb2+  Pb207  1  0.50573388  0.33542720  0.16186694  1
  Pb2+  Pb208  1  0.33092148  0.83962355  0.83131995  1
  Pb2+  Pb209  1  0.16374971  0.16406170  0.33026449  1
  Pb2+  Pb210  1  0.83709929  0.66511937  0.82919230  1
  Pb2+  Pb211  1  0.00267165  0.00675334  0.66575510  1
  Pb2+  Pb212  1  0.67211726  0.66823191  0.32675740  1
  Pb2+  Pb213  1  0.66743390  0.33070395  0.66584067  1
  Pb2+  Pb214  1  0.49301779  0.83450484  0.66713946  1
  Pb2+  Pb215  1  0.00261888  0.00945669  -0.00208133  1
