# generated using pymatgen
data_In22Ag21Sn22Bi21(Te54Pb11)2
_symmetry_space_group_name_H-M   'P 1'
_cell_length_a   19.15651492
_cell_length_b   19.13594476
_cell_length_c   19.13615802
_cell_angle_alpha   90.00589015
_cell_angle_beta   89.98497696
_cell_angle_gamma   90.01486817
_symmetry_Int_Tables_number   1
_chemical_formula_structural   In22Ag21Sn22Bi21(Te54Pb11)2
_chemical_formula_sum   'In22 Ag21 Sn22 Bi21 Te108 Pb22'
_cell_volume   7014.89423663
_cell_formula_units_Z   1
loop_
 _symmetry_equiv_pos_site_id
 _symmetry_equiv_pos_as_xyz
  1  'x, y, z'
loop_
 _atom_type_symbol
 _atom_type_oxidation_number
  In3+  3.0
  Ag+  1.0
  Sn2+  2.0
  Bi3+  3.0
  Te2-  -2.0
  Pb2+  2.0
loop_
 _atom_site_type_symbol
 _atom_site_label
 _atom_site_symmetry_multiplicity
 _atom_site_fract_x
 _atom_site_fract_y
 _atom_site_fract_z
 _atom_site_occupancy
  In3+  In0  1  -0.02180326  0.00332879  -0.01260766  1
  In3+  In1  1  0.00992561  0.34355802  0.66756606  1
  In3+  In2  1  0.50775742  0.34745031  0.84524771  1
  In3+  In3  1  0.14631340  0.49499968  0.34300761  1
  In3+  In4  1  0.33878119  0.83600898  0.14381972  1
  In3+  In5  1  -0.01249030  -0.00131255  0.33497799  1
  In3+  In6  1  0.50507440  0.83537880  0.66384930  1
  In3+  In7  1  0.66893907  0.64374138  0.32969863  1
  In3+  In8  1  0.50870290  0.82798076  0.00183702  1
  In3+  In9  1  0.66864811  0.66459745  0.69604359  1
  In3+  In10  1  -0.00338443  0.65097717  0.33393404  1
  In3+  In11  1  0.67282562  0.33710996  0.66529472  1
  In3+  In12  1  0.34353997  0.31871518  0.00322600  1
  In3+  In13  1  0.52812537  -0.00404064  0.49818388  1
  In3+  In14  1  0.50391089  0.33481644  0.47813309  1
  In3+  In15  1  0.67381655  0.83080202  0.16898583  1
  In3+  In16  1  0.51054338  0.18207132  0.67461312  1
  In3+  In17  1  0.84298905  0.33948991  0.83146052  1
  In3+  In18  1  0.68183608  0.34897380  0.00887545  1
  In3+  In19  1  -0.00011280  0.84708039  0.50617166  1
  In3+  In20  1  0.16018586  0.52074709  0.66295886  1
  In3+  In21  1  0.85016246  0.33703050  0.48464232  1
  Ag+  Ag22  1  0.85003594  -0.02647496  0.83589008  1
  Ag+  Ag23  1  0.67775216  0.47455014  0.83406334  1
  Ag+  Ag24  1  0.83685695  -0.02260160  0.47789725  1
  Ag+  Ag25  1  0.47574513  0.50049090  0.33611032  1
  Ag+  Ag26  1  0.82295388  0.47609032  0.30107567  1
  Ag+  Ag27  1  0.47498120  0.36208950  0.14369111  1
  Ag+  Ag28  1  0.19218587  0.33763790  0.47310134  1
  Ag+  Ag29  1  0.66945581  0.19120846  0.16205832  1
  Ag+  Ag30  1  -0.03166602  -0.00689236  0.68515183  1
  Ag+  Ag31  1  0.85704824  0.83647492  0.02395604  1
  Ag+  Ag32  1  0.01976393  0.48474729  0.83563030  1
  Ag+  Ag33  1  0.31278170  0.65777559  -0.01672313  1
  Ag+  Ag34  1  0.00123354  0.35066393  0.30594959  1
  Ag+  Ag35  1  0.83148118  0.31456858  0.18207399  1
  Ag+  Ag36  1  0.68646592  0.00233729  0.30813876  1
  Ag+  Ag37  1  -0.02896058  0.64001775  -0.00144813  1
  Ag+  Ag38  1  0.14988526  0.83060382  0.67488813  1
  Ag+  Ag39  1  0.67989492  0.64497405  0.00610810  1
  Ag+  Ag40  1  0.85201834  0.86654170  0.66039510  1
  Ag+  Ag41  1  0.30649227  0.02426224  -0.02725591  1
  Ag+  Ag42  1  0.83267368  0.19055182  -0.01776602  1
  Sn2+  Sn43  1  0.50157502  0.50922004  0.00520289  1
  Sn2+  Sn44  1  0.16650923  0.83383343  -0.00378391  1
  Sn2+  Sn45  1  0.67087695  0.16910155  0.85275631  1
  Sn2+  Sn46  1  0.32950069  0.83108073  0.83531911  1
  Sn2+  Sn47  1  0.16633561  -0.00569967  0.82685840  1
  Sn2+  Sn48  1  0.16072981  0.16580458  0.33286135  1
  Sn2+  Sn49  1  0.32620961  0.83684228  0.50417049  1
  Sn2+  Sn50  1  0.83475077  0.16274420  0.66718123  1
  Sn2+  Sn51  1  0.32706195  0.33372478  0.67160676  1
  Sn2+  Sn52  1  0.66500927  0.49883831  0.16680257  1
  Sn2+  Sn53  1  0.33604522  0.66247081  0.32380882  1
  Sn2+  Sn54  1  0.82906352  0.82911854  0.34019945  1
  Sn2+  Sn55  1  0.83607552  0.51433219  -0.00026427  1
  Sn2+  Sn56  1  0.16061519  0.00693595  0.50665944  1
  Sn2+  Sn57  1  -0.01290633  0.16890788  0.16886329  1
  Sn2+  Sn58  1  0.00049941  0.33111331  0.00115962  1
  Sn2+  Sn59  1  0.83199535  0.01082911  0.15945844  1
  Sn2+  Sn60  1  0.16302647  -0.00106604  0.16378722  1
  Sn2+  Sn61  1  0.49950873  0.66607878  0.50024579  1
  Sn2+  Sn62  1  0.49724522  0.49206258  0.66132483  1
  Sn2+  Sn63  1  0.67221411  0.83524038  0.49471713  1
  Sn2+  Sn64  1  0.33071562  0.50108925  0.83773691  1
  Bi3+  Bi65  1  0.83355360  0.16760248  0.33581739  1
  Bi3+  Bi66  1  0.66381800  -0.00271673  0.66945720  1
  Bi3+  Bi67  1  0.66525457  -0.00073642  0.00205318  1
  Bi3+  Bi68  1  0.50451819  0.16690586  0.33374511  1
  Bi3+  Bi69  1  0.16935585  0.33089418  0.83443008  1
  Bi3+  Bi70  1  0.00056343  0.16542089  0.50203899  1
  Bi3+  Bi71  1  0.33138210  0.16603943  0.49932392  1
  Bi3+  Bi72  1  0.50179045  -0.00291993  0.16767519  1
  Bi3+  Bi73  1  0.82912059  0.49810886  0.67263692  1
  Bi3+  Bi74  1  0.33608192  -0.00470428  0.33712222  1
  Bi3+  Bi75  1  0.50441577  0.66482312  0.16937368  1
  Bi3+  Bi76  1  -0.00576106  0.83216397  0.83300239  1
  Bi3+  Bi77  1  0.16861432  0.50141533  -0.00092002  1
  Bi3+  Bi78  1  0.50385964  -0.00106975  0.83490081  1
  Bi3+  Bi79  1  0.83516273  0.67285764  0.16496435  1
  Bi3+  Bi80  1  0.33552265  -0.00234749  0.66653531  1
  Bi3+  Bi81  1  0.16658867  0.83524947  0.33861811  1
  Bi3+  Bi82  1  -0.00222034  0.49913746  0.51201876  1
  Bi3+  Bi83  1  0.83265659  0.66648478  0.83694163  1
  Bi3+  Bi84  1  0.66721832  0.83633503  0.83332173  1
  Bi3+  Bi85  1  0.16646497  0.67045645  0.16651909  1
  Te2-  Te86  1  0.16397313  0.16485226  0.17040819  1
  Te2-  Te87  1  0.16615402  0.18060484  0.49581334  1
  Te2-  Te88  1  0.16398545  0.16511064  0.83652933  1
  Te2-  Te89  1  0.16481691  0.50500184  0.16570522  1
  Te2-  Te90  1  0.16028066  0.48598063  0.50294576  1
  Te2-  Te91  1  0.16712800  0.49726783  0.83283216  1
  Te2-  Te92  1  0.17341274  0.83254196  0.17196410  1
  Te2-  Te93  1  0.15815889  0.83518940  0.49997091  1
  Te2-  Te94  1  0.16106459  0.83624616  0.82511447  1
  Te2-  Te95  1  0.51554423  0.15995613  0.17143683  1
  Te2-  Te96  1  0.49543222  0.17588676  0.49895859  1
  Te2-  Te97  1  0.50236625  0.16082214  0.83291287  1
  Te2-  Te98  1  0.50607167  0.50169269  0.17790733  1
  Te2-  Te99  1  0.50037547  0.49346432  0.48813326  1
  Te2-  Te100  1  0.49552918  0.49740305  0.83511543  1
  Te2-  Te101  1  0.50021271  0.83125355  0.16874874  1
  Te2-  Te102  1  0.50358884  0.83481870  0.50421769  1
  Te2-  Te103  1  0.50331027  0.83619301  0.82966954  1
  Te2-  Te104  1  0.82491094  0.16583049  0.17422391  1
  Te2-  Te105  1  0.83583938  0.18231162  0.49933388  1
  Te2-  Te106  1  0.82882122  0.18303991  0.83375194  1
  Te2-  Te107  1  0.83188674  0.51034051  0.15835530  1
  Te2-  Te108  1  0.83465515  0.49161417  0.50837819  1
  Te2-  Te109  1  0.82510382  0.49977793  0.83552541  1
  Te2-  Te110  1  0.83186921  0.83808370  0.17074335  1
  Te2-  Te111  1  0.84405803  0.83386425  0.51005340  1
  Te2-  Te112  1  0.83065943  0.82681897  0.81319323  1
  Te2-  Te113  1  0.16846966  -0.00548186  0.00262018  1
  Te2-  Te114  1  0.17409332  -0.00206691  0.33754282  1
  Te2-  Te115  1  0.17437096  -0.01473344  0.66573776  1
  Te2-  Te116  1  0.16822443  0.33514237  -0.00285563  1
  Te2-  Te117  1  0.15372465  0.33918887  0.33046909  1
  Te2-  Te118  1  0.16236241  0.32999126  0.67527443  1
  Te2-  Te119  1  0.16840377  0.66716656  0.00510953  1
  Te2-  Te120  1  0.16247899  0.66831470  0.32881079  1
  Te2-  Te121  1  0.16633053  0.67729813  0.66578415  1
  Te2-  Te122  1  0.49841700  -0.00687360  0.00173502  1
  Te2-  Te123  1  0.49763048  0.00115180  0.33586864  1
  Te2-  Te124  1  0.50052798  0.00266510  0.66470957  1
  Te2-  Te125  1  0.50048594  0.33380801  0.00225555  1
  Te2-  Te126  1  0.50163656  0.33236473  0.32480761  1
  Te2-  Te127  1  0.49699907  0.33364715  0.67895359  1
  Te2-  Te128  1  0.50585728  0.67095307  0.00789702  1
  Te2-  Te129  1  0.50671312  0.65376374  0.33103771  1
  Te2-  Te130  1  0.51115523  0.65991978  0.66264144  1
  Te2-  Te131  1  0.82940890  -0.01536994  -0.00814630  1
  Te2-  Te132  1  0.83180448  0.00296623  0.33163381  1
  Te2-  Te133  1  0.82153091  0.00814071  0.68718745  1
  Te2-  Te134  1  0.82952853  0.33982615  -0.01221650  1
  Te2-  Te135  1  0.84400789  0.33310125  0.33101570  1
  Te2-  Te136  1  0.82653630  0.33525652  0.67519686  1
  Te2-  Te137  1  0.82790680  0.68388037  0.00147275  1
  Te2-  Te138  1  0.83382246  0.66674992  0.32625183  1
  Te2-  Te139  1  0.82249891  0.66081192  0.66790166  1
  Te2-  Te140  1  -0.01786054  0.15876437  0.00141308  1
  Te2-  Te141  1  -0.00192685  0.16113198  0.33893291  1
  Te2-  Te142  1  -0.00037360  0.14381429  0.66195978  1
  Te2-  Te143  1  0.00531094  0.49600545  -0.01140971  1
  Te2-  Te144  1  -0.00737206  0.49410004  0.34090914  1
  Te2-  Te145  1  -0.00396707  0.50300209  0.67917185  1
  Te2-  Te146  1  0.00210497  0.84942168  -0.00425060  1
  Te2-  Te147  1  0.00336751  0.84152359  0.34097120  1
  Te2-  Te148  1  -0.00023586  0.84313475  0.66322680  1
  Te2-  Te149  1  0.33426110  0.16428026  0.00204725  1
  Te2-  Te150  1  0.33496329  0.16420236  0.33588458  1
  Te2-  Te151  1  0.33556355  0.16412400  0.66219809  1
  Te2-  Te152  1  0.33159636  0.50822224  -0.00111381  1
  Te2-  Te153  1  0.32771480  0.50192454  0.33349109  1
  Te2-  Te154  1  0.33098556  0.49826886  0.66930505  1
  Te2-  Te155  1  0.33272287  0.82660961  -0.00584248  1
  Te2-  Te156  1  0.33235657  0.83116387  0.34254180  1
  Te2-  Te157  1  0.34689543  0.83510097  0.66597624  1
  Te2-  Te158  1  0.68417738  0.16081197  0.01285906  1
  Te2-  Te159  1  0.66840547  0.15701545  0.33051572  1
  Te2-  Te160  1  0.66192460  0.16963196  0.66867307  1
  Te2-  Te161  1  0.66073599  0.49935910  -0.00987836  1
  Te2-  Te162  1  0.68086401  0.49427818  0.33504845  1
  Te2-  Te163  1  0.66371060  0.49542974  0.68227137  1
  Te2-  Te164  1  0.66075488  0.83797795  -0.00036243  1
  Te2-  Te165  1  0.67174624  0.84861770  0.33154221  1
  Te2-  Te166  1  0.66059111  0.82753894  0.66699054  1
  Te2-  Te167  1  -0.00112248  0.00330431  0.17743854  1
  Te2-  Te168  1  -0.00885907  0.00263666  0.49393166  1
  Te2-  Te169  1  -0.00293338  -0.00252975  0.83298379  1
  Te2-  Te170  1  -0.01611534  0.33074671  0.15990808  1
  Te2-  Te171  1  0.00181336  0.33216754  0.51393421  1
  Te2-  Te172  1  0.00104309  0.33776133  0.83020620  1
  Te2-  Te173  1  0.00026523  0.66976735  0.14891635  1
  Te2-  Te174  1  0.00081863  0.65918868  0.49837999  1
  Te2-  Te175  1  -0.00570326  0.67187215  0.84632194  1
  Te2-  Te176  1  0.33737480  -0.00876836  0.17245802  1
  Te2-  Te177  1  0.33039544  0.00330479  0.50207567  1
  Te2-  Te178  1  0.33897325  -0.00309601  0.83179996  1
  Te2-  Te179  1  0.33295271  0.33136279  0.15974386  1
  Te2-  Te180  1  0.33699156  0.33001585  0.50352889  1
  Te2-  Te181  1  0.33366257  0.33434712  0.84178591  1
  Te2-  Te182  1  0.33651233  0.67598210  0.16665956  1
  Te2-  Te183  1  0.33737648  0.66865654  0.49859071  1
  Te2-  Te184  1  0.33480189  0.67021345  0.83767656  1
  Te2-  Te185  1  0.66438914  -0.01176576  0.16299757  1
  Te2-  Te186  1  0.68658394  -0.00332704  0.51040484  1
  Te2-  Te187  1  0.66505583  0.00043409  0.83374988  1
  Te2-  Te188  1  0.68263813  0.33782709  0.15850193  1
  Te2-  Te189  1  0.65743096  0.33403097  0.50969261  1
  Te2-  Te190  1  0.65618627  0.32888914  0.83634156  1
  Te2-  Te191  1  0.66855232  0.67221539  0.16034561  1
  Te2-  Te192  1  0.66526892  0.67080920  0.48353204  1
  Te2-  Te193  1  0.66825815  0.67276322  0.85100638  1
  Pb2+  Pb194  1  0.33293521  0.49955333  0.50192471  1
  Pb2+  Pb195  1  0.66477839  0.50456564  0.50801182  1
  Pb2+  Pb196  1  0.00295837  0.83510356  0.16964328  1
  Pb2+  Pb197  1  0.50572864  0.82665369  0.33627765  1
  Pb2+  Pb198  1  0.83214850  0.66632339  0.49616524  1
  Pb2+  Pb199  1  0.16294095  0.66804168  0.83614842  1
  Pb2+  Pb200  1  0.33974222  0.66603909  0.66947798  1
  Pb2+  Pb201  1  0.33442413  0.16796062  0.83101482  1
  Pb2+  Pb202  1  0.15319240  0.16113540  0.00464494  1
  Pb2+  Pb203  1  0.16520222  0.15955412  0.66373074  1
  Pb2+  Pb204  1  -0.00211787  0.50277744  0.16240770  1
  Pb2+  Pb205  1  -0.00611398  0.16854597  0.82793699  1
  Pb2+  Pb206  1  0.33228309  0.33415238  0.33225861  1
  Pb2+  Pb207  1  0.50157346  0.66503436  0.83714360  1
  Pb2+  Pb208  1  0.15720525  0.33309939  0.16501468  1
  Pb2+  Pb209  1  0.67028564  0.32651371  0.32984605  1
  Pb2+  Pb210  1  0.33599639  0.50554041  0.16423558  1
  Pb2+  Pb211  1  0.16815926  0.66325241  0.49710105  1
  Pb2+  Pb212  1  -0.00614629  0.67410754  0.67089725  1
  Pb2+  Pb213  1  0.34403615  0.15989904  0.16755049  1
  Pb2+  Pb214  1  0.66594840  0.16441542  0.49840523  1
  Pb2+  Pb215  1  0.51509132  0.16479051  0.00438665  1
