# generated using pymatgen
data_In22Ag21Sn22Bi21(Te54Pb11)2
_symmetry_space_group_name_H-M   'P 1'
_cell_length_a   19.14056480
_cell_length_b   19.12800654
_cell_length_c   19.11351650
_cell_angle_alpha   90.00114116
_cell_angle_beta   90.01299056
_cell_angle_gamma   90.00748056
_symmetry_Int_Tables_number   1
_chemical_formula_structural   In22Ag21Sn22Bi21(Te54Pb11)2
_chemical_formula_sum   'In22 Ag21 Sn22 Bi21 Te108 Pb22'
_cell_volume   6997.85664288
_cell_formula_units_Z   1
loop_
 _symmetry_equiv_pos_site_id
 _symmetry_equiv_pos_as_xyz
  1  'x, y, z'
loop_
 _atom_type_symbol
 _atom_type_oxidation_number
  In3+  3.0
  Ag+  1.0
  Sn2+  2.0
  Bi3+  3.0
  Te2-  -2.0
  Pb2+  2.0
loop_
 _atom_site_type_symbol
 _atom_site_label
 _atom_site_symmetry_multiplicity
 _atom_site_fract_x
 _atom_site_fract_y
 _atom_site_fract_z
 _atom_site_occupancy
  In3+  In0  1  0.66506976  0.16199654  0.51227906  1
  In3+  In1  1  0.50521140  0.50142773  0.30280236  1
  In3+  In2  1  0.85179635  0.49762512  0.33439105  1
  In3+  In3  1  0.52207603  0.83849332  0.66530453  1
  In3+  In4  1  0.82554927  0.50054770  0.69337500  1
  In3+  In5  1  0.81513712  -0.01387621  0.83257934  1
  In3+  In6  1  0.49864543  0.65509280  0.50145246  1
  In3+  In7  1  0.33563650  0.49449215  0.15266515  1
  In3+  In8  1  0.33268921  0.51427200  0.50238533  1
  In3+  In9  1  0.00888676  0.80588912  0.49025864  1
  In3+  In10  1  0.83368232  0.82015230  0.65763770  1
  In3+  In11  1  0.48982430  0.67065329  0.14414178  1
  In3+  In12  1  0.17204574  0.34456865  0.81865637  1
  In3+  In13  1  0.00248382  0.50757785  0.82675690  1
  In3+  In14  1  0.17012908  0.66606692  0.83880992  1
  In3+  In15  1  0.66845317  0.15538433  0.83736352  1
  In3+  In16  1  0.64781890  0.33295165  0.34333284  1
  In3+  In17  1  0.83370108  0.33539834  0.48292531  1
  In3+  In18  1  -0.02659575  -0.00451185  -0.00204606  1
  In3+  In19  1  0.33691842  0.65837780  0.67122256  1
  In3+  In20  1  0.81466114  0.81248435  0.00440337  1
  In3+  In21  1  0.82849231  0.33629954  0.15396689  1
  Ag+  Ag22  1  0.52352941  0.14187952  0.00422582  1
  Ag+  Ag23  1  -0.02559200  0.50095906  0.52232615  1
  Ag+  Ag24  1  0.18110323  0.63962744  0.52621270  1
  Ag+  Ag25  1  0.67652143  -0.00794831  0.64776010  1
  Ag+  Ag26  1  0.81264725  0.14937907  0.00152848  1
  Ag+  Ag27  1  -0.00341175  0.85450583  0.13811846  1
  Ag+  Ag28  1  0.81127922  0.50311203  -0.00055614  1
  Ag+  Ag29  1  0.33249368  0.64648424  -0.02438649  1
  Ag+  Ag30  1  -0.02020255  0.33285543  0.35705072  1
  Ag+  Ag31  1  0.35294071  0.35944483  0.35709837  1
  Ag+  Ag32  1  0.15082024  0.80414082  0.30609760  1
  Ag+  Ag33  1  0.35033294  0.50098371  0.85099775  1
  Ag+  Ag34  1  0.16683147  0.52114085  0.67476101  1
  Ag+  Ag35  1  0.69155374  0.63810200  0.00244506  1
  Ag+  Ag36  1  0.67036029  0.80500644  0.84854172  1
  Ag+  Ag37  1  0.51585694  0.48720884  0.00111104  1
  Ag+  Ag38  1  0.19792651  0.18997725  0.66985051  1
  Ag+  Ag39  1  0.64720019  0.50282367  0.81817378  1
  Ag+  Ag40  1  0.66918650  0.00296372  0.00337163  1
  Ag+  Ag41  1  0.52950469  -0.03247605  0.17724434  1
  Ag+  Ag42  1  0.53050128  0.31412995  0.14979482  1
  Sn2+  Sn43  1  0.66990370  0.50251303  0.15526658  1
  Sn2+  Sn44  1  0.66554484  0.82810395  0.50223176  1
  Sn2+  Sn45  1  0.50199750  0.33314160  0.49867117  1
  Sn2+  Sn46  1  0.33333222  0.34034376  0.66104171  1
  Sn2+  Sn47  1  -0.00782228  0.16471390  0.16541369  1
  Sn2+  Sn48  1  0.33785080  -0.00673104  0.66722139  1
  Sn2+  Sn49  1  0.82456611  0.67060844  0.83730738  1
  Sn2+  Sn50  1  0.33671223  0.17415796  0.49649751  1
  Sn2+  Sn51  1  -0.00593752  0.83319557  0.83171254  1
  Sn2+  Sn52  1  0.49964584  0.16279216  0.67931875  1
  Sn2+  Sn53  1  -0.00299249  0.00139730  0.66894662  1
  Sn2+  Sn54  1  0.82862485  0.00358947  0.16095870  1
  Sn2+  Sn55  1  0.00603073  0.66345545  0.66442821  1
  Sn2+  Sn56  1  0.16914715  0.00316676  0.16752515  1
  Sn2+  Sn57  1  0.16563013  0.66688994  0.16938432  1
  Sn2+  Sn58  1  0.33017507  0.17841552  0.83320535  1
  Sn2+  Sn59  1  0.16441157  0.33859312  0.49692528  1
  Sn2+  Sn60  1  0.66473705  0.33014954  0.67547731  1
  Sn2+  Sn61  1  0.66260632  0.33664176  -0.00253426  1
  Sn2+  Sn62  1  0.16670507  0.16327378  -0.00812295  1
  Sn2+  Sn63  1  -0.00094879  0.16891609  0.83610337  1
  Sn2+  Sn64  1  0.16625589  0.83410096  0.00427485  1
  Bi3+  Bi65  1  0.33332960  -0.00084573  0.33223145  1
  Bi3+  Bi66  1  0.33394368  0.33277805  -0.00209607  1
  Bi3+  Bi67  1  0.17053985  0.49596583  0.33500231  1
  Bi3+  Bi68  1  0.83301561  0.66210794  0.16477692  1
  Bi3+  Bi69  1  0.16573672  0.49800623  -0.00673649  1
  Bi3+  Bi70  1  0.15849334  0.83466494  0.66819853  1
  Bi3+  Bi71  1  0.00042007  0.65864441  0.33103527  1
  Bi3+  Bi72  1  0.33564850  0.00208160  0.00017861  1
  Bi3+  Bi73  1  0.50049522  0.66831652  0.83259502  1
  Bi3+  Bi74  1  0.32962828  0.66756333  0.33728903  1
  Bi3+  Bi75  1  0.16617732  0.17238137  0.34164019  1
  Bi3+  Bi76  1  0.00172231  0.32986408  -0.00073293  1
  Bi3+  Bi77  1  0.32735583  0.83790697  0.50296922  1
  Bi3+  Bi78  1  0.50050898  0.00235520  0.83980628  1
  Bi3+  Bi79  1  -0.00040736  0.33594489  0.66692320  1
  Bi3+  Bi80  1  0.82917233  0.17234163  0.67776606  1
  Bi3+  Bi81  1  0.16737203  0.33310291  0.16576782  1
  Bi3+  Bi82  1  0.16385818  0.00231904  0.50434455  1
  Bi3+  Bi83  1  0.83591333  0.33467914  0.83836321  1
  Bi3+  Bi84  1  0.50191855  0.83504848  -0.00470681  1
  Bi3+  Bi85  1  0.33176703  0.17194886  0.16258742  1
  Te2-  Te86  1  0.16596268  0.16935918  0.17007803  1
  Te2-  Te87  1  0.17015166  0.16755355  0.50922698  1
  Te2-  Te88  1  0.17206124  0.17072357  0.81933788  1
  Te2-  Te89  1  0.17317277  0.49837705  0.16647830  1
  Te2-  Te90  1  0.17768456  0.49650287  0.49666250  1
  Te2-  Te91  1  0.16282172  0.50507830  0.82614215  1
  Te2-  Te92  1  0.15088485  0.83406870  0.16231919  1
  Te2-  Te93  1  0.16101424  0.83806850  0.50560154  1
  Te2-  Te94  1  0.16720108  0.82532617  0.83242792  1
  Te2-  Te95  1  0.49398607  0.17173543  0.15587929  1
  Te2-  Te96  1  0.50888849  0.17053928  0.50005651  1
  Te2-  Te97  1  0.50398781  0.16394253  0.84754333  1
  Te2-  Te98  1  0.49448712  0.51441818  0.15095750  1
  Te2-  Te99  1  0.49121009  0.50087849  0.50976568  1
  Te2-  Te100  1  0.49947150  0.50657195  0.84299010  1
  Te2-  Te101  1  0.49808243  0.82501941  0.16747975  1
  Te2-  Te102  1  0.49524383  0.83370818  0.50920243  1
  Te2-  Te103  1  0.51271318  0.83511420  0.82638471  1
  Te2-  Te104  1  0.83345921  0.17298437  0.15226342  1
  Te2-  Te105  1  0.82495018  0.17639228  0.50650054  1
  Te2-  Te106  1  0.82662105  0.17300403  0.84467165  1
  Te2-  Te107  1  0.83235210  0.49923178  0.16417428  1
  Te2-  Te108  1  0.83040146  0.49307638  0.48847867  1
  Te2-  Te109  1  0.84379740  0.50112640  0.84318767  1
  Te2-  Te110  1  0.84500503  0.82911695  0.15809727  1
  Te2-  Te111  1  0.83881262  0.83365974  0.50473026  1
  Te2-  Te112  1  0.82213962  0.83468444  0.83874637  1
  Te2-  Te113  1  0.17139606  -0.00135728  0.00044401  1
  Te2-  Te114  1  0.16938437  0.00726817  0.33771066  1
  Te2-  Te115  1  0.16511419  -0.00308873  0.66702886  1
  Te2-  Te116  1  0.16772661  0.33270229  -0.00210793  1
  Te2-  Te117  1  0.17694303  0.33328245  0.33029942  1
  Te2-  Te118  1  0.16304559  0.33131166  0.66562473  1
  Te2-  Te119  1  0.17998063  0.66315662  -0.00272389  1
  Te2-  Te120  1  0.16516604  0.66041769  0.33311457  1
  Te2-  Te121  1  0.16513767  0.67077811  0.66955104  1
  Te2-  Te122  1  0.49995307  -0.00450793  0.00554458  1
  Te2-  Te123  1  0.49825179  -0.00249866  0.32161019  1
  Te2-  Te124  1  0.50900817  -0.00377907  0.67367341  1
  Te2-  Te125  1  0.49390018  0.34126984  0.00845790  1
  Te2-  Te126  1  0.49496682  0.34580205  0.32583586  1
  Te2-  Te127  1  0.50282513  0.33058647  0.67152848  1
  Te2-  Te128  1  0.48102269  0.67544138  -0.00720538  1
  Te2-  Te129  1  0.49563347  0.65907591  0.34499508  1
  Te2-  Te130  1  0.49694460  0.67096199  0.66634643  1
  Te2-  Te131  1  0.82382863  0.00256873  -0.00047528  1
  Te2-  Te132  1  0.83654953  0.00226411  0.33087137  1
  Te2-  Te133  1  0.82373931  0.01017010  0.67980193  1
  Te2-  Te134  1  0.83936505  0.34993987  0.00017528  1
  Te2-  Te135  1  0.83538871  0.34127098  0.32718293  1
  Te2-  Te136  1  0.83433646  0.33860230  0.67305769  1
  Te2-  Te137  1  0.83896753  0.65807168  0.00170698  1
  Te2-  Te138  1  0.83268032  0.66161890  0.33011154  1
  Te2-  Te139  1  0.83623417  0.66311276  0.66960534  1
  Te2-  Te140  1  0.00622473  0.16605565  -0.00299842  1
  Te2-  Te141  1  0.00263679  0.17998614  0.33536664  1
  Te2-  Te142  1  -0.00886036  0.16895583  0.67204112  1
  Te2-  Te143  1  0.00744601  0.49718915  -0.00705195  1
  Te2-  Te144  1  0.00513905  0.49007990  0.33554081  1
  Te2-  Te145  1  0.00888913  0.49892807  0.66737747  1
  Te2-  Te146  1  -0.00177585  0.83998450  -0.00853669  1
  Te2-  Te147  1  0.00749257  0.82688754  0.33932934  1
  Te2-  Te148  1  -0.00830796  0.83583040  0.66895267  1
  Te2-  Te149  1  0.33157855  0.16696321  -0.00126848  1
  Te2-  Te150  1  0.32996041  0.16317503  0.32932834  1
  Te2-  Te151  1  0.34263866  0.16465912  0.66651380  1
  Te2-  Te152  1  0.32718751  0.49887062  -0.00239700  1
  Te2-  Te153  1  0.33548040  0.50531985  0.34342304  1
  Te2-  Te154  1  0.31889429  0.50324950  0.65958180  1
  Te2-  Te155  1  0.33364313  0.83947518  -0.00018591  1
  Te2-  Te156  1  0.32158544  0.83434000  0.33774073  1
  Te2-  Te157  1  0.32595688  0.82971498  0.66542065  1
  Te2-  Te158  1  0.66629192  0.17830262  -0.00908643  1
  Te2-  Te159  1  0.66656169  0.17887941  0.33210534  1
  Te2-  Te160  1  0.66718339  0.16299335  0.67173950  1
  Te2-  Te161  1  0.66385973  0.49481599  -0.00120165  1
  Te2-  Te162  1  0.65353460  0.49390159  0.33298840  1
  Te2-  Te163  1  0.67262651  0.50332083  0.67098506  1
  Te2-  Te164  1  0.66612738  0.83445017  -0.00524734  1
  Te2-  Te165  1  0.66826542  0.83263745  0.33547456  1
  Te2-  Te166  1  0.67812193  0.84467980  0.66480316  1
  Te2-  Te167  1  -0.00255343  0.00115220  0.15723048  1
  Te2-  Te168  1  0.00132521  0.00567894  0.50135252  1
  Te2-  Te169  1  -0.00851132  0.00174446  0.83950086  1
  Te2-  Te170  1  0.00141701  0.33004930  0.16073238  1
  Te2-  Te171  1  -0.00814967  0.34629414  0.50447095  1
  Te2-  Te172  1  0.00354335  0.33655206  0.83294712  1
  Te2-  Te173  1  -0.00126685  0.66547540  0.16920318  1
  Te2-  Te174  1  0.00437071  0.65073458  0.49516754  1
  Te2-  Te175  1  -0.00019943  0.66537920  0.83086325  1
  Te2-  Te176  1  0.33145974  0.00415392  0.16661426  1
  Te2-  Te177  1  0.33234677  0.00163035  0.49923960  1
  Te2-  Te178  1  0.33603835  0.00236849  0.83354792  1
  Te2-  Te179  1  0.33008158  0.33807387  0.16336496  1
  Te2-  Te180  1  0.33750027  0.33005394  0.50126511  1
  Te2-  Te181  1  0.32971078  0.34759055  0.83201925  1
  Te2-  Te182  1  0.33473877  0.66271979  0.17641446  1
  Te2-  Te183  1  0.32598966  0.67434460  0.50331787  1
  Te2-  Te184  1  0.33137236  0.65514780  0.82678704  1
  Te2-  Te185  1  0.67044249  0.00322305  0.15632502  1
  Te2-  Te186  1  0.66778391  0.00390968  0.49979716  1
  Te2-  Te187  1  0.66435052  0.00407126  0.85254255  1
  Te2-  Te188  1  0.67333367  0.34113066  0.17060135  1
  Te2-  Te189  1  0.66761876  0.32978787  0.50033561  1
  Te2-  Te190  1  0.67391902  0.35397041  0.83130524  1
  Te2-  Te191  1  0.66946554  0.66501772  0.15270054  1
  Te2-  Te192  1  0.66194642  0.67041099  0.50246642  1
  Te2-  Te193  1  0.66541188  0.65804337  0.84652379  1
  Pb2+  Pb194  1  0.67211124  0.83247011  0.16163971  1
  Pb2+  Pb195  1  0.66653937  0.67318475  0.67668167  1
  Pb2+  Pb196  1  0.83974259  0.83375252  0.33017688  1
  Pb2+  Pb197  1  0.34057645  0.83033123  0.83257536  1
  Pb2+  Pb198  1  0.65990922  0.17325686  0.15981313  1
  Pb2+  Pb199  1  0.49453662  0.82965903  0.33994333  1
  Pb2+  Pb200  1  0.00382795  0.00271628  0.32870380  1
  Pb2+  Pb201  1  0.00215511  0.17510590  0.50404653  1
  Pb2+  Pb202  1  0.83435531  0.17199023  0.32639363  1
  Pb2+  Pb203  1  0.83632969  0.00468319  0.50944510  1
  Pb2+  Pb204  1  0.66120876  0.49835765  0.50177879  1
  Pb2+  Pb205  1  0.50410761  0.33418894  0.84456505  1
  Pb2+  Pb206  1  0.83762489  0.66145680  0.50130838  1
  Pb2+  Pb207  1  0.50064486  0.00278461  0.50092918  1
  Pb2+  Pb208  1  0.32125645  0.83281261  0.16659804  1
  Pb2+  Pb209  1  0.66741825  0.00334028  0.32807060  1
  Pb2+  Pb210  1  0.49350052  0.49777693  0.67752569  1
  Pb2+  Pb211  1  0.15957668  0.00118247  0.83472129  1
  Pb2+  Pb212  1  0.66223744  0.66241893  0.32265861  1
  Pb2+  Pb213  1  0.49768512  0.17096763  0.32434393  1
  Pb2+  Pb214  1  0.00197939  0.49707413  0.16641757  1
  Pb2+  Pb215  1  0.01027350  0.66916164  -0.00174970  1
