# generated using pymatgen
data_In22Ag21Sn22Bi21(Te54Pb11)2
_symmetry_space_group_name_H-M   'P 1'
_cell_length_a   19.16115101
_cell_length_b   19.15787763
_cell_length_c   19.16362673
_cell_angle_alpha   89.99634108
_cell_angle_beta   89.98053592
_cell_angle_gamma   90.00546584
_symmetry_Int_Tables_number   1
_chemical_formula_structural   In22Ag21Sn22Bi21(Te54Pb11)2
_chemical_formula_sum   'In22 Ag21 Sn22 Bi21 Te108 Pb22'
_cell_volume   7034.71753046
_cell_formula_units_Z   1
loop_
 _symmetry_equiv_pos_site_id
 _symmetry_equiv_pos_as_xyz
  1  'x, y, z'
loop_
 _atom_type_symbol
 _atom_type_oxidation_number
  In3+  3.0
  Ag+  1.0
  Sn2+  2.0
  Bi3+  3.0
  Te2-  -2.0
  Pb2+  2.0
loop_
 _atom_site_type_symbol
 _atom_site_label
 _atom_site_symmetry_multiplicity
 _atom_site_fract_x
 _atom_site_fract_y
 _atom_site_fract_z
 _atom_site_occupancy
  In3+  In0  1  -0.00969056  0.48525178  0.14415588  1
  In3+  In1  1  0.69247805  0.00522469  0.67301893  1
  In3+  In2  1  0.50184706  0.32540700  0.51965675  1
  In3+  In3  1  0.15567517  0.00891852  0.14534956  1
  In3+  In4  1  0.50875603  0.48896752  0.66888252  1
  In3+  In5  1  0.50579040  0.67920899  0.85131572  1
  In3+  In6  1  0.82784952  0.65305598  0.16428390  1
  In3+  In7  1  0.51575061  0.82385545  0.33505322  1
  In3+  In8  1  0.68737763  0.16582299  0.82584261  1
  In3+  In9  1  -0.00255268  0.01475754  0.34706146  1
  In3+  In10  1  0.83041683  0.32490267  0.16305803  1
  In3+  In11  1  0.83251715  0.83583590  0.32663606  1
  In3+  In12  1  0.13870935  0.00918860  0.82599095  1
  In3+  In13  1  0.83201836  0.48862413  0.33521699  1
  In3+  In14  1  0.16735799  0.31354637  0.82019502  1
  In3+  In15  1  0.32152517  0.14968423  0.83934435  1
  In3+  In16  1  0.51171824  0.33538302  0.16204478  1
  In3+  In17  1  0.00644268  0.31999511  0.66580866  1
  In3+  In18  1  0.49407077  0.15456795  0.68119869  1
  In3+  In19  1  0.52084238  0.16662009  -0.01408000  1
  In3+  In20  1  0.81745469  0.00721649  0.51444863  1
  In3+  In21  1  0.83794476  0.14807028  0.35521456  1
  Ag+  Ag22  1  0.66986924  -0.02828082  -0.03228990  1
  Ag+  Ag23  1  -0.02495063  0.18740676  0.16592006  1
  Ag+  Ag24  1  -0.00298748  0.02070246  0.68417516  1
  Ag+  Ag25  1  0.02744126  0.16219748  0.52231623  1
  Ag+  Ag26  1  0.36024972  0.47766704  0.49758152  1
  Ag+  Ag27  1  -0.04956065  0.86915634  0.81323395  1
  Ag+  Ag28  1  0.65075444  0.16825618  0.52556578  1
  Ag+  Ag29  1  0.64280878  0.52640338  0.16986949  1
  Ag+  Ag30  1  -0.02902000  0.69089797  0.02210205  1
  Ag+  Ag31  1  0.83631711  -0.02975805  0.85297952  1
  Ag+  Ag32  1  0.65866567  0.80697442  0.85661246  1
  Ag+  Ag33  1  0.14272655  0.14951210  -0.00854073  1
  Ag+  Ag34  1  0.13763720  0.16528132  0.63681599  1
  Ag+  Ag35  1  0.53362946  0.63342034  0.14789789  1
  Ag+  Ag36  1  -0.01453936  0.16219774  0.81537182  1
  Ag+  Ag37  1  0.81240545  0.50170904  -0.01935520  1
  Ag+  Ag38  1  0.14107804  0.34011599  0.47338144  1
  Ag+  Ag39  1  0.65327070  0.81066705  0.50850584  1
  Ag+  Ag40  1  0.84335993  0.16872557  0.68209368  1
  Ag+  Ag41  1  0.36707891  0.83495956  0.51883682  1
  Ag+  Ag42  1  0.52505521  0.31871493  0.82002047  1
  Sn2+  Sn43  1  0.50524991  0.00520589  0.50033451  1
  Sn2+  Sn44  1  0.67306086  0.65861223  -0.00304963  1
  Sn2+  Sn45  1  0.84919150  0.67075731  0.83375198  1
  Sn2+  Sn46  1  0.50600298  0.83416590  0.66071605  1
  Sn2+  Sn47  1  0.16165410  0.49508582  0.34217552  1
  Sn2+  Sn48  1  0.51168104  0.16841558  0.33152900  1
  Sn2+  Sn49  1  0.00309792  0.49174373  0.49721297  1
  Sn2+  Sn50  1  0.66042706  0.68272196  0.66707474  1
  Sn2+  Sn51  1  0.17145188  0.65408601  0.50171358  1
  Sn2+  Sn52  1  -0.00061216  0.32883620  -0.00528794  1
  Sn2+  Sn53  1  0.33962839  0.83456367  0.82559220  1
  Sn2+  Sn54  1  0.66481642  0.83855552  0.16989661  1
  Sn2+  Sn55  1  0.84039327  0.33805058  0.83855788  1
  Sn2+  Sn56  1  0.66836202  0.66377802  0.33861999  1
  Sn2+  Sn57  1  -0.00376280  0.66694580  0.33009643  1
  Sn2+  Sn58  1  0.16188659  0.32793461  0.15981837  1
  Sn2+  Sn59  1  -0.00268568  0.33172273  0.34644025  1
  Sn2+  Sn60  1  0.66582552  0.33506537  0.33860574  1
  Sn2+  Sn61  1  0.84520551  0.17192223  -0.00799810  1
  Sn2+  Sn62  1  0.67691796  0.33092246  0.66773157  1
  Sn2+  Sn63  1  0.83542522  0.00272821  0.15204241  1
  Sn2+  Sn64  1  -0.00407527  0.84345096  0.50868669  1
  Bi3+  Bi65  1  0.17245361  0.67281297  0.83412843  1
  Bi3+  Bi66  1  0.15897844  0.83348749  0.33718559  1
  Bi3+  Bi67  1  0.33719264  0.66849943  0.66471513  1
  Bi3+  Bi68  1  0.50229728  0.00322154  0.16858205  1
  Bi3+  Bi69  1  -0.00003577  0.83319805  0.16771754  1
  Bi3+  Bi70  1  0.33184794  0.16919252  0.16197909  1
  Bi3+  Bi71  1  0.16601707  0.49843195  0.00431715  1
  Bi3+  Bi72  1  0.32927025  -0.00073234  0.33649867  1
  Bi3+  Bi73  1  0.00141709  0.50064080  0.83283041  1
  Bi3+  Bi74  1  0.66546278  0.16839622  0.16465367  1
  Bi3+  Bi75  1  0.16454029  0.83590859  -0.00306766  1
  Bi3+  Bi76  1  0.16329356  0.00302421  0.50337592  1
  Bi3+  Bi77  1  0.67134525  0.33484927  0.00257249  1
  Bi3+  Bi78  1  0.33144752  0.83576909  0.17170487  1
  Bi3+  Bi79  1  0.16651580  0.66781234  0.16724645  1
  Bi3+  Bi80  1  0.33387704  0.66812558  0.00046843  1
  Bi3+  Bi81  1  0.33359498  0.50246296  0.82333171  1
  Bi3+  Bi82  1  0.83023017  0.83523323  0.66099260  1
  Bi3+  Bi83  1  0.33249746  0.66905655  0.33746954  1
  Bi3+  Bi84  1  0.66548811  0.00214051  0.33334191  1
  Bi3+  Bi85  1  -0.00327424  0.66930069  0.66492866  1
  Te2-  Te86  1  0.17238218  0.16475001  0.15425355  1
  Te2-  Te87  1  0.17244249  0.16622716  0.49231077  1
  Te2-  Te88  1  0.16538752  0.16276263  0.84484350  1
  Te2-  Te89  1  0.15852249  0.50509978  0.16888315  1
  Te2-  Te90  1  0.16123805  0.48526510  0.50162919  1
  Te2-  Te91  1  0.16824690  0.50785981  0.83797326  1
  Te2-  Te92  1  0.16604071  0.83350172  0.16643369  1
  Te2-  Te93  1  0.15561054  0.83813836  0.49989783  1
  Te2-  Te94  1  0.17112308  0.83513562  0.83568023  1
  Te2-  Te95  1  0.49873906  0.16764106  0.16311008  1
  Te2-  Te96  1  0.50391587  0.17272391  0.49612772  1
  Te2-  Te97  1  0.49081731  0.17604612  0.83474879  1
  Te2-  Te98  1  0.49565562  0.49225197  0.16747328  1
  Te2-  Te99  1  0.50548840  0.49304475  0.50921431  1
  Te2-  Te100  1  0.49457901  0.48978804  0.82417284  1
  Te2-  Te101  1  0.49499381  0.83938255  0.17510117  1
  Te2-  Te102  1  0.51005501  0.83729692  0.49173901  1
  Te2-  Te103  1  0.51176601  0.83347828  0.83129744  1
  Te2-  Te104  1  0.82764182  0.17093397  0.16015951  1
  Te2-  Te105  1  0.83306312  0.15908286  0.50313815  1
  Te2-  Te106  1  0.84027174  0.17854098  0.83224967  1
  Te2-  Te107  1  0.84424045  0.50371678  0.17906753  1
  Te2-  Te108  1  0.83457060  0.49907998  0.49295941  1
  Te2-  Te109  1  0.83603228  0.50342540  0.83380667  1
  Te2-  Te110  1  0.83726634  0.83440315  0.16960161  1
  Te2-  Te111  1  0.83619293  0.84842685  0.49933866  1
  Te2-  Te112  1  0.81058381  0.82437790  0.82625428  1
  Te2-  Te113  1  0.16660532  0.00160096  -0.01564706  1
  Te2-  Te114  1  0.16348701  -0.00375174  0.33708215  1
  Te2-  Te115  1  0.15253963  0.01319842  0.67076217  1
  Te2-  Te116  1  0.16260634  0.33858860  0.00159881  1
  Te2-  Te117  1  0.16512672  0.33475972  0.33065718  1
  Te2-  Te118  1  0.16140067  0.31583611  0.66709588  1
  Te2-  Te119  1  0.17033068  0.66747936  0.00079326  1
  Te2-  Te120  1  0.16723857  0.66822488  0.33282385  1
  Te2-  Te121  1  0.16980779  0.66752855  0.66921655  1
  Te2-  Te122  1  0.51853493  0.00769851  0.00284666  1
  Te2-  Te123  1  0.49842061  0.00130566  0.33193318  1
  Te2-  Te124  1  0.49657925  0.00244837  0.66393296  1
  Te2-  Te125  1  0.50558223  0.32640868  0.00294629  1
  Te2-  Te126  1  0.50571289  0.33201668  0.32199888  1
  Te2-  Te127  1  0.50612812  0.33138196  0.67362872  1
  Te2-  Te128  1  0.49832142  0.66698995  0.00794502  1
  Te2-  Te129  1  0.49824214  0.66930310  0.32991814  1
  Te2-  Te130  1  0.50195469  0.67048872  0.66792574  1
  Te2-  Te131  1  0.81955937  -0.00088604  -0.00339126  1
  Te2-  Te132  1  0.83273753  -0.00176954  0.32504515  1
  Te2-  Te133  1  0.84349072  0.00900615  0.66523711  1
  Te2-  Te134  1  0.83356188  0.35003743  0.00810935  1
  Te2-  Te135  1  0.83310778  0.33659408  0.32520081  1
  Te2-  Te136  1  0.83094978  0.32206875  0.66803737  1
  Te2-  Te137  1  0.83138798  0.65268894  0.00444970  1
  Te2-  Te138  1  0.83407217  0.67840419  0.32765278  1
  Te2-  Te139  1  0.82928547  0.66915390  0.66424960  1
  Te2-  Te140  1  -0.00085792  0.17102054  0.01701947  1
  Te2-  Te141  1  -0.01082054  0.16468818  0.31496282  1
  Te2-  Te142  1  -0.00748874  0.17041714  0.66950251  1
  Te2-  Te143  1  0.00406737  0.50068249  -0.00500992  1
  Te2-  Te144  1  -0.00569496  0.50090496  0.34169454  1
  Te2-  Te145  1  -0.00082748  0.50364397  0.66706737  1
  Te2-  Te146  1  0.00260767  0.83229114  -0.00143576  1
  Te2-  Te147  1  -0.00301510  0.83536912  0.33397354  1
  Te2-  Te148  1  -0.00796991  0.83112736  0.67581422  1
  Te2-  Te149  1  0.33325921  0.16658150  -0.00419462  1
  Te2-  Te150  1  0.33670518  0.16140946  0.32770589  1
  Te2-  Te151  1  0.33963794  0.16716029  0.68042755  1
  Te2-  Te152  1  0.33203652  0.50540644  -0.00231990  1
  Te2-  Te153  1  0.33282644  0.50716604  0.35030428  1
  Te2-  Te154  1  0.33565784  0.50737160  0.65700973  1
  Te2-  Te155  1  0.33109066  0.83272531  0.00255156  1
  Te2-  Te156  1  0.32369577  0.83453240  0.33252426  1
  Te2-  Te157  1  0.33602113  0.83088346  0.66401091  1
  Te2-  Te158  1  0.67378570  0.17363389  -0.00113943  1
  Te2-  Te159  1  0.67958180  0.16661642  0.32603077  1
  Te2-  Te160  1  0.65654435  0.16243008  0.67339198  1
  Te2-  Te161  1  0.66842247  0.49925248  0.01823639  1
  Te2-  Te162  1  0.67482813  0.50480292  0.31828532  1
  Te2-  Te163  1  0.66442976  0.49919413  0.66700310  1
  Te2-  Te164  1  0.66713094  0.82828442  0.00367114  1
  Te2-  Te165  1  0.67079883  0.83987897  0.34221519  1
  Te2-  Te166  1  0.66971683  0.85062361  0.65118637  1
  Te2-  Te167  1  0.00120793  -0.00680980  0.16885469  1
  Te2-  Te168  1  0.00239776  0.01401357  0.49579486  1
  Te2-  Te169  1  -0.01283018  0.00961173  0.83327722  1
  Te2-  Te170  1  0.00057902  0.33667164  0.17191609  1
  Te2-  Te171  1  -0.00058364  0.31888811  0.50533248  1
  Te2-  Te172  1  0.00781807  0.33730818  0.82525823  1
  Te2-  Te173  1  0.00299394  0.66915974  0.16514101  1
  Te2-  Te174  1  0.00608294  0.66798984  0.50374911  1
  Te2-  Te175  1  0.00862418  0.66413139  0.82691676  1
  Te2-  Te176  1  0.33584686  0.00069902  0.17148948  1
  Te2-  Te177  1  0.33125232  -0.01189369  0.49759338  1
  Te2-  Te178  1  0.34553756  -0.00184233  0.83586576  1
  Te2-  Te179  1  0.33095347  0.33208179  0.16802242  1
  Te2-  Te180  1  0.34828263  0.33071971  0.50118526  1
  Te2-  Te181  1  0.32039963  0.34391880  0.83280471  1
  Te2-  Te182  1  0.33209718  0.67095539  0.16844512  1
  Te2-  Te183  1  0.33054470  0.68286473  0.50117017  1
  Te2-  Te184  1  0.34121877  0.66779370  0.83421901  1
  Te2-  Te185  1  0.66499111  0.00409191  0.17037922  1
  Te2-  Te186  1  0.66678114  0.01907656  0.49378770  1
  Te2-  Te187  1  0.68485240  0.01269223  0.82746723  1
  Te2-  Te188  1  0.66950149  0.33185190  0.16715256  1
  Te2-  Te189  1  0.65986228  0.32034504  0.49949936  1
  Te2-  Te190  1  0.67122016  0.32658457  0.83814706  1
  Te2-  Te191  1  0.67295325  0.67538653  0.17045689  1
  Te2-  Te192  1  0.66936825  0.66557118  0.49785614  1
  Te2-  Te193  1  0.65847991  0.66011957  0.83362295  1
  Pb2+  Pb194  1  0.16028518  0.84005374  0.66840179  1
  Pb2+  Pb195  1  0.33169138  0.33136665  -0.00085613  1
  Pb2+  Pb196  1  0.83437731  0.82668045  0.00041005  1
  Pb2+  Pb197  1  0.16554764  0.49028891  0.66803841  1
  Pb2+  Pb198  1  0.34070077  0.00377031  0.00339384  1
  Pb2+  Pb199  1  0.83988096  0.67477917  0.49514074  1
  Pb2+  Pb200  1  0.33715543  0.15945217  0.50363220  1
  Pb2+  Pb201  1  0.33441037  0.33393517  0.33630867  1
  Pb2+  Pb202  1  0.50205042  0.49997767  0.33573516  1
  Pb2+  Pb203  1  0.83151448  0.32379649  0.49672665  1
  Pb2+  Pb204  1  0.51695389  0.00441197  0.83100159  1
  Pb2+  Pb205  1  0.66460251  0.49473584  0.83757815  1
  Pb2+  Pb206  1  0.83350502  0.49253935  0.66498670  1
  Pb2+  Pb207  1  0.32424888  0.00104287  0.66783073  1
  Pb2+  Pb208  1  0.66960677  0.49228116  0.49425175  1
  Pb2+  Pb209  1  0.32529848  0.50189186  0.17521679  1
  Pb2+  Pb210  1  0.50158311  0.83772533  0.00539588  1
  Pb2+  Pb211  1  0.33399197  0.33500402  0.66679191  1
  Pb2+  Pb212  1  0.49817494  0.66616840  0.49909491  1
  Pb2+  Pb213  1  0.16036002  0.16618722  0.32470690  1
  Pb2+  Pb214  1  0.50354322  0.49589780  -0.00631133  1
  Pb2+  Pb215  1  -0.00891326  0.00161356  0.00109113  1
