# generated using pymatgen
data_In22Ag21Sn22Bi21(Te54Pb11)2
_symmetry_space_group_name_H-M   'P 1'
_cell_length_a   19.07493041
_cell_length_b   19.07892396
_cell_length_c   19.08054542
_cell_angle_alpha   89.99644389
_cell_angle_beta   90.00182604
_cell_angle_gamma   90.01520438
_symmetry_Int_Tables_number   1
_chemical_formula_structural   In22Ag21Sn22Bi21(Te54Pb11)2
_chemical_formula_sum   'In22 Ag21 Sn22 Bi21 Te108 Pb22'
_cell_volume   6943.96635686
_cell_formula_units_Z   1
loop_
 _symmetry_equiv_pos_site_id
 _symmetry_equiv_pos_as_xyz
  1  'x, y, z'
loop_
 _atom_type_symbol
 _atom_type_oxidation_number
  In3+  3.0
  Ag+  1.0
  Sn2+  2.0
  Bi3+  3.0
  Te2-  -2.0
  Pb2+  2.0
loop_
 _atom_site_type_symbol
 _atom_site_label
 _atom_site_symmetry_multiplicity
 _atom_site_fract_x
 _atom_site_fract_y
 _atom_site_fract_z
 _atom_site_occupancy
  In3+  In0  1  -0.00297396  0.16191435  0.15780887  1
  In3+  In1  1  0.66514501  0.16499772  0.83457441  1
  In3+  In2  1  0.82993552  0.00285731  0.82768898  1
  In3+  In3  1  0.00205598  0.15788782  0.82870751  1
  In3+  In4  1  0.84003736  0.49778030  0.65761735  1
  In3+  In5  1  0.66684898  0.65719793  0.66282515  1
  In3+  In6  1  0.66942510  0.81767014  0.48290599  1
  In3+  In7  1  0.82017001  0.82634941  0.00294206  1
  In3+  In8  1  0.83800581  0.16604686  0.66300016  1
  In3+  In9  1  0.35758153  0.65829392  0.34070742  1
  In3+  In10  1  0.33167379  0.83270892  0.49499125  1
  In3+  In11  1  0.16468599  0.17668820  -0.01871446  1
  In3+  In12  1  0.16414539  0.16351126  0.66032855  1
  In3+  In13  1  0.66480237  0.51539078  0.83799400  1
  In3+  In14  1  -0.00467170  -0.00674784  -0.01633744  1
  In3+  In15  1  -0.00229841  -0.00088907  0.35437215  1
  In3+  In16  1  0.66120353  0.35571011  0.33721166  1
  In3+  In17  1  0.66279637  0.50194353  0.50031602  1
  In3+  In18  1  0.83345385  0.51513936  0.34393565  1
  In3+  In19  1  0.49713666  0.18802478  0.66246652  1
  In3+  In20  1  0.00643664  0.17111397  0.51282460  1
  In3+  In21  1  0.15326037  0.64587029  0.50065873  1
  Ag+  Ag22  1  0.66708824  0.30856612  -0.02275823  1
  Ag+  Ag23  1  0.35526179  0.16584049  0.81860894  1
  Ag+  Ag24  1  0.66737919  0.81250605  0.16208323  1
  Ag+  Ag25  1  0.50741295  0.50993297  0.35154659  1
  Ag+  Ag26  1  0.66441480  0.67274860  0.02225497  1
  Ag+  Ag27  1  0.49553746  0.35833786  0.49231146  1
  Ag+  Ag28  1  0.35639388  0.19306022  0.52541041  1
  Ag+  Ag29  1  0.18647911  0.00309026  0.83740026  1
  Ag+  Ag30  1  0.66135899  0.66438111  0.32505297  1
  Ag+  Ag31  1  0.02676874  0.67567348  0.02137815  1
  Ag+  Ag32  1  0.01698574  0.51875222  0.49848390  1
  Ag+  Ag33  1  0.01546464  0.33241670  0.66485333  1
  Ag+  Ag34  1  0.83568814  -0.01383653  0.15333300  1
  Ag+  Ag35  1  0.49389887  0.65649932  0.50202875  1
  Ag+  Ag36  1  0.81179009  0.66788320  0.49453777  1
  Ag+  Ag37  1  0.66991858  0.81985645  0.81713395  1
  Ag+  Ag38  1  0.14441153  0.34053963  0.50895503  1
  Ag+  Ag39  1  0.00667343  -0.01948164  0.66389136  1
  Ag+  Ag40  1  0.50647611  0.81190845  0.35397317  1
  Ag+  Ag41  1  0.13285243  0.51807175  0.35683166  1
  Ag+  Ag42  1  0.52004553  0.50022994  0.65149984  1
  Sn2+  Sn43  1  0.00125932  0.32627958  0.34446475  1
  Sn2+  Sn44  1  0.32833666  0.16934874  0.17390881  1
  Sn2+  Sn45  1  0.49991817  0.33623357  0.82686528  1
  Sn2+  Sn46  1  0.83479384  0.33345632  0.83207708  1
  Sn2+  Sn47  1  -0.00765401  0.84354078  0.16426591  1
  Sn2+  Sn48  1  0.34597217  0.66427680  0.00241822  1
  Sn2+  Sn49  1  -0.00508262  0.83168242  0.83552572  1
  Sn2+  Sn50  1  0.67143797  -0.01022242  0.00851266  1
  Sn2+  Sn51  1  0.49568278  0.66846697  0.82248851  1
  Sn2+  Sn52  1  0.51006918  -0.00299170  0.16988818  1
  Sn2+  Sn53  1  0.49280405  0.16896774  -0.01000763  1
  Sn2+  Sn54  1  0.50628188  0.82855685  0.66093502  1
  Sn2+  Sn55  1  0.82192379  0.83183141  0.32727552  1
  Sn2+  Sn56  1  0.34710243  0.66657008  0.66360861  1
  Sn2+  Sn57  1  0.50191086  -0.00599555  0.83171273  1
  Sn2+  Sn58  1  -0.00200858  0.66890744  0.33145162  1
  Sn2+  Sn59  1  0.66860397  -0.01147926  0.33098620  1
  Sn2+  Sn60  1  0.16415836  0.67785768  0.82994877  1
  Sn2+  Sn61  1  0.15308003  -0.00174644  0.15750303  1
  Sn2+  Sn62  1  0.16187198  0.66368102  0.17277831  1
  Sn2+  Sn63  1  0.15726231  0.49969939  0.00811849  1
  Sn2+  Sn64  1  0.35305249  0.32907489  -0.00741633  1
  Bi3+  Bi65  1  0.16418903  0.49719525  0.66657128  1
  Bi3+  Bi66  1  0.49988231  0.50320184  -0.00062049  1
  Bi3+  Bi67  1  0.50258700  0.83701175  0.00090939  1
  Bi3+  Bi68  1  0.33336553  0.50499333  0.16625417  1
  Bi3+  Bi69  1  0.83377336  0.16499328  0.33445876  1
  Bi3+  Bi70  1  0.83228523  0.33035537  0.16659464  1
  Bi3+  Bi71  1  0.83380605  0.66869796  0.83199885  1
  Bi3+  Bi72  1  0.66771318  0.16603527  0.16765313  1
  Bi3+  Bi73  1  0.33310196  -0.00238785  0.33288629  1
  Bi3+  Bi74  1  0.16381211  0.33067675  0.17332553  1
  Bi3+  Bi75  1  0.66709430  0.00041337  0.66895777  1
  Bi3+  Bi76  1  0.66689453  0.33471028  0.66753467  1
  Bi3+  Bi77  1  0.66730725  0.49922471  0.16338547  1
  Bi3+  Bi78  1  0.50001029  -0.00515446  0.50189790  1
  Bi3+  Bi79  1  0.82955301  0.50406513  -0.00160516  1
  Bi3+  Bi80  1  0.16376709  0.16842850  0.33596024  1
  Bi3+  Bi81  1  0.33527730  0.33317085  0.33157179  1
  Bi3+  Bi82  1  0.16191522  0.83524305  -0.00314190  1
  Bi3+  Bi83  1  -0.00274887  0.49910270  0.82826717  1
  Bi3+  Bi84  1  0.16542047  0.00505986  0.50243867  1
  Bi3+  Bi85  1  0.33940822  0.83680778  0.16875698  1
  Te2-  Te86  1  0.15777014  0.16679000  0.17156301  1
  Te2-  Te87  1  0.16384129  0.16864499  0.50100178  1
  Te2-  Te88  1  0.15735149  0.15569962  0.82950031  1
  Te2-  Te89  1  0.16913664  0.49664829  0.17228579  1
  Te2-  Te90  1  0.16307527  0.48932295  0.49974505  1
  Te2-  Te91  1  0.16100600  0.50185918  0.83271998  1
  Te2-  Te92  1  0.17087175  0.83324202  0.16189026  1
  Te2-  Te93  1  0.17189603  0.83981810  0.49852086  1
  Te2-  Te94  1  0.16644138  0.84688740  0.83504946  1
  Te2-  Te95  1  0.50148839  0.16429540  0.16180890  1
  Te2-  Te96  1  0.49910895  0.15975899  0.50996136  1
  Te2-  Te97  1  0.50391621  0.16775707  0.83046629  1
  Te2-  Te98  1  0.50071691  0.50130371  0.16251420  1
  Te2-  Te99  1  0.51034113  0.50568373  0.50208409  1
  Te2-  Te100  1  0.50369081  0.50141456  0.83734391  1
  Te2-  Te101  1  0.50533618  0.83628395  0.16345945  1
  Te2-  Te102  1  0.50880256  0.83347783  0.50049564  1
  Te2-  Te103  1  0.51384609  0.83317288  0.83670854  1
  Te2-  Te104  1  0.83488020  0.16721429  0.16781818  1
  Te2-  Te105  1  0.83754633  0.16482313  0.50080149  1
  Te2-  Te106  1  0.83722711  0.16427021  0.82883084  1
  Te2-  Te107  1  0.83087446  0.49711544  0.16818882  1
  Te2-  Te108  1  0.81966723  0.51141046  0.50114610  1
  Te2-  Te109  1  0.83101624  0.50276238  0.83273311  1
  Te2-  Te110  1  0.82233744  0.83777505  0.16211852  1
  Te2-  Te111  1  0.82495888  0.82211547  0.49690198  1
  Te2-  Te112  1  0.82289185  0.83382510  0.84389975  1
  Te2-  Te113  1  0.15397852  -0.00028330  -0.01111603  1
  Te2-  Te114  1  0.16250389  0.00201680  0.33320853  1
  Te2-  Te115  1  0.15408545  0.01011039  0.66709061  1
  Te2-  Te116  1  0.16312939  0.33019073  0.00475998  1
  Te2-  Te117  1  0.16944292  0.33101869  0.33552145  1
  Te2-  Te118  1  0.16451645  0.33031949  0.65793258  1
  Te2-  Te119  1  0.17198079  0.66900305  -0.00264802  1
  Te2-  Te120  1  0.16260795  0.66165116  0.34424909  1
  Te2-  Te121  1  0.17152624  0.66312030  0.65780715  1
  Te2-  Te122  1  0.50160451  0.00059610  -0.00084009  1
  Te2-  Te123  1  0.49755863  0.00010075  0.33625455  1
  Te2-  Te124  1  0.50379927  -0.00130540  0.66746454  1
  Te2-  Te125  1  0.51506610  0.33764483  -0.00421783  1
  Te2-  Te126  1  0.50511909  0.33647336  0.34195316  1
  Te2-  Te127  1  0.50323840  0.34426833  0.66054217  1
  Te2-  Te128  1  0.50921872  0.66958496  -0.00601523  1
  Te2-  Te129  1  0.50798978  0.66370516  0.34452523  1
  Te2-  Te130  1  0.50659494  0.65616471  0.65980349  1
  Te2-  Te131  1  0.84132794  -0.00622815  0.00381648  1
  Te2-  Te132  1  0.84223873  0.00094056  0.32830043  1
  Te2-  Te133  1  0.83383912  0.00649734  0.66905378  1
  Te2-  Te134  1  0.82035684  0.33828971  0.00218155  1
  Te2-  Te135  1  0.82958375  0.32874055  0.32987502  1
  Te2-  Te136  1  0.82778549  0.33592819  0.66744199  1
  Te2-  Te137  1  0.81830674  0.66864906  -0.00463873  1
  Te2-  Te138  1  0.83136169  0.66887715  0.34250158  1
  Te2-  Te139  1  0.82683694  0.65923218  0.66645124  1
  Te2-  Te140  1  0.00323133  0.16476552  -0.00606230  1
  Te2-  Te141  1  -0.00141015  0.16020731  0.33413366  1
  Te2-  Te142  1  -0.00561859  0.17915343  0.67098534  1
  Te2-  Te143  1  -0.00478009  0.50919296  -0.00258881  1
  Te2-  Te144  1  -0.01169241  0.49770462  0.34827278  1
  Te2-  Te145  1  -0.00162788  0.48847132  0.66056121  1
  Te2-  Te146  1  0.00062243  0.82335753  -0.00035705  1
  Te2-  Te147  1  -0.00045740  0.83878288  0.32656203  1
  Te2-  Te148  1  -0.00252990  0.83251219  0.66976616  1
  Te2-  Te149  1  0.32151094  0.17042795  0.00679934  1
  Te2-  Te150  1  0.32908243  0.16407748  0.33498292  1
  Te2-  Te151  1  0.33261473  0.16648091  0.66912963  1
  Te2-  Te152  1  0.33284607  0.49870369  0.00237789  1
  Te2-  Te153  1  0.35165603  0.50206425  0.32726079  1
  Te2-  Te154  1  0.32670298  0.50265649  0.66681690  1
  Te2-  Te155  1  0.33417097  0.83242417  0.00328599  1
  Te2-  Te156  1  0.34735377  0.83155253  0.33212584  1
  Te2-  Te157  1  0.33747426  0.83027010  0.66520626  1
  Te2-  Te158  1  0.66393087  0.16260809  0.00094855  1
  Te2-  Te159  1  0.67097763  0.15937152  0.33200102  1
  Te2-  Te160  1  0.66881345  0.16680445  0.67237376  1
  Te2-  Te161  1  0.66577613  0.51218941  -0.00200620  1
  Te2-  Te162  1  0.66438280  0.51019955  0.33100113  1
  Te2-  Te163  1  0.66707645  0.49895595  0.67548428  1
  Te2-  Te164  1  0.66543227  0.82820518  0.01080454  1
  Te2-  Te165  1  0.65960015  0.82690749  0.32929078  1
  Te2-  Te166  1  0.66538751  0.83904858  0.67019441  1
  Te2-  Te167  1  -0.00785670  0.00240206  0.15452226  1
  Te2-  Te168  1  0.00206796  0.00315414  0.51326571  1
  Te2-  Te169  1  -0.01363908  0.00084093  0.82715281  1
  Te2-  Te170  1  -0.00095366  0.32954613  0.16805546  1
  Te2-  Te171  1  -0.00187279  0.32424736  0.50556405  1
  Te2-  Te172  1  -0.00458313  0.33625456  0.82716837  1
  Te2-  Te173  1  0.00204703  0.66808768  0.16612896  1
  Te2-  Te174  1  0.00080457  0.66572834  0.49865851  1
  Te2-  Te175  1  -0.00251211  0.66362386  0.83487123  1
  Te2-  Te176  1  0.33106124  -0.00040691  0.17059996  1
  Te2-  Te177  1  0.33127717  -0.00659270  0.49538478  1
  Te2-  Te178  1  0.33410185  0.01214062  0.83357232  1
  Te2-  Te179  1  0.32883877  0.33710648  0.16558631  1
  Te2-  Te180  1  0.34555205  0.33512197  0.49122049  1
  Te2-  Te181  1  0.33264513  0.31771639  0.83612075  1
  Te2-  Te182  1  0.32859436  0.67000355  0.17320132  1
  Te2-  Te183  1  0.34324943  0.67501072  0.49486362  1
  Te2-  Te184  1  0.32983574  0.66801003  0.83370909  1
  Te2-  Te185  1  0.67836556  0.00554419  0.16968522  1
  Te2-  Te186  1  0.66330588  -0.00395233  0.50249259  1
  Te2-  Te187  1  0.67326604  0.00752419  0.83388376  1
  Te2-  Te188  1  0.66836068  0.33289052  0.17715115  1
  Te2-  Te189  1  0.66145602  0.34186099  0.50069680  1
  Te2-  Te190  1  0.66751508  0.32486677  0.82992380  1
  Te2-  Te191  1  0.66721495  0.66320056  0.17467298  1
  Te2-  Te192  1  0.66222778  0.66541509  0.50841156  1
  Te2-  Te193  1  0.66786412  0.67030951  0.82059710  1
  Pb2+  Pb194  1  0.83012210  0.83250580  0.67094523  1
  Pb2+  Pb195  1  0.00050951  0.49868488  0.17475205  1
  Pb2+  Pb196  1  0.17389806  0.82817489  0.33143476  1
  Pb2+  Pb197  1  -0.00104663  0.83193654  0.49546763  1
  Pb2+  Pb198  1  -0.00012333  0.65988842  0.66757422  1
  Pb2+  Pb199  1  0.49887267  0.66955362  0.17027959  1
  Pb2+  Pb200  1  -0.00703496  0.33788589  -0.00290390  1
  Pb2+  Pb201  1  0.32889931  0.00354242  -0.00031163  1
  Pb2+  Pb202  1  0.16789963  0.83610405  0.66694065  1
  Pb2+  Pb203  1  0.33210768  0.33313874  0.65965453  1
  Pb2+  Pb204  1  0.49917443  0.33192835  0.16841068  1
  Pb2+  Pb205  1  0.83186134  0.16329738  -0.00272768  1
  Pb2+  Pb206  1  0.16347303  0.32861596  0.82812228  1
  Pb2+  Pb207  1  0.83011714  -0.00714934  0.49538362  1
  Pb2+  Pb208  1  0.34242426  0.83769820  0.83264539  1
  Pb2+  Pb209  1  0.50073697  0.16857800  0.33442386  1
  Pb2+  Pb210  1  0.83361105  0.67119363  0.16911932  1
  Pb2+  Pb211  1  0.33412039  0.49494350  0.83266282  1
  Pb2+  Pb212  1  0.66660081  0.16866141  0.50180184  1
  Pb2+  Pb213  1  0.33614388  0.50166153  0.49658336  1
  Pb2+  Pb214  1  0.83220049  0.33856074  0.49833038  1
  Pb2+  Pb215  1  0.33068826  0.00088839  0.66508264  1
