# generated using pymatgen
data_In22Ag21Sn22Bi21(Te54Pb11)2
_symmetry_space_group_name_H-M   'P 1'
_cell_length_a   19.10619282
_cell_length_b   19.12723620
_cell_length_c   19.11120202
_cell_angle_alpha   90.00023433
_cell_angle_beta   89.98958175
_cell_angle_gamma   89.99953759
_symmetry_Int_Tables_number   1
_chemical_formula_structural   In22Ag21Sn22Bi21(Te54Pb11)2
_chemical_formula_sum   'In22 Ag21 Sn22 Bi21 Te108 Pb22'
_cell_volume   6984.16311480
_cell_formula_units_Z   1
loop_
 _symmetry_equiv_pos_site_id
 _symmetry_equiv_pos_as_xyz
  1  'x, y, z'
loop_
 _atom_type_symbol
 _atom_type_oxidation_number
  In3+  3.0
  Ag+  1.0
  Sn2+  2.0
  Bi3+  3.0
  Te2-  -2.0
  Pb2+  2.0
loop_
 _atom_site_type_symbol
 _atom_site_label
 _atom_site_symmetry_multiplicity
 _atom_site_fract_x
 _atom_site_fract_y
 _atom_site_fract_z
 _atom_site_occupancy
  In3+  In0  1  0.51032656  0.31640810  0.50041391  1
  In3+  In1  1  0.50648459  0.16982556  0.67737155  1
  In3+  In2  1  0.50386254  0.35003671  0.84422950  1
  In3+  In3  1  0.16842390  0.83241024  0.68197862  1
  In3+  In4  1  0.00496588  0.82981579  0.48966800  1
  In3+  In5  1  0.32639985  0.51128099  0.83038023  1
  In3+  In6  1  0.67009833  0.65781430  0.66065192  1
  In3+  In7  1  0.33813495  0.18852631  0.17867971  1
  In3+  In8  1  0.32841779  -0.00424798  0.66801338  1
  In3+  In9  1  0.00170159  0.17129855  0.49571787  1
  In3+  In10  1  -0.01509448  0.49818782  0.83456726  1
  In3+  In11  1  0.49973623  0.00653712  0.84369590  1
  In3+  In12  1  0.66297070  0.83856021  0.49237770  1
  In3+  In13  1  -0.00777897  -0.00515703  0.33101818  1
  In3+  In14  1  0.32891327  0.66626498  0.31555566  1
  In3+  In15  1  0.33675232  0.82961027  0.83627648  1
  In3+  In16  1  0.00542377  0.82660355  0.17213975  1
  In3+  In17  1  -0.02936513  0.33812424  0.66492713  1
  In3+  In18  1  0.49583490  0.66124106  0.49574071  1
  In3+  In19  1  0.16289727  -0.00520048  0.49462098  1
  In3+  In20  1  0.16574472  0.16958385  0.31991799  1
  In3+  In21  1  0.65940897  -0.00104120  0.68141513  1
  Ag+  Ag22  1  0.14505384  0.63675715  0.16459783  1
  Ag+  Ag23  1  0.68298452  0.47909628  0.80609724  1
  Ag+  Ag24  1  0.69673427  0.66443071  0.36202453  1
  Ag+  Ag25  1  0.52867321  0.19364163  0.32874695  1
  Ag+  Ag26  1  0.03067722  0.63707154  0.34145419  1
  Ag+  Ag27  1  0.30346711  0.65475235  0.65519046  1
  Ag+  Ag28  1  0.84342246  0.52310133  0.66323180  1
  Ag+  Ag29  1  0.83500480  0.16361632  0.01918034  1
  Ag+  Ag30  1  0.30766270  0.49516386  0.19451108  1
  Ag+  Ag31  1  0.14679008  -0.00283425  0.85991231  1
  Ag+  Ag32  1  0.14449175  0.81880686  0.32893161  1
  Ag+  Ag33  1  0.16989289  0.50911282  -0.02505067  1
  Ag+  Ag34  1  0.82805861  0.30553300  0.19448712  1
  Ag+  Ag35  1  0.66529558  0.31316140  0.31035087  1
  Ag+  Ag36  1  0.66737114  0.14295290  0.83498381  1
  Ag+  Ag37  1  0.66154851  0.35762592  0.68891910  1
  Ag+  Ag38  1  0.82181024  0.16104133  0.31738829  1
  Ag+  Ag39  1  0.85260192  0.64565040  0.17049957  1
  Ag+  Ag40  1  0.13829621  0.52592791  0.33829282  1
  Ag+  Ag41  1  0.66825994  0.01773840  0.33223405  1
  Ag+  Ag42  1  0.51417799  0.84644435  -0.02071319  1
  Sn2+  Sn43  1  -0.00192962  0.66686532  0.66078741  1
  Sn2+  Sn44  1  0.49651397  0.51164344  0.00045860  1
  Sn2+  Sn45  1  0.16031533  0.17404681  -0.00976506  1
  Sn2+  Sn46  1  0.83198903  -0.00278860  0.49212687  1
  Sn2+  Sn47  1  -0.00350842  0.17207405  0.16812567  1
  Sn2+  Sn48  1  0.33045860  0.50430973  0.50021441  1
  Sn2+  Sn49  1  0.83325525  0.66394800  0.47808551  1
  Sn2+  Sn50  1  0.66994065  0.00714469  0.01598196  1
  Sn2+  Sn51  1  0.00134467  0.66291682  0.01744428  1
  Sn2+  Sn52  1  0.66622728  0.16806222  0.16695131  1
  Sn2+  Sn53  1  0.83726995  0.83017638  0.66127739  1
  Sn2+  Sn54  1  0.34005082  0.34349945  0.33605742  1
  Sn2+  Sn55  1  0.66956885  0.49346250  0.49743317  1
  Sn2+  Sn56  1  0.82586944  0.49513508  0.33429758  1
  Sn2+  Sn57  1  0.00372702  0.50247468  0.16243289  1
  Sn2+  Sn58  1  0.82708212  0.82552853  0.33471472  1
  Sn2+  Sn59  1  0.66525594  0.82615479  0.83140834  1
  Sn2+  Sn60  1  0.17257378  0.66689371  0.48769276  1
  Sn2+  Sn61  1  0.83158116  0.00145798  0.16802049  1
  Sn2+  Sn62  1  0.67546384  0.50675912  0.16872679  1
  Sn2+  Sn63  1  0.16397258  0.67115384  0.84304090  1
  Sn2+  Sn64  1  0.33197605  0.00364850  -0.00097323  1
  Bi3+  Bi65  1  0.00207329  0.00046980  0.66304159  1
  Bi3+  Bi66  1  0.66720765  0.66584255  0.00205128  1
  Bi3+  Bi67  1  0.50024097  0.66446389  0.16600982  1
  Bi3+  Bi68  1  0.82970234  0.33233522  0.83034041  1
  Bi3+  Bi69  1  0.00158519  0.83098255  0.83160813  1
  Bi3+  Bi70  1  0.17150958  0.16347847  0.66760870  1
  Bi3+  Bi71  1  0.33082236  0.66534697  -0.00274397  1
  Bi3+  Bi72  1  0.83260960  0.16327057  0.66217193  1
  Bi3+  Bi73  1  0.66799363  0.83452066  0.17008070  1
  Bi3+  Bi74  1  0.49764453  0.83267382  0.33152921  1
  Bi3+  Bi75  1  0.16850772  0.00197747  0.17132303  1
  Bi3+  Bi76  1  0.67197599  0.33278087  0.00119060  1
  Bi3+  Bi77  1  0.33850570  0.16216034  0.83476585  1
  Bi3+  Bi78  1  -0.00736512  0.33305721  0.33293833  1
  Bi3+  Bi79  1  -0.00143520  0.33461639  0.00003183  1
  Bi3+  Bi80  1  0.50090506  0.66856962  0.83421906  1
  Bi3+  Bi81  1  0.82735011  0.33530258  0.50013091  1
  Bi3+  Bi82  1  0.50153638  -0.00159350  0.49419869  1
  Bi3+  Bi83  1  0.50663302  0.50311683  0.33211665  1
  Bi3+  Bi84  1  0.49891435  -0.00179714  0.16986905  1
  Bi3+  Bi85  1  0.15758004  0.33417270  0.16789959  1
  Te2-  Te86  1  0.17075449  0.16955065  0.15949375  1
  Te2-  Te87  1  0.16355242  0.16059310  0.50629684  1
  Te2-  Te88  1  0.17097096  0.15288798  0.83020138  1
  Te2-  Te89  1  0.16053900  0.49236665  0.18587061  1
  Te2-  Te90  1  0.16766069  0.50364819  0.48894732  1
  Te2-  Te91  1  0.17260952  0.50195521  0.82755852  1
  Te2-  Te92  1  0.15984461  0.83987004  0.17807140  1
  Te2-  Te93  1  0.15872087  0.83657663  0.48066127  1
  Te2-  Te94  1  0.16685285  0.84537452  0.83517633  1
  Te2-  Te95  1  0.49458979  0.16442858  0.17949411  1
  Te2-  Te96  1  0.50254980  0.16385505  0.47753836  1
  Te2-  Te97  1  0.50924088  0.16055523  0.83107707  1
  Te2-  Te98  1  0.50458798  0.50215414  0.16700135  1
  Te2-  Te99  1  0.50169675  0.50843601  0.49829624  1
  Te2-  Te100  1  0.49787500  0.50392415  0.83535904  1
  Te2-  Te101  1  0.49944076  0.83137538  0.16803897  1
  Te2-  Te102  1  0.50110519  0.83077828  0.49822973  1
  Te2-  Te103  1  0.49593310  0.83521528  0.83343753  1
  Te2-  Te104  1  0.83447529  0.16152935  0.16689642  1
  Te2-  Te105  1  0.84083935  0.16928649  0.50126441  1
  Te2-  Te106  1  0.82136422  0.17007521  0.82342964  1
  Te2-  Te107  1  0.83529230  0.50065328  0.17034988  1
  Te2-  Te108  1  0.83059369  0.49992464  0.51275798  1
  Te2-  Te109  1  0.83065080  0.49786148  0.82516450  1
  Te2-  Te110  1  0.83362222  0.84297421  0.16989468  1
  Te2-  Te111  1  0.83612697  0.83053905  0.49667621  1
  Te2-  Te112  1  0.83590646  0.83394493  0.83241310  1
  Te2-  Te113  1  0.16658352  0.00260105  0.00529196  1
  Te2-  Te114  1  0.16364802  0.01210696  0.33486167  1
  Te2-  Te115  1  0.16583174  -0.00307413  0.65629859  1
  Te2-  Te116  1  0.16190361  0.33999409  0.00170113  1
  Te2-  Te117  1  0.16329138  0.32587008  0.33069220  1
  Te2-  Te118  1  0.17457981  0.32896808  0.66562528  1
  Te2-  Te119  1  0.16606649  0.65492821  0.01350585  1
  Te2-  Te120  1  0.17450640  0.67028321  0.32627918  1
  Te2-  Te121  1  0.15833350  0.67558568  0.66200435  1
  Te2-  Te122  1  0.50107519  -0.00651150  0.00583353  1
  Te2-  Te123  1  0.50252901  -0.00486782  0.33205858  1
  Te2-  Te124  1  0.50521432  0.00735577  0.65545668  1
  Te2-  Te125  1  0.50519668  0.33472189  0.00003409  1
  Te2-  Te126  1  0.51552730  0.34093968  0.33913632  1
  Te2-  Te127  1  0.51495485  0.32452080  0.66103106  1
  Te2-  Te128  1  0.49802629  0.67564439  -0.00150933  1
  Te2-  Te129  1  0.49095874  0.66681374  0.33250425  1
  Te2-  Te130  1  0.51310085  0.67096705  0.67238956  1
  Te2-  Te131  1  0.82868523  0.01182219  -0.00116799  1
  Te2-  Te132  1  0.84114871  0.01275268  0.33499610  1
  Te2-  Te133  1  0.83869907  -0.00000250  0.65940130  1
  Te2-  Te134  1  0.83565953  0.32474239  -0.00826395  1
  Te2-  Te135  1  0.82763140  0.32749701  0.34022024  1
  Te2-  Te136  1  0.81332134  0.32534746  0.66668740  1
  Te2-  Te137  1  0.83334921  0.66481073  0.01335485  1
  Te2-  Te138  1  0.83753589  0.66600131  0.32159719  1
  Te2-  Te139  1  0.82842790  0.66992495  0.66529746  1
  Te2-  Te140  1  -0.00827575  0.17052538  -0.00278268  1
  Te2-  Te141  1  0.00683104  0.17263571  0.33805725  1
  Te2-  Te142  1  0.00420119  0.16532935  0.66188080  1
  Te2-  Te143  1  0.00825313  0.49928128  -0.00647819  1
  Te2-  Te144  1  -0.00786441  0.49372962  0.33350873  1
  Te2-  Te145  1  -0.00741981  0.50075909  0.67441659  1
  Te2-  Te146  1  -0.00162384  0.83026748  -0.00244052  1
  Te2-  Te147  1  -0.00250249  0.84189423  0.33259571  1
  Te2-  Te148  1  0.00776258  0.83546557  0.66678341  1
  Te2-  Te149  1  0.33381614  0.16733624  -0.00384079  1
  Te2-  Te150  1  0.32502768  0.17213587  0.33010932  1
  Te2-  Te151  1  0.33866501  0.16397723  0.67030170  1
  Te2-  Te152  1  0.32519311  0.50404209  -0.01305768  1
  Te2-  Te153  1  0.34220499  0.50360194  0.33816002  1
  Te2-  Te154  1  0.33395678  0.50919091  0.67180580  1
  Te2-  Te155  1  0.33142974  0.83169713  -0.00621136  1
  Te2-  Te156  1  0.33435585  0.82484692  0.33385782  1
  Te2-  Te157  1  0.32421795  0.83057415  0.67502284  1
  Te2-  Te158  1  0.67133223  0.16708142  -0.00561485  1
  Te2-  Te159  1  0.67472396  0.16608137  0.32531557  1
  Te2-  Te160  1  0.66432401  0.15308669  0.67179741  1
  Te2-  Te161  1  0.66450863  0.50144016  0.00247659  1
  Te2-  Te162  1  0.66781426  0.51696752  0.33609726  1
  Te2-  Te163  1  0.67215764  0.50475376  0.66296842  1
  Te2-  Te164  1  0.66035037  0.83413165  0.00337052  1
  Te2-  Te165  1  0.66175695  0.81486055  0.33467865  1
  Te2-  Te166  1  0.67073722  0.84638105  0.66318869  1
  Te2-  Te167  1  0.00533539  0.00508216  0.17393912  1
  Te2-  Te168  1  0.00359392  -0.00325407  0.49908810  1
  Te2-  Te169  1  0.00158849  -0.00333016  0.82918488  1
  Te2-  Te170  1  -0.01129168  0.33299494  0.16588627  1
  Te2-  Te171  1  -0.00297319  0.33355840  0.50119574  1
  Te2-  Te172  1  0.00105967  0.33811526  0.83168160  1
  Te2-  Te173  1  0.00234415  0.67361463  0.17647135  1
  Te2-  Te174  1  0.00161615  0.67434976  0.48706898  1
  Te2-  Te175  1  0.00615101  0.66757782  0.83409796  1
  Te2-  Te176  1  0.33323521  -0.00187866  0.16571259  1
  Te2-  Te177  1  0.33520077  -0.00272713  0.50420960  1
  Te2-  Te178  1  0.34603498  -0.00023655  0.82955415  1
  Te2-  Te179  1  0.32995237  0.34457125  0.17075736  1
  Te2-  Te180  1  0.34416527  0.33595227  0.49706007  1
  Te2-  Te181  1  0.34676685  0.32536548  0.83225617  1
  Te2-  Te182  1  0.33585278  0.65107585  0.16063064  1
  Te2-  Te183  1  0.33936816  0.66395528  0.51254377  1
  Te2-  Te184  1  0.33270060  0.67038679  0.83159125  1
  Te2-  Te185  1  0.66180399  -0.00236850  0.18157188  1
  Te2-  Te186  1  0.66610229  -0.00720546  0.48053082  1
  Te2-  Te187  1  0.65724860  -0.00517767  0.83772502  1
  Te2-  Te188  1  0.67999261  0.33213843  0.16278140  1
  Te2-  Te189  1  0.66473172  0.33114706  0.49953046  1
  Te2-  Te190  1  0.65889087  0.33681309  0.83737601  1
  Te2-  Te191  1  0.66220063  0.67292814  0.16276273  1
  Te2-  Te192  1  0.66471411  0.67571448  0.50672347  1
  Te2-  Te193  1  0.66375117  0.66783541  0.83844985  1
  Pb2+  Pb194  1  0.16922328  0.33126289  0.49851517  1
  Pb2+  Pb195  1  0.83464307  0.66646559  0.83924044  1
  Pb2+  Pb196  1  0.34437595  0.33852366  0.66448017  1
  Pb2+  Pb197  1  -0.00658290  0.16960601  0.82928008  1
  Pb2+  Pb198  1  0.50605899  0.50117027  0.66639634  1
  Pb2+  Pb199  1  0.33484226  0.16577908  0.50031534  1
  Pb2+  Pb200  1  0.82756614  0.83542756  0.00425352  1
  Pb2+  Pb201  1  -0.00341188  0.50661454  0.50169184  1
  Pb2+  Pb202  1  -0.00341493  -0.00006519  0.00559792  1
  Pb2+  Pb203  1  0.33394050  0.33777089  0.00251689  1
  Pb2+  Pb204  1  0.50002657  0.83767251  0.66649379  1
  Pb2+  Pb205  1  0.83408654  0.49544529  0.00382734  1
  Pb2+  Pb206  1  0.16424698  0.50105984  0.65955356  1
  Pb2+  Pb207  1  0.50494608  0.16261135  0.00579546  1
  Pb2+  Pb208  1  0.16545509  0.82325977  0.00747165  1
  Pb2+  Pb209  1  0.83056086  0.00322452  0.82894916  1
  Pb2+  Pb210  1  0.17389249  0.32949568  0.83211086  1
  Pb2+  Pb211  1  0.50969058  0.33482111  0.17200588  1
  Pb2+  Pb212  1  0.67024318  0.16227265  0.49886260  1
  Pb2+  Pb213  1  0.33446707  -0.00140258  0.33382642  1
  Pb2+  Pb214  1  0.32610484  0.82926811  0.50229236  1
  Pb2+  Pb215  1  0.32975621  0.82497662  0.16571154  1
