# generated using pymatgen
data_In22Ag21Sn22Bi21(Te54Pb11)2
_symmetry_space_group_name_H-M   'P 1'
_cell_length_a   19.17313745
_cell_length_b   19.17905653
_cell_length_c   19.16052432
_cell_angle_alpha   89.98826616
_cell_angle_beta   90.01292583
_cell_angle_gamma   89.99129657
_symmetry_Int_Tables_number   1
_chemical_formula_structural   In22Ag21Sn22Bi21(Te54Pb11)2
_chemical_formula_sum   'In22 Ag21 Sn22 Bi21 Te108 Pb22'
_cell_volume   7045.75907561
_cell_formula_units_Z   1
loop_
 _symmetry_equiv_pos_site_id
 _symmetry_equiv_pos_as_xyz
  1  'x, y, z'
loop_
 _atom_type_symbol
 _atom_type_oxidation_number
  In3+  3.0
  Ag+  1.0
  Sn2+  2.0
  Bi3+  3.0
  Te2-  -2.0
  Pb2+  2.0
loop_
 _atom_site_type_symbol
 _atom_site_label
 _atom_site_symmetry_multiplicity
 _atom_site_fract_x
 _atom_site_fract_y
 _atom_site_fract_z
 _atom_site_occupancy
  In3+  In0  1  0.85284693  0.00939876  0.49190291  1
  In3+  In1  1  0.47355810  0.50035401  0.66783096  1
  In3+  In2  1  0.84698207  0.33312773  0.49259506  1
  In3+  In3  1  0.15813931  0.64804851  0.83264172  1
  In3+  In4  1  0.16880188  0.33162924  0.49914717  1
  In3+  In5  1  0.47874367  0.65736994  0.83182895  1
  In3+  In6  1  0.16775790  0.84175231  0.01435526  1
  In3+  In7  1  0.65860699  0.17776371  0.16949636  1
  In3+  In8  1  0.00562110  0.68015938  0.65941026  1
  In3+  In9  1  0.48503769  0.66903541  0.17842889  1
  In3+  In10  1  0.64601759  0.83102983  0.82148652  1
  In3+  In11  1  0.83367076  -0.00028280  0.81361711  1
  In3+  In12  1  0.48208016  0.15460418  0.66780792  1
  In3+  In13  1  0.01152126  0.16045050  0.18528961  1
  In3+  In14  1  0.65852360  0.67731660  0.32792006  1
  In3+  In15  1  0.83923961  0.84191977  0.35469872  1
  In3+  In16  1  0.00024314  0.01922159  -0.00377978  1
  In3+  In17  1  0.16812493  0.18978906  -0.00181708  1
  In3+  In18  1  0.01184273  0.33489799  0.68183212  1
  In3+  In19  1  0.84083720  0.33204665  0.16183770  1
  In3+  In20  1  0.17577361  -0.01550720  0.51979477  1
  In3+  In21  1  0.15406339  0.50164128  -0.01576443  1
  Ag+  Ag22  1  0.16556500  0.86092461  0.67841297  1
  Ag+  Ag23  1  0.85814394  0.47426150  0.00627163  1
  Ag+  Ag24  1  0.00555397  -0.02092964  0.64158398  1
  Ag+  Ag25  1  0.00560952  0.85902324  0.48578489  1
  Ag+  Ag26  1  0.33178646  0.14501006  0.52296794  1
  Ag+  Ag27  1  0.30229053  0.86876998  0.13998887  1
  Ag+  Ag28  1  0.00237727  0.50566120  0.51951122  1
  Ag+  Ag29  1  0.14355132  0.33615053  0.14565595  1
  Ag+  Ag30  1  0.46421174  0.80177219  0.67045599  1
  Ag+  Ag31  1  0.30248262  0.49737344  0.85614191  1
  Ag+  Ag32  1  0.83955146  0.69236118  0.19497984  1
  Ag+  Ag33  1  0.47379956  0.83487887  0.30463948  1
  Ag+  Ag34  1  0.84380942  0.18973656  0.31385145  1
  Ag+  Ag35  1  0.36159372  -0.03224813  0.67660808  1
  Ag+  Ag36  1  0.19195117  0.16415209  0.35628484  1
  Ag+  Ag37  1  0.47699622  0.01746275  0.13936981  1
  Ag+  Ag38  1  -0.00000055  0.48464440  0.81801247  1
  Ag+  Ag39  1  0.18609879  0.32191074  0.80766401  1
  Ag+  Ag40  1  0.49842677  0.31001934  0.14514981  1
  Ag+  Ag41  1  0.16250470  0.50996992  0.68093240  1
  Ag+  Ag42  1  0.02644005  0.31831526  0.02175970  1
  Sn2+  Sn43  1  0.68451250  0.50471592  0.83045397  1
  Sn2+  Sn44  1  0.67505769  -0.00403786  0.00766019  1
  Sn2+  Sn45  1  0.32985450  0.33634632  -0.00090160  1
  Sn2+  Sn46  1  0.17437224  0.00615869  0.16955499  1
  Sn2+  Sn47  1  0.82856685  0.00551476  0.17265330  1
  Sn2+  Sn48  1  0.16480241  -0.00065960  0.83139530  1
  Sn2+  Sn49  1  0.33460573  0.34016575  0.66541472  1
  Sn2+  Sn50  1  0.50449508  0.83760435  0.00348684  1
  Sn2+  Sn51  1  0.83817103  0.50160688  0.32690330  1
  Sn2+  Sn52  1  0.65786073  -0.00127397  0.32939264  1
  Sn2+  Sn53  1  0.49816777  0.16793864  0.00397363  1
  Sn2+  Sn54  1  0.32564292  0.66734319  0.66787792  1
  Sn2+  Sn55  1  0.16635470  0.48468230  0.33660678  1
  Sn2+  Sn56  1  0.85283628  0.49774595  0.67493616  1
  Sn2+  Sn57  1  0.00684438  0.00215249  0.32837880  1
  Sn2+  Sn58  1  -0.00034058  0.66415825  0.33700872  1
  Sn2+  Sn59  1  0.49936974  0.50230890  -0.00399297  1
  Sn2+  Sn60  1  0.15616739  0.64921680  0.16627696  1
  Sn2+  Sn61  1  0.49295304  0.33418892  0.49971524  1
  Sn2+  Sn62  1  0.16175380  0.16913796  0.66516295  1
  Sn2+  Sn63  1  0.50286536  0.15271455  0.33897118  1
  Sn2+  Sn64  1  0.84008609  0.65810147  0.49690524  1
  Bi3+  Bi65  1  0.33564774  0.49967665  0.16356913  1
  Bi3+  Bi66  1  0.83899548  0.83257239  -0.00341869  1
  Bi3+  Bi67  1  0.84185114  0.83245315  0.66731979  1
  Bi3+  Bi68  1  -0.00104846  0.66332641  -0.00012539  1
  Bi3+  Bi69  1  0.66278513  0.33180828  0.33449711  1
  Bi3+  Bi70  1  0.66903318  0.33748734  0.66765009  1
  Bi3+  Bi71  1  0.83978379  0.66677189  0.83361175  1
  Bi3+  Bi72  1  0.33054010  0.83325633  0.50380085  1
  Bi3+  Bi73  1  0.32905017  0.17399092  0.16579442  1
  Bi3+  Bi74  1  0.83288425  0.33542646  0.83186852  1
  Bi3+  Bi75  1  0.66956874  0.83310439  0.16420873  1
  Bi3+  Bi76  1  0.33353239  0.33373695  0.33064805  1
  Bi3+  Bi77  1  0.00232255  0.49992479  0.16838401  1
  Bi3+  Bi78  1  0.83166794  0.16760448  0.66294152  1
  Bi3+  Bi79  1  0.49839679  -0.00315325  0.49944590  1
  Bi3+  Bi80  1  0.66294490  0.33276965  0.00367196  1
  Bi3+  Bi81  1  0.00284240  0.83334278  0.83478827  1
  Bi3+  Bi82  1  0.32761223  0.49716875  0.49687035  1
  Bi3+  Bi83  1  0.00655103  0.17154795  0.50161158  1
  Bi3+  Bi84  1  -0.00079651  0.17246036  0.83100619  1
  Bi3+  Bi85  1  0.67045192  0.49955793  0.16534444  1
  Te2-  Te86  1  0.16325792  0.18025675  0.15381048  1
  Te2-  Te87  1  0.16897149  0.17330885  0.50136127  1
  Te2-  Te88  1  0.15995838  0.17892913  0.84091037  1
  Te2-  Te89  1  0.17129300  0.48755162  0.17117617  1
  Te2-  Te90  1  0.16134640  0.49023387  0.49386631  1
  Te2-  Te91  1  0.15535881  0.49410949  0.83067623  1
  Te2-  Te92  1  0.16545440  0.82784316  0.16700372  1
  Te2-  Te93  1  0.15640392  0.83450367  0.50591208  1
  Te2-  Te94  1  0.16137282  0.83597131  0.82603496  1
  Te2-  Te95  1  0.49958960  0.15901403  0.17018118  1
  Te2-  Te96  1  0.48455303  0.16152955  0.50764875  1
  Te2-  Te97  1  0.49752359  0.16894747  0.82801819  1
  Te2-  Te98  1  0.50198383  0.51592949  0.16627044  1
  Te2-  Te99  1  0.49462568  0.50365237  0.50550432  1
  Te2-  Te100  1  0.51045058  0.50799810  0.82575754  1
  Te2-  Te101  1  0.50914718  0.81933026  0.16213258  1
  Te2-  Te102  1  0.49415242  0.83619412  0.52280437  1
  Te2-  Te103  1  0.49521386  0.82529838  0.81699360  1
  Te2-  Te104  1  0.84105849  0.17040749  0.16910030  1
  Te2-  Te105  1  0.83587520  0.16722121  0.50136858  1
  Te2-  Te106  1  0.83544462  0.16451953  0.83079425  1
  Te2-  Te107  1  0.83230348  0.48750200  0.15635977  1
  Te2-  Te108  1  0.84829342  0.48899986  0.50018828  1
  Te2-  Te109  1  0.84555173  0.50036230  0.84309502  1
  Te2-  Te110  1  0.83191839  0.83662198  0.15967413  1
  Te2-  Te111  1  0.84866838  0.83427087  0.50630912  1
  Te2-  Te112  1  0.84050007  0.83521042  0.83112835  1
  Te2-  Te113  1  0.15956929  -0.00614071  0.00081429  1
  Te2-  Te114  1  0.16574731  0.01617081  0.32639292  1
  Te2-  Te115  1  0.15292041  0.00790033  0.66755391  1
  Te2-  Te116  1  0.16916975  0.34490198  0.00001076  1
  Te2-  Te117  1  0.17334631  0.31788101  0.33884718  1
  Te2-  Te118  1  0.16548295  0.33078241  0.66257834  1
  Te2-  Te119  1  0.16312159  0.65813936  -0.00291796  1
  Te2-  Te120  1  0.15928270  0.66586723  0.32983679  1
  Te2-  Te121  1  0.15720015  0.65656204  0.67460240  1
  Te2-  Te122  1  0.50096943  -0.00312199  -0.00237126  1
  Te2-  Te123  1  0.49993015  -0.01665396  0.33867434  1
  Te2-  Te124  1  0.50449921  0.00392800  0.66451825  1
  Te2-  Te125  1  0.50150714  0.32984135  -0.00125145  1
  Te2-  Te126  1  0.50129217  0.32980320  0.34075073  1
  Te2-  Te127  1  0.50667041  0.34640279  0.66384520  1
  Te2-  Te128  1  0.50253928  0.67127341  -0.01677698  1
  Te2-  Te129  1  0.50360782  0.68226578  0.33296657  1
  Te2-  Te130  1  0.50007062  0.65750323  0.67590242  1
  Te2-  Te131  1  0.84191713  -0.00476075  0.00608176  1
  Te2-  Te132  1  0.83326957  -0.00481718  0.33937936  1
  Te2-  Te133  1  0.84963477  0.00088003  0.65467569  1
  Te2-  Te134  1  0.82400295  0.33128231  -0.00222276  1
  Te2-  Te135  1  0.82551437  0.33324122  0.33387078  1
  Te2-  Te136  1  0.83041064  0.33114278  0.66757704  1
  Te2-  Te137  1  0.83705988  0.67053270  -0.00484384  1
  Te2-  Te138  1  0.83893325  0.66519486  0.33930307  1
  Te2-  Te139  1  0.84378881  0.66660674  0.66814588  1
  Te2-  Te140  1  0.00436791  0.17419085  -0.00488530  1
  Te2-  Te141  1  -0.01056760  0.16575789  0.33697971  1
  Te2-  Te142  1  -0.00667011  0.17562872  0.66694551  1
  Te2-  Te143  1  0.00224413  0.50041108  0.00827301  1
  Te2-  Te144  1  0.00080437  0.49799420  0.32765313  1
  Te2-  Te145  1  0.00874180  0.48731149  0.66675141  1
  Te2-  Te146  1  0.00607882  0.82782020  -0.00214102  1
  Te2-  Te147  1  -0.00569105  0.83438819  0.33944032  1
  Te2-  Te148  1  0.00590431  0.83429330  0.67256689  1
  Te2-  Te149  1  0.32986691  0.16824098  0.00175617  1
  Te2-  Te150  1  0.33836264  0.17079830  0.32675390  1
  Te2-  Te151  1  0.33178021  0.17830966  0.66516375  1
  Te2-  Te152  1  0.33933439  0.49888196  0.00196659  1
  Te2-  Te153  1  0.33607091  0.49981881  0.33071242  1
  Te2-  Te154  1  0.31817515  0.49904061  0.65736865  1
  Te2-  Te155  1  0.32999696  0.83425566  0.00054330  1
  Te2-  Te156  1  0.33117927  0.83649367  0.34264731  1
  Te2-  Te157  1  0.31559795  0.82766339  0.66398639  1
  Te2-  Te158  1  0.66233217  0.16560920  0.00850063  1
  Te2-  Te159  1  0.66931662  0.16831892  0.32511794  1
  Te2-  Te160  1  0.66897118  0.17159655  0.66649609  1
  Te2-  Te161  1  0.66021433  0.49617574  0.00200962  1
  Te2-  Te162  1  0.66960862  0.49773633  0.32930765  1
  Te2-  Te163  1  0.68102279  0.49847289  0.66661490  1
  Te2-  Te164  1  0.67223501  0.83466608  -0.00205731  1
  Te2-  Te165  1  0.68230748  0.83052035  0.33016091  1
  Te2-  Te166  1  0.67761691  0.83441283  0.66891850  1
  Te2-  Te167  1  0.00320297  0.00805515  0.16130262  1
  Te2-  Te168  1  0.01041072  0.00731717  0.49588023  1
  Te2-  Te169  1  -0.00170899  0.00446158  0.84140509  1
  Te2-  Te170  1  -0.00384637  0.33226845  0.16501666  1
  Te2-  Te171  1  -0.00024348  0.33212668  0.50020032  1
  Te2-  Te172  1  -0.00702976  0.33713520  0.83442547  1
  Te2-  Te173  1  -0.01140224  0.66204097  0.16548114  1
  Te2-  Te174  1  -0.00139288  0.65359539  0.50670127  1
  Te2-  Te175  1  0.00325714  0.66362713  0.83356865  1
  Te2-  Te176  1  0.33418312  0.00735936  0.16697018  1
  Te2-  Te177  1  0.32820768  -0.00221069  0.51888036  1
  Te2-  Te178  1  0.32728771  0.00068789  0.81956941  1
  Te2-  Te179  1  0.35023543  0.33597108  0.16719534  1
  Te2-  Te180  1  0.32819432  0.33654076  0.49534539  1
  Te2-  Te181  1  0.32746521  0.34886094  0.83407729  1
  Te2-  Te182  1  0.33008483  0.66443381  0.16615642  1
  Te2-  Te183  1  0.33151411  0.66397746  0.50197495  1
  Te2-  Te184  1  0.32512470  0.64682138  0.82926247  1
  Te2-  Te185  1  0.66493924  -0.00504820  0.16831536  1
  Te2-  Te186  1  0.66350703  0.00102317  0.49722097  1
  Te2-  Te187  1  0.67117379  -0.00732597  0.83613392  1
  Te2-  Te188  1  0.64929677  0.33447693  0.16876821  1
  Te2-  Te189  1  0.66445008  0.33296347  0.49998298  1
  Te2-  Te190  1  0.66862531  0.33465437  0.83539564  1
  Te2-  Te191  1  0.68815230  0.66355800  0.17553502  1
  Te2-  Te192  1  0.67115146  0.66752663  0.49348640  1
  Te2-  Te193  1  0.67807726  0.67336619  0.83448887  1
  Pb2+  Pb194  1  0.00539111  0.33216442  0.33286846  1
  Pb2+  Pb195  1  0.33319734  0.00363162  0.34479387  1
  Pb2+  Pb196  1  0.50217046  0.67250704  0.50525034  1
  Pb2+  Pb197  1  0.32725857  0.17349996  0.83040541  1
  Pb2+  Pb198  1  0.49292643  0.34190971  0.83174863  1
  Pb2+  Pb199  1  0.66814339  0.83562767  0.49833782  1
  Pb2+  Pb200  1  0.65712127  0.16667782  0.49479235  1
  Pb2+  Pb201  1  0.66897574  0.66535423  0.00652851  1
  Pb2+  Pb202  1  0.32654722  0.67065324  0.33229664  1
  Pb2+  Pb203  1  0.67249077  0.66534572  0.66851630  1
  Pb2+  Pb204  1  0.67977664  0.49894505  0.49945728  1
  Pb2+  Pb205  1  0.83439998  0.16515121  0.00424671  1
  Pb2+  Pb206  1  -0.00177134  0.83481794  0.17002586  1
  Pb2+  Pb207  1  0.66539320  0.16311535  0.83548695  1
  Pb2+  Pb208  1  0.50365633  0.50114826  0.33522235  1
  Pb2+  Pb209  1  0.32538586  0.82635688  0.83307751  1
  Pb2+  Pb210  1  0.16346992  0.66229567  0.50262763  1
  Pb2+  Pb211  1  0.33428810  0.66634397  -0.00009604  1
  Pb2+  Pb212  1  0.49740167  -0.00272493  0.83020068  1
  Pb2+  Pb213  1  0.32736359  0.00111554  -0.00892016  1
  Pb2+  Pb214  1  0.16453158  0.84296018  0.33945367  1
  Pb2+  Pb215  1  0.67764004  0.00205316  0.66545287  1
