# generated using pymatgen
data_In22Ag21Sn22Bi21(Te54Pb11)2
_symmetry_space_group_name_H-M   'P 1'
_cell_length_a   19.19459665
_cell_length_b   19.13062631
_cell_length_c   19.18177114
_cell_angle_alpha   89.98215263
_cell_angle_beta   89.99095812
_cell_angle_gamma   89.99518492
_symmetry_Int_Tables_number   1
_chemical_formula_structural   In22Ag21Sn22Bi21(Te54Pb11)2
_chemical_formula_sum   'In22 Ag21 Sn22 Bi21 Te108 Pb22'
_cell_volume   7043.63521038
_cell_formula_units_Z   1
loop_
 _symmetry_equiv_pos_site_id
 _symmetry_equiv_pos_as_xyz
  1  'x, y, z'
loop_
 _atom_type_symbol
 _atom_type_oxidation_number
  In3+  3.0
  Ag+  1.0
  Sn2+  2.0
  Bi3+  3.0
  Te2-  -2.0
  Pb2+  2.0
loop_
 _atom_site_type_symbol
 _atom_site_label
 _atom_site_symmetry_multiplicity
 _atom_site_fract_x
 _atom_site_fract_y
 _atom_site_fract_z
 _atom_site_occupancy
  In3+  In0  1  0.33912534  0.48061489  0.16872216  1
  In3+  In1  1  0.33778387  0.83721074  0.85688032  1
  In3+  In2  1  0.65034543  -0.00223046  0.33397178  1
  In3+  In3  1  0.00130587  0.00473787  0.33191062  1
  In3+  In4  1  -0.01108584  0.68319820  -0.00695247  1
  In3+  In5  1  0.68252971  0.65187007  0.00321350  1
  In3+  In6  1  0.51087799  0.32648385  0.83779340  1
  In3+  In7  1  0.16280185  0.49329970  0.33317733  1
  In3+  In8  1  0.16913692  -0.00360382  0.17883075  1
  In3+  In9  1  0.83303897  0.33864415  0.15340460  1
  In3+  In10  1  0.15955420  0.82698898  0.00411360  1
  In3+  In11  1  0.32741470  0.15924811  0.84665308  1
  In3+  In12  1  0.52006450  0.82926291  -0.00069399  1
  In3+  In13  1  0.16759327  0.33421728  0.48974826  1
  In3+  In14  1  0.70218225  0.35205816  0.33437835  1
  In3+  In15  1  0.68518943  0.83123195  0.82095121  1
  In3+  In16  1  0.51208980  0.33367058  0.16896440  1
  In3+  In17  1  0.34570803  0.83214496  0.17463737  1
  In3+  In18  1  -0.01228029  0.67062651  0.66264466  1
  In3+  In19  1  0.15272859  0.15686057  -0.00153277  1
  In3+  In20  1  0.00743851  0.67127338  0.35768020  1
  In3+  In21  1  0.52324193  0.83186158  0.35231524  1
  Ag+  Ag22  1  0.85442110  0.66344687  0.82432369  1
  Ag+  Ag23  1  -0.02969002  0.16240586  0.80656991  1
  Ag+  Ag24  1  0.52823680  0.02394853  0.82727412  1
  Ag+  Ag25  1  0.64508346  0.80906259  0.16961792  1
  Ag+  Ag26  1  0.80742560  0.66868989  0.47630237  1
  Ag+  Ag27  1  0.00025341  0.30855601  0.35459295  1
  Ag+  Ag28  1  0.69463709  0.51699180  0.17630217  1
  Ag+  Ag29  1  0.52739861  0.52802186  -0.01746253  1
  Ag+  Ag30  1  0.30809480  0.17146479  0.53066035  1
  Ag+  Ag31  1  0.81339091  0.50008375  -0.02619587  1
  Ag+  Ag32  1  0.14900357  0.69222555  0.47988523  1
  Ag+  Ag33  1  0.82783592  0.52611407  0.64583664  1
  Ag+  Ag34  1  0.64150759  0.83182856  0.52426513  1
  Ag+  Ag35  1  0.86259580  0.13763009  -0.03028297  1
  Ag+  Ag36  1  0.30685601  0.17889191  0.16274782  1
  Ag+  Ag37  1  -0.02663171  0.85783376  0.48382701  1
  Ag+  Ag38  1  0.69478653  0.00207835  0.63334604  1
  Ag+  Ag39  1  0.52463917  0.33185245  0.46957843  1
  Ag+  Ag40  1  0.16716088  0.82987533  0.36125645  1
  Ag+  Ag41  1  0.85688317  0.16562171  0.64170123  1
  Ag+  Ag42  1  0.19848128  0.17612878  0.63862586  1
  Sn2+  Sn43  1  0.67765830  0.67056444  0.66607079  1
  Sn2+  Sn44  1  0.83463118  0.00965240  0.16354740  1
  Sn2+  Sn45  1  0.33073655  0.33848347  0.66431549  1
  Sn2+  Sn46  1  0.82650370  0.82504421  -0.00113965  1
  Sn2+  Sn47  1  0.83300395  0.83578643  0.65106213  1
  Sn2+  Sn48  1  -0.00987113  0.48939285  0.83481121  1
  Sn2+  Sn49  1  0.83709241  0.50020346  0.33921548  1
  Sn2+  Sn50  1  -0.00084819  0.83206120  0.17893769  1
  Sn2+  Sn51  1  0.66738355  0.31833576  0.65971089  1
  Sn2+  Sn52  1  0.33372431  0.66633560  0.00145317  1
  Sn2+  Sn53  1  0.00008698  0.50074617  0.16546491  1
  Sn2+  Sn54  1  0.52210611  0.49799303  0.67268387  1
  Sn2+  Sn55  1  0.00006309  0.83891631  0.82530769  1
  Sn2+  Sn56  1  -0.00282876  0.16581366  0.50574760  1
  Sn2+  Sn57  1  0.33571178  -0.00070238  0.66286549  1
  Sn2+  Sn58  1  0.00013403  0.00224216  0.00225019  1
  Sn2+  Sn59  1  0.32759371  0.83852577  0.49066187  1
  Sn2+  Sn60  1  -0.00839133  0.16535188  0.17150743  1
  Sn2+  Sn61  1  0.49108292  0.16616537  0.34115105  1
  Sn2+  Sn62  1  0.66641907  0.16068678  0.50375318  1
  Sn2+  Sn63  1  0.83313308  0.34080274  0.50938501  1
  Sn2+  Sn64  1  0.49547991  0.49416594  0.33493604  1
  Bi3+  Bi65  1  0.66745195  0.00271599  0.00590592  1
  Bi3+  Bi66  1  0.50068114  0.17107986  0.66399524  1
  Bi3+  Bi67  1  0.16491732  0.66688934  0.83115064  1
  Bi3+  Bi68  1  0.50544816  0.16583142  0.00319016  1
  Bi3+  Bi69  1  -0.00156402  0.49774145  0.50207007  1
  Bi3+  Bi70  1  0.33099574  -0.00024608  0.33443836  1
  Bi3+  Bi71  1  0.66584805  0.16817689  0.16952069  1
  Bi3+  Bi72  1  -0.00300387  0.33497611  0.00091569  1
  Bi3+  Bi73  1  0.66430680  0.33447317  0.00581210  1
  Bi3+  Bi74  1  0.33223204  0.66758908  0.66421942  1
  Bi3+  Bi75  1  -0.00347110  0.33087137  0.66636424  1
  Bi3+  Bi76  1  0.16681914  0.33295076  0.83259389  1
  Bi3+  Bi77  1  0.33525993  0.49363570  0.49904215  1
  Bi3+  Bi78  1  0.33437529  0.33120845  -0.00294336  1
  Bi3+  Bi79  1  0.84337899  0.83102264  0.33040849  1
  Bi3+  Bi80  1  0.49615338  0.66719611  0.83361687  1
  Bi3+  Bi81  1  0.16608046  0.49933489  0.00434367  1
  Bi3+  Bi82  1  0.16773124  0.83552502  0.67259377  1
  Bi3+  Bi83  1  0.00213645  -0.00124181  0.66658551  1
  Bi3+  Bi84  1  0.16459031  0.00160332  0.83317928  1
  Bi3+  Bi85  1  0.33030821  0.67091003  0.33660657  1
  Te2-  Te86  1  0.16243485  0.15390646  0.15769608  1
  Te2-  Te87  1  0.16431776  0.17520485  0.49467325  1
  Te2-  Te88  1  0.17189386  0.16752377  0.84492008  1
  Te2-  Te89  1  0.16969338  0.50199451  0.16999408  1
  Te2-  Te90  1  0.16920862  0.49068723  0.49642295  1
  Te2-  Te91  1  0.16365891  0.49909560  0.83470367  1
  Te2-  Te92  1  0.15737253  0.84190240  0.15682196  1
  Te2-  Te93  1  0.16928239  0.83367239  0.51165603  1
  Te2-  Te94  1  0.16668650  0.83348399  0.83520646  1
  Te2-  Te95  1  0.50437051  0.17105939  0.16760757  1
  Te2-  Te96  1  0.50258022  0.18348247  0.50141695  1
  Te2-  Te97  1  0.49302701  0.16780123  0.83751618  1
  Te2-  Te98  1  0.49108943  0.48962424  0.16826930  1
  Te2-  Te99  1  0.49641685  0.48328164  0.50217371  1
  Te2-  Te100  1  0.50065844  0.50226832  0.84076969  1
  Te2-  Te101  1  0.49906310  0.83329960  0.15524788  1
  Te2-  Te102  1  0.49577815  0.83621180  0.50128481  1
  Te2-  Te103  1  0.49126659  0.82939608  0.84513377  1
  Te2-  Te104  1  0.82770744  0.17834933  0.16633614  1
  Te2-  Te105  1  0.82604145  0.16571458  0.49807275  1
  Te2-  Te106  1  0.82693729  0.16691808  0.83306055  1
  Te2-  Te107  1  0.83888408  0.49363462  0.17933032  1
  Te2-  Te108  1  0.83540216  0.51487603  0.49866194  1
  Te2-  Te109  1  0.83663545  0.51010649  0.82945144  1
  Te2-  Te110  1  0.84273788  0.83752343  0.16845073  1
  Te2-  Te111  1  0.83426467  0.81853284  0.49591578  1
  Te2-  Te112  1  0.83578242  0.81923901  0.83619135  1
  Te2-  Te113  1  0.16531849  -0.00100739  -0.00535281  1
  Te2-  Te114  1  0.16257167  -0.01417422  0.33218519  1
  Te2-  Te115  1  0.16670430  0.00711451  0.67088672  1
  Te2-  Te116  1  0.16813104  0.33336905  -0.00241404  1
  Te2-  Te117  1  0.15047031  0.33564351  0.33227093  1
  Te2-  Te118  1  0.16220613  0.32149363  0.67187009  1
  Te2-  Te119  1  0.16646085  0.66472000  -0.00460420  1
  Te2-  Te120  1  0.16531944  0.67751651  0.33545725  1
  Te2-  Te121  1  0.16783346  0.66575276  0.67162307  1
  Te2-  Te122  1  0.50399821  0.00038357  -0.01109408  1
  Te2-  Te123  1  0.49334694  -0.01233272  0.33137770  1
  Te2-  Te124  1  0.49223631  0.00591286  0.67996557  1
  Te2-  Te125  1  0.49962836  0.33031944  0.00042489  1
  Te2-  Te126  1  0.49335607  0.33519179  0.32579922  1
  Te2-  Te127  1  0.50626595  0.33547674  0.67894139  1
  Te2-  Te128  1  0.49204757  0.67083426  -0.00090083  1
  Te2-  Te129  1  0.49645906  0.67390001  0.33415268  1
  Te2-  Te130  1  0.49921608  0.66536195  0.67086704  1
  Te2-  Te131  1  0.83080317  -0.00171735  0.00348976  1
  Te2-  Te132  1  0.84758398  -0.00576566  0.33067517  1
  Te2-  Te133  1  0.83907942  0.00587451  0.66507347  1
  Te2-  Te134  1  0.82996827  0.34931230  0.00092381  1
  Te2-  Te135  1  0.85157996  0.33590357  0.34253015  1
  Te2-  Te136  1  0.83175363  0.31581931  0.66372946  1
  Te2-  Te137  1  0.83477440  0.65263852  -0.00663471  1
  Te2-  Te138  1  0.84083526  0.66912082  0.33233221  1
  Te2-  Te139  1  0.83422839  0.67001712  0.67717896  1
  Te2-  Te140  1  -0.00151716  0.17269628  0.00612725  1
  Te2-  Te141  1  -0.00067504  0.16090615  0.33457306  1
  Te2-  Te142  1  0.00283573  0.16576079  0.66312603  1
  Te2-  Te143  1  0.00602456  0.49456518  -0.00008315  1
  Te2-  Te144  1  0.00845492  0.51503934  0.33717676  1
  Te2-  Te145  1  -0.01235412  0.49198936  0.66518032  1
  Te2-  Te146  1  -0.00110415  0.83657544  -0.00686306  1
  Te2-  Te147  1  0.00822997  0.82671134  0.34362705  1
  Te2-  Te148  1  0.00353691  0.83239660  0.66561088  1
  Te2-  Te149  1  0.34075073  0.16934102  0.01037552  1
  Te2-  Te150  1  0.33305899  0.16058181  0.31445519  1
  Te2-  Te151  1  0.33966058  0.17081815  0.67476762  1
  Te2-  Te152  1  0.32780401  0.49634030  0.00957164  1
  Te2-  Te153  1  0.32801076  0.50436497  0.33330541  1
  Te2-  Te154  1  0.33234206  0.50302361  0.66357274  1
  Te2-  Te155  1  0.31906570  0.83207185  0.00984822  1
  Te2-  Te156  1  0.31979760  0.83409866  0.33066586  1
  Te2-  Te157  1  0.32887993  0.83097758  0.65931324  1
  Te2-  Te158  1  0.66769841  0.17055548  0.00429429  1
  Te2-  Te159  1  0.65722540  0.15420961  0.33414998  1
  Te2-  Te160  1  0.65968684  0.15016964  0.66302117  1
  Te2-  Te161  1  0.66638223  0.49753694  0.01598978  1
  Te2-  Te162  1  0.66349604  0.49995942  0.32429538  1
  Te2-  Te163  1  0.67860251  0.49763269  0.66603460  1
  Te2-  Te164  1  0.66934705  0.83864907  0.02056069  1
  Te2-  Te165  1  0.67221073  0.83672774  0.31704839  1
  Te2-  Te166  1  0.66896876  0.84620534  0.66889891  1
  Te2-  Te167  1  0.00348097  0.00206453  0.16673592  1
  Te2-  Te168  1  0.00078935  -0.00011030  0.50160658  1
  Te2-  Te169  1  0.00259331  0.01238902  0.83160341  1
  Te2-  Te170  1  -0.00897869  0.33324132  0.16283177  1
  Te2-  Te171  1  0.00148447  0.33524998  0.50242023  1
  Te2-  Te172  1  0.00380992  0.31870473  0.83443615  1
  Te2-  Te173  1  -0.00060032  0.66725323  0.14787424  1
  Te2-  Te174  1  0.00827036  0.65898616  0.51134251  1
  Te2-  Te175  1  0.00427869  0.66447544  0.83589621  1
  Te2-  Te176  1  0.32723109  -0.01060670  0.16953502  1
  Te2-  Te177  1  0.33543143  0.01706173  0.49598682  1
  Te2-  Te178  1  0.32659566  -0.00066437  0.83151271  1
  Te2-  Te179  1  0.32612085  0.32704960  0.16352653  1
  Te2-  Te180  1  0.32315140  0.32821797  0.50300045  1
  Te2-  Te181  1  0.33013101  0.33127004  0.83507129  1
  Te2-  Te182  1  0.33067928  0.67627651  0.17254951  1
  Te2-  Te183  1  0.32981023  0.66071982  0.49910045  1
  Te2-  Te184  1  0.33011730  0.67022327  0.83083446  1
  Te2-  Te185  1  0.66921488  0.00516268  0.17210958  1
  Te2-  Te186  1  0.66293026  -0.01608724  0.48990043  1
  Te2-  Te187  1  0.66764152  -0.01633580  0.84360182  1
  Te2-  Te188  1  0.67103961  0.33257507  0.17397658  1
  Te2-  Te189  1  0.67030277  0.33242375  0.49077563  1
  Te2-  Te190  1  0.66481470  0.33694305  0.83844299  1
  Te2-  Te191  1  0.66612532  0.66211592  0.15845177  1
  Te2-  Te192  1  0.66266458  0.67821129  0.50696770  1
  Te2-  Te193  1  0.65723967  0.67880339  0.84333980  1
  Pb2+  Pb194  1  0.49581563  0.65696787  0.50239495  1
  Pb2+  Pb195  1  0.16299439  0.67177807  0.16984835  1
  Pb2+  Pb196  1  0.83494811  0.66890748  0.16335213  1
  Pb2+  Pb197  1  0.32723499  0.32916407  0.33609451  1
  Pb2+  Pb198  1  0.49871031  0.83794107  0.67659095  1
  Pb2+  Pb199  1  0.82495536  0.16538971  0.33258536  1
  Pb2+  Pb200  1  0.33494079  0.00225895  -0.00115945  1
  Pb2+  Pb201  1  0.16839607  0.16076122  0.32912355  1
  Pb2+  Pb202  1  0.50122741  0.00285709  0.16014959  1
  Pb2+  Pb203  1  0.15730440  0.33164605  0.16521568  1
  Pb2+  Pb204  1  0.16945467  -0.00051513  0.50300487  1
  Pb2+  Pb205  1  0.83609731  0.33578888  0.83186024  1
  Pb2+  Pb206  1  0.67103246  0.50886611  0.83551225  1
  Pb2+  Pb207  1  0.83402951  -0.00134669  0.83239394  1
  Pb2+  Pb208  1  0.66686376  0.50247999  0.49874215  1
  Pb2+  Pb209  1  0.82967344  -0.00808518  0.49881760  1
  Pb2+  Pb210  1  0.66499187  0.16092140  0.83114185  1
  Pb2+  Pb211  1  0.33399918  0.49947362  0.83905791  1
  Pb2+  Pb212  1  0.49801522  0.65772359  0.16673983  1
  Pb2+  Pb213  1  0.15980621  0.49242072  0.66408315  1
  Pb2+  Pb214  1  0.67011681  0.67009295  0.33524480  1
  Pb2+  Pb215  1  0.50079808  0.01228628  0.50850008  1
