# generated using pymatgen
data_In22Ag21Sn22Bi21(Te54Pb11)2
_symmetry_space_group_name_H-M   'P 1'
_cell_length_a   19.12548800
_cell_length_b   19.11844454
_cell_length_c   19.13100730
_cell_angle_alpha   89.99940638
_cell_angle_beta   90.02856166
_cell_angle_gamma   90.01148194
_symmetry_Int_Tables_number   1
_chemical_formula_structural   In22Ag21Sn22Bi21(Te54Pb11)2
_chemical_formula_sum   'In22 Ag21 Sn22 Bi21 Te108 Pb22'
_cell_volume   6995.24380567
_cell_formula_units_Z   1
loop_
 _symmetry_equiv_pos_site_id
 _symmetry_equiv_pos_as_xyz
  1  'x, y, z'
loop_
 _atom_type_symbol
 _atom_type_oxidation_number
  In3+  3.0
  Ag+  1.0
  Sn2+  2.0
  Bi3+  3.0
  Te2-  -2.0
  Pb2+  2.0
loop_
 _atom_site_type_symbol
 _atom_site_label
 _atom_site_symmetry_multiplicity
 _atom_site_fract_x
 _atom_site_fract_y
 _atom_site_fract_z
 _atom_site_occupancy
  In3+  In0  1  0.16211919  0.83515101  0.66070138  1
  In3+  In1  1  0.15644938  0.51973825  0.66911009  1
  In3+  In2  1  -0.00157080  -0.00529727  -0.01009677  1
  In3+  In3  1  0.15689779  0.00058060  0.84302464  1
  In3+  In4  1  0.14711182  0.15963026  0.67408627  1
  In3+  In5  1  0.15678207  0.68537866  0.16560509  1
  In3+  In6  1  0.34731747  0.65881283  0.66902619  1
  In3+  In7  1  0.15504396  0.32988327  0.50515623  1
  In3+  In8  1  -0.00427712  0.69315614  0.66756039  1
  In3+  In9  1  0.63817296  0.00218110  0.00502371  1
  In3+  In10  1  0.67158497  0.00009469  0.68269850  1
  In3+  In11  1  -0.00739799  0.68092251  0.01193679  1
  In3+  In12  1  0.68183280  0.16064012  0.48365593  1
  In3+  In13  1  0.16668005  -0.00482029  0.17570433  1
  In3+  In14  1  0.16489189  0.67934057  0.83945436  1
  In3+  In15  1  0.00335978  0.50216308  0.50129730  1
  In3+  In16  1  0.66919148  0.51343003  0.49606657  1
  In3+  In17  1  0.51858751  0.67477705  0.17599749  1
  In3+  In18  1  0.33321188  0.49964819  0.50060616  1
  In3+  In19  1  0.34852001  0.16239521  0.83185023  1
  In3+  In20  1  0.82609443  0.51612174  0.66702975  1
  In3+  In21  1  0.50182742  0.33043013  0.48954757  1
  Ag+  Ag22  1  0.32869376  0.02284352  0.02463068  1
  Ag+  Ag23  1  0.82275390  0.66630320  0.84875505  1
  Ag+  Ag24  1  0.50282592  0.36059226  0.82147893  1
  Ag+  Ag25  1  -0.00213954  0.80374179  0.84794017  1
  Ag+  Ag26  1  0.35227306  -0.02992054  0.31477574  1
  Ag+  Ag27  1  0.16255347  0.81988485  0.33884660  1
  Ag+  Ag28  1  0.02013184  0.15722310  0.85230278  1
  Ag+  Ag29  1  0.01161577  0.00400560  0.65412865  1
  Ag+  Ag30  1  0.00375057  0.69272817  0.31126019  1
  Ag+  Ag31  1  -0.00577306  0.85004829  0.19000141  1
  Ag+  Ag32  1  0.00960830  0.14312482  0.48196751  1
  Ag+  Ag33  1  0.32992837  0.13996943  0.13299645  1
  Ag+  Ag34  1  0.64313500  0.33337368  0.36348757  1
  Ag+  Ag35  1  0.52306133  0.83722204  0.33305163  1
  Ag+  Ag36  1  0.82211573  0.66886203  0.19102060  1
  Ag+  Ag37  1  0.52405943  0.65868451  0.83626577  1
  Ag+  Ag38  1  0.64039737  0.68904868  0.32820485  1
  Ag+  Ag39  1  0.33405371  0.31730790  -0.02418806  1
  Ag+  Ag40  1  0.68739656  0.14223705  0.81023537  1
  Ag+  Ag41  1  0.64788223  0.66565310  0.69593603  1
  Ag+  Ag42  1  0.69308349  -0.01498774  0.33086571  1
  Sn2+  Sn43  1  0.32430359  0.67366677  0.32581852  1
  Sn2+  Sn44  1  0.66863779  0.66583947  -0.00016684  1
  Sn2+  Sn45  1  0.66722244  0.49772761  0.82833627  1
  Sn2+  Sn46  1  0.00564710  0.15494032  0.16984199  1
  Sn2+  Sn47  1  0.65753890  0.16279914  0.16698422  1
  Sn2+  Sn48  1  0.83143950  0.34229112  0.17167724  1
  Sn2+  Sn49  1  0.83793525  0.82541095  0.32728923  1
  Sn2+  Sn50  1  0.01382737  0.33237401  -0.00472825  1
  Sn2+  Sn51  1  0.33592141  0.50000969  0.83376228  1
  Sn2+  Sn52  1  0.33161892  0.49141698  0.16730557  1
  Sn2+  Sn53  1  0.49801254  0.83127946  0.66515447  1
  Sn2+  Sn54  1  0.66473666  0.33590018  0.66736846  1
  Sn2+  Sn55  1  0.84187827  -0.00480606  0.82969640  1
  Sn2+  Sn56  1  0.49690322  -0.00165869  0.17426486  1
  Sn2+  Sn57  1  0.83177257  0.00095741  0.49916326  1
  Sn2+  Sn58  1  0.00413869  -0.00156855  0.33339286  1
  Sn2+  Sn59  1  0.16433886  0.16434275  0.00276307  1
  Sn2+  Sn60  1  0.82625801  0.16683301  0.32688957  1
  Sn2+  Sn61  1  0.82918664  0.50679471  0.33375997  1
  Sn2+  Sn62  1  0.16606173  0.00160544  0.49681537  1
  Sn2+  Sn63  1  0.32651942  0.16724378  0.50286911  1
  Sn2+  Sn64  1  0.00060429  0.49860411  0.83110810  1
  Bi3+  Bi65  1  0.16745794  0.83689539  -0.00319291  1
  Bi3+  Bi66  1  0.83077993  0.16848185  0.66706318  1
  Bi3+  Bi67  1  0.83245293  0.33213494  0.49713467  1
  Bi3+  Bi68  1  0.16810307  0.32803050  0.16640074  1
  Bi3+  Bi69  1  0.33368496  0.33342652  0.33756419  1
  Bi3+  Bi70  1  0.33421482  0.33285619  0.66829775  1
  Bi3+  Bi71  1  0.16693244  0.16690170  0.33540401  1
  Bi3+  Bi72  1  0.32688023  -0.00133108  0.66411753  1
  Bi3+  Bi73  1  0.49907033  0.33293484  0.16229325  1
  Bi3+  Bi74  1  -0.00117119  0.32521176  0.67027107  1
  Bi3+  Bi75  1  -0.00030704  0.83616975  0.50016121  1
  Bi3+  Bi76  1  0.67390546  0.83768734  0.16769249  1
  Bi3+  Bi77  1  0.83088787  0.83653203  0.66635081  1
  Bi3+  Bi78  1  0.33260858  0.83115053  0.49850658  1
  Bi3+  Bi79  1  0.83669234  0.66525370  0.49550960  1
  Bi3+  Bi80  1  0.33229336  0.66660413  0.00082364  1
  Bi3+  Bi81  1  0.49855572  -0.00366643  0.83215813  1
  Bi3+  Bi82  1  0.66202666  0.33303313  -0.00254187  1
  Bi3+  Bi83  1  0.49949345  0.16199907  0.66929755  1
  Bi3+  Bi84  1  0.50088183  0.16657349  0.00086030  1
  Bi3+  Bi85  1  0.00097333  0.33311978  0.33030604  1
  Te2-  Te86  1  0.17662512  0.16602667  0.16969881  1
  Te2-  Te87  1  0.15522678  0.16861657  0.50080328  1
  Te2-  Te88  1  0.16590829  0.15911063  0.82921874  1
  Te2-  Te89  1  0.16776921  0.49032380  0.16560632  1
  Te2-  Te90  1  0.16887970  0.49457439  0.50808381  1
  Te2-  Te91  1  0.16761340  0.49621857  0.82154187  1
  Te2-  Te92  1  0.15154237  0.83920286  0.16395351  1
  Te2-  Te93  1  0.16450417  0.83314737  0.49987876  1
  Te2-  Te94  1  0.14995062  0.83510973  0.82987715  1
  Te2-  Te95  1  0.48546680  0.16624077  0.16340970  1
  Te2-  Te96  1  0.49979025  0.17420038  0.50608339  1
  Te2-  Te97  1  0.50376757  0.15865052  0.83497813  1
  Te2-  Te98  1  0.49930877  0.50266093  0.16873565  1
  Te2-  Te99  1  0.50360049  0.49274869  0.50278802  1
  Te2-  Te100  1  0.49740443  0.50989895  0.83100746  1
  Te2-  Te101  1  0.50378429  0.82958845  0.17674836  1
  Te2-  Te102  1  0.49561244  0.83189533  0.48981300  1
  Te2-  Te103  1  0.50036978  0.83573076  0.82827619  1
  Te2-  Te104  1  0.83449765  0.16927526  0.16869713  1
  Te2-  Te105  1  0.83775010  0.16973010  0.50276756  1
  Te2-  Te106  1  0.82977203  0.16592327  0.82734278  1
  Te2-  Te107  1  0.83453000  0.51419895  0.16920136  1
  Te2-  Te108  1  0.83204103  0.49746340  0.50627416  1
  Te2-  Te109  1  0.83380000  0.51336632  0.82150176  1
  Te2-  Te110  1  0.84363546  0.82410582  0.17011609  1
  Te2-  Te111  1  0.83667149  0.83220310  0.50090198  1
  Te2-  Te112  1  0.84682772  0.82405776  0.82532879  1
  Te2-  Te113  1  0.18052995  -0.00147027  -0.00456424  1
  Te2-  Te114  1  0.16494480  0.00682446  0.33008394  1
  Te2-  Te115  1  0.16305377  0.00196919  0.66874021  1
  Te2-  Te116  1  0.18189142  0.32937136  0.00282538  1
  Te2-  Te117  1  0.16748101  0.33377186  0.33761694  1
  Te2-  Te118  1  0.16805810  0.32087448  0.66227069  1
  Te2-  Te119  1  0.16139577  0.67045605  0.00158593  1
  Te2-  Te120  1  0.15609523  0.67190654  0.32303293  1
  Te2-  Te121  1  0.16076048  0.67281697  0.66645055  1
  Te2-  Te122  1  0.47969077  0.00166638  -0.00118497  1
  Te2-  Te123  1  0.49567125  -0.00917186  0.32909420  1
  Te2-  Te124  1  0.49831482  -0.00215124  0.66645060  1
  Te2-  Te125  1  0.49085330  0.32970341  0.00154441  1
  Te2-  Te126  1  0.49790708  0.33282911  0.32883700  1
  Te2-  Te127  1  0.49728222  0.32590707  0.67628325  1
  Te2-  Te128  1  0.49748053  0.66793463  -0.01085688  1
  Te2-  Te129  1  0.49255687  0.67660632  0.32790231  1
  Te2-  Te130  1  0.50093550  0.67067909  0.67793323  1
  Te2-  Te131  1  0.84377177  0.00069942  -0.00295411  1
  Te2-  Te132  1  0.83965045  0.00311342  0.33568914  1
  Te2-  Te133  1  0.83074897  0.00174100  0.66784633  1
  Te2-  Te134  1  0.82882998  0.33393997  0.00198806  1
  Te2-  Te135  1  0.83951374  0.33606401  0.33358153  1
  Te2-  Te136  1  0.83286701  0.33496016  0.66294018  1
  Te2-  Te137  1  0.84170471  0.66783152  -0.00585676  1
  Te2-  Te138  1  0.85422608  0.66616830  0.33598101  1
  Te2-  Te139  1  0.84075492  0.67033426  0.65871086  1
  Te2-  Te140  1  0.00509409  0.16495971  -0.00004546  1
  Te2-  Te141  1  0.00120551  0.17102081  0.33630877  1
  Te2-  Te142  1  -0.00449665  0.16255283  0.66881754  1
  Te2-  Te143  1  0.00173205  0.49282145  -0.00267228  1
  Te2-  Te144  1  -0.00052424  0.49401640  0.34342683  1
  Te2-  Te145  1  0.00572681  0.48678820  0.66169723  1
  Te2-  Te146  1  0.00582343  0.83687718  -0.00716185  1
  Te2-  Te147  1  0.01014051  0.83896015  0.33803489  1
  Te2-  Te148  1  0.00051167  0.85001666  0.66297878  1
  Te2-  Te149  1  0.33417315  0.16944765  -0.01150741  1
  Te2-  Te150  1  0.32906171  0.17072896  0.34432592  1
  Te2-  Te151  1  0.33384552  0.16546855  0.66936075  1
  Te2-  Te152  1  0.33123816  0.50601704  -0.00192284  1
  Te2-  Te153  1  0.33416049  0.50044066  0.34337976  1
  Te2-  Te154  1  0.32643590  0.49884540  0.66265693  1
  Te2-  Te155  1  0.32846437  0.82878466  0.00043992  1
  Te2-  Te156  1  0.31282519  0.83035159  0.33820191  1
  Te2-  Te157  1  0.32588341  0.83225138  0.66216849  1
  Te2-  Te158  1  0.66298020  0.16579030  0.00522940  1
  Te2-  Te159  1  0.66435046  0.18318525  0.33399728  1
  Te2-  Te160  1  0.66412682  0.16253400  0.66517247  1
  Te2-  Te161  1  0.66720578  0.49951854  -0.00136461  1
  Te2-  Te162  1  0.67037958  0.48288531  0.34358133  1
  Te2-  Te163  1  0.67086654  0.51517600  0.66140363  1
  Te2-  Te164  1  0.66730809  0.83779833  0.00621202  1
  Te2-  Te165  1  0.67284190  0.83572092  0.32918893  1
  Te2-  Te166  1  0.66795284  0.81994369  0.66473349  1
  Te2-  Te167  1  0.00858636  -0.00338462  0.15962595  1
  Te2-  Te168  1  -0.00054679  -0.00163075  0.50524737  1
  Te2-  Te169  1  0.00253713  0.00983406  0.83752665  1
  Te2-  Te170  1  0.00202700  0.32769846  0.16457693  1
  Te2-  Te171  1  -0.00326718  0.33865808  0.50167130  1
  Te2-  Te172  1  -0.00128527  0.32878927  0.83350250  1
  Te2-  Te173  1  0.00328538  0.66976506  0.16421092  1
  Te2-  Te174  1  0.00084397  0.66372039  0.50936659  1
  Te2-  Te175  1  0.01234695  0.65909535  0.82024272  1
  Te2-  Te176  1  0.32453876  -0.00229905  0.17286225  1
  Te2-  Te177  1  0.32899926  -0.00294615  0.50315535  1
  Te2-  Te178  1  0.33131319  0.00291890  0.82422397  1
  Te2-  Te179  1  0.33390788  0.33339558  0.17586284  1
  Te2-  Te180  1  0.33922120  0.33699413  0.50433620  1
  Te2-  Te181  1  0.34347814  0.33536025  0.82899013  1
  Te2-  Te182  1  0.32538442  0.66205361  0.16368588  1
  Te2-  Te183  1  0.33687004  0.66388775  0.50587965  1
  Te2-  Te184  1  0.32000140  0.66766542  0.82970351  1
  Te2-  Te185  1  0.66558339  0.00074461  0.17883218  1
  Te2-  Te186  1  0.66949653  0.00877784  0.48030694  1
  Te2-  Te187  1  0.66539360  0.00011868  0.84206618  1
  Te2-  Te188  1  0.66419625  0.33030226  0.15894555  1
  Te2-  Te189  1  0.66826306  0.32636685  0.50943441  1
  Te2-  Te190  1  0.65518728  0.34059631  0.83607004  1
  Te2-  Te191  1  0.67315698  0.67180654  0.17543194  1
  Te2-  Te192  1  0.67228235  0.66498559  0.47601648  1
  Te2-  Te193  1  0.67290782  0.66479756  0.84202289  1
  Pb2+  Pb194  1  0.82672025  0.33588834  0.83223685  1
  Pb2+  Pb195  1  0.49866235  0.49906678  -0.00009678  1
  Pb2+  Pb196  1  0.50446621  0.50787072  0.33529500  1
  Pb2+  Pb197  1  0.16863025  0.66508700  0.49511481  1
  Pb2+  Pb198  1  0.49877316  0.00211813  0.49555151  1
  Pb2+  Pb199  1  0.16643820  0.50556443  0.33309034  1
  Pb2+  Pb200  1  0.66904816  0.49926773  0.17263190  1
  Pb2+  Pb201  1  0.83573187  0.83458894  -0.00131359  1
  Pb2+  Pb202  1  0.66567920  0.83882120  0.49998897  1
  Pb2+  Pb203  1  0.32705256  0.83546498  0.83139558  1
  Pb2+  Pb204  1  0.83541659  -0.00222002  0.16724910  1
  Pb2+  Pb205  1  0.16981430  0.32755600  0.83284690  1
  Pb2+  Pb206  1  -0.00020974  0.50187473  0.17144474  1
  Pb2+  Pb207  1  0.32776743  0.83072969  0.17046803  1
  Pb2+  Pb208  1  0.83432170  0.16699498  -0.00337848  1
  Pb2+  Pb209  1  0.83512801  0.50108287  -0.00417110  1
  Pb2+  Pb210  1  0.16644454  0.49988011  -0.00655330  1
  Pb2+  Pb211  1  0.49620841  0.15900744  0.33256471  1
  Pb2+  Pb212  1  0.50742903  0.66635144  0.50437236  1
  Pb2+  Pb213  1  0.49856488  0.83131965  0.00365815  1
  Pb2+  Pb214  1  0.67424887  0.83367526  0.83167414  1
  Pb2+  Pb215  1  0.50126250  0.49508472  0.66803600  1
