# generated using pymatgen
data_In22Ag21Sn22Bi21(Te54Pb11)2
_symmetry_space_group_name_H-M   'P 1'
_cell_length_a   19.14321816
_cell_length_b   19.15583518
_cell_length_c   19.13679772
_cell_angle_alpha   89.99625745
_cell_angle_beta   89.98568140
_cell_angle_gamma   89.98578324
_symmetry_Int_Tables_number   1
_chemical_formula_structural   In22Ag21Sn22Bi21(Te54Pb11)2
_chemical_formula_sum   'In22 Ag21 Sn22 Bi21 Te108 Pb22'
_cell_volume   7017.54617287
_cell_formula_units_Z   1
loop_
 _symmetry_equiv_pos_site_id
 _symmetry_equiv_pos_as_xyz
  1  'x, y, z'
loop_
 _atom_type_symbol
 _atom_type_oxidation_number
  In3+  3.0
  Ag+  1.0
  Sn2+  2.0
  Bi3+  3.0
  Te2-  -2.0
  Pb2+  2.0
loop_
 _atom_site_type_symbol
 _atom_site_label
 _atom_site_symmetry_multiplicity
 _atom_site_fract_x
 _atom_site_fract_y
 _atom_site_fract_z
 _atom_site_occupancy
  In3+  In0  1  0.68943605  0.84478765  0.50328774  1
  In3+  In1  1  0.01840486  0.50893788  0.50499057  1
  In3+  In2  1  0.15960184  0.00288621  0.50498672  1
  In3+  In3  1  0.50596667  0.50961375  0.68171561  1
  In3+  In4  1  0.01534142  0.16292234  0.50673417  1
  In3+  In5  1  0.48769787  0.15990834  0.32857277  1
  In3+  In6  1  0.67049439  0.00622121  0.66257315  1
  In3+  In7  1  0.15923871  0.67972197  0.15309211  1
  In3+  In8  1  0.65910734  0.33066183  0.37110076  1
  In3+  In9  1  0.33442926  0.17055315  0.84472318  1
  In3+  In10  1  0.00082476  0.68818443  0.66573834  1
  In3+  In11  1  0.49881589  -0.02191275  0.15152966  1
  In3+  In12  1  0.84333137  -0.00160285  0.51398112  1
  In3+  In13  1  0.48199959  0.32772603  0.50072999  1
  In3+  In14  1  0.49477894  0.66044125  0.84083260  1
  In3+  In15  1  0.48875304  0.16802583  0.66167415  1
  In3+  In16  1  0.00666607  -0.01023590  0.31591505  1
  In3+  In17  1  0.32003377  0.32320922  0.33349722  1
  In3+  In18  1  0.66529901  0.15471837  0.50723080  1
  In3+  In19  1  0.49795073  0.17036766  0.01979423  1
  In3+  In20  1  0.00583092  0.31615435  0.66399276  1
  In3+  In21  1  0.01702126  0.81792286  0.16202131  1
  Ag+  Ag22  1  0.49737381  0.02565810  0.50180713  1
  Ag+  Ag23  1  0.64626698  0.02775259  -0.03056696  1
  Ag+  Ag24  1  0.15257297  0.30603812  0.49944606  1
  Ag+  Ag25  1  0.16227604  0.84038267  0.35139519  1
  Ag+  Ag26  1  0.00130444  0.64796955  -0.02864102  1
  Ag+  Ag27  1  0.35763505  0.65225315  0.02696396  1
  Ag+  Ag28  1  0.02225702  -0.01424719  0.65747150  1
  Ag+  Ag29  1  0.83425137  0.81353603  0.66959001  1
  Ag+  Ag30  1  0.46378290  0.65614987  0.13880574  1
  Ag+  Ag31  1  0.01944877  0.51998036  0.13785617  1
  Ag+  Ag32  1  0.18715666  0.16499771  0.67008413  1
  Ag+  Ag33  1  0.16546917  0.80798610  -0.02015640  1
  Ag+  Ag34  1  0.01619305  0.35660544  0.03636822  1
  Ag+  Ag35  1  0.85549354  0.16566256  0.64190686  1
  Ag+  Ag36  1  0.64815397  0.69083162  -0.01914230  1
  Ag+  Ag37  1  0.31916653  0.14116237  0.49861951  1
  Ag+  Ag38  1  0.47247444  0.52513899  -0.00259022  1
  Ag+  Ag39  1  0.33177382  0.18411937  0.14624638  1
  Ag+  Ag40  1  0.63915529  0.30842766  0.66819568  1
  Ag+  Ag41  1  0.00071031  0.85990593  0.52569938  1
  Ag+  Ag42  1  0.01184912  0.68684076  0.31636272  1
  Sn2+  Sn43  1  -0.00032941  0.16702936  0.82656993  1
  Sn2+  Sn44  1  0.83695240  0.48315943  0.66270647  1
  Sn2+  Sn45  1  0.32491012  0.84097298  0.50052003  1
  Sn2+  Sn46  1  0.16204073  0.32579166  0.82604701  1
  Sn2+  Sn47  1  0.83860700  0.33065295  0.50303512  1
  Sn2+  Sn48  1  0.32611541  0.66788836  0.66996678  1
  Sn2+  Sn49  1  0.83729670  0.67039998  0.50194115  1
  Sn2+  Sn50  1  0.33426011  0.00273445  0.66161278  1
  Sn2+  Sn51  1  0.83145346  0.33571171  0.16063723  1
  Sn2+  Sn52  1  0.32329544  0.32795258  0.66004954  1
  Sn2+  Sn53  1  0.66527488  0.16763799  0.82777379  1
  Sn2+  Sn54  1  0.16268686  0.00437117  0.83371067  1
  Sn2+  Sn55  1  0.16470325  0.33262772  0.17381504  1
  Sn2+  Sn56  1  0.83144966  0.66710109  0.16111141  1
  Sn2+  Sn57  1  0.33323506  -0.00486965  0.33685075  1
  Sn2+  Sn58  1  0.16136132  0.17480575  -0.00293083  1
  Sn2+  Sn59  1  0.16826033  0.66269909  0.84278368  1
  Sn2+  Sn60  1  0.82405923  -0.00210017  0.17247491  1
  Sn2+  Sn61  1  0.00516884  0.49895628  0.82682290  1
  Sn2+  Sn62  1  0.83351160  -0.00123681  0.82854594  1
  Sn2+  Sn63  1  0.16588022  0.50215243  0.00674767  1
  Sn2+  Sn64  1  0.16139444  0.51008699  0.33100585  1
  Bi3+  Bi65  1  0.66989709  0.83371038  0.83313301  1
  Bi3+  Bi66  1  0.33370166  0.83570981  0.16417304  1
  Bi3+  Bi67  1  0.50275872  0.49963909  0.32696696  1
  Bi3+  Bi68  1  0.67036447  0.50018792  0.83630992  1
  Bi3+  Bi69  1  0.33488750  0.83483558  0.83456443  1
  Bi3+  Bi70  1  0.83468125  0.49756831  0.33457606  1
  Bi3+  Bi71  1  0.66628842  0.50171030  0.50680555  1
  Bi3+  Bi72  1  0.82875407  0.16596513  0.33610195  1
  Bi3+  Bi73  1  0.66940630  0.82848673  0.16650149  1
  Bi3+  Bi74  1  0.66575002  0.00066926  0.33594044  1
  Bi3+  Bi75  1  -0.00091644  0.33113834  0.34128264  1
  Bi3+  Bi76  1  0.83348710  0.16624407  0.00161015  1
  Bi3+  Bi77  1  0.83580433  0.32775153  0.82941669  1
  Bi3+  Bi78  1  0.33825761  0.50340087  0.50209247  1
  Bi3+  Bi79  1  0.16367841  0.67242554  0.50147521  1
  Bi3+  Bi80  1  0.49659551  0.00001341  0.82306771  1
  Bi3+  Bi81  1  0.83600154  0.50065285  0.00287517  1
  Bi3+  Bi82  1  -0.00150896  0.00587296  -0.00757714  1
  Bi3+  Bi83  1  0.67521624  0.66566416  0.33312211  1
  Bi3+  Bi84  1  0.67220770  0.50112991  0.16484006  1
  Bi3+  Bi85  1  0.50134808  0.66075640  0.49910216  1
  Te2-  Te86  1  0.17913630  0.16834807  0.16788802  1
  Te2-  Te87  1  0.17047329  0.15819585  0.50506037  1
  Te2-  Te88  1  0.17625741  0.16830173  0.82208803  1
  Te2-  Te89  1  0.15946925  0.49115430  0.17285580  1
  Te2-  Te90  1  0.17357098  0.50544320  0.50001281  1
  Te2-  Te91  1  0.16613758  0.49580909  0.83273328  1
  Te2-  Te92  1  0.17001000  0.83355709  0.16707762  1
  Te2-  Te93  1  0.15171730  0.83658123  0.49966851  1
  Te2-  Te94  1  0.17270074  0.83449140  0.83428482  1
  Te2-  Te95  1  0.48530419  0.16753414  0.17416590  1
  Te2-  Te96  1  0.51119416  0.17545723  0.50099150  1
  Te2-  Te97  1  0.49439337  0.16103640  0.82163159  1
  Te2-  Te98  1  0.50344318  0.51180488  0.16270205  1
  Te2-  Te99  1  0.50378989  0.49468102  0.49427980  1
  Te2-  Te100  1  0.50516017  0.50276951  0.84806808  1
  Te2-  Te101  1  0.49922978  0.81942318  0.16644541  1
  Te2-  Te102  1  0.48754565  0.82123229  0.49707052  1
  Te2-  Te103  1  0.50286238  0.83552646  0.82989103  1
  Te2-  Te104  1  0.83126121  0.16578984  0.17017198  1
  Te2-  Te105  1  0.81869129  0.16360212  0.49716016  1
  Te2-  Te106  1  0.82705135  0.16602553  0.83842651  1
  Te2-  Te107  1  0.83745462  0.49872371  0.16905030  1
  Te2-  Te108  1  0.82757411  0.49919677  0.49788785  1
  Te2-  Te109  1  0.83370958  0.49414761  0.83326135  1
  Te2-  Te110  1  0.83044897  0.83713505  0.16982037  1
  Te2-  Te111  1  0.84720804  0.84153493  0.51125394  1
  Te2-  Te112  1  0.82990345  0.83476816  0.82511159  1
  Te2-  Te113  1  0.16290429  0.01251662  -0.00262162  1
  Te2-  Te114  1  0.16007356  -0.00790620  0.34448728  1
  Te2-  Te115  1  0.16934104  0.00901952  0.66053621  1
  Te2-  Te116  1  0.15839152  0.33135941  0.00047444  1
  Te2-  Te117  1  0.16531962  0.33390030  0.34744505  1
  Te2-  Te118  1  0.16409105  0.32004681  0.65429170  1
  Te2-  Te119  1  0.14947454  0.66351529  0.00127673  1
  Te2-  Te120  1  0.15713983  0.66795651  0.34120091  1
  Te2-  Te121  1  0.15929218  0.66485551  0.66743851  1
  Te2-  Te122  1  0.50170101  0.01096096  -0.00786565  1
  Te2-  Te123  1  0.50281545  0.00812009  0.34682710  1
  Te2-  Te124  1  0.50248562  0.00618676  0.65855418  1
  Te2-  Te125  1  0.49800369  0.32169025  -0.00208195  1
  Te2-  Te126  1  0.50693618  0.33521911  0.33780340  1
  Te2-  Te127  1  0.49294400  0.32553756  0.65894188  1
  Te2-  Te128  1  0.50282755  0.66911626  -0.00422652  1
  Te2-  Te129  1  0.50549271  0.66269354  0.33725400  1
  Te2-  Te130  1  0.49838552  0.66609594  0.66464652  1
  Te2-  Te131  1  0.83597933  0.00393123  0.00101337  1
  Te2-  Te132  1  0.83077314  0.00229663  0.34441881  1
  Te2-  Te133  1  0.82193753  0.01844515  0.66354420  1
  Te2-  Te134  1  0.84521814  0.33147439  -0.00525909  1
  Te2-  Te135  1  0.83073044  0.33126317  0.33387987  1
  Te2-  Te136  1  0.84447638  0.31847952  0.66829359  1
  Te2-  Te137  1  0.85257954  0.66446027  0.00190278  1
  Te2-  Te138  1  0.83904632  0.66262295  0.33534003  1
  Te2-  Te139  1  0.84478660  0.66388956  0.66310631  1
  Te2-  Te140  1  -0.00312433  0.16787261  -0.00382468  1
  Te2-  Te141  1  -0.00607718  0.16404181  0.34521018  1
  Te2-  Te142  1  0.00066134  0.16371222  0.66168919  1
  Te2-  Te143  1  -0.00171174  0.49544972  -0.00542514  1
  Te2-  Te144  1  -0.00450860  0.49236720  0.35095987  1
  Te2-  Te145  1  -0.00176634  0.48861189  0.65807485  1
  Te2-  Te146  1  0.01528919  0.84400344  0.00966287  1
  Te2-  Te147  1  0.00811962  0.83581931  0.31821021  1
  Te2-  Te148  1  -0.01117905  0.84107202  0.67244136  1
  Te2-  Te149  1  0.33512831  0.16609204  -0.00107328  1
  Te2-  Te150  1  0.33706275  0.16914403  0.35108596  1
  Te2-  Te151  1  0.33531859  0.16722760  0.64709660  1
  Te2-  Te152  1  0.32701723  0.50769319  0.00132973  1
  Te2-  Te153  1  0.33825585  0.49690994  0.33727298  1
  Te2-  Te154  1  0.34153598  0.49843095  0.66475501  1
  Te2-  Te155  1  0.32218396  0.82735344  -0.00113064  1
  Te2-  Te156  1  0.32053477  0.83516300  0.32977753  1
  Te2-  Te157  1  0.33430586  0.83302856  0.67121016  1
  Te2-  Te158  1  0.66780138  0.16758506  0.00158784  1
  Te2-  Te159  1  0.66546024  0.16699169  0.33832145  1
  Te2-  Te160  1  0.66014261  0.16222273  0.66498220  1
  Te2-  Te161  1  0.67567944  0.50313718  0.00115280  1
  Te2-  Te162  1  0.66915293  0.49800183  0.33224559  1
  Te2-  Te163  1  0.66737619  0.50314649  0.67109811  1
  Te2-  Te164  1  0.67062538  0.83345363  0.00111981  1
  Te2-  Te165  1  0.66881822  0.83256063  0.33592250  1
  Te2-  Te166  1  0.68119799  0.83807538  0.66581086  1
  Te2-  Te167  1  -0.00253882  0.00479685  0.16577119  1
  Te2-  Te168  1  -0.00170478  0.00742137  0.51157400  1
  Te2-  Te169  1  0.00116087  0.00465561  0.82799637  1
  Te2-  Te170  1  0.00231922  0.33443071  0.18040195  1
  Te2-  Te171  1  0.00384757  0.32517031  0.50421561  1
  Te2-  Te172  1  -0.00028238  0.33014544  0.82232451  1
  Te2-  Te173  1  0.00571257  0.66369583  0.17160322  1
  Te2-  Te174  1  0.00148462  0.66238060  0.51123793  1
  Te2-  Te175  1  0.00593547  0.66596721  0.82647493  1
  Te2-  Te176  1  0.34017351  -0.00371920  0.17120567  1
  Te2-  Te177  1  0.34555620  -0.00484011  0.49842944  1
  Te2-  Te178  1  0.33430445  0.00170206  0.82912621  1
  Te2-  Te179  1  0.33115377  0.32918135  0.17642913  1
  Te2-  Te180  1  0.33107955  0.34212154  0.49153599  1
  Te2-  Te181  1  0.33165601  0.32627469  0.83058048  1
  Te2-  Te182  1  0.31609446  0.66954593  0.16697617  1
  Te2-  Te183  1  0.33138607  0.66820701  0.50396292  1
  Te2-  Te184  1  0.33660623  0.67068141  0.82987009  1
  Te2-  Te185  1  0.65875029  -0.00617844  0.17339691  1
  Te2-  Te186  1  0.65047696  -0.00202350  0.49796775  1
  Te2-  Te187  1  0.66218216  -0.00353581  0.82825796  1
  Te2-  Te188  1  0.66920724  0.33656203  0.16061548  1
  Te2-  Te189  1  0.67270862  0.34193461  0.52249770  1
  Te2-  Te190  1  0.67023367  0.33657130  0.81770556  1
  Te2-  Te191  1  0.67079510  0.66590911  0.17187811  1
  Te2-  Te192  1  0.66722281  0.66681930  0.49705982  1
  Te2-  Te193  1  0.66449017  0.66711292  0.83529314  1
  Pb2+  Pb194  1  0.33369804  0.50027368  0.83341061  1
  Pb2+  Pb195  1  0.49536815  0.83973074  0.33377613  1
  Pb2+  Pb196  1  0.00539694  0.17100656  0.16653390  1
  Pb2+  Pb197  1  0.16718115  0.49142308  0.66634273  1
  Pb2+  Pb198  1  0.16879775  0.00133866  0.16788096  1
  Pb2+  Pb199  1  0.32890109  -0.00745159  -0.00011341  1
  Pb2+  Pb200  1  0.49763673  0.83823434  -0.00128427  1
  Pb2+  Pb201  1  0.50881128  0.83795092  0.65822871  1
  Pb2+  Pb202  1  0.65897269  0.16526256  0.17077924  1
  Pb2+  Pb203  1  0.16374685  0.83826226  0.66523023  1
  Pb2+  Pb204  1  0.32658188  0.66723183  0.33507572  1
  Pb2+  Pb205  1  0.67359871  0.33660688  -0.00920464  1
  Pb2+  Pb206  1  0.16587956  0.16439488  0.33414394  1
  Pb2+  Pb207  1  0.32937936  0.49680664  0.17023176  1
  Pb2+  Pb208  1  0.00267060  0.83587373  0.84201221  1
  Pb2+  Pb209  1  0.83557879  0.66371848  0.83481861  1
  Pb2+  Pb210  1  0.50344425  0.34138721  0.16679772  1
  Pb2+  Pb211  1  0.84112463  0.83259380  0.34067147  1
  Pb2+  Pb212  1  0.83922527  0.83421179  0.00093018  1
  Pb2+  Pb213  1  0.50204972  0.33066939  0.82984796  1
  Pb2+  Pb214  1  0.66935848  0.67020736  0.66695738  1
  Pb2+  Pb215  1  0.32640362  0.33566865  0.00068586  1
