# generated using pymatgen
data_In22Ag21Sn22Bi21(Te54Pb11)2
_symmetry_space_group_name_H-M   'P 1'
_cell_length_a   19.12902854
_cell_length_b   19.11025490
_cell_length_c   19.13500804
_cell_angle_alpha   89.99378243
_cell_angle_beta   89.99499271
_cell_angle_gamma   90.00635084
_symmetry_Int_Tables_number   1
_chemical_formula_structural   In22Ag21Sn22Bi21(Te54Pb11)2
_chemical_formula_sum   'In22 Ag21 Sn22 Bi21 Te108 Pb22'
_cell_volume   6995.00512842
_cell_formula_units_Z   1
loop_
 _symmetry_equiv_pos_site_id
 _symmetry_equiv_pos_as_xyz
  1  'x, y, z'
loop_
 _atom_type_symbol
 _atom_type_oxidation_number
  In3+  3.0
  Ag+  1.0
  Sn2+  2.0
  Bi3+  3.0
  Te2-  -2.0
  Pb2+  2.0
loop_
 _atom_site_type_symbol
 _atom_site_label
 _atom_site_symmetry_multiplicity
 _atom_site_fract_x
 _atom_site_fract_y
 _atom_site_fract_z
 _atom_site_occupancy
  In3+  In0  1  0.14320634  -0.00269297  0.83666081  1
  In3+  In1  1  0.33320797  0.16474060  0.49022041  1
  In3+  In2  1  0.48459827  0.66777689  0.16955618  1
  In3+  In3  1  0.66990169  0.17975050  0.84037616  1
  In3+  In4  1  0.65329991  0.83215279  0.50425602  1
  In3+  In5  1  0.16168275  0.32733123  0.85256061  1
  In3+  In6  1  0.01052054  0.32868123  0.67327134  1
  In3+  In7  1  0.83631785  0.82770312  0.33769777  1
  In3+  In8  1  0.83433038  0.66819659  0.15369394  1
  In3+  In9  1  0.83884959  0.16573962  0.69248627  1
  In3+  In10  1  0.00138909  0.51294901  0.82905135  1
  In3+  In11  1  0.01477896  0.83944648  0.83298037  1
  In3+  In12  1  0.50227140  0.32442171  0.83347975  1
  In3+  In13  1  0.00285184  0.83130178  0.48892079  1
  In3+  In14  1  0.66630042  0.66328203  0.33348256  1
  In3+  In15  1  0.16309475  0.00000437  0.17519427  1
  In3+  In16  1  -0.00114942  0.16590313  0.16755925  1
  In3+  In17  1  0.31890017  0.32818674  0.66664122  1
  In3+  In18  1  0.00446747  0.00285959  0.01745777  1
  In3+  In19  1  0.32063887  0.68043763  0.66901977  1
  In3+  In20  1  0.31110799  0.83673994  0.16190555  1
  In3+  In21  1  0.32810441  0.48385556  0.19502294  1
  Ag+  Ag22  1  0.85730468  0.66854407  0.85297693  1
  Ag+  Ag23  1  0.30737137  0.66249000  0.02459005  1
  Ag+  Ag24  1  0.64016422  0.19567141  0.13774453  1
  Ag+  Ag25  1  0.47249409  0.17356683  0.65314725  1
  Ag+  Ag26  1  0.31194583  0.51767269  0.50863269  1
  Ag+  Ag27  1  0.35328905  0.80947960  0.48163954  1
  Ag+  Ag28  1  0.49506649  0.14605503  0.30988462  1
  Ag+  Ag29  1  0.46628840  0.68399194  0.47559420  1
  Ag+  Ag30  1  0.85290829  0.16972214  -0.00330010  1
  Ag+  Ag31  1  0.30665259  0.85009715  0.79676833  1
  Ag+  Ag32  1  0.66917568  0.31107407  0.00371666  1
  Ag+  Ag33  1  0.02102112  0.16567524  0.85876154  1
  Ag+  Ag34  1  0.00094335  -0.01426591  0.33152082  1
  Ag+  Ag35  1  0.00594845  0.82608537  0.18546189  1
  Ag+  Ag36  1  0.02311389  0.53031820  0.52712914  1
  Ag+  Ag37  1  0.16707212  0.83097964  0.64826296  1
  Ag+  Ag38  1  0.15465514  0.16069441  0.00089199  1
  Ag+  Ag39  1  0.00241826  0.68740459  0.30489823  1
  Ag+  Ag40  1  0.18122643  -0.01982203  0.47422066  1
  Ag+  Ag41  1  0.16753098  0.30564719  0.15533158  1
  Ag+  Ag42  1  0.18587751  0.65379407  0.15504419  1
  Sn2+  Sn43  1  0.83954173  0.84426077  -0.00076195  1
  Sn2+  Sn44  1  0.16412131  0.33089860  0.48852040  1
  Sn2+  Sn45  1  0.66460254  0.49412276  0.17050269  1
  Sn2+  Sn46  1  0.66064562  0.00505358  0.67053998  1
  Sn2+  Sn47  1  0.85073989  0.83618517  0.67095444  1
  Sn2+  Sn48  1  0.32605581  -0.00227232  0.66531029  1
  Sn2+  Sn49  1  -0.00125884  0.66858238  0.66492008  1
  Sn2+  Sn50  1  0.32928864  0.17037835  0.16177089  1
  Sn2+  Sn51  1  0.66115755  0.66868495  0.66571643  1
  Sn2+  Sn52  1  0.16612792  0.67143387  0.49195327  1
  Sn2+  Sn53  1  0.84843639  0.32647651  0.15963171  1
  Sn2+  Sn54  1  0.67335043  0.00435791  0.00554602  1
  Sn2+  Sn55  1  0.83973180  0.33580028  0.83831263  1
  Sn2+  Sn56  1  0.49859857  0.33860259  0.50511777  1
  Sn2+  Sn57  1  0.00345902  0.66913731  0.00254824  1
  Sn2+  Sn58  1  0.16992438  0.49665847  0.00575212  1
  Sn2+  Sn59  1  0.67121943  0.49861713  0.84192612  1
  Sn2+  Sn60  1  0.66281473  0.32307775  0.32490146  1
  Sn2+  Sn61  1  0.17043116  0.83561277  0.00412000  1
  Sn2+  Sn62  1  0.83865755  -0.01005989  0.83295174  1
  Sn2+  Sn63  1  0.00483971  0.00129369  0.65653726  1
  Sn2+  Sn64  1  0.16404823  0.15661913  0.67087139  1
  Bi3+  Bi65  1  0.83515679  0.32850734  0.50088424  1
  Bi3+  Bi66  1  0.49956491  0.49689886  0.66521895  1
  Bi3+  Bi67  1  0.16263192  0.50211799  0.33473473  1
  Bi3+  Bi68  1  0.83417989  0.66717132  0.50079358  1
  Bi3+  Bi69  1  0.33092204  0.50254283  0.82703120  1
  Bi3+  Bi70  1  0.00473785  0.16687996  0.49624571  1
  Bi3+  Bi71  1  0.83756896  0.50516916  0.33453847  1
  Bi3+  Bi72  1  0.66740073  0.50383156  0.50280258  1
  Bi3+  Bi73  1  0.50176007  0.83179971  0.00357367  1
  Bi3+  Bi74  1  0.49452086  0.16737982  -0.00423809  1
  Bi3+  Bi75  1  0.83578721  0.00056134  0.16587390  1
  Bi3+  Bi76  1  0.67791282  0.83254659  0.16776014  1
  Bi3+  Bi77  1  0.84105392  0.00069629  0.50028790  1
  Bi3+  Bi78  1  0.50221837  0.66369922  0.83103142  1
  Bi3+  Bi79  1  0.50270699  0.50012258  0.33740564  1
  Bi3+  Bi80  1  0.50330092  -0.00142786  0.83281793  1
  Bi3+  Bi81  1  0.66713249  0.83168187  0.82837705  1
  Bi3+  Bi82  1  0.66625120  0.66935217  0.00079208  1
  Bi3+  Bi83  1  0.67471633  0.00034491  0.33717563  1
  Bi3+  Bi84  1  0.66533812  0.16591272  0.50152942  1
  Bi3+  Bi85  1  -0.00074729  0.33392534  0.33295549  1
  Te2-  Te86  1  0.16327977  0.15647795  0.15698957  1
  Te2-  Te87  1  0.16823526  0.16963028  0.50148033  1
  Te2-  Te88  1  0.16679489  0.17359186  0.83822376  1
  Te2-  Te89  1  0.17400863  0.50885153  0.16972478  1
  Te2-  Te90  1  0.16414887  0.49872322  0.49712974  1
  Te2-  Te91  1  0.16195743  0.49109748  0.83451579  1
  Te2-  Te92  1  0.15493386  0.84135377  0.16320275  1
  Te2-  Te93  1  0.15388948  0.83734344  0.50163975  1
  Te2-  Te94  1  0.16910777  0.83689371  0.84332542  1
  Te2-  Te95  1  0.49777997  0.16734348  0.16284645  1
  Te2-  Te96  1  0.50464866  0.17131559  0.51012609  1
  Te2-  Te97  1  0.50758117  0.16525491  0.83217459  1
  Te2-  Te98  1  0.49089013  0.50512502  0.17240464  1
  Te2-  Te99  1  0.50761416  0.50350651  0.50226161  1
  Te2-  Te100  1  0.49773767  0.49733357  0.82873142  1
  Te2-  Te101  1  0.51306042  0.82896504  0.16590477  1
  Te2-  Te102  1  0.49829962  0.82674416  0.50355532  1
  Te2-  Te103  1  0.50218014  0.83137823  0.83813840  1
  Te2-  Te104  1  0.84215373  0.16391609  0.15536176  1
  Te2-  Te105  1  0.83244393  0.16581651  0.49365665  1
  Te2-  Te106  1  0.82370207  0.16581847  0.84351034  1
  Te2-  Te107  1  0.83410274  0.50238730  0.17226145  1
  Te2-  Te108  1  0.83096125  0.49591167  0.49784875  1
  Te2-  Te109  1  0.84485190  0.50921886  0.83385635  1
  Te2-  Te110  1  0.83925803  0.83465514  0.16734375  1
  Te2-  Te111  1  0.84388607  0.83676704  0.50168999  1
  Te2-  Te112  1  0.82808526  0.82234773  0.83090382  1
  Te2-  Te113  1  0.15966105  0.00860702  -0.01057418  1
  Te2-  Te114  1  0.15407597  0.00173734  0.32977320  1
  Te2-  Te115  1  0.16444530  -0.00573400  0.68305641  1
  Te2-  Te116  1  0.16695943  0.32583466  0.00629033  1
  Te2-  Te117  1  0.16520366  0.33707017  0.32295829  1
  Te2-  Te118  1  0.16381028  0.33142959  0.65882975  1
  Te2-  Te119  1  0.16099332  0.66792262  0.00879250  1
  Te2-  Te120  1  0.15229755  0.66358875  0.32915030  1
  Te2-  Te121  1  0.16504898  0.67814467  0.66761850  1
  Te2-  Te122  1  0.49988360  -0.00196320  -0.00148637  1
  Te2-  Te123  1  0.50653200  0.00140294  0.33757609  1
  Te2-  Te124  1  0.49834630  0.01061256  0.67115511  1
  Te2-  Te125  1  0.50862089  0.33173690  -0.00718802  1
  Te2-  Te126  1  0.50265699  0.33878904  0.33424437  1
  Te2-  Te127  1  0.49845909  0.32722478  0.67650734  1
  Te2-  Te128  1  0.50405094  0.66949662  -0.00054895  1
  Te2-  Te129  1  0.50282832  0.66165790  0.33378205  1
  Te2-  Te130  1  0.50027442  0.66306062  0.66924462  1
  Te2-  Te131  1  0.83856972  0.01092014  0.00208899  1
  Te2-  Te132  1  0.84120673  -0.00301461  0.33372746  1
  Te2-  Te133  1  0.83607257  0.00502876  0.66280443  1
  Te2-  Te134  1  0.82535552  0.32320932  -0.00110597  1
  Te2-  Te135  1  0.83279771  0.33677769  0.33201936  1
  Te2-  Te136  1  0.83879806  0.32630372  0.66715858  1
  Te2-  Te137  1  0.83076660  0.66894725  -0.00178542  1
  Te2-  Te138  1  0.85135681  0.66853652  0.33895915  1
  Te2-  Te139  1  0.83409206  0.66987777  0.66100964  1
  Te2-  Te140  1  0.00302408  0.15922378  0.00718540  1
  Te2-  Te141  1  0.00095521  0.17147837  0.32564349  1
  Te2-  Te142  1  -0.00438823  0.17045506  0.65710123  1
  Te2-  Te143  1  0.00331024  0.49869968  -0.00458820  1
  Te2-  Te144  1  -0.00037556  0.49598627  0.33712892  1
  Te2-  Te145  1  0.00324562  0.49543159  0.66869447  1
  Te2-  Te146  1  -0.00241113  0.84548247  -0.01593815  1
  Te2-  Te147  1  -0.00633509  0.83637284  0.33439685  1
  Te2-  Te148  1  0.01133198  0.83675016  0.68209935  1
  Te2-  Te149  1  0.33455067  0.16605709  0.00120880  1
  Te2-  Te150  1  0.34608323  0.16622275  0.33549632  1
  Te2-  Te151  1  0.32741981  0.17097141  0.66911961  1
  Te2-  Te152  1  0.32744628  0.51295263  -0.01020313  1
  Te2-  Te153  1  0.33481563  0.50024236  0.35436456  1
  Te2-  Te154  1  0.33810121  0.49384908  0.65885497  1
  Te2-  Te155  1  0.33880677  0.81844388  0.01082584  1
  Te2-  Te156  1  0.33541205  0.83343514  0.33676307  1
  Te2-  Te157  1  0.32273465  0.83281382  0.65399816  1
  Te2-  Te158  1  0.65957060  0.16362171  -0.00430017  1
  Te2-  Te159  1  0.65551760  0.16250539  0.33773238  1
  Te2-  Te160  1  0.67984290  0.16351724  0.66746243  1
  Te2-  Te161  1  0.66605719  0.50729564  0.00219266  1
  Te2-  Te162  1  0.66949479  0.49848271  0.33656687  1
  Te2-  Te163  1  0.66484145  0.49874033  0.66828305  1
  Te2-  Te164  1  0.66918852  0.83447487  0.00097019  1
  Te2-  Te165  1  0.67583268  0.83326223  0.33394012  1
  Te2-  Te166  1  0.66688267  0.83621901  0.66465468  1
  Te2-  Te167  1  0.00031840  -0.01142885  0.16995635  1
  Te2-  Te168  1  0.00144552  0.00442506  0.49083270  1
  Te2-  Te169  1  -0.00624675  0.01709331  0.82857019  1
  Te2-  Te170  1  0.00956949  0.33126604  0.16759675  1
  Te2-  Te171  1  -0.00297369  0.32921833  0.49896535  1
  Te2-  Te172  1  0.00345036  0.31635730  0.82735261  1
  Te2-  Te173  1  -0.01155431  0.67785958  0.15909942  1
  Te2-  Te174  1  -0.00195994  0.67373078  0.50553331  1
  Te2-  Te175  1  0.00222959  0.66752928  0.83286038  1
  Te2-  Te176  1  0.32535031  -0.00505270  0.16605161  1
  Te2-  Te177  1  0.32180947  0.01082829  0.50398059  1
  Te2-  Te178  1  0.34117379  -0.00995215  0.83065752  1
  Te2-  Te179  1  0.32203843  0.33141596  0.16431057  1
  Te2-  Te180  1  0.33614454  0.31993229  0.51037205  1
  Te2-  Te181  1  0.32548831  0.33814591  0.82619310  1
  Te2-  Te182  1  0.33009508  0.68094408  0.16965562  1
  Te2-  Te183  1  0.32530351  0.66576257  0.50912960  1
  Te2-  Te184  1  0.33841170  0.66413724  0.82259998  1
  Te2-  Te185  1  0.67249086  -0.00209178  0.17334505  1
  Te2-  Te186  1  0.67237004  -0.00353497  0.49966399  1
  Te2-  Te187  1  0.66804864  -0.00635918  0.83497514  1
  Te2-  Te188  1  0.67278622  0.33590797  0.15986559  1
  Te2-  Te189  1  0.67107804  0.33291715  0.49886475  1
  Te2-  Te190  1  0.66939179  0.33720564  0.84273782  1
  Te2-  Te191  1  0.67696622  0.66842094  0.16768397  1
  Te2-  Te192  1  0.67269130  0.67002592  0.49759322  1
  Te2-  Te193  1  0.66583765  0.66625318  0.83402827  1
  Pb2+  Pb194  1  0.66555850  0.32898214  0.67027891  1
  Pb2+  Pb195  1  -0.00281434  0.32924183  -0.00264789  1
  Pb2+  Pb196  1  0.50520508  0.83307122  0.33328033  1
  Pb2+  Pb197  1  0.83437348  0.49480384  0.00192209  1
  Pb2+  Pb198  1  0.49170428  0.83557052  0.67065611  1
  Pb2+  Pb199  1  0.49363162  0.00384378  0.50438652  1
  Pb2+  Pb200  1  0.17136117  0.50500824  0.66609649  1
  Pb2+  Pb201  1  0.49934808  0.33541847  0.16465400  1
  Pb2+  Pb202  1  0.16688621  0.83185866  0.33498656  1
  Pb2+  Pb203  1  0.33189971  0.15851128  0.83331040  1
  Pb2+  Pb204  1  0.32700441  -0.01197221  -0.00478796  1
  Pb2+  Pb205  1  0.32376534  0.66606859  0.33589199  1
  Pb2+  Pb206  1  0.17090457  0.66597284  0.83856614  1
  Pb2+  Pb207  1  0.83583306  0.50066369  0.66702962  1
  Pb2+  Pb208  1  0.33458353  0.34030515  -0.00547569  1
  Pb2+  Pb209  1  0.49504018  0.50246315  -0.00114771  1
  Pb2+  Pb210  1  0.16981367  0.16877484  0.33158804  1
  Pb2+  Pb211  1  0.82688924  0.16808602  0.32226085  1
  Pb2+  Pb212  1  0.00448863  0.50787017  0.16948553  1
  Pb2+  Pb213  1  0.33409307  0.33288858  0.34117408  1
  Pb2+  Pb214  1  0.32831541  -0.00083156  0.33620854  1
  Pb2+  Pb215  1  0.49886004  -0.00239685  0.16764078  1
