# generated using pymatgen
data_In22Ag21Sn22Bi21(Te54Pb11)2
_symmetry_space_group_name_H-M   'P 1'
_cell_length_a   19.13112661
_cell_length_b   19.12308781
_cell_length_c   19.12589464
_cell_angle_alpha   89.98579384
_cell_angle_beta   89.99602210
_cell_angle_gamma   89.99566681
_symmetry_Int_Tables_number   1
_chemical_formula_structural   In22Ag21Sn22Bi21(Te54Pb11)2
_chemical_formula_sum   'In22 Ag21 Sn22 Bi21 Te108 Pb22'
_cell_volume   6997.13589227
_cell_formula_units_Z   1
loop_
 _symmetry_equiv_pos_site_id
 _symmetry_equiv_pos_as_xyz
  1  'x, y, z'
loop_
 _atom_type_symbol
 _atom_type_oxidation_number
  In3+  3.0
  Ag+  1.0
  Sn2+  2.0
  Bi3+  3.0
  Te2-  -2.0
  Pb2+  2.0
loop_
 _atom_site_type_symbol
 _atom_site_label
 _atom_site_symmetry_multiplicity
 _atom_site_fract_x
 _atom_site_fract_y
 _atom_site_fract_z
 _atom_site_occupancy
  In3+  In0  1  0.47553602  0.66946861  0.49990002  1
  In3+  In1  1  0.00485222  0.83269095  0.83278910  1
  In3+  In2  1  0.82913720  0.33746433  0.49444411  1
  In3+  In3  1  0.67085800  0.15957567  0.16544602  1
  In3+  In4  1  0.66325571  0.15076895  0.49807819  1
  In3+  In5  1  0.50158113  0.32893101  0.14572494  1
  In3+  In6  1  0.33724292  0.64312157  -0.02903265  1
  In3+  In7  1  0.49285666  0.50099007  0.30965079  1
  In3+  In8  1  0.33215566  0.00686098  0.30728073  1
  In3+  In9  1  0.69561301  0.67014976  0.33278585  1
  In3+  In10  1  0.83593199  0.34464523  0.84743519  1
  In3+  In11  1  0.17288314  -0.00891344  0.52994293  1
  In3+  In12  1  0.48302034  0.33617570  0.83649314  1
  In3+  In13  1  0.00751505  0.52284807  0.50269620  1
  In3+  In14  1  0.32031505  0.16740069  0.14874461  1
  In3+  In15  1  0.49967846  0.85087103  0.00288827  1
  In3+  In16  1  0.17563151  0.16028175  -0.00819550  1
  In3+  In17  1  0.16225530  0.81999582  0.68595032  1
  In3+  In18  1  0.83228309  0.67212453  0.82927805  1
  In3+  In19  1  0.66664716  0.16678566  0.85025812  1
  In3+  In20  1  0.31568249  0.16398762  0.49616633  1
  In3+  In21  1  0.66979951  0.33086822  0.33062865  1
  Ag+  Ag22  1  0.83588014  0.52358579  -0.01991978  1
  Ag+  Ag23  1  0.82164734  0.14396436  0.34619414  1
  Ag+  Ag24  1  0.32413432  -0.02492097  -0.00514951  1
  Ag+  Ag25  1  0.18477151  0.32219030  0.85155447  1
  Ag+  Ag26  1  0.00339893  0.68552735  0.31079390  1
  Ag+  Ag27  1  0.66439917  0.85829983  0.13532488  1
  Ag+  Ag28  1  0.20569503  0.86472401  0.02031832  1
  Ag+  Ag29  1  0.35966388  0.68931366  0.66416880  1
  Ag+  Ag30  1  0.02726828  -0.01553084  0.68188435  1
  Ag+  Ag31  1  0.00809831  0.64599937  0.67237221  1
  Ag+  Ag32  1  0.16968564  -0.02245325  0.83569878  1
  Ag+  Ag33  1  0.46345836  0.85380380  0.69046813  1
  Ag+  Ag34  1  0.16616479  0.64802931  0.53017906  1
  Ag+  Ag35  1  0.47800033  0.51158961  -0.00386106  1
  Ag+  Ag36  1  0.31258251  0.33871190  0.01348881  1
  Ag+  Ag37  1  0.83290679  0.48467756  0.68559128  1
  Ag+  Ag38  1  0.85600866  0.81361649  0.00440149  1
  Ag+  Ag39  1  0.68972197  -0.02543069  -0.00628350  1
  Ag+  Ag40  1  0.81307206  0.32936968  0.14923452  1
  Ag+  Ag41  1  0.32119237  0.51673953  0.81891431  1
  Ag+  Ag42  1  0.20156212  0.33343898  0.14140192  1
  Sn2+  Sn43  1  0.49913744  0.50391718  0.67548062  1
  Sn2+  Sn44  1  0.83198652  0.65454184  0.15913741  1
  Sn2+  Sn45  1  0.83341942  0.83435354  0.30826787  1
  Sn2+  Sn46  1  0.66010538  0.49330941  0.84118095  1
  Sn2+  Sn47  1  0.16976334  0.65746007  0.16845697  1
  Sn2+  Sn48  1  0.16481023  0.50157916  0.67338643  1
  Sn2+  Sn49  1  0.15574066  0.16812223  0.33131663  1
  Sn2+  Sn50  1  0.33038550  0.50507485  0.15517871  1
  Sn2+  Sn51  1  0.67269164  0.34079117  0.66597171  1
  Sn2+  Sn52  1  0.50504214  0.17619562  0.33304796  1
  Sn2+  Sn53  1  0.33536422  0.83231686  0.16600225  1
  Sn2+  Sn54  1  0.16332655  0.33135882  0.50186066  1
  Sn2+  Sn55  1  0.50406859  0.34144668  0.50860264  1
  Sn2+  Sn56  1  0.33697409  0.00003182  0.68127221  1
  Sn2+  Sn57  1  0.49324209  0.00210100  0.83477910  1
  Sn2+  Sn58  1  0.66710606  -0.00027958  0.67875248  1
  Sn2+  Sn59  1  0.83968994  0.00239600  0.50300941  1
  Sn2+  Sn60  1  0.49706454  0.16344473  0.00441352  1
  Sn2+  Sn61  1  0.33482201  0.16312175  0.83102605  1
  Sn2+  Sn62  1  0.00450043  -0.00231587  0.34562069  1
  Sn2+  Sn63  1  0.50003330  -0.00111213  0.16020204  1
  Sn2+  Sn64  1  0.67270226  0.66460275  0.66114990  1
  Bi3+  Bi65  1  0.66821390  0.82913048  0.50007712  1
  Bi3+  Bi66  1  0.00064897  0.33453194  0.66397533  1
  Bi3+  Bi67  1  0.83208382  0.00103935  0.16610477  1
  Bi3+  Bi68  1  0.66578956  0.83499439  0.82810426  1
  Bi3+  Bi69  1  0.66917636  0.49775999  0.16902549  1
  Bi3+  Bi70  1  -0.00268332  0.33564888  0.33683978  1
  Bi3+  Bi71  1  0.66925535  0.33661314  -0.00128102  1
  Bi3+  Bi72  1  0.66691248  0.50217130  0.50232069  1
  Bi3+  Bi73  1  -0.00116841  0.49965284  0.17192025  1
  Bi3+  Bi74  1  0.00223421  0.00201104  -0.00603817  1
  Bi3+  Bi75  1  -0.00419063  0.16611288  0.83178663  1
  Bi3+  Bi76  1  0.00143037  0.83650735  0.50659868  1
  Bi3+  Bi77  1  0.16491275  0.83657825  0.32307481  1
  Bi3+  Bi78  1  0.33038042  0.83572356  0.49873163  1
  Bi3+  Bi79  1  0.82956487  0.50170997  0.33467033  1
  Bi3+  Bi80  1  0.83041960  0.83483682  0.66910195  1
  Bi3+  Bi81  1  0.33429789  0.33124627  0.66772771  1
  Bi3+  Bi82  1  0.16389962  0.66126517  0.83803014  1
  Bi3+  Bi83  1  0.83430481  0.16287040  0.00167729  1
  Bi3+  Bi84  1  -0.00430752  0.16705559  0.49899873  1
  Bi3+  Bi85  1  0.16158886  0.50108402  0.00129212  1
  Te2-  Te86  1  0.17148245  0.18253079  0.16277155  1
  Te2-  Te87  1  0.16038755  0.15864265  0.50000496  1
  Te2-  Te88  1  0.16024466  0.17653208  0.83967547  1
  Te2-  Te89  1  0.16488521  0.48522775  0.16357045  1
  Te2-  Te90  1  0.16319241  0.50259675  0.50288020  1
  Te2-  Te91  1  0.17348330  0.49992437  0.83651836  1
  Te2-  Te92  1  0.16864328  0.83195596  0.16023185  1
  Te2-  Te93  1  0.16532493  0.84274186  0.48847918  1
  Te2-  Te94  1  0.16452289  0.82789212  0.84054289  1
  Te2-  Te95  1  0.51000648  0.17117327  0.17485760  1
  Te2-  Te96  1  0.51006248  0.17027722  0.49488676  1
  Te2-  Te97  1  0.50735418  0.17060476  0.83670917  1
  Te2-  Te98  1  0.50334001  0.49332165  0.15325069  1
  Te2-  Te99  1  0.50408247  0.50367182  0.50832680  1
  Te2-  Te100  1  0.50224218  0.49027112  0.84563211  1
  Te2-  Te101  1  0.51112279  0.83680817  0.16016078  1
  Te2-  Te102  1  0.49683139  0.82565739  0.50112862  1
  Te2-  Te103  1  0.50190257  0.83228535  0.82998280  1
  Te2-  Te104  1  0.82579929  0.17228047  0.16622343  1
  Te2-  Te105  1  0.83185752  0.16832696  0.49177244  1
  Te2-  Te106  1  0.82907244  0.16729815  0.83523951  1
  Te2-  Te107  1  0.83335099  0.49035542  0.17288915  1
  Te2-  Te108  1  0.82971901  0.49851655  0.49685136  1
  Te2-  Te109  1  0.83140649  0.49893391  0.83262989  1
  Te2-  Te110  1  0.81895887  0.83363088  0.15231981  1
  Te2-  Te111  1  0.83537396  0.83621081  0.50223799  1
  Te2-  Te112  1  0.82843036  0.83003283  0.83838098  1
  Te2-  Te113  1  0.16765543  0.00458212  -0.00958571  1
  Te2-  Te114  1  0.17098796  0.00194753  0.32590274  1
  Te2-  Te115  1  0.17273999  -0.00401958  0.68283136  1
  Te2-  Te116  1  0.16422839  0.33765122  -0.00268667  1
  Te2-  Te117  1  0.16444639  0.32909293  0.34162901  1
  Te2-  Te118  1  0.16603673  0.33803563  0.66374843  1
  Te2-  Te119  1  0.17915673  0.66264537  -0.00009396  1
  Te2-  Te120  1  0.15468544  0.67210120  0.32674515  1
  Te2-  Te121  1  0.15664943  0.66727485  0.67639195  1
  Te2-  Te122  1  0.48209953  0.00416502  -0.00453890  1
  Te2-  Te123  1  0.49268013  0.00120050  0.32816196  1
  Te2-  Te124  1  0.49842072  -0.00457651  0.66860678  1
  Te2-  Te125  1  0.50950383  0.33006478  -0.00777152  1
  Te2-  Te126  1  0.50901841  0.34241134  0.34057495  1
  Te2-  Te127  1  0.50062860  0.33599844  0.67684038  1
  Te2-  Te128  1  0.48910637  0.65817638  -0.00340945  1
  Te2-  Te129  1  0.49104233  0.65553484  0.34133478  1
  Te2-  Te130  1  0.50327026  0.66062106  0.65663222  1
  Te2-  Te131  1  0.83444661  0.00162531  0.00292609  1
  Te2-  Te132  1  0.83360236  -0.00221887  0.32944432  1
  Te2-  Te133  1  0.82683621  -0.00129571  0.66534217  1
  Te2-  Te134  1  0.83183471  0.32705831  0.00250020  1
  Te2-  Te135  1  0.82901126  0.33874529  0.33734291  1
  Te2-  Te136  1  0.83583030  0.33998810  0.65748794  1
  Te2-  Te137  1  0.83143015  0.66996763  -0.00021264  1
  Te2-  Te138  1  0.85050550  0.66695284  0.33105555  1
  Te2-  Te139  1  0.83664648  0.67418652  0.67353366  1
  Te2-  Te140  1  -0.00014087  0.16512587  -0.00299687  1
  Te2-  Te141  1  -0.00899566  0.16650074  0.33734805  1
  Te2-  Te142  1  -0.00111140  0.16844164  0.66548973  1
  Te2-  Te143  1  -0.00965118  0.50339511  0.00290058  1
  Te2-  Te144  1  -0.00403543  0.49961717  0.34102228  1
  Te2-  Te145  1  -0.01128543  0.49781031  0.65725152  1
  Te2-  Te146  1  0.00093316  0.84049781  -0.00847667  1
  Te2-  Te147  1  0.00093014  0.83247678  0.33793341  1
  Te2-  Te148  1  -0.00178998  0.84122543  0.67253067  1
  Te2-  Te149  1  0.33056630  0.18491721  -0.00006018  1
  Te2-  Te150  1  0.33159645  0.15859744  0.34219985  1
  Te2-  Te151  1  0.33395460  0.16635929  0.65986943  1
  Te2-  Te152  1  0.32989597  0.48928644  -0.00230474  1
  Te2-  Te153  1  0.33858862  0.49580204  0.33410189  1
  Te2-  Te154  1  0.33414617  0.49141885  0.67408541  1
  Te2-  Te155  1  0.34529784  0.82702587  0.00686141  1
  Te2-  Te156  1  0.33089186  0.84224966  0.33380869  1
  Te2-  Te157  1  0.32038923  0.83263209  0.66175467  1
  Te2-  Te158  1  0.66801563  0.17064889  0.00484700  1
  Te2-  Te159  1  0.67538744  0.17232316  0.33751789  1
  Te2-  Te160  1  0.66705473  0.16694660  0.65274177  1
  Te2-  Te161  1  0.68481099  0.49726585  0.00429172  1
  Te2-  Te162  1  0.66235401  0.50440382  0.33492298  1
  Te2-  Te163  1  0.67674338  0.50178482  0.66738175  1
  Te2-  Te164  1  0.65159724  0.83218685  -0.00952662  1
  Te2-  Te165  1  0.66826889  0.82818975  0.33821675  1
  Te2-  Te166  1  0.66620855  0.83243691  0.66430532  1
  Te2-  Te167  1  -0.00366742  0.00065775  0.16623791  1
  Te2-  Te168  1  0.00779310  0.00161474  0.50792497  1
  Te2-  Te169  1  0.00886035  0.00296409  0.83010829  1
  Te2-  Te170  1  -0.00360959  0.33820733  0.17635488  1
  Te2-  Te171  1  -0.00252259  0.33012895  0.49982000  1
  Te2-  Te172  1  -0.00821970  0.33125306  0.82750092  1
  Te2-  Te173  1  -0.00034385  0.66393186  0.16328268  1
  Te2-  Te174  1  0.01322890  0.67476592  0.51807978  1
  Te2-  Te175  1  -0.00324589  0.66993816  0.82441324  1
  Te2-  Te176  1  0.33365737  0.00828139  0.15155442  1
  Te2-  Te177  1  0.32797145  0.00181201  0.50807731  1
  Te2-  Te178  1  0.32387445  0.00433120  0.84364422  1
  Te2-  Te179  1  0.34784234  0.33264163  0.16180667  1
  Te2-  Te180  1  0.33446898  0.32422697  0.50266033  1
  Te2-  Te181  1  0.33032048  0.32366706  0.82896714  1
  Te2-  Te182  1  0.33078630  0.66439866  0.17288904  1
  Te2-  Te183  1  0.31935161  0.67082299  0.51429139  1
  Te2-  Te184  1  0.33247925  0.66465104  0.81727186  1
  Te2-  Te185  1  0.66799873  0.00404796  0.15576814  1
  Te2-  Te186  1  0.66682451  -0.00508052  0.49867415  1
  Te2-  Te187  1  0.66226970  0.00185579  0.84437094  1
  Te2-  Te188  1  0.66511605  0.33430428  0.16945100  1
  Te2-  Te189  1  0.66821199  0.34054527  0.49873033  1
  Te2-  Te190  1  0.67791371  0.32613690  0.83262940  1
  Te2-  Te191  1  0.66616140  0.66017383  0.17779481  1
  Te2-  Te192  1  0.67093110  0.66765364  0.49286341  1
  Te2-  Te193  1  0.67329578  0.66658085  0.83257847  1
  Pb2+  Pb194  1  0.00244249  0.50018338  0.82976913  1
  Pb2+  Pb195  1  0.33551284  0.49715392  0.50784273  1
  Pb2+  Pb196  1  0.00053535  0.33712471  0.00664162  1
  Pb2+  Pb197  1  0.83766143  -0.00264069  0.83315539  1
  Pb2+  Pb198  1  -0.00750999  0.83304990  0.16360528  1
  Pb2+  Pb199  1  0.49550651  -0.00097844  0.49731006  1
  Pb2+  Pb200  1  0.83158557  0.17353455  0.66271506  1
  Pb2+  Pb201  1  0.16489738  0.50032442  0.33240487  1
  Pb2+  Pb202  1  0.16457823  0.00525013  0.15879451  1
  Pb2+  Pb203  1  0.50052138  0.82699763  0.33231074  1
  Pb2+  Pb204  1  0.66101947  0.66406711  0.00475729  1
  Pb2+  Pb205  1  0.16674468  0.16892269  0.67282138  1
  Pb2+  Pb206  1  0.84215039  0.66736351  0.50569087  1
  Pb2+  Pb207  1  -0.00458983  0.17192421  0.16899104  1
  Pb2+  Pb208  1  0.00436809  0.67039680  -0.00580857  1
  Pb2+  Pb209  1  0.33959312  0.32749356  0.32989177  1
  Pb2+  Pb210  1  0.49765879  0.66538281  0.16656249  1
  Pb2+  Pb211  1  0.50512710  0.66117011  0.82761666  1
  Pb2+  Pb212  1  0.32131471  0.66845344  0.34200778  1
  Pb2+  Pb213  1  0.66138388  0.00100545  0.32700921  1
  Pb2+  Pb214  1  0.33477922  0.83468275  0.83644207  1
  Pb2+  Pb215  1  0.50198457  0.16610111  0.66783303  1
