# generated using pymatgen
data_In22Ag21Sn22Bi21(Te54Pb11)2
_symmetry_space_group_name_H-M   'P 1'
_cell_length_a   19.13301697
_cell_length_b   19.11711652
_cell_length_c   19.15157936
_cell_angle_alpha   90.00694240
_cell_angle_beta   89.99930375
_cell_angle_gamma   89.98965299
_symmetry_Int_Tables_number   1
_chemical_formula_structural   In22Ag21Sn22Bi21(Te54Pb11)2
_chemical_formula_sum   'In22 Ag21 Sn22 Bi21 Te108 Pb22'
_cell_volume   7005.03690964
_cell_formula_units_Z   1
loop_
 _symmetry_equiv_pos_site_id
 _symmetry_equiv_pos_as_xyz
  1  'x, y, z'
loop_
 _atom_type_symbol
 _atom_type_oxidation_number
  In3+  3.0
  Ag+  1.0
  Sn2+  2.0
  Bi3+  3.0
  Te2-  -2.0
  Pb2+  2.0
loop_
 _atom_site_type_symbol
 _atom_site_label
 _atom_site_symmetry_multiplicity
 _atom_site_fract_x
 _atom_site_fract_y
 _atom_site_fract_z
 _atom_site_occupancy
  In3+  In0  1  0.68280630  0.67992243  0.33359558  1
  In3+  In1  1  0.30387078  -0.00972195  0.32829046  1
  In3+  In2  1  0.33269274  -0.02403043  0.68524924  1
  In3+  In3  1  0.49903347  0.82214006  0.67145861  1
  In3+  In4  1  0.00343505  0.31591893  -0.01102315  1
  In3+  In5  1  0.83832534  0.17538814  0.68284798  1
  In3+  In6  1  0.84602375  0.33246191  0.50875397  1
  In3+  In7  1  0.17630178  0.35819085  0.50074033  1
  In3+  In8  1  0.33289697  0.52534805  0.15338118  1
  In3+  In9  1  0.67265586  0.50250555  0.83030084  1
  In3+  In10  1  0.83504249  0.51661041  0.67842317  1
  In3+  In11  1  -0.00246589  0.50954295  0.15960047  1
  In3+  In12  1  0.48413834  0.51005912  0.66652151  1
  In3+  In13  1  0.83774324  -0.01358479  0.83371339  1
  In3+  In14  1  0.83448662  0.35292869  0.14368918  1
  In3+  In15  1  0.16231153  -0.02767451  0.14804117  1
  In3+  In16  1  0.15868245  0.66722346  0.51797932  1
  In3+  In17  1  0.16831147  0.35189277  0.82697403  1
  In3+  In18  1  0.32310923  0.82946645  0.49770409  1
  In3+  In19  1  0.15362246  0.82894214  -0.01125408  1
  In3+  In20  1  0.17327737  0.50574459  0.32508758  1
  In3+  In21  1  0.83453604  0.50820954  0.00397627  1
  Ag+  Ag22  1  0.02212395  0.66177710  0.68926517  1
  Ag+  Ag23  1  0.81785707  0.33767584  0.83847147  1
  Ag+  Ag24  1  0.46974178  0.35987733  0.83429968  1
  Ag+  Ag25  1  0.80865424  0.66622051  0.13869553  1
  Ag+  Ag26  1  -0.00569341  0.01596050  -0.01581788  1
  Ag+  Ag27  1  0.67479246  0.66266999  0.03026033  1
  Ag+  Ag28  1  0.31212402  0.83145822  0.15003149  1
  Ag+  Ag29  1  0.31181807  0.52878966  0.49953433  1
  Ag+  Ag30  1  0.14071093  0.68326835  0.84326035  1
  Ag+  Ag31  1  0.65544947  0.80879331  0.51959980  1
  Ag+  Ag32  1  0.31455310  0.68221322  0.68530692  1
  Ag+  Ag33  1  0.16131811  0.66476936  0.14016986  1
  Ag+  Ag34  1  0.33806241  0.83036676  0.84954367  1
  Ag+  Ag35  1  0.18419097  0.49829093  0.67518508  1
  Ag+  Ag36  1  0.00185199  -0.02823955  0.30202619  1
  Ag+  Ag37  1  0.67239313  0.65837513  0.68691689  1
  Ag+  Ag38  1  -0.01596587  0.66600221  -0.01293905  1
  Ag+  Ag39  1  0.50124833  0.18977535  -0.02850337  1
  Ag+  Ag40  1  0.83361080  0.85197168  0.30938181  1
  Ag+  Ag41  1  0.53076747  0.01139226  0.83739889  1
  Ag+  Ag42  1  0.18138338  -0.02041103  0.84909212  1
  Sn2+  Sn43  1  0.16625763  0.82271400  0.67795322  1
  Sn2+  Sn44  1  0.00299960  0.16462806  0.83079995  1
  Sn2+  Sn45  1  -0.00391042  0.35314473  0.67217469  1
  Sn2+  Sn46  1  0.83467784  -0.00409820  0.49966545  1
  Sn2+  Sn47  1  0.83627255  0.50245747  0.33055732  1
  Sn2+  Sn48  1  0.00090445  0.82165888  0.16703695  1
  Sn2+  Sn49  1  0.67738159  -0.00467447  0.33309157  1
  Sn2+  Sn50  1  0.83378124  0.65898107  0.83301743  1
  Sn2+  Sn51  1  0.66347985  0.17383851  0.83787972  1
  Sn2+  Sn52  1  0.50107455  -0.00624795  0.49924999  1
  Sn2+  Sn53  1  0.16640118  0.16963450  0.67503003  1
  Sn2+  Sn54  1  0.33099887  0.66690953  0.33519238  1
  Sn2+  Sn55  1  0.83572346  0.83094454  0.00607960  1
  Sn2+  Sn56  1  0.66672776  -0.01118774  -0.00578189  1
  Sn2+  Sn57  1  0.49329528  0.32816500  0.14743786  1
  Sn2+  Sn58  1  0.66679069  0.34112153  0.67173158  1
  Sn2+  Sn59  1  0.33725425  -0.00353298  -0.00293588  1
  Sn2+  Sn60  1  -0.00038507  0.50159954  0.83776210  1
  Sn2+  Sn61  1  0.65983395  -0.00589359  0.66728041  1
  Sn2+  Sn62  1  0.67192394  0.33737061  0.33261065  1
  Sn2+  Sn63  1  0.51038118  0.84105676  0.33752271  1
  Sn2+  Sn64  1  0.49348594  -0.00022829  0.15361418  1
  Bi3+  Bi65  1  0.49518605  0.50135374  0.33897487  1
  Bi3+  Bi66  1  0.50221215  0.16445060  0.33532065  1
  Bi3+  Bi67  1  -0.00604247  0.83415954  0.50387972  1
  Bi3+  Bi68  1  0.66711146  0.83590459  0.16322087  1
  Bi3+  Bi69  1  0.33088511  0.33522894  0.66560738  1
  Bi3+  Bi70  1  0.50180900  0.33300046  0.51165383  1
  Bi3+  Bi71  1  0.33867606  0.67116577  -0.00634854  1
  Bi3+  Bi72  1  0.49833368  0.66926269  0.49807872  1
  Bi3+  Bi73  1  0.50101278  0.83284840  -0.00243489  1
  Bi3+  Bi74  1  -0.00113942  0.16488574  0.50380402  1
  Bi3+  Bi75  1  0.32928630  0.15921697  0.50074951  1
  Bi3+  Bi76  1  0.00187627  0.66617661  0.33585037  1
  Bi3+  Bi77  1  0.50425339  0.16174569  0.66915808  1
  Bi3+  Bi78  1  0.50180198  0.66850009  0.83000528  1
  Bi3+  Bi79  1  0.16845524  -0.00253788  0.50460379  1
  Bi3+  Bi80  1  0.66926111  0.16492768  0.50475103  1
  Bi3+  Bi81  1  -0.00415422  0.33644922  0.33409672  1
  Bi3+  Bi82  1  0.83305608  0.66657059  0.50000730  1
  Bi3+  Bi83  1  0.66714991  0.49836078  0.50178833  1
  Bi3+  Bi84  1  0.83165296  0.83706262  0.66487806  1
  Bi3+  Bi85  1  0.83349671  0.16318748  0.33310412  1
  Te2-  Te86  1  0.16664151  0.17207309  0.16665468  1
  Te2-  Te87  1  0.16496756  0.16116819  0.50534120  1
  Te2-  Te88  1  0.16382971  0.15768402  0.83158981  1
  Te2-  Te89  1  0.17764102  0.51290765  0.17024604  1
  Te2-  Te90  1  0.16559474  0.51028740  0.51122626  1
  Te2-  Te91  1  0.16611046  0.50477349  0.82425396  1
  Te2-  Te92  1  0.16688099  0.82216076  0.16943334  1
  Te2-  Te93  1  0.16294678  0.83186354  0.50463143  1
  Te2-  Te94  1  0.17439088  0.82908142  0.83428214  1
  Te2-  Te95  1  0.50009872  0.16830169  0.17401288  1
  Te2-  Te96  1  0.50089113  0.16689299  0.50187268  1
  Te2-  Te97  1  0.50321702  0.15501579  0.82809094  1
  Te2-  Te98  1  0.48953031  0.49758910  0.17470399  1
  Te2-  Te99  1  0.50419978  0.49709178  0.50333407  1
  Te2-  Te100  1  0.50542901  0.50228810  0.82561720  1
  Te2-  Te101  1  0.50451891  0.84052663  0.16742875  1
  Te2-  Te102  1  0.51070098  0.83329899  0.50204984  1
  Te2-  Te103  1  0.49140706  0.83135809  0.82666928  1
  Te2-  Te104  1  0.83448332  0.16429762  0.16806566  1
  Te2-  Te105  1  0.83300101  0.16604268  0.49908232  1
  Te2-  Te106  1  0.83416846  0.18480260  0.83197120  1
  Te2-  Te107  1  0.83664872  0.51440240  0.16582304  1
  Te2-  Te108  1  0.82883135  0.49822423  0.49785667  1
  Te2-  Te109  1  0.83196289  0.48910504  0.83089892  1
  Te2-  Te110  1  0.83175209  0.81733675  0.16391127  1
  Te2-  Te111  1  0.83109553  0.83288267  0.50402878  1
  Te2-  Te112  1  0.82970969  0.83094636  0.83137103  1
  Te2-  Te113  1  0.15985246  -0.01260979  -0.00539385  1
  Te2-  Te114  1  0.15063556  -0.00198464  0.33786512  1
  Te2-  Te115  1  0.17717383  -0.00471985  0.66587481  1
  Te2-  Te116  1  0.15654609  0.33465338  -0.00316009  1
  Te2-  Te117  1  0.16204757  0.34213106  0.33718280  1
  Te2-  Te118  1  0.16567322  0.34314739  0.66759350  1
  Te2-  Te119  1  0.17692652  0.67521011  -0.00989520  1
  Te2-  Te120  1  0.16727968  0.66022693  0.34871969  1
  Te2-  Te121  1  0.17060515  0.66239411  0.66874655  1
  Te2-  Te122  1  0.50470764  -0.00880098  -0.01198829  1
  Te2-  Te123  1  0.50953813  0.00272691  0.32963932  1
  Te2-  Te124  1  0.49312973  -0.00062547  0.67381430  1
  Te2-  Te125  1  0.50143790  0.33654475  -0.01483909  1
  Te2-  Te126  1  0.50417579  0.33325342  0.34150162  1
  Te2-  Te127  1  0.49698588  0.32983743  0.67602413  1
  Te2-  Te128  1  0.50258971  0.66750689  -0.00191250  1
  Te2-  Te129  1  0.49632807  0.66693111  0.33713578  1
  Te2-  Te130  1  0.51537209  0.66677354  0.66283375  1
  Te2-  Te131  1  0.84244979  -0.00478516  -0.00809550  1
  Te2-  Te132  1  0.84470319  -0.00124247  0.33012649  1
  Te2-  Te133  1  0.83330256  0.00057548  0.67518084  1
  Te2-  Te134  1  0.84596874  0.33849584  -0.00902176  1
  Te2-  Te135  1  0.83401663  0.33101368  0.33792709  1
  Te2-  Te136  1  0.83777221  0.33060253  0.66972452  1
  Te2-  Te137  1  0.83443991  0.66281601  -0.00575505  1
  Te2-  Te138  1  0.83708887  0.66266277  0.33784805  1
  Te2-  Te139  1  0.82242020  0.67079448  0.66201597  1
  Te2-  Te140  1  -0.00047963  0.16243817  0.00096321  1
  Te2-  Te141  1  -0.00370775  0.17221565  0.33985228  1
  Te2-  Te142  1  -0.00330073  0.17069847  0.66480607  1
  Te2-  Te143  1  -0.00640269  0.51486669  0.00626865  1
  Te2-  Te144  1  0.00538395  0.49935185  0.33172793  1
  Te2-  Te145  1  -0.01180868  0.51309952  0.66839525  1
  Te2-  Te146  1  0.00282967  0.81418834  0.00446530  1
  Te2-  Te147  1  -0.01239659  0.82955512  0.33860403  1
  Te2-  Te148  1  -0.00299858  0.81972597  0.66666723  1
  Te2-  Te149  1  0.34771913  0.15967591  -0.00279325  1
  Te2-  Te150  1  0.33671347  0.15650836  0.33781855  1
  Te2-  Te151  1  0.33532566  0.16922455  0.66181070  1
  Te2-  Te152  1  0.33343201  0.50228905  -0.00012232  1
  Te2-  Te153  1  0.33122106  0.50046067  0.34961266  1
  Te2-  Te154  1  0.33166222  0.49743384  0.65165931  1
  Te2-  Te155  1  0.33963675  0.83518090  0.00238637  1
  Te2-  Te156  1  0.33725808  0.83935512  0.34302361  1
  Te2-  Te157  1  0.33883701  0.82478071  0.65409955  1
  Te2-  Te158  1  0.65428853  0.16542913  -0.00432477  1
  Te2-  Te159  1  0.66893125  0.16637942  0.33929022  1
  Te2-  Te160  1  0.66991153  0.16597536  0.66611305  1
  Te2-  Te161  1  0.67850797  0.51241553  0.00023114  1
  Te2-  Te162  1  0.66151988  0.50049274  0.33725737  1
  Te2-  Te163  1  0.67841747  0.50723204  0.66397517  1
  Te2-  Te164  1  0.66649052  0.81716228  0.00185157  1
  Te2-  Te165  1  0.68121571  0.83503563  0.32865554  1
  Te2-  Te166  1  0.66594347  0.83578456  0.66375304  1
  Te2-  Te167  1  0.01143261  -0.00664747  0.15835935  1
  Te2-  Te168  1  0.00276832  -0.00036437  0.50384531  1
  Te2-  Te169  1  -0.00675192  -0.00068625  0.83647339  1
  Te2-  Te170  1  -0.00681189  0.34604167  0.16927525  1
  Te2-  Te171  1  0.00357470  0.32853810  0.50110315  1
  Te2-  Te172  1  0.01227931  0.33336667  0.83608987  1
  Te2-  Te173  1  0.01521208  0.66074151  0.17645024  1
  Te2-  Te174  1  -0.00149864  0.66966451  0.50180543  1
  Te2-  Te175  1  -0.00389771  0.66237994  0.83463487  1
  Te2-  Te176  1  0.32113600  -0.01602470  0.17005836  1
  Te2-  Te177  1  0.33281791  -0.00304676  0.49468437  1
  Te2-  Te178  1  0.32699441  -0.01642849  0.83452459  1
  Te2-  Te179  1  0.33560772  0.33041041  0.16655188  1
  Te2-  Te180  1  0.33701815  0.32488340  0.50279895  1
  Te2-  Te181  1  0.32465715  0.33251792  0.83023089  1
  Te2-  Te182  1  0.32502043  0.67793062  0.16457351  1
  Te2-  Te183  1  0.33915545  0.67470783  0.50224652  1
  Te2-  Te184  1  0.34148486  0.67545421  0.83015279  1
  Te2-  Te185  1  0.66895479  -0.00283971  0.15930494  1
  Te2-  Te186  1  0.66964761  0.00362403  0.50064487  1
  Te2-  Te187  1  0.67796346  0.00129299  0.83704207  1
  Te2-  Te188  1  0.67214205  0.33488576  0.16346698  1
  Te2-  Te189  1  0.66472035  0.33171531  0.50405190  1
  Te2-  Te190  1  0.66921096  0.34495564  0.82929746  1
  Te2-  Te191  1  0.66485833  0.66881011  0.17759333  1
  Te2-  Te192  1  0.66686676  0.66423103  0.49072271  1
  Te2-  Te193  1  0.66552792  0.65750945  0.83283600  1
  Pb2+  Pb194  1  0.49196239  0.67264028  0.16861777  1
  Pb2+  Pb195  1  0.16593831  0.16761804  0.33548151  1
  Pb2+  Pb196  1  0.16357824  0.34186117  0.16673776  1
  Pb2+  Pb197  1  0.17217296  0.15804032  -0.00147603  1
  Pb2+  Pb198  1  0.33222626  0.15412498  0.16438488  1
  Pb2+  Pb199  1  0.82413924  0.16378231  -0.00452954  1
  Pb2+  Pb200  1  -0.00250617  0.49917582  0.50136388  1
  Pb2+  Pb201  1  0.33198295  0.15435171  0.82989513  1
  Pb2+  Pb202  1  0.16042250  0.50772307  -0.00537752  1
  Pb2+  Pb203  1  0.66024083  0.82937172  0.83126017  1
  Pb2+  Pb204  1  0.16204109  0.82852870  0.33482512  1
  Pb2+  Pb205  1  0.66535911  0.49969008  0.16892724  1
  Pb2+  Pb206  1  0.00041830  0.16853941  0.17000511  1
  Pb2+  Pb207  1  -0.00001346  0.83186462  0.83660721  1
  Pb2+  Pb208  1  0.33033032  0.32843708  0.00020800  1
  Pb2+  Pb209  1  0.00530418  -0.00382613  0.67093278  1
  Pb2+  Pb210  1  0.33580834  0.33380729  0.33296893  1
  Pb2+  Pb211  1  0.66745906  0.16548811  0.16580957  1
  Pb2+  Pb212  1  0.84197539  -0.00916462  0.16281528  1
  Pb2+  Pb213  1  0.67232104  0.33740175  -0.00513000  1
  Pb2+  Pb214  1  0.50669814  0.50136512  0.00043365  1
  Pb2+  Pb215  1  0.33272219  0.50990439  0.82328262  1
