# generated using pymatgen
data_In22Ag21Sn22Bi21(Te54Pb11)2
_symmetry_space_group_name_H-M   'P 1'
_cell_length_a   19.11894255
_cell_length_b   19.12630833
_cell_length_c   19.12824814
_cell_angle_alpha   90.01137759
_cell_angle_beta   89.98847231
_cell_angle_gamma   90.00823753
_symmetry_Int_Tables_number   1
_chemical_formula_structural   In22Ag21Sn22Bi21(Te54Pb11)2
_chemical_formula_sum   'In22 Ag21 Sn22 Bi21 Te108 Pb22'
_cell_volume   6994.71777234
_cell_formula_units_Z   1
loop_
 _symmetry_equiv_pos_site_id
 _symmetry_equiv_pos_as_xyz
  1  'x, y, z'
loop_
 _atom_type_symbol
 _atom_type_oxidation_number
  In3+  3.0
  Ag+  1.0
  Sn2+  2.0
  Bi3+  3.0
  Te2-  -2.0
  Pb2+  2.0
loop_
 _atom_site_type_symbol
 _atom_site_label
 _atom_site_symmetry_multiplicity
 _atom_site_fract_x
 _atom_site_fract_y
 _atom_site_fract_z
 _atom_site_occupancy
  In3+  In0  1  0.16510724  0.49841683  -0.00149630  1
  In3+  In1  1  0.82441569  0.02206224  0.83179416  1
  In3+  In2  1  0.00573161  0.00171494  0.35215692  1
  In3+  In3  1  0.68126483  0.50335702  0.82870636  1
  In3+  In4  1  0.83949127  0.66781873  0.82925802  1
  In3+  In5  1  0.50895749  0.83282781  -0.01283580  1
  In3+  In6  1  0.66353213  0.67488831  0.35009782  1
  In3+  In7  1  0.35045045  0.83326345  0.17261280  1
  In3+  In8  1  0.83472299  0.49691373  0.65665752  1
  In3+  In9  1  0.17239621  0.83958122  0.00149424  1
  In3+  In10  1  0.82307877  0.00836389  0.50087958  1
  In3+  In11  1  0.00913242  0.66295377  0.65940947  1
  In3+  In12  1  0.51223562  0.15797695  0.67099182  1
  In3+  In13  1  0.53047607  0.50452568  -0.00477007  1
  In3+  In14  1  0.17866705  0.66277356  0.84471925  1
  In3+  In15  1  0.81098579  0.33872707  0.84251677  1
  In3+  In16  1  -0.01135943  0.65608346  -0.00239015  1
  In3+  In17  1  0.34988200  0.50117794  0.50809736  1
  In3+  In18  1  0.67218200  0.65575082  0.00917402  1
  In3+  In19  1  0.14563445  0.34295054  0.48900455  1
  In3+  In20  1  0.51709933  -0.00412684  0.48688686  1
  In3+  In21  1  0.00358910  0.01655316  0.67156463  1
  Ag+  Ag22  1  0.49465500  0.64481452  0.51064320  1
  Ag+  Ag23  1  0.15089464  -0.03064431  0.19622932  1
  Ag+  Ag24  1  0.50723275  0.14916695  0.36548498  1
  Ag+  Ag25  1  0.81987636  0.35577682  0.49850655  1
  Ag+  Ag26  1  0.82900510  0.64377316  0.18909408  1
  Ag+  Ag27  1  0.13889519  0.16766839  0.35606237  1
  Ag+  Ag28  1  0.34870681  0.51817003  0.86289599  1
  Ag+  Ag29  1  0.83545371  0.51204984  0.01840822  1
  Ag+  Ag30  1  0.63925501  0.17119584  0.48121308  1
  Ag+  Ag31  1  0.01360237  0.52501623  0.49823573  1
  Ag+  Ag32  1  0.66245847  0.15043584  0.83253847  1
  Ag+  Ag33  1  0.49435808  0.81382184  0.33580026  1
  Ag+  Ag34  1  0.66211011  0.81382381  0.47830758  1
  Ag+  Ag35  1  0.67351179  0.16288269  0.18179067  1
  Ag+  Ag36  1  0.80493724  0.35076570  0.13863075  1
  Ag+  Ag37  1  0.31078649  0.66613258  0.68492274  1
  Ag+  Ag38  1  0.67503599  0.30735830  0.02845104  1
  Ag+  Ag39  1  0.52374346  -0.02645830  0.83277458  1
  Ag+  Ag40  1  -0.02706627  0.19329241  0.83532680  1
  Ag+  Ag41  1  0.67911080  0.80789185  0.83996603  1
  Ag+  Ag42  1  -0.01006220  0.16578569  0.47784561  1
  Sn2+  Sn43  1  0.32600551  0.16974509  0.49566982  1
  Sn2+  Sn44  1  0.84001946  0.01194343  0.16548823  1
  Sn2+  Sn45  1  -0.00643103  0.33165114  0.33836159  1
  Sn2+  Sn46  1  -0.00335960  0.33226814  0.65818232  1
  Sn2+  Sn47  1  0.83632040  0.49258334  0.32977395  1
  Sn2+  Sn48  1  0.33507627  0.00757909  0.33421185  1
  Sn2+  Sn49  1  0.66820245  0.84092900  0.16158943  1
  Sn2+  Sn50  1  0.00082084  0.49663660  0.82292893  1
  Sn2+  Sn51  1  0.33642160  0.50340026  0.16677694  1
  Sn2+  Sn52  1  0.67217674  0.49274930  0.49916381  1
  Sn2+  Sn53  1  0.34969184  0.33826933  0.00151155  1
  Sn2+  Sn54  1  0.33578090  0.34418703  0.66504168  1
  Sn2+  Sn55  1  -0.00689717  0.83377939  0.16517985  1
  Sn2+  Sn56  1  0.34966113  0.82964991  0.50139393  1
  Sn2+  Sn57  1  0.66582756  0.00065450  0.33109009  1
  Sn2+  Sn58  1  0.49960381  0.50479451  0.32747623  1
  Sn2+  Sn59  1  0.16407996  -0.00060011  0.83936685  1
  Sn2+  Sn60  1  0.14847546  0.67115681  0.16446426  1
  Sn2+  Sn61  1  0.16622930  0.16937922  0.66143226  1
  Sn2+  Sn62  1  0.67126406  0.32696578  0.66011978  1
  Sn2+  Sn63  1  0.50443696  0.32627776  0.16473981  1
  Sn2+  Sn64  1  0.82748682  0.66831348  0.50123275  1
  Bi3+  Bi65  1  0.33279373  0.00196559  0.00099320  1
  Bi3+  Bi66  1  0.33486799  0.33226487  0.33402386  1
  Bi3+  Bi67  1  0.17039283  0.00224501  0.49995656  1
  Bi3+  Bi68  1  0.33441531  0.17085067  0.82729393  1
  Bi3+  Bi69  1  0.82697644  0.16637054  0.33573090  1
  Bi3+  Bi70  1  0.16829680  0.33457427  0.83141286  1
  Bi3+  Bi71  1  0.66648907  0.00448822  0.00066250  1
  Bi3+  Bi72  1  0.16650700  0.33294544  0.16706641  1
  Bi3+  Bi73  1  0.66734815  0.33596733  0.33652647  1
  Bi3+  Bi74  1  0.83320353  0.16698399  0.00266280  1
  Bi3+  Bi75  1  0.33401793  0.66728119  0.33244149  1
  Bi3+  Bi76  1  0.16622715  0.16742738  -0.00459306  1
  Bi3+  Bi77  1  0.33835743  0.16513825  0.16765393  1
  Bi3+  Bi78  1  0.66601977  0.66903686  0.66649291  1
  Bi3+  Bi79  1  0.50183163  0.66706690  0.82781790  1
  Bi3+  Bi80  1  0.83376004  0.16981090  0.66360473  1
  Bi3+  Bi81  1  0.49733044  0.33850308  0.83248393  1
  Bi3+  Bi82  1  0.82809833  0.83558621  0.33446161  1
  Bi3+  Bi83  1  -0.00518381  0.82639516  0.83527810  1
  Bi3+  Bi84  1  0.66973604  -0.00097458  0.66931367  1
  Bi3+  Bi85  1  0.00088962  -0.00430139  -0.00391050  1
  Te2-  Te86  1  0.17472294  0.17161366  0.15703480  1
  Te2-  Te87  1  0.16777997  0.16730703  0.50057805  1
  Te2-  Te88  1  0.17146347  0.16871329  0.83273931  1
  Te2-  Te89  1  0.16625374  0.50031115  0.16065022  1
  Te2-  Te90  1  0.15829131  0.49287981  0.49823683  1
  Te2-  Te91  1  0.16745465  0.50144664  0.83999236  1
  Te2-  Te92  1  0.16222051  0.82733167  0.16109539  1
  Te2-  Te93  1  0.16650732  0.83688630  0.49736976  1
  Te2-  Te94  1  0.16461294  0.82142639  0.83973451  1
  Te2-  Te95  1  0.50017548  0.16802941  0.15930725  1
  Te2-  Te96  1  0.49546427  0.15687105  0.51331430  1
  Te2-  Te97  1  0.49903609  0.17618790  0.82514327  1
  Te2-  Te98  1  0.49917898  0.50127645  0.15367851  1
  Te2-  Te99  1  0.50328047  0.49724422  0.49995599  1
  Te2-  Te100  1  0.49351097  0.50304814  0.84157378  1
  Te2-  Te101  1  0.50375821  0.83349542  0.18176003  1
  Te2-  Te102  1  0.51090397  0.84508308  0.48563812  1
  Te2-  Te103  1  0.50188988  0.82702017  0.83337657  1
  Te2-  Te104  1  0.82657447  0.16947716  0.16706257  1
  Te2-  Te105  1  0.84226041  0.15888896  0.50160041  1
  Te2-  Te106  1  0.82397330  0.18226908  0.83092323  1
  Te2-  Te107  1  0.83269730  0.49462770  0.16793575  1
  Te2-  Te108  1  0.82992202  0.50353337  0.49987580  1
  Te2-  Te109  1  0.83579631  0.49280024  0.82204937  1
  Te2-  Te110  1  0.82917765  0.84356858  0.17207935  1
  Te2-  Te111  1  0.81575432  0.83655644  0.49551637  1
  Te2-  Te112  1  0.82908642  0.82180819  0.83653323  1
  Te2-  Te113  1  0.16697504  0.00096781  0.00197256  1
  Te2-  Te114  1  0.16318272  0.01445365  0.33536351  1
  Te2-  Te115  1  0.16480775  0.00219471  0.66608529  1
  Te2-  Te116  1  0.16807745  0.33452658  -0.00151952  1
  Te2-  Te117  1  0.16898998  0.31788785  0.33316299  1
  Te2-  Te118  1  0.16839273  0.33052557  0.66761435  1
  Te2-  Te119  1  0.15974600  0.66083081  -0.00185404  1
  Te2-  Te120  1  0.16605443  0.66692812  0.33068025  1
  Te2-  Te121  1  0.16390546  0.66436689  0.67038707  1
  Te2-  Te122  1  0.49866854  -0.00637366  -0.01156045  1
  Te2-  Te123  1  0.50489491  0.00549278  0.33509065  1
  Te2-  Te124  1  0.50502113  0.00324069  0.68318482  1
  Te2-  Te125  1  0.51641317  0.34443489  -0.00454075  1
  Te2-  Te126  1  0.50044614  0.34214072  0.33033075  1
  Te2-  Te127  1  0.50074678  0.33207769  0.66726603  1
  Te2-  Te128  1  0.50690454  0.67039344  -0.00356199  1
  Te2-  Te129  1  0.50441742  0.66397834  0.34008881  1
  Te2-  Te130  1  0.50443026  0.66670973  0.66124543  1
  Te2-  Te131  1  0.83613910  0.00130882  -0.00407010  1
  Te2-  Te132  1  0.83445586  0.00209271  0.33668534  1
  Te2-  Te133  1  0.83792738  0.00256182  0.66754698  1
  Te2-  Te134  1  0.82404014  0.32848189  -0.00428619  1
  Te2-  Te135  1  0.83228207  0.32764822  0.34577088  1
  Te2-  Te136  1  0.83510971  0.33439144  0.65214428  1
  Te2-  Te137  1  0.82918360  0.65783929  -0.01322533  1
  Te2-  Te138  1  0.82270374  0.66993846  0.33461644  1
  Te2-  Te139  1  0.82882534  0.65733470  0.66977308  1
  Te2-  Te140  1  -0.00083053  0.16139271  -0.01603484  1
  Te2-  Te141  1  -0.00642247  0.15783286  0.32738163  1
  Te2-  Te142  1  -0.00550545  0.16571410  0.68735247  1
  Te2-  Te143  1  -0.01355342  0.50330679  -0.00352911  1
  Te2-  Te144  1  -0.00500589  0.50041742  0.34694051  1
  Te2-  Te145  1  -0.00749852  0.50532387  0.65016512  1
  Te2-  Te146  1  0.00357413  0.82949211  -0.00302388  1
  Te2-  Te147  1  -0.00408731  0.84126518  0.33381342  1
  Te2-  Te148  1  -0.00268469  0.82007358  0.67083016  1
  Te2-  Te149  1  0.33210158  0.16763570  -0.00329107  1
  Te2-  Te150  1  0.35247793  0.17129106  0.32967258  1
  Te2-  Te151  1  0.33475526  0.17092036  0.66587547  1
  Te2-  Te152  1  0.32222204  0.49862269  0.00457160  1
  Te2-  Te153  1  0.33239485  0.49993690  0.33218865  1
  Te2-  Te154  1  0.33163062  0.51240866  0.65831961  1
  Te2-  Te155  1  0.33499251  0.83681400  0.00693620  1
  Te2-  Te156  1  0.34245464  0.83328889  0.33118886  1
  Te2-  Te157  1  0.33462187  0.82163763  0.66246469  1
  Te2-  Te158  1  0.67203052  0.16572838  -0.01558625  1
  Te2-  Te159  1  0.66101150  0.16903664  0.33337617  1
  Te2-  Te160  1  0.67040514  0.16393893  0.67938648  1
  Te2-  Te161  1  0.68382758  0.50057983  -0.00656457  1
  Te2-  Te162  1  0.66693668  0.50180066  0.33470940  1
  Te2-  Te163  1  0.67471700  0.50198012  0.66581115  1
  Te2-  Te164  1  0.66392719  0.84040036  -0.00872885  1
  Te2-  Te165  1  0.66559091  0.83064917  0.33052922  1
  Te2-  Te166  1  0.66792474  0.83449472  0.68364093  1
  Te2-  Te167  1  0.00867977  -0.00444138  0.15736020  1
  Te2-  Te168  1  0.00583993  0.01081580  0.50755621  1
  Te2-  Te169  1  0.00275894  -0.01263864  0.83160021  1
  Te2-  Te170  1  0.00513234  0.33198356  0.16988316  1
  Te2-  Te171  1  -0.00033729  0.31585776  0.49728886  1
  Te2-  Te172  1  0.00726862  0.33784748  0.82897516  1
  Te2-  Te173  1  -0.01989644  0.66894957  0.16115300  1
  Te2-  Te174  1  -0.00260528  0.67295297  0.50324725  1
  Te2-  Te175  1  -0.00345010  0.66394214  0.83312791  1
  Te2-  Te176  1  0.32801249  -0.00114418  0.16440581  1
  Te2-  Te177  1  0.33168069  -0.00200214  0.49617687  1
  Te2-  Te178  1  0.32836933  0.00411420  0.83554692  1
  Te2-  Te179  1  0.33274740  0.33282878  0.16795971  1
  Te2-  Te180  1  0.33281395  0.34123962  0.49657729  1
  Te2-  Te181  1  0.33195504  0.33653888  0.83333009  1
  Te2-  Te182  1  0.33280243  0.67309434  0.17039731  1
  Te2-  Te183  1  0.34375896  0.66255676  0.49110734  1
  Te2-  Te184  1  0.33431186  0.66230715  0.83201077  1
  Te2-  Te185  1  0.66894343  0.01165342  0.16209861  1
  Te2-  Te186  1  0.66760804  0.01836845  0.50672903  1
  Te2-  Te187  1  0.66884133  0.00237086  0.83478095  1
  Te2-  Te188  1  0.66563304  0.32166682  0.17494704  1
  Te2-  Te189  1  0.67285785  0.32196902  0.49830733  1
  Te2-  Te190  1  0.66056231  0.34880276  0.82629573  1
  Te2-  Te191  1  0.68005688  0.66976394  0.15841468  1
  Te2-  Te192  1  0.65680403  0.66685667  0.50375955  1
  Te2-  Te193  1  0.66386656  0.66033298  0.83375051  1
  Pb2+  Pb194  1  0.83335087  0.82763238  0.00378953  1
  Pb2+  Pb195  1  0.33416246  0.66719626  0.00292681  1
  Pb2+  Pb196  1  0.49807080  0.00077760  0.16210422  1
  Pb2+  Pb197  1  0.50096200  0.50058431  0.67149517  1
  Pb2+  Pb198  1  0.50440958  0.83500706  0.65269122  1
  Pb2+  Pb199  1  0.17303061  0.84064894  0.33085889  1
  Pb2+  Pb200  1  0.16749923  0.83554940  0.66790429  1
  Pb2+  Pb201  1  0.66679832  0.49693434  0.16754942  1
  Pb2+  Pb202  1  0.33737887  0.00111261  0.66291477  1
  Pb2+  Pb203  1  0.83032907  0.83105522  0.66608398  1
  Pb2+  Pb204  1  0.16455244  0.49117517  0.33045945  1
  Pb2+  Pb205  1  -0.00693542  0.66893945  0.33165254  1
  Pb2+  Pb206  1  -0.00980431  0.84268848  0.50262803  1
  Pb2+  Pb207  1  -0.00092056  0.49944654  0.16967699  1
  Pb2+  Pb208  1  -0.00404509  0.33613519  -0.00000614  1
  Pb2+  Pb209  1  0.16400015  0.49640677  0.66870267  1
  Pb2+  Pb210  1  0.50160379  0.32594836  0.49792050  1
  Pb2+  Pb211  1  0.50962556  0.66775363  0.17119696  1
  Pb2+  Pb212  1  0.00262211  0.16394579  0.15779113  1
  Pb2+  Pb213  1  0.17536207  0.66569903  0.49973999  1
  Pb2+  Pb214  1  0.33534604  0.83630443  0.83346401  1
  Pb2+  Pb215  1  0.50364546  0.17119962  -0.00610189  1
