# generated using pymatgen
data_In22Ag21Sn22Bi21(Te54Pb11)2
_symmetry_space_group_name_H-M   'P 1'
_cell_length_a   19.09097704
_cell_length_b   19.09964125
_cell_length_c   19.09869369
_cell_angle_alpha   89.99677650
_cell_angle_beta   89.99528375
_cell_angle_gamma   89.99274435
_symmetry_Int_Tables_number   1
_chemical_formula_structural   In22Ag21Sn22Bi21(Te54Pb11)2
_chemical_formula_sum   'In22 Ag21 Sn22 Bi21 Te108 Pb22'
_cell_volume   6963.97210713
_cell_formula_units_Z   1
loop_
 _symmetry_equiv_pos_site_id
 _symmetry_equiv_pos_as_xyz
  1  'x, y, z'
loop_
 _atom_type_symbol
 _atom_type_oxidation_number
  In3+  3.0
  Ag+  1.0
  Sn2+  2.0
  Bi3+  3.0
  Te2-  -2.0
  Pb2+  2.0
loop_
 _atom_site_type_symbol
 _atom_site_label
 _atom_site_symmetry_multiplicity
 _atom_site_fract_x
 _atom_site_fract_y
 _atom_site_fract_z
 _atom_site_occupancy
  In3+  In0  1  0.64255303  0.16895754  0.16486329  1
  In3+  In1  1  0.50103223  0.66192787  0.49090683  1
  In3+  In2  1  0.81869631  0.48705242  0.66200899  1
  In3+  In3  1  0.65480494  0.50133236  0.17211654  1
  In3+  In4  1  -0.00495516  0.49612218  0.83460715  1
  In3+  In5  1  0.49592159  0.50059336  0.31244606  1
  In3+  In6  1  0.33535972  0.35289685  0.67429519  1
  In3+  In7  1  0.66692662  -0.00640929  0.32891668  1
  In3+  In8  1  0.83233051  0.15984726  0.32732927  1
  In3+  In9  1  0.66795136  0.32703975  0.00134160  1
  In3+  In10  1  0.35556783  0.00255251  0.67063894  1
  In3+  In11  1  0.83346547  0.01202238  0.15939505  1
  In3+  In12  1  0.83463159  0.49672329  0.32146297  1
  In3+  In13  1  0.48633721  0.84133829  0.32962072  1
  In3+  In14  1  -0.01451538  0.66935167  0.66312224  1
  In3+  In15  1  0.66459252  0.84694291  0.83292098  1
  In3+  In16  1  0.83187765  0.82995733  0.66083636  1
  In3+  In17  1  0.18041264  0.15997627  0.67020409  1
  In3+  In18  1  0.66769770  0.66940512  0.32145283  1
  In3+  In19  1  0.32456429  0.49958565  0.18282562  1
  In3+  In20  1  0.33204406  0.66041615  0.01405057  1
  In3+  In21  1  0.84243535  0.65689660  0.85369249  1
  Ag+  Ag22  1  0.50229802  0.49725441  0.65542472  1
  Ag+  Ag23  1  0.31092194  0.47513735  0.85724091  1
  Ag+  Ag24  1  0.83142592  0.18305390  0.02336616  1
  Ag+  Ag25  1  0.14453129  0.30738345  0.15990120  1
  Ag+  Ag26  1  -0.00366288  0.80644916  0.47443308  1
  Ag+  Ag27  1  0.35514570  0.83542154  0.50094725  1
  Ag+  Ag28  1  0.36197883  0.00171025  0.30761553  1
  Ag+  Ag29  1  0.14782972  0.64737437  0.16781051  1
  Ag+  Ag30  1  0.50419678  0.02592335  0.81042805  1
  Ag+  Ag31  1  0.02889533  0.67915656  -0.00803779  1
  Ag+  Ag32  1  0.50086977  0.32537374  0.15739892  1
  Ag+  Ag33  1  0.33615502  0.14638307  0.14737781  1
  Ag+  Ag34  1  0.80839711  0.33511771  0.47631070  1
  Ag+  Ag35  1  0.02611312  0.03248961  0.01959292  1
  Ag+  Ag36  1  0.49451132  0.02311753  0.17234977  1
  Ag+  Ag37  1  0.65728326  -0.00179116  0.64305224  1
  Ag+  Ag38  1  0.50080907  0.66618095  0.16174610  1
  Ag+  Ag39  1  0.01552554  -0.00201848  0.30994353  1
  Ag+  Ag40  1  0.84710650  0.66713502  0.16244955  1
  Ag+  Ag41  1  0.32752284  0.18538996  0.85697514  1
  Ag+  Ag42  1  0.84676598  0.33582040  0.83466646  1
  Sn2+  Sn43  1  0.50044154  0.82584585  0.66331348  1
  Sn2+  Sn44  1  0.83664089  0.83719198  0.00123690  1
  Sn2+  Sn45  1  0.33768881  0.50607587  0.50554941  1
  Sn2+  Sn46  1  0.17214537  0.66661794  0.83784357  1
  Sn2+  Sn47  1  0.50364029  0.16036160  -0.00288909  1
  Sn2+  Sn48  1  0.49319332  -0.00142240  0.49680404  1
  Sn2+  Sn49  1  0.16520077  0.83379356  0.65786758  1
  Sn2+  Sn50  1  0.66355400  0.67253051  0.67112275  1
  Sn2+  Sn51  1  0.49510314  0.33830207  0.49953491  1
  Sn2+  Sn52  1  -0.00324570  0.82816835  0.16775530  1
  Sn2+  Sn53  1  0.01276357  0.16062802  0.16506575  1
  Sn2+  Sn54  1  0.33550208  0.67940722  0.32762485  1
  Sn2+  Sn55  1  0.49897586  0.49895191  -0.00938701  1
  Sn2+  Sn56  1  0.00163847  0.32669039  0.33782913  1
  Sn2+  Sn57  1  0.83468878  0.16497375  0.66970952  1
  Sn2+  Sn58  1  0.33688125  0.31715761  0.32774451  1
  Sn2+  Sn59  1  0.66194491  0.66378212  0.00182993  1
  Sn2+  Sn60  1  -0.00151846  0.33814327  0.00496492  1
  Sn2+  Sn61  1  0.66371650  0.16495412  0.83570611  1
  Sn2+  Sn62  1  0.66469811  0.33185101  0.32890808  1
  Sn2+  Sn63  1  0.50468688  0.17127282  0.67190129  1
  Sn2+  Sn64  1  0.66937252  0.16789609  0.49920270  1
  Bi3+  Bi65  1  0.83197567  0.83260421  0.33116987  1
  Bi3+  Bi66  1  0.33323798  0.67267937  0.66524245  1
  Bi3+  Bi67  1  0.50268990  0.66515408  0.83047357  1
  Bi3+  Bi68  1  0.34014794  -0.00210120  -0.00352339  1
  Bi3+  Bi69  1  -0.01172326  -0.00016642  0.67269819  1
  Bi3+  Bi70  1  0.83080768  0.49704255  0.00114248  1
  Bi3+  Bi71  1  -0.00304003  0.49862181  0.50368299  1
  Bi3+  Bi72  1  0.16646540  0.83452215  0.33311521  1
  Bi3+  Bi73  1  0.33667098  0.16211427  0.50182068  1
  Bi3+  Bi74  1  0.66536311  0.00152593  0.00425085  1
  Bi3+  Bi75  1  0.17077814  0.33365676  0.49308529  1
  Bi3+  Bi76  1  0.50314092  0.33370244  0.83753663  1
  Bi3+  Bi77  1  0.16797180  0.00033949  0.16704736  1
  Bi3+  Bi78  1  -0.00537867  0.16844443  0.49933066  1
  Bi3+  Bi79  1  0.33662086  0.83219007  0.82663020  1
  Bi3+  Bi80  1  -0.00027629  0.49925393  0.16560241  1
  Bi3+  Bi81  1  -0.00658399  0.82953646  0.83554446  1
  Bi3+  Bi82  1  0.66620182  0.50255171  0.83686983  1
  Bi3+  Bi83  1  0.83181000  0.00805481  0.50209530  1
  Bi3+  Bi84  1  0.82772588  0.00207065  0.83741532  1
  Bi3+  Bi85  1  -0.00298455  0.16395834  0.83373119  1
  Te2-  Te86  1  0.18028713  0.16440424  0.16845389  1
  Te2-  Te87  1  0.16391890  0.17149169  0.50554743  1
  Te2-  Te88  1  0.17327143  0.16692602  0.82914400  1
  Te2-  Te89  1  0.16894217  0.50055943  0.16824555  1
  Te2-  Te90  1  0.16344378  0.49838123  0.49976879  1
  Te2-  Te91  1  0.16807069  0.50290575  0.83318722  1
  Te2-  Te92  1  0.16426580  0.83897189  0.17031775  1
  Te2-  Te93  1  0.14583643  0.83304355  0.49640656  1
  Te2-  Te94  1  0.16663615  0.83060267  0.82950501  1
  Te2-  Te95  1  0.48934171  0.17252461  0.16841399  1
  Te2-  Te96  1  0.49992849  0.16717288  0.50510091  1
  Te2-  Te97  1  0.49159225  0.17193083  0.83486738  1
  Te2-  Te98  1  0.50317420  0.51147274  0.16150328  1
  Te2-  Te99  1  0.49689117  0.50133475  0.50646129  1
  Te2-  Te100  1  0.50473576  0.49945951  0.82891840  1
  Te2-  Te101  1  0.50089303  0.81716071  0.17933600  1
  Te2-  Te102  1  0.50280443  0.83315451  0.49091808  1
  Te2-  Te103  1  0.50279161  0.82705088  0.82986857  1
  Te2-  Te104  1  0.84093112  0.16548422  0.17067306  1
  Te2-  Te105  1  0.83286733  0.17940268  0.49997723  1
  Te2-  Te106  1  0.83328693  0.16296935  0.83139798  1
  Te2-  Te107  1  0.83450144  0.51168512  0.16637715  1
  Te2-  Te108  1  0.83552284  0.48410426  0.50733009  1
  Te2-  Te109  1  0.83091491  0.49704511  0.83446999  1
  Te2-  Te110  1  0.83417630  0.81923337  0.17012049  1
  Te2-  Te111  1  0.84350723  0.83608455  0.49957488  1
  Te2-  Te112  1  0.82869077  0.83724256  0.83083057  1
  Te2-  Te113  1  0.16976024  0.00097860  0.00058760  1
  Te2-  Te114  1  0.16134338  -0.00260406  0.32913263  1
  Te2-  Te115  1  0.15472622  0.00167560  0.66716014  1
  Te2-  Te116  1  0.16857077  0.33250139  0.01267481  1
  Te2-  Te117  1  0.16964124  0.33319363  0.32753679  1
  Te2-  Te118  1  0.17724508  0.33109078  0.66249197  1
  Te2-  Te119  1  0.17604368  0.66651577  0.01356240  1
  Te2-  Te120  1  0.16893481  0.67264129  0.32082814  1
  Te2-  Te121  1  0.16799359  0.67024505  0.66697605  1
  Te2-  Te122  1  0.50132744  0.00097043  0.01770507  1
  Te2-  Te123  1  0.50902764  -0.00360381  0.32398906  1
  Te2-  Te124  1  0.50982676  -0.00419080  0.66552195  1
  Te2-  Te125  1  0.50833349  0.33033600  0.00503462  1
  Te2-  Te126  1  0.50336941  0.34589636  0.33243805  1
  Te2-  Te127  1  0.49227038  0.34193971  0.67106410  1
  Te2-  Te128  1  0.49796466  0.66506186  -0.00584573  1
  Te2-  Te129  1  0.50538579  0.65385160  0.33864776  1
  Te2-  Te130  1  0.49986964  0.66201104  0.66539607  1
  Te2-  Te131  1  0.82751034  0.00140199  0.00369014  1
  Te2-  Te132  1  0.82438403  -0.00090807  0.33563899  1
  Te2-  Te133  1  0.82462116  -0.00358485  0.66950132  1
  Te2-  Te134  1  0.82698068  0.33079136  -0.00648880  1
  Te2-  Te135  1  0.83303283  0.33797304  0.33087011  1
  Te2-  Te136  1  0.83125663  0.33572721  0.68210194  1
  Te2-  Te137  1  0.82411793  0.66275372  0.00522238  1
  Te2-  Te138  1  0.82672795  0.66601937  0.33116201  1
  Te2-  Te139  1  0.83340379  0.66877455  0.67010538  1
  Te2-  Te140  1  -0.01431825  0.17132325  -0.00437698  1
  Te2-  Te141  1  -0.00915682  0.15579009  0.33514552  1
  Te2-  Te142  1  0.00180551  0.16702073  0.66978374  1
  Te2-  Te143  1  -0.00769964  0.50060166  -0.00073611  1
  Te2-  Te144  1  -0.00602093  0.50110659  0.33373259  1
  Te2-  Te145  1  -0.00345677  0.50761141  0.67027972  1
  Te2-  Te146  1  -0.00549565  0.82296947  -0.00284276  1
  Te2-  Te147  1  -0.00520428  0.84618860  0.33098436  1
  Te2-  Te148  1  -0.00573326  0.83156713  0.67414876  1
  Te2-  Te149  1  0.33688312  0.16195609  0.00070623  1
  Te2-  Te150  1  0.33749783  0.14993952  0.34299512  1
  Te2-  Te151  1  0.33523537  0.15755238  0.66329661  1
  Te2-  Te152  1  0.33721743  0.50548237  -0.00268215  1
  Te2-  Te153  1  0.34206147  0.50606644  0.33813242  1
  Te2-  Te154  1  0.34342685  0.50707660  0.66498234  1
  Te2-  Te155  1  0.33366811  0.83093611  -0.00674014  1
  Te2-  Te156  1  0.33349837  0.84659492  0.34694806  1
  Te2-  Te157  1  0.33245045  0.83667130  0.66032684  1
  Te2-  Te158  1  0.67697809  0.16737921  0.00850831  1
  Te2-  Te159  1  0.67383946  0.16849877  0.32511284  1
  Te2-  Te160  1  0.66478375  0.15430933  0.67031280  1
  Te2-  Te161  1  0.66881294  0.49721844  0.00348100  1
  Te2-  Te162  1  0.67292511  0.50169645  0.32794532  1
  Te2-  Te163  1  0.66402808  0.50031328  0.67091327  1
  Te2-  Te164  1  0.66892772  0.83487285  -0.00546973  1
  Te2-  Te165  1  0.66847117  0.82881318  0.33444711  1
  Te2-  Te166  1  0.66980041  0.84273105  0.67227860  1
  Te2-  Te167  1  -0.00568278  0.00142167  0.15991117  1
  Te2-  Te168  1  -0.00898035  0.00759881  0.50998178  1
  Te2-  Te169  1  -0.00588371  -0.00166448  0.83686822  1
  Te2-  Te170  1  -0.00023783  0.33487664  0.16920548  1
  Te2-  Te171  1  0.00567521  0.33394638  0.49924807  1
  Te2-  Te172  1  -0.00430724  0.33057828  0.83649513  1
  Te2-  Te173  1  -0.00082754  0.66125465  0.15722417  1
  Te2-  Te174  1  -0.00165957  0.66036894  0.50273756  1
  Te2-  Te175  1  -0.00068858  0.66672175  0.84487072  1
  Te2-  Te176  1  0.33668230  -0.00247077  0.16166953  1
  Te2-  Te177  1  0.33447923  -0.00496799  0.51441310  1
  Te2-  Te178  1  0.35138795  -0.00547596  0.82939190  1
  Te2-  Te179  1  0.35135743  0.34985967  0.17627926  1
  Te2-  Te180  1  0.33250216  0.32997005  0.49693436  1
  Te2-  Te181  1  0.33709009  0.33206697  0.82962118  1
  Te2-  Te182  1  0.34668796  0.65831885  0.16909678  1
  Te2-  Te183  1  0.34229722  0.67909116  0.50038198  1
  Te2-  Te184  1  0.33683863  0.67018172  0.82794765  1
  Te2-  Te185  1  0.66322411  0.00820155  0.16920824  1
  Te2-  Te186  1  0.66978615  0.00511934  0.49377115  1
  Te2-  Te187  1  0.65575713  0.00203425  0.84131061  1
  Te2-  Te188  1  0.65576934  0.33353290  0.16557845  1
  Te2-  Te189  1  0.66312016  0.32862366  0.50107016  1
  Te2-  Te190  1  0.66438322  0.33378440  0.84120088  1
  Te2-  Te191  1  0.65556722  0.65953198  0.16915431  1
  Te2-  Te192  1  0.66059970  0.66549591  0.50309775  1
  Te2-  Te193  1  0.66985614  0.66491730  0.83256981  1
  Pb2+  Pb194  1  0.16626518  -0.00105876  0.49883811  1
  Pb2+  Pb195  1  -0.00126527  0.33778822  0.66752723  1
  Pb2+  Pb196  1  0.16984274  0.50157233  0.66687122  1
  Pb2+  Pb197  1  -0.00182031  0.67378515  0.32337769  1
  Pb2+  Pb198  1  0.82715418  0.33731001  0.16290932  1
  Pb2+  Pb199  1  0.17906038  -0.00125405  0.83031515  1
  Pb2+  Pb200  1  0.16418451  0.33394018  0.83732160  1
  Pb2+  Pb201  1  0.15886991  0.16813577  0.00045412  1
  Pb2+  Pb202  1  0.50081523  0.83366394  0.00393302  1
  Pb2+  Pb203  1  0.17466450  0.67101798  0.49590849  1
  Pb2+  Pb204  1  0.16194114  0.83236110  -0.00000418  1
  Pb2+  Pb205  1  0.50202300  0.17215741  0.33632207  1
  Pb2+  Pb206  1  0.16627028  0.16579903  0.33539987  1
  Pb2+  Pb207  1  0.33996219  0.33415333  0.01065761  1
  Pb2+  Pb208  1  0.16916188  0.50084414  0.33279055  1
  Pb2+  Pb209  1  0.66428699  0.32441817  0.67080598  1
  Pb2+  Pb210  1  0.82853022  0.66053569  0.50119170  1
  Pb2+  Pb211  1  0.66437046  0.49645744  0.49685384  1
  Pb2+  Pb212  1  0.16290294  0.49970824  0.00159155  1
  Pb2+  Pb213  1  0.66811055  0.83343468  0.16409238  1
  Pb2+  Pb214  1  0.33464422  0.83022700  0.17042468  1
  Pb2+  Pb215  1  0.67142569  0.83501962  0.50389704  1
