# generated using pymatgen
data_In22Ag21Sn22Bi21(Te54Pb11)2
_symmetry_space_group_name_H-M   'P 1'
_cell_length_a   19.15696886
_cell_length_b   19.14807127
_cell_length_c   19.17043060
_cell_angle_alpha   89.99949259
_cell_angle_beta   89.99847515
_cell_angle_gamma   89.96905353
_symmetry_Int_Tables_number   1
_chemical_formula_structural   In22Ag21Sn22Bi21(Te54Pb11)2
_chemical_formula_sum   'In22 Ag21 Sn22 Bi21 Te108 Pb22'
_cell_volume   7032.07725019
_cell_formula_units_Z   1
loop_
 _symmetry_equiv_pos_site_id
 _symmetry_equiv_pos_as_xyz
  1  'x, y, z'
loop_
 _atom_type_symbol
 _atom_type_oxidation_number
  In3+  3.0
  Ag+  1.0
  Sn2+  2.0
  Bi3+  3.0
  Te2-  -2.0
  Pb2+  2.0
loop_
 _atom_site_type_symbol
 _atom_site_label
 _atom_site_symmetry_multiplicity
 _atom_site_fract_x
 _atom_site_fract_y
 _atom_site_fract_z
 _atom_site_occupancy
  In3+  In0  1  -0.02559530  0.50135788  0.15523911  1
  In3+  In1  1  0.50281060  0.30341220  0.50727243  1
  In3+  In2  1  0.65680002  0.01586278  0.66535542  1
  In3+  In3  1  0.68437218  0.66683308  0.66739913  1
  In3+  In4  1  0.67448179  0.49965987  0.83074654  1
  In3+  In5  1  0.34712829  0.32907554  0.34700528  1
  In3+  In6  1  0.33487999  0.67985515  0.00090528  1
  In3+  In7  1  0.83874482  0.31132603  0.82333773  1
  In3+  In8  1  0.52891412  0.68052611  0.50873451  1
  In3+  In9  1  0.17155486  0.00857067  0.81647040  1
  In3+  In10  1  0.83108266  0.01580421  0.17427959  1
  In3+  In11  1  0.32310004  0.49455364  0.82846386  1
  In3+  In12  1  0.00247564  0.32159297  0.01065982  1
  In3+  In13  1  0.34996748  0.50392793  0.49557295  1
  In3+  In14  1  0.66617820  0.17403003  0.84211626  1
  In3+  In15  1  -0.00138382  0.63873313  0.67344574  1
  In3+  In16  1  -0.00374824  0.47529637  0.83477270  1
  In3+  In17  1  -0.00080422  0.16496125  0.16505147  1
  In3+  In18  1  0.66133844  0.83535061  0.82622824  1
  In3+  In19  1  0.50126601  0.67181911  0.18716033  1
  In3+  In20  1  0.00169420  0.32200534  0.33154582  1
  In3+  In21  1  -0.00029806  -0.00381646  -0.00210507  1
  Ag+  Ag22  1  0.00134940  0.86234572  0.19114470  1
  Ag+  Ag23  1  0.83284154  0.69376866  0.47423818  1
  Ag+  Ag24  1  0.36690683  -0.03409616  0.37208109  1
  Ag+  Ag25  1  0.52379526  0.02567559  0.83581316  1
  Ag+  Ag26  1  0.31087313  0.33462442  0.64626561  1
  Ag+  Ag27  1  0.47404117  0.85089955  0.36325592  1
  Ag+  Ag28  1  0.02425673  0.16799305  0.81268343  1
  Ag+  Ag29  1  0.67983002  0.47466090  0.13590573  1
  Ag+  Ag30  1  0.02125531  0.31106473  0.69662531  1
  Ag+  Ag31  1  0.67122460  0.31556725  0.68020487  1
  Ag+  Ag32  1  0.83459938  0.30893318  0.13163169  1
  Ag+  Ag33  1  0.47899838  -0.00586450  0.47272255  1
  Ag+  Ag34  1  0.83327844  0.18369067  0.02455398  1
  Ag+  Ag35  1  0.85070338  0.14880766  0.66939929  1
  Ag+  Ag36  1  0.81116919  0.64855392  0.81612158  1
  Ag+  Ag37  1  0.47286705  0.13949252  0.01834229  1
  Ag+  Ag38  1  0.65086210  0.01629868  0.30760689  1
  Ag+  Ag39  1  0.19174175  0.16276356  0.36096364  1
  Ag+  Ag40  1  0.19414320  0.02970709  0.46420496  1
  Ag+  Ag41  1  0.19163494  0.14776065  0.65658183  1
  Ag+  Ag42  1  0.14133199  0.83602383  0.02297664  1
  Sn2+  Sn43  1  0.34022635  0.49475618  0.16098562  1
  Sn2+  Sn44  1  0.83220515  0.83711833  0.67089432  1
  Sn2+  Sn45  1  0.66355830  0.17415583  0.16359355  1
  Sn2+  Sn46  1  0.16504765  0.83839143  0.67047015  1
  Sn2+  Sn47  1  0.32810944  0.00392226  0.00103118  1
  Sn2+  Sn48  1  0.00778310  0.00432780  0.33683416  1
  Sn2+  Sn49  1  0.82810244  0.84069088  0.33023817  1
  Sn2+  Sn50  1  0.33754653  0.00856124  0.66946856  1
  Sn2+  Sn51  1  0.68008675  0.83332647  0.16964459  1
  Sn2+  Sn52  1  0.83613589  0.16713714  0.34821872  1
  Sn2+  Sn53  1  0.49669841  0.16843578  0.67261452  1
  Sn2+  Sn54  1  0.83265386  0.00491358  0.49756399  1
  Sn2+  Sn55  1  0.50432437  0.50901039  0.32988437  1
  Sn2+  Sn56  1  0.34099620  0.16426684  0.82638274  1
  Sn2+  Sn57  1  0.49665613  0.49575012  0.66541233  1
  Sn2+  Sn58  1  0.65940320  0.66810897  0.00495917  1
  Sn2+  Sn59  1  0.49412294  0.49134688  0.00197700  1
  Sn2+  Sn60  1  0.66920606  0.84150849  0.49362791  1
  Sn2+  Sn61  1  0.00025604  0.16881981  0.50994552  1
  Sn2+  Sn62  1  0.50126373  0.84335214  0.66424765  1
  Sn2+  Sn63  1  0.00173584  0.67066622  0.33694774  1
  Sn2+  Sn64  1  0.33551709  0.32977177  -0.00045856  1
  Bi3+  Bi65  1  0.83475419  -0.00107459  0.83436546  1
  Bi3+  Bi66  1  -0.00442383  0.00580119  0.66761094  1
  Bi3+  Bi67  1  0.50287977  0.66337054  0.82761395  1
  Bi3+  Bi68  1  0.16314100  0.00055507  0.16300222  1
  Bi3+  Bi69  1  0.83282809  0.49684194  0.66944526  1
  Bi3+  Bi70  1  -0.00123084  0.84302656  0.83120520  1
  Bi3+  Bi71  1  0.66497944  0.50095965  0.50392728  1
  Bi3+  Bi72  1  0.67006513  0.33382474  -0.00535258  1
  Bi3+  Bi73  1  0.16261878  0.49719563  0.66754668  1
  Bi3+  Bi74  1  0.15845323  0.33421835  0.16733609  1
  Bi3+  Bi75  1  0.16554722  0.67292331  0.83229638  1
  Bi3+  Bi76  1  -0.00323887  0.49954898  0.49854842  1
  Bi3+  Bi77  1  0.82943495  0.67138643  0.16285293  1
  Bi3+  Bi78  1  0.15423435  0.66496540  0.50083044  1
  Bi3+  Bi79  1  0.83263669  0.83752196  0.00145004  1
  Bi3+  Bi80  1  0.66892715  0.67357725  0.33283696  1
  Bi3+  Bi81  1  0.82763699  0.33449684  0.50584116  1
  Bi3+  Bi82  1  0.50391931  0.83441851  -0.00463805  1
  Bi3+  Bi83  1  0.66789982  0.16513597  0.50156622  1
  Bi3+  Bi84  1  0.33103872  0.83229290  0.83088776  1
  Bi3+  Bi85  1  0.50325280  0.33639476  0.82990271  1
  Te2-  Te86  1  0.15469587  0.17214098  0.16119080  1
  Te2-  Te87  1  0.16275657  0.16573128  0.50946155  1
  Te2-  Te88  1  0.17100945  0.16229171  0.82909905  1
  Te2-  Te89  1  0.17263326  0.49569422  0.16775373  1
  Te2-  Te90  1  0.15974915  0.50079283  0.50359740  1
  Te2-  Te91  1  0.16034359  0.50691322  0.83154269  1
  Te2-  Te92  1  0.15272964  0.83588131  0.16828230  1
  Te2-  Te93  1  0.16523482  0.82567146  0.50434897  1
  Te2-  Te94  1  0.16609541  0.83713734  0.83190035  1
  Te2-  Te95  1  0.50476380  0.16822298  0.15820957  1
  Te2-  Te96  1  0.50367869  0.14628849  0.50074737  1
  Te2-  Te97  1  0.51018917  0.17439333  0.83907924  1
  Te2-  Te98  1  0.50189595  0.50899522  0.17040582  1
  Te2-  Te99  1  0.50208429  0.51358362  0.49919954  1
  Te2-  Te100  1  0.50009161  0.50142049  0.83042943  1
  Te2-  Te101  1  0.50445710  0.82365347  0.15583036  1
  Te2-  Te102  1  0.50546853  0.84519881  0.50659262  1
  Te2-  Te103  1  0.49904814  0.82646626  0.83327697  1
  Te2-  Te104  1  0.83318709  0.16898753  0.17490768  1
  Te2-  Te105  1  0.82837741  0.17291664  0.51666093  1
  Te2-  Te106  1  0.81847979  0.16055868  0.81739664  1
  Te2-  Te107  1  0.82049989  0.50651202  0.16763567  1
  Te2-  Te108  1  0.83103166  0.49973965  0.50637516  1
  Te2-  Te109  1  0.83679800  0.50528385  0.83058818  1
  Te2-  Te110  1  0.84899758  0.83229050  0.16187313  1
  Te2-  Te111  1  0.82846868  0.83670822  0.50269164  1
  Te2-  Te112  1  0.83353174  0.83606191  0.83818675  1
  Te2-  Te113  1  0.15930718  -0.01143491  0.00321276  1
  Te2-  Te114  1  0.16519121  0.01636959  0.32300487  1
  Te2-  Te115  1  0.16173625  0.00395249  0.66631926  1
  Te2-  Te116  1  0.15779251  0.33230119  0.00170811  1
  Te2-  Te117  1  0.15700363  0.31637939  0.32710006  1
  Te2-  Te118  1  0.16417080  0.33603806  0.66855230  1
  Te2-  Te119  1  0.17329181  0.67815869  -0.00274115  1
  Te2-  Te120  1  0.16698405  0.66507645  0.33701067  1
  Te2-  Te121  1  0.16173923  0.66407745  0.66683336  1
  Te2-  Te122  1  0.50102032  -0.00024495  -0.01463561  1
  Te2-  Te123  1  0.50667642  -0.00933245  0.32407271  1
  Te2-  Te124  1  0.50402594  0.00125634  0.68567905  1
  Te2-  Te125  1  0.50808100  0.33213516  -0.00303804  1
  Te2-  Te126  1  0.49891444  0.33474555  0.33860724  1
  Te2-  Te127  1  0.50941185  0.33654800  0.66578908  1
  Te2-  Te128  1  0.49678402  0.66523619  -0.01003076  1
  Te2-  Te129  1  0.50576676  0.67997629  0.34182662  1
  Te2-  Te130  1  0.50072831  0.66802520  0.66380669  1
  Te2-  Te131  1  0.84005903  0.00151429  -0.00043465  1
  Te2-  Te132  1  0.83892485  -0.00054216  0.32869821  1
  Te2-  Te133  1  0.82956929  0.00124979  0.67054529  1
  Te2-  Te134  1  0.83312600  0.32881610  -0.01366140  1
  Te2-  Te135  1  0.83610750  0.33161295  0.34220939  1
  Te2-  Te136  1  0.82092255  0.33737381  0.67259405  1
  Te2-  Te137  1  0.82888759  0.67108455  0.00095527  1
  Te2-  Te138  1  0.83374124  0.67121746  0.32828913  1
  Te2-  Te139  1  0.83877857  0.66433819  0.67318749  1
  Te2-  Te140  1  -0.01510427  0.16962341  0.01043483  1
  Te2-  Te141  1  -0.00691682  0.16746206  0.32959287  1
  Te2-  Te142  1  -0.00303767  0.16837976  0.66813884  1
  Te2-  Te143  1  0.00006659  0.49747512  -0.00288270  1
  Te2-  Te144  1  -0.00026168  0.50193604  0.33526163  1
  Te2-  Te145  1  -0.00198353  0.48056837  0.66827254  1
  Te2-  Te146  1  -0.00316124  0.83818826  -0.00645303  1
  Te2-  Te147  1  -0.00251882  0.83216471  0.33383352  1
  Te2-  Te148  1  -0.00105800  0.84261126  0.67044295  1
  Te2-  Te149  1  0.33069862  0.16716761  -0.00540635  1
  Te2-  Te150  1  0.33542002  0.17682229  0.33375399  1
  Te2-  Te151  1  0.33413359  0.18175854  0.67078095  1
  Te2-  Te152  1  0.33506486  0.49639513  -0.00549321  1
  Te2-  Te153  1  0.33502580  0.48880947  0.33626185  1
  Te2-  Te154  1  0.32663296  0.48681421  0.66824344  1
  Te2-  Te155  1  0.33893424  0.83561804  -0.00604809  1
  Te2-  Te156  1  0.33177014  0.83062887  0.32939315  1
  Te2-  Te157  1  0.33164967  0.83217114  0.67070403  1
  Te2-  Te158  1  0.68242455  0.17242974  -0.00424564  1
  Te2-  Te159  1  0.66921553  0.16021629  0.33730761  1
  Te2-  Te160  1  0.65621568  0.16999970  0.66436503  1
  Te2-  Te161  1  0.66322792  0.49885392  -0.00785740  1
  Te2-  Te162  1  0.66276126  0.50536771  0.34169871  1
  Te2-  Te163  1  0.66636313  0.51073306  0.66745773  1
  Te2-  Te164  1  0.66779034  0.83440960  -0.00363339  1
  Te2-  Te165  1  0.66924740  0.83412269  0.32922346  1
  Te2-  Te166  1  0.66869347  0.82068255  0.67089417  1
  Te2-  Te167  1  -0.00382177  0.00720114  0.16351857  1
  Te2-  Te168  1  -0.00535560  0.00401056  0.50447046  1
  Te2-  Te169  1  -0.00013224  0.01160807  0.83427303  1
  Te2-  Te170  1  -0.01321732  0.34262461  0.16494719  1
  Te2-  Te171  1  -0.00862275  0.33722352  0.49188289  1
  Te2-  Te172  1  -0.00667232  0.31547559  0.84051525  1
  Te2-  Te173  1  -0.00378696  0.65424964  0.16613564  1
  Te2-  Te174  1  -0.01102594  0.66257873  0.50566138  1
  Te2-  Te175  1  0.00492501  0.67903492  0.82662680  1
  Te2-  Te176  1  0.32880885  0.00147525  0.16218366  1
  Te2-  Te177  1  0.32956021  -0.00268332  0.51212700  1
  Te2-  Te178  1  0.32627499  -0.00532716  0.83258752  1
  Te2-  Te179  1  0.33031820  0.33484948  0.15994199  1
  Te2-  Te180  1  0.34007101  0.34102258  0.50159612  1
  Te2-  Te181  1  0.33993981  0.33689812  0.83992335  1
  Te2-  Te182  1  0.33966527  0.66287334  0.16087103  1
  Te2-  Te183  1  0.32304417  0.65651687  0.50100176  1
  Te2-  Te184  1  0.33246517  0.66480369  0.83659694  1
  Te2-  Te185  1  0.67761920  0.00139289  0.16490859  1
  Te2-  Te186  1  0.67153017  0.00287418  0.51283107  1
  Te2-  Te187  1  0.66905147  -0.00684547  0.82321970  1
  Te2-  Te188  1  0.67853373  0.33135113  0.16267804  1
  Te2-  Te189  1  0.66073595  0.33544734  0.50423952  1
  Te2-  Te190  1  0.66747604  0.33897156  0.82780281  1
  Te2-  Te191  1  0.66260681  0.66837810  0.17029297  1
  Te2-  Te192  1  0.68347811  0.66608761  0.49842236  1
  Te2-  Te193  1  0.66546728  0.66418834  0.83319682  1
  Pb2+  Pb194  1  0.16930411  0.33172272  0.83170178  1
  Pb2+  Pb195  1  0.16375991  0.48873535  0.33404995  1
  Pb2+  Pb196  1  0.83191284  0.49746087  -0.00214853  1
  Pb2+  Pb197  1  0.33443786  0.65759513  0.66810492  1
  Pb2+  Pb198  1  0.32764790  0.16737788  0.16657980  1
  Pb2+  Pb199  1  0.66982859  0.32900130  0.33585926  1
  Pb2+  Pb200  1  0.50319242  0.33745285  0.16725716  1
  Pb2+  Pb201  1  0.16608635  0.84681017  0.33560234  1
  Pb2+  Pb202  1  0.33738501  0.65973497  0.33287981  1
  Pb2+  Pb203  1  0.50170344  0.15751330  0.32963396  1
  Pb2+  Pb204  1  -0.00182181  0.66737997  -0.00422347  1
  Pb2+  Pb205  1  0.33523496  0.16569127  0.50166734  1
  Pb2+  Pb206  1  0.33276857  0.82538506  0.50168743  1
  Pb2+  Pb207  1  0.16474197  0.66695216  0.16815770  1
  Pb2+  Pb208  1  0.50081804  -0.00613718  0.15635198  1
  Pb2+  Pb209  1  -0.00256985  0.83605046  0.50092477  1
  Pb2+  Pb210  1  0.16907486  0.50550370  0.00169526  1
  Pb2+  Pb211  1  0.83352968  0.49985204  0.33635831  1
  Pb2+  Pb212  1  0.67032919  0.00562413  -0.00510128  1
  Pb2+  Pb213  1  0.32923290  0.83495490  0.16263566  1
  Pb2+  Pb214  1  0.15675129  0.15760087  -0.00547748  1
  Pb2+  Pb215  1  0.16172929  0.32945415  0.50004609  1
