# generated using pymatgen
data_In22Ag21Sn22Bi21(Te54Pb11)2
_symmetry_space_group_name_H-M   'P 1'
_cell_length_a   19.14562254
_cell_length_b   19.14960767
_cell_length_c   19.14576824
_cell_angle_alpha   90.00239080
_cell_angle_beta   89.99907118
_cell_angle_gamma   90.01593638
_symmetry_Int_Tables_number   1
_chemical_formula_structural   In22Ag21Sn22Bi21(Te54Pb11)2
_chemical_formula_sum   'In22 Ag21 Sn22 Bi21 Te108 Pb22'
_cell_volume   7019.43494378
_cell_formula_units_Z   1
loop_
 _symmetry_equiv_pos_site_id
 _symmetry_equiv_pos_as_xyz
  1  'x, y, z'
loop_
 _atom_type_symbol
 _atom_type_oxidation_number
  In3+  3.0
  Ag+  1.0
  Sn2+  2.0
  Bi3+  3.0
  Te2-  -2.0
  Pb2+  2.0
loop_
 _atom_site_type_symbol
 _atom_site_label
 _atom_site_symmetry_multiplicity
 _atom_site_fract_x
 _atom_site_fract_y
 _atom_site_fract_z
 _atom_site_occupancy
  In3+  In0  1  0.17234683  -0.01475723  0.18195972  1
  In3+  In1  1  0.34326942  -0.00312758  0.34549642  1
  In3+  In2  1  0.81189275  0.65849250  0.84915667  1
  In3+  In3  1  0.34091147  0.33046768  0.66441262  1
  In3+  In4  1  0.82120346  0.20022655  0.01737999  1
  In3+  In5  1  0.50171144  0.67422644  0.47501392  1
  In3+  In6  1  0.33884312  0.66395414  0.33392367  1
  In3+  In7  1  0.83926297  0.68003121  0.15929741  1
  In3+  In8  1  -0.01207562  0.50138230  0.50605594  1
  In3+  In9  1  -0.00601102  0.81492916  0.49463198  1
  In3+  In10  1  0.82556019  0.35387969  0.19075388  1
  In3+  In11  1  -0.00758706  0.15765075  0.83556798  1
  In3+  In12  1  -0.02695543  0.82601116  0.83642975  1
  In3+  In13  1  0.33980640  0.34467234  -0.01288632  1
  In3+  In14  1  0.16018720  0.67416332  0.85403235  1
  In3+  In15  1  0.33423194  0.48298807  0.50615735  1
  In3+  In16  1  0.32343617  0.35076415  0.33410124  1
  In3+  In17  1  0.67831502  -0.01919805  0.66306819  1
  In3+  In18  1  0.34661708  0.82691585  0.83061596  1
  In3+  In19  1  0.49196159  0.16247346  0.34735638  1
  In3+  In20  1  0.67821234  0.68577062  0.30991476  1
  In3+  In21  1  0.14791971  0.51796511  0.34190401  1
  Ag+  Ag22  1  0.32826561  0.52771465  0.85870951  1
  Ag+  Ag23  1  0.82270540  0.03063269  0.47140467  1
  Ag+  Ag24  1  0.85927417  0.81719352  0.33825677  1
  Ag+  Ag25  1  0.50269954  0.85465269  0.34335162  1
  Ag+  Ag26  1  0.85138252  0.52720060  0.33369484  1
  Ag+  Ag27  1  0.82497416  0.49898084  0.63713593  1
  Ag+  Ag28  1  -0.02847161  0.63494642  0.33723617  1
  Ag+  Ag29  1  0.66527949  0.67867435  0.64272259  1
  Ag+  Ag30  1  0.86203605  0.50088509  -0.01621329  1
  Ag+  Ag31  1  0.69052880  0.67392026  0.00567431  1
  Ag+  Ag32  1  0.83329555  0.35355305  0.48102043  1
  Ag+  Ag33  1  0.15339281  0.50358371  -0.02690912  1
  Ag+  Ag34  1  0.47679463  0.33127629  0.48257860  1
  Ag+  Ag35  1  0.47160050  0.68811258  0.17761900  1
  Ag+  Ag36  1  0.37098698  -0.02911453  0.63684380  1
  Ag+  Ag37  1  0.65423011  0.81552875  0.85487244  1
  Ag+  Ag38  1  -0.01525570  0.63686424  -0.02874717  1
  Ag+  Ag39  1  0.19145034  0.16410822  0.32060722  1
  Ag+  Ag40  1  0.80495945  0.16068015  0.36006762  1
  Ag+  Ag41  1  0.33003388  0.14511986  0.49404237  1
  Ag+  Ag42  1  0.67168422  0.83460430  0.18114757  1
  Sn2+  Sn43  1  0.00116114  0.32385011  0.33344038  1
  Sn2+  Sn44  1  0.66955664  0.50697139  0.16647039  1
  Sn2+  Sn45  1  0.00026672  0.16759806  0.17612356  1
  Sn2+  Sn46  1  0.82592752  0.66333170  0.50655752  1
  Sn2+  Sn47  1  0.66858046  0.15818716  0.83855836  1
  Sn2+  Sn48  1  0.67664475  -0.00918950  0.33119419  1
  Sn2+  Sn49  1  0.67064499  0.15554996  0.17141087  1
  Sn2+  Sn50  1  0.16094280  0.50410453  0.66792721  1
  Sn2+  Sn51  1  0.66859029  0.35303076  0.00413935  1
  Sn2+  Sn52  1  0.49734037  -0.00332551  0.83322208  1
  Sn2+  Sn53  1  0.33211901  0.83493979  0.49793671  1
  Sn2+  Sn54  1  0.00121068  0.16782847  0.49885728  1
  Sn2+  Sn55  1  0.65912071  0.50324094  0.83140946  1
  Sn2+  Sn56  1  0.16233679  0.17963130  0.00500813  1
  Sn2+  Sn57  1  0.16982926  0.67284836  0.50070142  1
  Sn2+  Sn58  1  0.66989242  -0.01519043  -0.00360864  1
  Sn2+  Sn59  1  0.15337446  0.66125663  0.16472379  1
  Sn2+  Sn60  1  0.50234264  0.16410896  0.00566304  1
  Sn2+  Sn61  1  0.00364311  0.49725486  0.82860501  1
  Sn2+  Sn62  1  0.15159006  0.00555128  0.50250590  1
  Sn2+  Sn63  1  0.35171979  0.83068802  0.16642222  1
  Sn2+  Sn64  1  0.50752441  0.82167514  0.01002759  1
  Bi3+  Bi65  1  0.16851096  0.16945720  0.66398991  1
  Bi3+  Bi66  1  0.16693075  -0.00115791  0.83572675  1
  Bi3+  Bi67  1  0.50624575  0.49497607  0.33139544  1
  Bi3+  Bi68  1  0.83007649  -0.00316625  0.83300134  1
  Bi3+  Bi69  1  0.67025016  0.33733693  0.66783718  1
  Bi3+  Bi70  1  0.33509808  0.00509278  -0.00705236  1
  Bi3+  Bi71  1  0.33164909  0.16535339  0.82684578  1
  Bi3+  Bi72  1  0.00012808  0.00164330  0.66318374  1
  Bi3+  Bi73  1  0.66603213  0.33047164  0.33560156  1
  Bi3+  Bi74  1  0.00371410  0.33026114  0.00101918  1
  Bi3+  Bi75  1  -0.00235686  0.33525385  0.66571931  1
  Bi3+  Bi76  1  0.49754211  0.16827234  0.66652253  1
  Bi3+  Bi77  1  0.50102432  0.49995097  0.00024550  1
  Bi3+  Bi78  1  0.50057797  0.66507029  0.83954536  1
  Bi3+  Bi79  1  0.83338071  -0.00234059  0.16400901  1
  Bi3+  Bi80  1  0.16418297  0.33043589  0.16962463  1
  Bi3+  Bi81  1  0.50269330  0.33089977  0.17067886  1
  Bi3+  Bi82  1  0.50017930  0.33445855  0.82811717  1
  Bi3+  Bi83  1  0.83447225  0.82352072  0.65948769  1
  Bi3+  Bi84  1  -0.00088651  0.00478140  0.33587742  1
  Bi3+  Bi85  1  0.00046504  0.00022477  -0.00207033  1
  Te2-  Te86  1  0.16571199  0.16980559  0.17129350  1
  Te2-  Te87  1  0.17462243  0.16327153  0.50489591  1
  Te2-  Te88  1  0.16845862  0.16562176  0.83257900  1
  Te2-  Te89  1  0.16432085  0.49362457  0.18909630  1
  Te2-  Te90  1  0.17701351  0.50118723  0.49149921  1
  Te2-  Te91  1  0.17780593  0.50941119  0.82719646  1
  Te2-  Te92  1  0.16941024  0.83269822  0.16815770  1
  Te2-  Te93  1  0.16567214  0.83767731  0.50177021  1
  Te2-  Te94  1  0.17495450  0.83086379  0.83523524  1
  Te2-  Te95  1  0.50156650  0.16921150  0.16722207  1
  Te2-  Te96  1  0.48632444  0.17492117  0.50178184  1
  Te2-  Te97  1  0.49678231  0.17018496  0.83207637  1
  Te2-  Te98  1  0.50277021  0.49228677  0.16576746  1
  Te2-  Te99  1  0.49035524  0.48891671  0.49499602  1
  Te2-  Te100  1  0.48377657  0.49629405  0.83666010  1
  Te2-  Te101  1  0.50973950  0.82928248  0.16822325  1
  Te2-  Te102  1  0.49752680  0.82844492  0.49000785  1
  Te2-  Te103  1  0.50503036  0.83115299  0.83599922  1
  Te2-  Te104  1  0.83297250  0.16018602  0.16170494  1
  Te2-  Te105  1  0.84037416  0.17156531  0.50217775  1
  Te2-  Te106  1  0.83280279  0.16133286  0.83419734  1
  Te2-  Te107  1  0.83010576  0.50224003  0.18659249  1
  Te2-  Te108  1  0.83592260  0.50261539  0.48823010  1
  Te2-  Te109  1  0.83357364  0.51164199  0.84006205  1
  Te2-  Te110  1  0.82722274  0.83326742  0.18156327  1
  Te2-  Te111  1  0.84025693  0.82797358  0.49310314  1
  Te2-  Te112  1  0.81898168  0.82952040  0.82893211  1
  Te2-  Te113  1  0.16413323  0.00852872  -0.00262694  1
  Te2-  Te114  1  0.16481704  0.01190806  0.33240312  1
  Te2-  Te115  1  0.16299995  0.00531851  0.67135728  1
  Te2-  Te116  1  0.16884195  0.34601430  0.00655522  1
  Te2-  Te117  1  0.17308473  0.31635351  0.33044637  1
  Te2-  Te118  1  0.15994459  0.33551384  0.66629926  1
  Te2-  Te119  1  0.16020301  0.65580327  0.00640818  1
  Te2-  Te120  1  0.18025096  0.66801333  0.33477103  1
  Te2-  Te121  1  0.16688258  0.66448591  0.65688365  1
  Te2-  Te122  1  0.50140746  0.00021502  -0.00436467  1
  Te2-  Te123  1  0.50212320  0.00404017  0.33248378  1
  Te2-  Te124  1  0.50989713  0.00455188  0.66673675  1
  Te2-  Te125  1  0.50078472  0.33227528  0.00143649  1
  Te2-  Te126  1  0.49822389  0.32813900  0.33458570  1
  Te2-  Te127  1  0.50340861  0.33217379  0.66456260  1
  Te2-  Te128  1  0.49468723  0.66163803  0.00287303  1
  Te2-  Te129  1  0.49675127  0.65710736  0.32187580  1
  Te2-  Te130  1  0.51366642  0.66439666  0.67652094  1
  Te2-  Te131  1  0.83773829  -0.00152909  -0.00325062  1
  Te2-  Te132  1  0.83442805  0.01115221  0.32557825  1
  Te2-  Te133  1  0.83665268  -0.00597460  0.67070850  1
  Te2-  Te134  1  0.83818511  0.34977088  0.00314380  1
  Te2-  Te135  1  0.82981534  0.31416346  0.33373693  1
  Te2-  Te136  1  0.83538823  0.34397150  0.66946174  1
  Te2-  Te137  1  0.84345020  0.65703170  0.00626297  1
  Te2-  Te138  1  0.82271255  0.67376398  0.34106917  1
  Te2-  Te139  1  0.82266218  0.66263756  0.66356757  1
  Te2-  Te140  1  -0.00316816  0.16719542  0.00013222  1
  Te2-  Te141  1  0.00221961  0.16521957  0.33803973  1
  Te2-  Te142  1  0.00326443  0.16759503  0.66821875  1
  Te2-  Te143  1  0.00908289  0.49439906  -0.00359671  1
  Te2-  Te144  1  -0.00279067  0.48816324  0.34016665  1
  Te2-  Te145  1  -0.00976152  0.49918613  0.66390174  1
  Te2-  Te146  1  0.00015459  0.83604923  -0.00183588  1
  Te2-  Te147  1  0.00404319  0.84284129  0.34244516  1
  Te2-  Te148  1  -0.00382993  0.83564132  0.66383834  1
  Te2-  Te149  1  0.33141078  0.16840580  -0.00597356  1
  Te2-  Te150  1  0.33728850  0.15131548  0.34168848  1
  Te2-  Te151  1  0.33291408  0.17081762  0.66414564  1
  Te2-  Te152  1  0.33449012  0.49802398  0.00265209  1
  Te2-  Te153  1  0.33980488  0.50403076  0.33820626  1
  Te2-  Te154  1  0.33117871  0.49341696  0.65765117  1
  Te2-  Te155  1  0.33757607  0.84227479  -0.00299978  1
  Te2-  Te156  1  0.34563875  0.84449448  0.32801704  1
  Te2-  Te157  1  0.33687280  0.83329282  0.67034494  1
  Te2-  Te158  1  0.67139567  0.16749186  -0.00018598  1
  Te2-  Te159  1  0.65852458  0.16426935  0.33274968  1
  Te2-  Te160  1  0.66162713  0.17431191  0.67018018  1
  Te2-  Te161  1  0.66222592  0.50886565  0.00028441  1
  Te2-  Te162  1  0.66631250  0.49115961  0.33017124  1
  Te2-  Te163  1  0.67818717  0.49732143  0.67325954  1
  Te2-  Te164  1  0.66713214  0.82599725  0.00100962  1
  Te2-  Te165  1  0.65238476  0.83248376  0.32923964  1
  Te2-  Te166  1  0.67238669  0.82604918  0.66474525  1
  Te2-  Te167  1  0.00313515  0.00122715  0.16311743  1
  Te2-  Te168  1  -0.01049424  0.00127645  0.50171586  1
  Te2-  Te169  1  0.00102813  -0.00731962  0.83175174  1
  Te2-  Te170  1  -0.00352712  0.33233921  0.16316820  1
  Te2-  Te171  1  -0.01148587  0.34188433  0.50366311  1
  Te2-  Te172  1  0.00118802  0.33325863  0.83485905  1
  Te2-  Te173  1  -0.00699990  0.66763037  0.19000402  1
  Te2-  Te174  1  0.00138547  0.65872199  0.48536195  1
  Te2-  Te175  1  0.00979379  0.66749384  0.82980099  1
  Te2-  Te176  1  0.32808348  -0.00219527  0.15615797  1
  Te2-  Te177  1  0.33142033  -0.00279769  0.49979320  1
  Te2-  Te178  1  0.32971518  0.00174663  0.83102776  1
  Te2-  Te179  1  0.33538509  0.33086646  0.17531759  1
  Te2-  Te180  1  0.33032050  0.33141732  0.48992780  1
  Te2-  Te181  1  0.33697745  0.32983336  0.82783104  1
  Te2-  Te182  1  0.32617088  0.67127340  0.17403801  1
  Te2-  Te183  1  0.34280814  0.67499379  0.49240378  1
  Te2-  Te184  1  0.33463167  0.67171897  0.82955248  1
  Te2-  Te185  1  0.67089151  -0.01099652  0.16325081  1
  Te2-  Te186  1  0.67900023  0.00082966  0.50328284  1
  Te2-  Te187  1  0.66874576  -0.00166530  0.82781143  1
  Te2-  Te188  1  0.66758137  0.32805149  0.16816839  1
  Te2-  Te189  1  0.68092950  0.33338574  0.50080946  1
  Te2-  Te190  1  0.66165663  0.33462635  0.83589206  1
  Te2-  Te191  1  0.68181748  0.67487320  0.16069038  1
  Te2-  Te192  1  0.65324719  0.66297440  0.49649010  1
  Te2-  Te193  1  0.66313679  0.66838318  0.85187926  1
  Pb2+  Pb194  1  0.33309828  0.16447068  0.17057514  1
  Pb2+  Pb195  1  0.83284132  0.82934460  0.00424365  1
  Pb2+  Pb196  1  0.16885067  0.33909089  0.83589212  1
  Pb2+  Pb197  1  0.50430018  0.82871820  0.66258731  1
  Pb2+  Pb198  1  0.16728427  0.83413181  0.66977780  1
  Pb2+  Pb199  1  0.83063677  0.33974528  0.83368455  1
  Pb2+  Pb200  1  0.33214399  0.50130723  0.16908822  1
  Pb2+  Pb201  1  0.17454302  0.83809806  0.33658110  1
  Pb2+  Pb202  1  0.15829806  0.33163087  0.49737867  1
  Pb2+  Pb203  1  0.50738815  0.00255158  0.49948435  1
  Pb2+  Pb204  1  -0.00326186  0.50278265  0.16555958  1
  Pb2+  Pb205  1  -0.00703885  0.66633431  0.66064905  1
  Pb2+  Pb206  1  0.32961905  0.67285085  0.00200098  1
  Pb2+  Pb207  1  0.34093538  0.66108027  0.66000950  1
  Pb2+  Pb208  1  0.67309836  0.83105244  0.49586231  1
  Pb2+  Pb209  1  -0.00235347  0.83317067  0.16937188  1
  Pb2+  Pb210  1  0.66331936  0.16982612  0.50217657  1
  Pb2+  Pb211  1  0.66162453  0.49744514  0.49883662  1
  Pb2+  Pb212  1  0.50572611  0.50129060  0.66645306  1
  Pb2+  Pb213  1  0.83165525  0.17070976  0.66440723  1
  Pb2+  Pb214  1  0.50128638  -0.00503074  0.16376678  1
  Pb2+  Pb215  1  0.16652516  0.83485264  0.00078294  1
