# generated using pymatgen
data_In22Ag21Sn22Bi21(Te54Pb11)2
_symmetry_space_group_name_H-M   'P 1'
_cell_length_a   19.14369176
_cell_length_b   19.15023542
_cell_length_c   19.14671219
_cell_angle_alpha   90.00339348
_cell_angle_beta   89.99255589
_cell_angle_gamma   90.00708700
_symmetry_Int_Tables_number   1
_chemical_formula_structural   In22Ag21Sn22Bi21(Te54Pb11)2
_chemical_formula_sum   'In22 Ag21 Sn22 Bi21 Te108 Pb22'
_cell_volume   7019.30335068
_cell_formula_units_Z   1
loop_
 _symmetry_equiv_pos_site_id
 _symmetry_equiv_pos_as_xyz
  1  'x, y, z'
loop_
 _atom_type_symbol
 _atom_type_oxidation_number
  In3+  3.0
  Ag+  1.0
  Sn2+  2.0
  Bi3+  3.0
  Te2-  -2.0
  Pb2+  2.0
loop_
 _atom_site_type_symbol
 _atom_site_label
 _atom_site_symmetry_multiplicity
 _atom_site_fract_x
 _atom_site_fract_y
 _atom_site_fract_z
 _atom_site_occupancy
  In3+  In0  1  0.18263631  0.66016281  0.17151857  1
  In3+  In1  1  0.00837180  0.17627607  0.82319410  1
  In3+  In2  1  0.83089856  0.66761202  0.82031652  1
  In3+  In3  1  0.66783977  0.00073784  0.36282835  1
  In3+  In4  1  0.18224058  0.66624888  0.82971872  1
  In3+  In5  1  0.33795552  0.83036955  0.48331829  1
  In3+  In6  1  0.00384407  0.80470562  0.50730117  1
  In3+  In7  1  0.01443889  0.50490628  0.16941840  1
  In3+  In8  1  0.83316085  0.66487515  0.15952621  1
  In3+  In9  1  0.66184297  0.33331103  0.00563527  1
  In3+  In10  1  0.84039584  0.50079434  -0.00316007  1
  In3+  In11  1  0.14818790  0.19045364  0.33348931  1
  In3+  In12  1  0.49509440  -0.01106270  0.50327266  1
  In3+  In13  1  0.49363984  0.51045460  0.64098699  1
  In3+  In14  1  0.34224822  0.83339668  0.83998962  1
  In3+  In15  1  -0.00593999  -0.01206064  -0.01522746  1
  In3+  In16  1  0.33266365  0.18779011  0.50497588  1
  In3+  In17  1  0.83205672  0.33036729  0.82151554  1
  In3+  In18  1  0.00914937  0.67026275  -0.00425994  1
  In3+  In19  1  -0.00161949  0.33039665  -0.00159755  1
  In3+  In20  1  0.66865880  0.66234155  0.65997822  1
  In3+  In21  1  0.48197900  0.47944436  0.32792037  1
  Ag+  Ag22  1  0.84323720  0.80421234  -0.02184772  1
  Ag+  Ag23  1  0.33564868  0.67912813  0.64848307  1
  Ag+  Ag24  1  0.82988532  0.02893147  0.84775113  1
  Ag+  Ag25  1  0.85680424  0.19249719  0.37103497  1
  Ag+  Ag26  1  0.81772541  0.13986852  0.67878133  1
  Ag+  Ag27  1  0.85658215  0.50535706  0.68511014  1
  Ag+  Ag28  1  0.47929934  0.80525293  0.35784213  1
  Ag+  Ag29  1  0.01286445  0.35882784  0.35981533  1
  Ag+  Ag30  1  0.47713630  0.30897622  0.50310076  1
  Ag+  Ag31  1  0.65173569  0.02537752  0.66816614  1
  Ag+  Ag32  1  0.35653114  0.02827012  -0.00784244  1
  Ag+  Ag33  1  0.30689613  0.49063239  0.18421347  1
  Ag+  Ag34  1  0.50301171  0.65433759  0.47070882  1
  Ag+  Ag35  1  0.13552935  0.36189934  0.47593700  1
  Ag+  Ag36  1  -0.02591588  0.33255302  0.65100253  1
  Ag+  Ag37  1  0.31215810  0.66369598  0.00228134  1
  Ag+  Ag38  1  0.02725453  0.50227161  0.52209318  1
  Ag+  Ag39  1  0.36251376  0.12897804  0.87194830  1
  Ag+  Ag40  1  0.14313834  0.48520641  -0.00416275  1
  Ag+  Ag41  1  0.15312358  0.50512878  0.35270200  1
  Ag+  Ag42  1  0.47474071  0.33388239  0.14013043  1
  Sn2+  Sn43  1  0.33646318  0.00435576  0.32489865  1
  Sn2+  Sn44  1  0.00832565  0.65409442  0.66716661  1
  Sn2+  Sn45  1  0.16944888  0.83164704  0.00368156  1
  Sn2+  Sn46  1  0.67061367  0.49513984  0.82761765  1
  Sn2+  Sn47  1  0.67082406  0.33656697  0.66597399  1
  Sn2+  Sn48  1  0.17810404  0.66271281  0.50089363  1
  Sn2+  Sn49  1  0.50911334  -0.00054649  0.82841734  1
  Sn2+  Sn50  1  0.83095053  0.83735369  0.66994983  1
  Sn2+  Sn51  1  0.33595842  0.82757704  0.15407805  1
  Sn2+  Sn52  1  0.82666425  0.65953891  0.50604256  1
  Sn2+  Sn53  1  -0.00603525  0.83498695  0.17192178  1
  Sn2+  Sn54  1  0.49624003  0.66366295  0.83124456  1
  Sn2+  Sn55  1  0.49422876  0.82318705  0.66320250  1
  Sn2+  Sn56  1  0.66253162  0.83917970  0.16773602  1
  Sn2+  Sn57  1  0.16656550  0.16625859  0.00023484  1
  Sn2+  Sn58  1  0.33192331  0.32830927  0.33124295  1
  Sn2+  Sn59  1  0.17255089  0.00476979  0.49581779  1
  Sn2+  Sn60  1  0.49686432  0.65392927  0.16706449  1
  Sn2+  Sn61  1  0.33319263  0.50523037  0.49846272  1
  Sn2+  Sn62  1  0.49971596  0.33745589  0.81878255  1
  Sn2+  Sn63  1  0.84029091  0.00086600  0.50153141  1
  Sn2+  Sn64  1  -0.00537990  0.17076264  0.16102474  1
  Bi3+  Bi65  1  0.83689386  0.17431410  -0.00329902  1
  Bi3+  Bi66  1  0.16747496  0.83167315  0.66830973  1
  Bi3+  Bi67  1  0.83247253  0.83734395  0.33715767  1
  Bi3+  Bi68  1  0.33785405  0.49945752  0.83591814  1
  Bi3+  Bi69  1  0.00151272  0.17242174  0.50404542  1
  Bi3+  Bi70  1  0.50536223  0.83020057  0.00333848  1
  Bi3+  Bi71  1  0.66748348  0.83122433  0.83319039  1
  Bi3+  Bi72  1  0.50010163  0.16644802  0.33557078  1
  Bi3+  Bi73  1  0.16541088  0.16688601  0.66184892  1
  Bi3+  Bi74  1  0.66897434  0.66376026  -0.00220910  1
  Bi3+  Bi75  1  0.50411230  0.50082631  0.00576543  1
  Bi3+  Bi76  1  0.16792176  0.33442069  0.83202704  1
  Bi3+  Bi77  1  -0.00265483  0.83161079  0.83082838  1
  Bi3+  Bi78  1  0.33521740  0.33899530  0.66683454  1
  Bi3+  Bi79  1  0.83358741  0.33370164  0.16260861  1
  Bi3+  Bi80  1  0.66652619  0.50158546  0.49683025  1
  Bi3+  Bi81  1  0.83189385  0.33792573  0.50030100  1
  Bi3+  Bi82  1  0.66780080  0.50121952  0.16721124  1
  Bi3+  Bi83  1  0.66467710  0.16821892  0.16697497  1
  Bi3+  Bi84  1  -0.00180816  -0.00124813  0.33456454  1
  Bi3+  Bi85  1  0.16720320  -0.00665107  0.16730657  1
  Te2-  Te86  1  0.16223978  0.16328895  0.17377034  1
  Te2-  Te87  1  0.16730653  0.16937641  0.49613088  1
  Te2-  Te88  1  0.16372976  0.16807491  0.82986035  1
  Te2-  Te89  1  0.16653653  0.50986167  0.14393461  1
  Te2-  Te90  1  0.17260193  0.50330501  0.49955082  1
  Te2-  Te91  1  0.17217475  0.50503108  0.84614833  1
  Te2-  Te92  1  0.16353651  0.82663473  0.16627222  1
  Te2-  Te93  1  0.16515217  0.82854283  0.50577777  1
  Te2-  Te94  1  0.15808088  0.82824849  0.83391630  1
  Te2-  Te95  1  0.50015105  0.18110422  0.16992686  1
  Te2-  Te96  1  0.49357253  0.16070220  0.49898896  1
  Te2-  Te97  1  0.49874944  0.16351381  0.83284787  1
  Te2-  Te98  1  0.50674938  0.48251188  0.17155918  1
  Te2-  Te99  1  0.50065907  0.50807183  0.48760405  1
  Te2-  Te100  1  0.50155320  0.49690984  0.84052022  1
  Te2-  Te101  1  0.50217153  0.83162513  0.16365458  1
  Te2-  Te102  1  0.49741779  0.83458019  0.49980736  1
  Te2-  Te103  1  0.50313965  0.83534716  0.83714470  1
  Te2-  Te104  1  0.82980482  0.17061277  0.16088005  1
  Te2-  Te105  1  0.83805927  0.17214060  0.51408673  1
  Te2-  Te106  1  0.84154143  0.17504178  0.82556412  1
  Te2-  Te107  1  0.83151906  0.49978895  0.16004203  1
  Te2-  Te108  1  0.82784455  0.50048649  0.50101864  1
  Te2-  Te109  1  0.83104703  0.50399853  0.83278739  1
  Te2-  Te110  1  0.83394120  0.82644428  0.17301313  1
  Te2-  Te111  1  0.84370281  0.82750700  0.50125545  1
  Te2-  Te112  1  0.83326343  0.82607743  0.83242105  1
  Te2-  Te113  1  0.15024149  0.00014851  0.00558321  1
  Te2-  Te114  1  0.16778631  -0.00326336  0.32925870  1
  Te2-  Te115  1  0.16774687  -0.00148011  0.66719494  1
  Te2-  Te116  1  0.15867767  0.33624663  -0.00469903  1
  Te2-  Te117  1  0.16076463  0.34153665  0.33307162  1
  Te2-  Te118  1  0.17335678  0.32921105  0.67094409  1
  Te2-  Te119  1  0.16153447  0.67445801  -0.00089876  1
  Te2-  Te120  1  0.16716386  0.65532444  0.32589304  1
  Te2-  Te121  1  0.17567083  0.66894996  0.67028441  1
  Te2-  Te122  1  0.50032314  -0.00530842  -0.00117304  1
  Te2-  Te123  1  0.50551875  0.00292981  0.34339231  1
  Te2-  Te124  1  0.50535038  -0.00387839  0.66311977  1
  Te2-  Te125  1  0.50164625  0.33549996  -0.00579233  1
  Te2-  Te126  1  0.49755829  0.32919597  0.35138275  1
  Te2-  Te127  1  0.49764077  0.33990410  0.65452798  1
  Te2-  Te128  1  0.50813821  0.66743584  0.00179456  1
  Te2-  Te129  1  0.50134738  0.66565438  0.32382883  1
  Te2-  Te130  1  0.48510884  0.66322742  0.67289109  1
  Te2-  Te131  1  0.84034351  0.00978193  -0.00473489  1
  Te2-  Te132  1  0.83107203  -0.00098717  0.33630329  1
  Te2-  Te133  1  0.83334933  -0.00557546  0.65849552  1
  Te2-  Te134  1  0.83605573  0.33766583  -0.00567097  1
  Te2-  Te135  1  0.84130618  0.33112684  0.32846715  1
  Te2-  Te136  1  0.83028457  0.35442205  0.67073901  1
  Te2-  Te137  1  0.83149997  0.66040980  0.00046262  1
  Te2-  Te138  1  0.83453519  0.67260470  0.33770953  1
  Te2-  Te139  1  0.83308347  0.65720046  0.66494509  1
  Te2-  Te140  1  -0.00121710  0.17226320  -0.00510854  1
  Te2-  Te141  1  -0.00401320  0.16121037  0.33356003  1
  Te2-  Te142  1  0.00215198  0.18178077  0.66827428  1
  Te2-  Te143  1  -0.00444636  0.50709795  0.00211359  1
  Te2-  Te144  1  0.00833630  0.49967263  0.32055145  1
  Te2-  Te145  1  0.00347237  0.49427526  0.66632688  1
  Te2-  Te146  1  -0.01127776  0.83345020  -0.00171927  1
  Te2-  Te147  1  -0.00042600  0.83582978  0.34348948  1
  Te2-  Te148  1  0.00339093  0.82727192  0.66469109  1
  Te2-  Te149  1  0.32515464  0.17287050  0.00596853  1
  Te2-  Te150  1  0.33552137  0.16142177  0.34466487  1
  Te2-  Te151  1  0.32942835  0.16732382  0.65963632  1
  Te2-  Te152  1  0.34601712  0.51250324  -0.00413194  1
  Te2-  Te153  1  0.33232476  0.49600286  0.32941207  1
  Te2-  Te154  1  0.34074667  0.50635954  0.67182450  1
  Te2-  Te155  1  0.33901234  0.81985094  -0.00302158  1
  Te2-  Te156  1  0.33822632  0.83723959  0.32855241  1
  Te2-  Te157  1  0.32953228  0.82532171  0.68426510  1
  Te2-  Te158  1  0.67185565  0.17022700  0.00105654  1
  Te2-  Te159  1  0.66511988  0.15867259  0.32998798  1
  Te2-  Te160  1  0.67479058  0.17305212  0.66631653  1
  Te2-  Te161  1  0.67057673  0.49909029  0.00195234  1
  Te2-  Te162  1  0.66969177  0.50213843  0.33086398  1
  Te2-  Te163  1  0.65110765  0.50794039  0.66149302  1
  Te2-  Te164  1  0.67659374  0.82884911  -0.00121603  1
  Te2-  Te165  1  0.66896216  0.84490905  0.33425962  1
  Te2-  Te166  1  0.66359395  0.81760110  0.67189249  1
  Te2-  Te167  1  0.00185196  0.00025125  0.17209753  1
  Te2-  Te168  1  0.00521313  0.00765986  0.49616617  1
  Te2-  Te169  1  -0.01524452  -0.00377896  0.83184703  1
  Te2-  Te170  1  -0.00496268  0.33911262  0.15566918  1
  Te2-  Te171  1  -0.00568071  0.33661700  0.50372939  1
  Te2-  Te172  1  0.00110151  0.33256826  0.83737885  1
  Te2-  Te173  1  -0.00975875  0.66611779  0.15453042  1
  Te2-  Te174  1  0.00415292  0.65232268  0.50342295  1
  Te2-  Te175  1  -0.01044551  0.67001816  0.83679343  1
  Te2-  Te176  1  0.32836775  -0.00326239  0.15448284  1
  Te2-  Te177  1  0.33526993  -0.01579042  0.50084839  1
  Te2-  Te178  1  0.33173619  -0.01048356  0.84515091  1
  Te2-  Te179  1  0.33038538  0.34356708  0.17110121  1
  Te2-  Te180  1  0.33191387  0.34155775  0.50371545  1
  Te2-  Te181  1  0.33270817  0.33298699  0.82959935  1
  Te2-  Te182  1  0.33384292  0.65729767  0.15751220  1
  Te2-  Te183  1  0.33960277  0.67576504  0.50109526  1
  Te2-  Te184  1  0.33222480  0.66736117  0.84787949  1
  Te2-  Te185  1  0.66424905  0.00444690  0.16033254  1
  Te2-  Te186  1  0.66784891  0.00002157  0.51638914  1
  Te2-  Te187  1  0.67879278  -0.00558378  0.81990239  1
  Te2-  Te188  1  0.67091623  0.33411532  0.16452316  1
  Te2-  Te189  1  0.67031959  0.33926288  0.49951553  1
  Te2-  Te190  1  0.67096576  0.33490511  0.83375071  1
  Te2-  Te191  1  0.67103996  0.66592948  0.16303578  1
  Te2-  Te192  1  0.65187910  0.66596499  0.50532024  1
  Te2-  Te193  1  0.67042882  0.66690039  0.83271305  1
  Pb2+  Pb194  1  0.00270399  0.50011702  0.83271845  1
  Pb2+  Pb195  1  0.66800414  0.67232704  0.33354713  1
  Pb2+  Pb196  1  0.16356543  0.33661383  0.16657251  1
  Pb2+  Pb197  1  0.49891902  0.16595312  0.00308946  1
  Pb2+  Pb198  1  0.83145332  -0.00354019  0.16542792  1
  Pb2+  Pb199  1  0.16125978  -0.00097780  0.83811220  1
  Pb2+  Pb200  1  0.66601587  0.16977030  0.49865974  1
  Pb2+  Pb201  1  0.17257696  0.49704779  0.67301944  1
  Pb2+  Pb202  1  0.33471556  0.66347995  0.33034585  1
  Pb2+  Pb203  1  0.33911055  -0.00435560  0.67297110  1
  Pb2+  Pb204  1  0.49956247  0.17142417  0.66655668  1
  Pb2+  Pb205  1  0.67010869  0.33145598  0.33167311  1
  Pb2+  Pb206  1  0.33012656  0.16706795  0.17617891  1
  Pb2+  Pb207  1  -0.00003319  0.66659933  0.32656104  1
  Pb2+  Pb208  1  0.66962701  0.16384877  0.83114335  1
  Pb2+  Pb209  1  0.84057589  0.49832793  0.33384207  1
  Pb2+  Pb210  1  0.32989341  0.34791813  0.00093083  1
  Pb2+  Pb211  1  0.17058009  0.82891692  0.33526194  1
  Pb2+  Pb212  1  -0.00298651  0.00551178  0.66482616  1
  Pb2+  Pb213  1  0.49761738  0.00241797  0.17459635  1
  Pb2+  Pb214  1  0.67288068  0.83400395  0.50373734  1
  Pb2+  Pb215  1  0.67060903  -0.00371695  -0.01005288  1
