# generated using pymatgen
data_In22Ag21Sn22Bi21(Te54Pb11)2
_symmetry_space_group_name_H-M   'P 1'
_cell_length_a   19.12809267
_cell_length_b   19.14385542
_cell_length_c   19.14236487
_cell_angle_alpha   90.03137720
_cell_angle_beta   89.99568915
_cell_angle_gamma   89.99253652
_symmetry_Int_Tables_number   1
_chemical_formula_structural   In22Ag21Sn22Bi21(Te54Pb11)2
_chemical_formula_sum   'In22 Ag21 Sn22 Bi21 Te108 Pb22'
_cell_volume   7009.65418155
_cell_formula_units_Z   1
loop_
 _symmetry_equiv_pos_site_id
 _symmetry_equiv_pos_as_xyz
  1  'x, y, z'
loop_
 _atom_type_symbol
 _atom_type_oxidation_number
  In3+  3.0
  Ag+  1.0
  Sn2+  2.0
  Bi3+  3.0
  Te2-  -2.0
  Pb2+  2.0
loop_
 _atom_site_type_symbol
 _atom_site_label
 _atom_site_symmetry_multiplicity
 _atom_site_fract_x
 _atom_site_fract_y
 _atom_site_fract_z
 _atom_site_occupancy
  In3+  In0  1  0.16169454  0.16637864  0.33902298  1
  In3+  In1  1  0.51326993  0.32319950  0.83290643  1
  In3+  In2  1  0.83822647  0.19235642  0.33522277  1
  In3+  In3  1  0.00306445  0.02328505  0.67010326  1
  In3+  In4  1  0.33028025  0.03014972  0.00283470  1
  In3+  In5  1  0.16412387  0.19058520  0.00160346  1
  In3+  In6  1  -0.00005406  0.49915680  0.16756123  1
  In3+  In7  1  0.65061929  0.83587740  0.50616963  1
  In3+  In8  1  0.17708386  0.66476701  0.51297134  1
  In3+  In9  1  0.83898003  -0.00965180  0.16943950  1
  In3+  In10  1  0.84758812  0.16495463  0.00396189  1
  In3+  In11  1  0.16224807  0.16847201  0.65139314  1
  In3+  In12  1  0.00834657  0.65099350  -0.01109804  1
  In3+  In13  1  0.84434884  0.34148595  0.82966599  1
  In3+  In14  1  0.16663407  0.64754717  0.16754838  1
  In3+  In15  1  0.01790517  -0.00191277  -0.00918768  1
  In3+  In16  1  0.33577462  0.65964558  0.33801336  1
  In3+  In17  1  0.83696810  0.83438877  0.65246642  1
  In3+  In18  1  0.84077252  0.33782699  0.50420568  1
  In3+  In19  1  0.00076671  0.17948527  0.83194211  1
  In3+  In20  1  0.48402466  0.49487354  -0.00356656  1
  In3+  In21  1  0.48092721  0.16526970  0.34579045  1
  Ag+  Ag22  1  -0.00127257  0.14313718  0.52472012  1
  Ag+  Ag23  1  0.14824677  0.49226577  -0.00515491  1
  Ag+  Ag24  1  0.47341389  0.02636406  0.49258159  1
  Ag+  Ag25  1  0.34449222  0.64051640  0.69154449  1
  Ag+  Ag26  1  0.02879991  0.50253437  0.51813720  1
  Ag+  Ag27  1  0.49800457  0.52306177  0.35742776  1
  Ag+  Ag28  1  0.00678415  0.80636789  0.18740100  1
  Ag+  Ag29  1  0.16817786  0.02492440  0.84028723  1
  Ag+  Ag30  1  0.35864825  0.33373299  0.02221960  1
  Ag+  Ag31  1  0.36441670  0.47559369  0.47248145  1
  Ag+  Ag32  1  0.46719285  0.64600634  0.53023787  1
  Ag+  Ag33  1  0.00571267  0.48049931  0.81620568  1
  Ag+  Ag34  1  0.86217858  0.49651876  0.35123372  1
  Ag+  Ag35  1  0.16558487  0.66235424  0.81621435  1
  Ag+  Ag36  1  0.46943577  0.36613608  0.46415171  1
  Ag+  Ag37  1  -0.01464809  0.33184699  0.63765111  1
  Ag+  Ag38  1  0.01477163  0.35101181  -0.00986677  1
  Ag+  Ag39  1  0.32197111  0.00271992  0.30589292  1
  Ag+  Ag40  1  0.50342387  0.14215572  0.03037831  1
  Ag+  Ag41  1  0.17085569  0.34615651  0.15786983  1
  Ag+  Ag42  1  0.64158817  0.50254414  0.84668987  1
  Sn2+  Sn43  1  0.66953041  0.49862878  0.16291082  1
  Sn2+  Sn44  1  0.83667780  0.00519524  0.48627223  1
  Sn2+  Sn45  1  0.16353160  0.82830385  -0.00143841  1
  Sn2+  Sn46  1  0.00079868  0.00254653  0.33172573  1
  Sn2+  Sn47  1  0.31970577  0.83159563  0.16452505  1
  Sn2+  Sn48  1  0.33224217  0.17483277  0.16671669  1
  Sn2+  Sn49  1  0.49396256  0.66996746  0.83665113  1
  Sn2+  Sn50  1  0.83529842  0.82097331  0.33218597  1
  Sn2+  Sn51  1  0.49542618  0.66542652  0.16435391  1
  Sn2+  Sn52  1  0.66901030  0.33217183  0.00031220  1
  Sn2+  Sn53  1  0.33640212  0.33213408  0.33084316  1
  Sn2+  Sn54  1  0.16448960  0.49520529  0.67356950  1
  Sn2+  Sn55  1  0.33302187  0.17004964  0.49877886  1
  Sn2+  Sn56  1  0.49239195  0.83064526  0.00392710  1
  Sn2+  Sn57  1  0.49280716  0.33469677  0.16104864  1
  Sn2+  Sn58  1  0.66613300  0.82157251  0.83458375  1
  Sn2+  Sn59  1  0.49193942  0.83554593  0.66307261  1
  Sn2+  Sn60  1  0.32937670  0.16696202  0.83826803  1
  Sn2+  Sn61  1  0.17615394  0.49480836  0.33447844  1
  Sn2+  Sn62  1  0.65949421  0.00085980  0.33745293  1
  Sn2+  Sn63  1  0.67543895  0.16268526  0.49789638  1
  Sn2+  Sn64  1  0.32701704  0.65546899  -0.00279546  1
  Bi3+  Bi65  1  0.49491939  0.16549273  0.66274936  1
  Bi3+  Bi66  1  0.16741871  0.33951642  0.83854158  1
  Bi3+  Bi67  1  0.83426039  0.33297102  0.16084777  1
  Bi3+  Bi68  1  0.83596572  0.66497354  0.16640098  1
  Bi3+  Bi69  1  0.66242092  0.66486085  0.33410362  1
  Bi3+  Bi70  1  0.33169445  0.00040151  0.67182957  1
  Bi3+  Bi71  1  0.83465611  0.49418422  -0.00075483  1
  Bi3+  Bi72  1  0.32784175  0.33321777  0.66792948  1
  Bi3+  Bi73  1  0.83364785  0.83743155  -0.00106743  1
  Bi3+  Bi74  1  0.33467478  0.83716287  0.49624405  1
  Bi3+  Bi75  1  0.00274998  0.83204698  0.83698422  1
  Bi3+  Bi76  1  0.00304408  0.65833266  0.66763801  1
  Bi3+  Bi77  1  0.83115557  0.66369350  0.49657439  1
  Bi3+  Bi78  1  0.32438310  0.49664199  0.83509270  1
  Bi3+  Bi79  1  0.16231948  0.00294835  0.15902469  1
  Bi3+  Bi80  1  0.67104597  -0.00051628  0.66557136  1
  Bi3+  Bi81  1  0.67086022  0.33435972  0.66811787  1
  Bi3+  Bi82  1  0.33686316  0.50048610  0.16735397  1
  Bi3+  Bi83  1  0.00172076  0.17004124  0.16526307  1
  Bi3+  Bi84  1  0.00579598  0.33428494  0.32726758  1
  Bi3+  Bi85  1  0.66793273  0.50016872  0.49764210  1
  Te2-  Te86  1  0.16550144  0.16401744  0.15513721  1
  Te2-  Te87  1  0.14902210  0.16952837  0.49796689  1
  Te2-  Te88  1  0.15922227  0.17316790  0.84556151  1
  Te2-  Te89  1  0.17236196  0.49312553  0.16513694  1
  Te2-  Te90  1  0.17435436  0.51219494  0.49356316  1
  Te2-  Te91  1  0.15915776  0.50162403  0.84321213  1
  Te2-  Te92  1  0.15270166  0.84221459  0.16104884  1
  Te2-  Te93  1  0.16865304  0.82534156  0.49907828  1
  Te2-  Te94  1  0.16404192  0.81404230  0.83881994  1
  Te2-  Te95  1  0.49361912  0.16995431  0.17446003  1
  Te2-  Te96  1  0.50473957  0.16928950  0.49927624  1
  Te2-  Te97  1  0.49891511  0.16892646  0.82675281  1
  Te2-  Te98  1  0.49969484  0.49670364  0.15371924  1
  Te2-  Te99  1  0.50552838  0.50401208  0.50473428  1
  Te2-  Te100  1  0.49301645  0.50233626  0.84101535  1
  Te2-  Te101  1  0.49840859  0.83481529  0.16321748  1
  Te2-  Te102  1  0.49866146  0.82806889  0.50284946  1
  Te2-  Te103  1  0.50220783  0.83192514  0.83432170  1
  Te2-  Te104  1  0.83648207  0.16897544  0.16809292  1
  Te2-  Te105  1  0.85013567  0.17169197  0.49296018  1
  Te2-  Te106  1  0.84350246  0.16894199  0.83738838  1
  Te2-  Te107  1  0.83351756  0.49971371  0.16150586  1
  Te2-  Te108  1  0.82897525  0.49909877  0.49471301  1
  Te2-  Te109  1  0.85395917  0.49449263  0.83816435  1
  Te2-  Te110  1  0.84815211  0.83002043  0.16273707  1
  Te2-  Te111  1  0.83171676  0.82774468  0.49940504  1
  Te2-  Te112  1  0.83394773  0.83171643  0.83753002  1
  Te2-  Te113  1  0.17482357  0.00033982  -0.00694502  1
  Te2-  Te114  1  0.17018157  0.01047220  0.32599452  1
  Te2-  Te115  1  0.16533844  0.01149979  0.67550217  1
  Te2-  Te116  1  0.16161968  0.33942348  0.00486797  1
  Te2-  Te117  1  0.16785439  0.32570755  0.32405669  1
  Te2-  Te118  1  0.16526968  0.32685557  0.67123913  1
  Te2-  Te119  1  0.16049597  0.65667855  0.01478301  1
  Te2-  Te120  1  0.17387104  0.66489880  0.32069021  1
  Te2-  Te121  1  0.16545103  0.66418187  0.66617997  1
  Te2-  Te122  1  0.48561336  0.00021482  -0.00321628  1
  Te2-  Te123  1  0.50363106  0.01230810  0.34599180  1
  Te2-  Te124  1  0.50218782  0.00321404  0.65672526  1
  Te2-  Te125  1  0.50287688  0.34135286  -0.00824605  1
  Te2-  Te126  1  0.49587721  0.31772121  0.33011514  1
  Te2-  Te127  1  0.49958032  0.32692785  0.67016227  1
  Te2-  Te128  1  0.49724587  0.66615347  -0.00081180  1
  Te2-  Te129  1  0.49431368  0.66839572  0.32453886  1
  Te2-  Te130  1  0.48843947  0.66959392  0.67295012  1
  Te2-  Te131  1  0.82935743  0.00291341  0.00715517  1
  Te2-  Te132  1  0.83452058  -0.01042892  0.32648729  1
  Te2-  Te133  1  0.83750346  -0.00493163  0.66499975  1
  Te2-  Te134  1  0.83402805  0.32751332  -0.00052322  1
  Te2-  Te135  1  0.83649484  0.34736002  0.32489693  1
  Te2-  Te136  1  0.84037236  0.33086296  0.67174732  1
  Te2-  Te137  1  0.84026571  0.66726809  0.00434521  1
  Te2-  Te138  1  0.83009817  0.65277148  0.33031265  1
  Te2-  Te139  1  0.83411274  0.67172922  0.66247617  1
  Te2-  Te140  1  0.00380846  0.15804717  -0.00152515  1
  Te2-  Te141  1  -0.00087384  0.16892015  0.32893255  1
  Te2-  Te142  1  0.00418609  0.18324454  0.66865851  1
  Te2-  Te143  1  -0.00033121  0.49751671  0.00981836  1
  Te2-  Te144  1  0.00772573  0.49632736  0.32220380  1
  Te2-  Te145  1  0.00476075  0.49545523  0.66633748  1
  Te2-  Te146  1  -0.00538221  0.84510034  -0.00297162  1
  Te2-  Te147  1  -0.00103245  0.83484862  0.33231008  1
  Te2-  Te148  1  -0.00397247  0.82396311  0.67224041  1
  Te2-  Te149  1  0.34382615  0.18185370  -0.00182608  1
  Te2-  Te150  1  0.32577837  0.15682278  0.33944704  1
  Te2-  Te151  1  0.32847108  0.16696846  0.66631492  1
  Te2-  Te152  1  0.33180746  0.48717033  0.00224962  1
  Te2-  Te153  1  0.34640619  0.50220896  0.32904130  1
  Te2-  Te154  1  0.32650010  0.49639734  0.66970092  1
  Te2-  Te155  1  0.33184906  0.82361117  0.00570116  1
  Te2-  Te156  1  0.33408388  0.85562662  0.33154308  1
  Te2-  Te157  1  0.33077680  0.83820622  0.66516348  1
  Te2-  Te158  1  0.64750947  0.17021546  -0.00042709  1
  Te2-  Te159  1  0.68529373  0.16554319  0.33829129  1
  Te2-  Te160  1  0.66508520  0.16825631  0.66641793  1
  Te2-  Te161  1  0.67376622  0.49616313  -0.00814251  1
  Te2-  Te162  1  0.64854993  0.50335245  0.33362959  1
  Te2-  Te163  1  0.66732547  0.49649904  0.66491522  1
  Te2-  Te164  1  0.66857928  0.83381999  -0.00051158  1
  Te2-  Te165  1  0.66876599  0.83074264  0.33812445  1
  Te2-  Te166  1  0.66797849  0.83700872  0.66666199  1
  Te2-  Te167  1  -0.00215047  0.00798274  0.16273842  1
  Te2-  Te168  1  -0.00144799  -0.00364472  0.50519562  1
  Te2-  Te169  1  0.01519388  -0.00315573  0.83100007  1
  Te2-  Te170  1  -0.00139410  0.33238426  0.16294767  1
  Te2-  Te171  1  -0.00519046  0.35325615  0.49185198  1
  Te2-  Te172  1  0.00121540  0.33321883  0.84298614  1
  Te2-  Te173  1  0.00027863  0.66100176  0.16307771  1
  Te2-  Te174  1  -0.00350701  0.65282924  0.50232784  1
  Te2-  Te175  1  0.01029357  0.66660852  0.83454517  1
  Te2-  Te176  1  0.32852404  0.00268816  0.15766403  1
  Te2-  Te177  1  0.32915745  0.00125676  0.51010909  1
  Te2-  Te178  1  0.32065299  0.00229259  0.83409224  1
  Te2-  Te179  1  0.32364990  0.33480961  0.16730493  1
  Te2-  Te180  1  0.32936437  0.33361421  0.50235917  1
  Te2-  Te181  1  0.32949532  0.33474977  0.82907196  1
  Te2-  Te182  1  0.32788409  0.66490487  0.16847698  1
  Te2-  Te183  1  0.33069639  0.67540484  0.49030801  1
  Te2-  Te184  1  0.32145584  0.65932650  0.83637611  1
  Te2-  Te185  1  0.66936512  0.00080926  0.17023714  1
  Te2-  Te186  1  0.67491275  -0.00528606  0.50432377  1
  Te2-  Te187  1  0.66930806  0.00086690  0.82773554  1
  Te2-  Te188  1  0.66836150  0.33655860  0.16905022  1
  Te2-  Te189  1  0.68101437  0.33257613  0.50658165  1
  Te2-  Te190  1  0.66936763  0.34790996  0.82845670  1
  Te2-  Te191  1  0.66962818  0.66626594  0.16968574  1
  Te2-  Te192  1  0.66730743  0.66911951  0.49586130  1
  Te2-  Te193  1  0.66587602  0.65491110  0.83087857  1
  Pb2+  Pb194  1  0.65624469  0.66723107  0.66448106  1
  Pb2+  Pb195  1  0.16516910  -0.00083466  0.50206803  1
  Pb2+  Pb196  1  0.67541938  0.83414867  0.16969696  1
  Pb2+  Pb197  1  0.84565235  0.00034436  0.83670846  1
  Pb2+  Pb198  1  0.66458477  0.33663003  0.33939475  1
  Pb2+  Pb199  1  0.66524969  0.66232234  -0.00219854  1
  Pb2+  Pb200  1  0.49559008  0.00057503  0.82683944  1
  Pb2+  Pb201  1  0.66619030  0.16937122  0.16615379  1
  Pb2+  Pb202  1  0.49803274  0.83763270  0.33483263  1
  Pb2+  Pb203  1  0.83923396  0.66277409  0.83406120  1
  Pb2+  Pb204  1  0.16090087  0.34208319  0.49691330  1
  Pb2+  Pb205  1  0.16436045  0.83692862  0.67303151  1
  Pb2+  Pb206  1  0.49587117  0.49363792  0.67304861  1
  Pb2+  Pb207  1  0.67171132  0.17527782  0.83695454  1
  Pb2+  Pb208  1  0.00368371  0.66313150  0.33440027  1
  Pb2+  Pb209  1  0.49889337  0.00173784  0.17127131  1
  Pb2+  Pb210  1  0.83356736  0.16331504  0.66087809  1
  Pb2+  Pb211  1  0.33155012  0.83222964  0.83833373  1
  Pb2+  Pb212  1  0.17118906  0.83398264  0.32672073  1
  Pb2+  Pb213  1  0.83579622  0.50046812  0.66352216  1
  Pb2+  Pb214  1  -0.00029972  0.82327106  0.50255277  1
  Pb2+  Pb215  1  0.66164030  0.00335157  -0.00201919  1
