# generated using pymatgen
data_In22Ag21Sn22Bi21(Te54Pb11)2
_symmetry_space_group_name_H-M   'P 1'
_cell_length_a   19.14174575
_cell_length_b   19.10770513
_cell_length_c   19.14774131
_cell_angle_alpha   89.99272195
_cell_angle_beta   90.00396032
_cell_angle_gamma   89.99491112
_symmetry_Int_Tables_number   1
_chemical_formula_structural   In22Ag21Sn22Bi21(Te54Pb11)2
_chemical_formula_sum   'In22 Ag21 Sn22 Bi21 Te108 Pb22'
_cell_volume   7003.37883239
_cell_formula_units_Z   1
loop_
 _symmetry_equiv_pos_site_id
 _symmetry_equiv_pos_as_xyz
  1  'x, y, z'
loop_
 _atom_type_symbol
 _atom_type_oxidation_number
  In3+  3.0
  Ag+  1.0
  Sn2+  2.0
  Bi3+  3.0
  Te2-  -2.0
  Pb2+  2.0
loop_
 _atom_site_type_symbol
 _atom_site_label
 _atom_site_symmetry_multiplicity
 _atom_site_fract_x
 _atom_site_fract_y
 _atom_site_fract_z
 _atom_site_occupancy
  In3+  In0  1  0.16775698  0.17065491  0.67416521  1
  In3+  In1  1  0.33140355  0.00927928  0.00106877  1
  In3+  In2  1  0.33122507  0.65743254  -0.01274303  1
  In3+  In3  1  0.82230217  0.00419621  0.16132089  1
  In3+  In4  1  0.00591100  0.00485048  0.00574549  1
  In3+  In5  1  0.15034699  0.51991026  0.33581857  1
  In3+  In6  1  0.66941225  0.00875483  0.32606276  1
  In3+  In7  1  0.85095099  0.51014799  0.00846690  1
  In3+  In8  1  0.48331653  0.32024985  0.50234308  1
  In3+  In9  1  0.01010164  0.33682537  0.33517217  1
  In3+  In10  1  0.49904489  -0.02565691  0.50234633  1
  In3+  In11  1  0.50890432  0.81886067  0.66133185  1
  In3+  In12  1  0.18260584  0.00028524  0.83586815  1
  In3+  In13  1  0.65781919  0.50704834  0.50943466  1
  In3+  In14  1  0.50332760  0.17051478  0.66621500  1
  In3+  In15  1  0.49917269  0.31437571  0.17410601  1
  In3+  In16  1  0.66328732  0.01302799  0.66192149  1
  In3+  In17  1  0.16052966  0.00511196  0.51768436  1
  In3+  In18  1  0.81986654  0.65919522  0.81716454  1
  In3+  In19  1  0.49910990  0.15230315  0.32430813  1
  In3+  In20  1  0.33211548  0.82161279  0.82930335  1
  In3+  In21  1  0.35567493  0.67229491  0.32567549  1
  Ag+  Ag22  1  0.52566724  0.67192260  0.18776258  1
  Ag+  Ag23  1  0.14777981  0.51484908  -0.02195214  1
  Ag+  Ag24  1  0.32385510  0.31016639  0.68627162  1
  Ag+  Ag25  1  0.46352414  0.66991915  0.81183370  1
  Ag+  Ag26  1  0.69182961  0.67605988  0.63916719  1
  Ag+  Ag27  1  0.17707902  0.80742518  0.69330147  1
  Ag+  Ag28  1  0.33018663  0.15715829  0.18740006  1
  Ag+  Ag29  1  0.82606995  0.16892633  0.64241961  1
  Ag+  Ag30  1  0.80046091  0.63790667  0.52508641  1
  Ag+  Ag31  1  0.33886530  0.64481826  0.64557214  1
  Ag+  Ag32  1  0.02100273  0.50835002  0.16998632  1
  Ag+  Ag33  1  0.35882995  0.16368119  0.83054124  1
  Ag+  Ag34  1  0.68768216  0.16730825  0.17227153  1
  Ag+  Ag35  1  0.66449301  0.69750388  0.34938588  1
  Ag+  Ag36  1  0.86046998  0.17088022  0.35237155  1
  Ag+  Ag37  1  0.50783271  0.66712813  0.51587882  1
  Ag+  Ag38  1  0.16313564  0.65004728  0.80596336  1
  Ag+  Ag39  1  0.52837198  0.80632808  0.31594689  1
  Ag+  Ag40  1  0.18493630  0.30747665  0.50212066  1
  Ag+  Ag41  1  0.02247566  0.18701036  0.51304491  1
  Ag+  Ag42  1  0.18532868  0.63521207  0.15201282  1
  Sn2+  Sn43  1  0.33618328  0.51054223  0.50172242  1
  Sn2+  Sn44  1  0.49476423  -0.01004031  0.83072074  1
  Sn2+  Sn45  1  0.83454142  0.66988113  0.17672632  1
  Sn2+  Sn46  1  0.00252588  0.33006342  0.65665635  1
  Sn2+  Sn47  1  0.82510215  0.49699717  0.32483424  1
  Sn2+  Sn48  1  0.66831227  0.17229199  0.49083126  1
  Sn2+  Sn49  1  0.66545590  0.16517546  0.84326047  1
  Sn2+  Sn50  1  0.66010038  0.50539244  0.83789939  1
  Sn2+  Sn51  1  0.00357827  0.81693937  0.16364330  1
  Sn2+  Sn52  1  0.17180600  0.17744497  -0.00768091  1
  Sn2+  Sn53  1  0.33300651  -0.00560237  0.32583345  1
  Sn2+  Sn54  1  -0.00493805  0.16697026  0.82010335  1
  Sn2+  Sn55  1  0.65797142  0.49520423  0.16874019  1
  Sn2+  Sn56  1  0.49417216  0.82659221  0.00478195  1
  Sn2+  Sn57  1  -0.00458098  0.00434010  0.66832327  1
  Sn2+  Sn58  1  0.33459060  0.49746988  0.17058745  1
  Sn2+  Sn59  1  0.16876913  0.16987705  0.33004812  1
  Sn2+  Sn60  1  0.32816997  0.33387170  -0.00171968  1
  Sn2+  Sn61  1  0.33476741  0.82496503  0.16310071  1
  Sn2+  Sn62  1  0.66484047  0.00740918  -0.00496861  1
  Sn2+  Sn63  1  0.83823811  0.84557038  0.66551426  1
  Sn2+  Sn64  1  0.00904774  0.66917868  0.00149229  1
  Bi3+  Bi65  1  0.83124591  0.33256673  0.49829590  1
  Bi3+  Bi66  1  0.00020535  0.00401301  0.33260284  1
  Bi3+  Bi67  1  0.16690716  0.00243077  0.16567124  1
  Bi3+  Bi68  1  0.00235694  0.83633203  0.83193001  1
  Bi3+  Bi69  1  0.33186403  0.33511132  0.33114086  1
  Bi3+  Bi70  1  0.32889315  0.83413281  0.50772163  1
  Bi3+  Bi71  1  0.82929195  0.00059691  0.49926845  1
  Bi3+  Bi72  1  0.83282388  0.16524067  -0.00093062  1
  Bi3+  Bi73  1  0.33342753  0.49699677  0.83500188  1
  Bi3+  Bi74  1  0.16876673  0.83571748  0.33509264  1
  Bi3+  Bi75  1  0.16657812  0.67226131  0.49625521  1
  Bi3+  Bi76  1  0.66063036  0.66761106  0.00332008  1
  Bi3+  Bi77  1  0.83249927  0.83718213  0.33424900  1
  Bi3+  Bi78  1  0.17114064  0.33149892  0.17169687  1
  Bi3+  Bi79  1  0.49961944  0.50030356  0.33161066  1
  Bi3+  Bi80  1  0.00141657  0.83916937  0.50153206  1
  Bi3+  Bi81  1  0.49818954  0.50518205  0.00372327  1
  Bi3+  Bi82  1  0.33726595  0.00132090  0.66635736  1
  Bi3+  Bi83  1  0.83211983  -0.00280504  0.83210343  1
  Bi3+  Bi84  1  0.49940414  0.50506815  0.66567512  1
  Bi3+  Bi85  1  0.66582035  0.33175265  0.33346665  1
  Te2-  Te86  1  0.17938281  0.16837354  0.16043849  1
  Te2-  Te87  1  0.16675708  0.16053427  0.50098832  1
  Te2-  Te88  1  0.15695462  0.16117352  0.82770641  1
  Te2-  Te89  1  0.16794129  0.49249353  0.18383521  1
  Te2-  Te90  1  0.16598409  0.50629645  0.48948325  1
  Te2-  Te91  1  0.17099544  0.50189703  0.83303995  1
  Te2-  Te92  1  0.16830503  0.83910223  0.17151990  1
  Te2-  Te93  1  0.16466167  0.84336213  0.49837128  1
  Te2-  Te94  1  0.16738807  0.84754955  0.83464074  1
  Te2-  Te95  1  0.48159130  0.16179069  0.16907683  1
  Te2-  Te96  1  0.50408704  0.16921177  0.50489833  1
  Te2-  Te97  1  0.50801644  0.16658590  0.82672106  1
  Te2-  Te98  1  0.49765998  0.51794735  0.16711981  1
  Te2-  Te99  1  0.50138960  0.51324966  0.49994689  1
  Te2-  Te100  1  0.49420560  0.51445535  0.83436235  1
  Te2-  Te101  1  0.49401656  0.82344025  0.17388633  1
  Te2-  Te102  1  0.49320690  0.81978313  0.50355712  1
  Te2-  Te103  1  0.48644345  0.82143548  0.82694692  1
  Te2-  Te104  1  0.83589706  0.15923572  0.16070487  1
  Te2-  Te105  1  0.82724437  0.16346418  0.49660777  1
  Te2-  Te106  1  0.82989571  0.15997100  0.83754176  1
  Te2-  Te107  1  0.82526298  0.49937006  0.16404581  1
  Te2-  Te108  1  0.82990062  0.49633540  0.49555264  1
  Te2-  Te109  1  0.83280972  0.50604684  0.83852330  1
  Te2-  Te110  1  0.83675469  0.84341726  0.17088378  1
  Te2-  Te111  1  0.83718307  0.83714005  0.50001503  1
  Te2-  Te112  1  0.83632839  0.83068858  0.82724064  1
  Te2-  Te113  1  0.16687192  0.00264844  -0.00019379  1
  Te2-  Te114  1  0.16568806  0.00129509  0.32944532  1
  Te2-  Te115  1  0.16939780  0.01113804  0.67054146  1
  Te2-  Te116  1  0.16970803  0.34518748  0.00731721  1
  Te2-  Te117  1  0.16844877  0.33030457  0.34250554  1
  Te2-  Te118  1  0.17529171  0.32339564  0.65456469  1
  Te2-  Te119  1  0.17674049  0.65838366  0.00805140  1
  Te2-  Te120  1  0.16055309  0.67330965  0.33225581  1
  Te2-  Te121  1  0.17550620  0.66552922  0.65860584  1
  Te2-  Te122  1  0.49977721  -0.00315709  -0.00482597  1
  Te2-  Te123  1  0.50107410  0.00019245  0.34331335  1
  Te2-  Te124  1  0.50171983  -0.00320128  0.66402404  1
  Te2-  Te125  1  0.49598698  0.33886098  0.00749444  1
  Te2-  Te126  1  0.49836249  0.33770312  0.33749372  1
  Te2-  Te127  1  0.49188540  0.33652988  0.65879119  1
  Te2-  Te128  1  0.49141886  0.66734458  -0.00017719  1
  Te2-  Te129  1  0.50645254  0.66312815  0.33485221  1
  Te2-  Te130  1  0.48711741  0.66870959  0.66655416  1
  Te2-  Te131  1  0.83148826  -0.00132599  -0.00136953  1
  Te2-  Te132  1  0.83321822  0.00842149  0.33489944  1
  Te2-  Te133  1  0.82625854  0.01391683  0.66617958  1
  Te2-  Te134  1  0.83446683  0.33268663  0.00165020  1
  Te2-  Te135  1  0.82917434  0.32045401  0.33593983  1
  Te2-  Te136  1  0.83280296  0.31966699  0.66170107  1
  Te2-  Te137  1  0.83315446  0.66106024  0.00410091  1
  Te2-  Te138  1  0.81716083  0.67490492  0.33291244  1
  Te2-  Te139  1  0.83662971  0.66990969  0.66430855  1
  Te2-  Te140  1  -0.00058903  0.16178778  -0.00289712  1
  Te2-  Te141  1  0.00555160  0.16567279  0.33755130  1
  Te2-  Te142  1  0.00260712  0.17035898  0.65956446  1
  Te2-  Te143  1  0.00457890  0.50131489  0.01418651  1
  Te2-  Te144  1  -0.00563477  0.49471776  0.32335023  1
  Te2-  Te145  1  -0.00140882  0.49602324  0.66780882  1
  Te2-  Te146  1  0.00192061  0.83846697  -0.00187838  1
  Te2-  Te147  1  -0.00211618  0.83934631  0.33395612  1
  Te2-  Te148  1  0.00744365  0.84073445  0.66646123  1
  Te2-  Te149  1  0.32925333  0.16538974  -0.01911254  1
  Te2-  Te150  1  0.34032935  0.16789609  0.33620478  1
  Te2-  Te151  1  0.34126315  0.16438514  0.67507299  1
  Te2-  Te152  1  0.33606826  0.50215739  0.00072976  1
  Te2-  Te153  1  0.33769267  0.50262417  0.33460953  1
  Te2-  Te154  1  0.33871404  0.49936996  0.67057887  1
  Te2-  Te155  1  0.33666037  0.84500676  -0.00687367  1
  Te2-  Te156  1  0.33066743  0.83336359  0.33881294  1
  Te2-  Te157  1  0.32185144  0.84328042  0.67317993  1
  Te2-  Te158  1  0.66671687  0.16507067  0.01094361  1
  Te2-  Te159  1  0.65461212  0.16526831  0.32188930  1
  Te2-  Te160  1  0.66009132  0.16586660  0.66707297  1
  Te2-  Te161  1  0.66147579  0.50337823  0.00111828  1
  Te2-  Te162  1  0.66436339  0.49396254  0.32859491  1
  Te2-  Te163  1  0.66231793  0.51205740  0.66831827  1
  Te2-  Te164  1  0.66359230  0.83429029  -0.00024535  1
  Te2-  Te165  1  0.66891094  0.84656094  0.33488609  1
  Te2-  Te166  1  0.66142160  0.82020930  0.66761034  1
  Te2-  Te167  1  0.00426540  -0.00358291  0.16638170  1
  Te2-  Te168  1  -0.00449203  0.00279368  0.49818361  1
  Te2-  Te169  1  -0.00659929  -0.00130680  0.83515666  1
  Te2-  Te170  1  0.00540921  0.33591108  0.17821149  1
  Te2-  Te171  1  -0.00488191  0.33056966  0.49278352  1
  Te2-  Te172  1  0.00152001  0.33496826  0.83083345  1
  Te2-  Te173  1  -0.00100610  0.65970535  0.16441207  1
  Te2-  Te174  1  0.00141111  0.67396132  0.50017637  1
  Te2-  Te175  1  0.01528323  0.67469986  0.83943693  1
  Te2-  Te176  1  0.32950747  0.00621615  0.15855796  1
  Te2-  Te177  1  0.33861464  -0.00323930  0.50018453  1
  Te2-  Te178  1  0.33486130  0.01356632  0.83248159  1
  Te2-  Te179  1  0.33597228  0.32835570  0.16939849  1
  Te2-  Te180  1  0.33027826  0.33995066  0.49276616  1
  Te2-  Te181  1  0.33376830  0.33066454  0.83149424  1
  Te2-  Te182  1  0.32593205  0.66870068  0.17657276  1
  Te2-  Te183  1  0.32843742  0.67237213  0.49894084  1
  Te2-  Te184  1  0.31545789  0.66856512  0.83519493  1
  Te2-  Te185  1  0.66571313  0.01086682  0.16897333  1
  Te2-  Te186  1  0.66313779  0.00310185  0.50535471  1
  Te2-  Te187  1  0.66806097  0.00019665  0.82712307  1
  Te2-  Te188  1  0.65634926  0.32101853  0.17172148  1
  Te2-  Te189  1  0.66551219  0.34056949  0.49509680  1
  Te2-  Te190  1  0.66498068  0.33527696  0.83080398  1
  Te2-  Te191  1  0.67086254  0.66692751  0.16203592  1
  Te2-  Te192  1  0.65935905  0.66012373  0.49330398  1
  Te2-  Te193  1  0.66997542  0.66598389  0.84201989  1
  Pb2+  Pb194  1  0.00677581  0.67004222  0.66914330  1
  Pb2+  Pb195  1  0.00344326  0.33095205  0.00284876  1
  Pb2+  Pb196  1  0.65728941  0.83240601  0.83266311  1
  Pb2+  Pb197  1  0.00168636  0.50711710  0.84026994  1
  Pb2+  Pb198  1  -0.01348389  0.66637086  0.33406466  1
  Pb2+  Pb199  1  0.49530696  0.16641877  0.00003923  1
  Pb2+  Pb200  1  0.49673351  -0.00948045  0.16885626  1
  Pb2+  Pb201  1  0.49803734  0.34086887  0.83344374  1
  Pb2+  Pb202  1  0.83479901  0.32894893  0.83203650  1
  Pb2+  Pb203  1  0.66537393  0.83370654  0.16665372  1
  Pb2+  Pb204  1  0.66089817  0.33671465  0.66151337  1
  Pb2+  Pb205  1  0.66607197  0.33501374  0.00035514  1
  Pb2+  Pb206  1  0.17085047  0.49536472  0.65871533  1
  Pb2+  Pb207  1  0.83104295  0.33213284  0.17057719  1
  Pb2+  Pb208  1  0.33431572  0.16713536  0.50640332  1
  Pb2+  Pb209  1  0.17166840  0.82394093  0.00370849  1
  Pb2+  Pb210  1  0.16761859  0.33241044  0.82986362  1
  Pb2+  Pb211  1  0.66760179  0.83284742  0.50288283  1
  Pb2+  Pb212  1  0.00701171  0.16739970  0.17039480  1
  Pb2+  Pb213  1  0.83391850  0.82606393  -0.00088094  1
  Pb2+  Pb214  1  -0.00113278  0.50089907  0.49811001  1
  Pb2+  Pb215  1  0.83055536  0.49230945  0.66525064  1
