# generated using pymatgen
data_In22Ag21Sn22Bi21(Te54Pb11)2
_symmetry_space_group_name_H-M   'P 1'
_cell_length_a   19.16535098
_cell_length_b   19.12934059
_cell_length_c   19.17663214
_cell_angle_alpha   89.99398333
_cell_angle_beta   89.98481842
_cell_angle_gamma   89.98437144
_symmetry_Int_Tables_number   1
_chemical_formula_structural   In22Ag21Sn22Bi21(Te54Pb11)2
_chemical_formula_sum   'In22 Ag21 Sn22 Bi21 Te108 Pb22'
_cell_volume   7030.54642111
_cell_formula_units_Z   1
loop_
 _symmetry_equiv_pos_site_id
 _symmetry_equiv_pos_as_xyz
  1  'x, y, z'
loop_
 _atom_type_symbol
 _atom_type_oxidation_number
  In3+  3.0
  Ag+  1.0
  Sn2+  2.0
  Bi3+  3.0
  Te2-  -2.0
  Pb2+  2.0
loop_
 _atom_site_type_symbol
 _atom_site_label
 _atom_site_symmetry_multiplicity
 _atom_site_fract_x
 _atom_site_fract_y
 _atom_site_fract_z
 _atom_site_occupancy
  In3+  In0  1  0.17225278  0.01311892  0.16656083  1
  In3+  In1  1  0.48244239  0.50740938  0.67712860  1
  In3+  In2  1  0.48989038  0.15750772  0.32508452  1
  In3+  In3  1  0.32357439  0.83075331  0.17696537  1
  In3+  In4  1  -0.00114787  0.66086991  0.00703720  1
  In3+  In5  1  0.32778462  0.49620032  0.15527435  1
  In3+  In6  1  -0.00207420  0.33750172  0.67579150  1
  In3+  In7  1  0.33283731  0.35674238  0.67744619  1
  In3+  In8  1  -0.00246444  0.64925262  0.66110683  1
  In3+  In9  1  0.83390935  0.81781508  0.01919779  1
  In3+  In10  1  0.68383790  0.33330818  0.67228939  1
  In3+  In11  1  0.18141471  0.00360454  0.48752255  1
  In3+  In12  1  0.66033644  0.66095223  0.32671649  1
  In3+  In13  1  0.82939504  0.83417415  0.68376697  1
  In3+  In14  1  -0.00129608  0.16044973  0.84815589  1
  In3+  In15  1  0.82372557  0.84150787  0.33415684  1
  In3+  In16  1  0.66484130  0.16091106  0.46380504  1
  In3+  In17  1  0.68155497  0.33536385  0.01938229  1
  In3+  In18  1  0.16336325  0.33479338  0.49477220  1
  In3+  In19  1  0.65058132  0.82984854  0.15546460  1
  In3+  In20  1  0.17542207  0.65116405  0.83329748  1
  In3+  In21  1  0.65361131  0.83176063  0.50481387  1
  Ag+  Ag22  1  0.80521211  0.50476777  0.31246283  1
  Ag+  Ag23  1  0.35686389  0.67951772  0.68155547  1
  Ag+  Ag24  1  0.80609553  0.52158004  0.03137879  1
  Ag+  Ag25  1  0.63665841  0.19114075  0.16141580  1
  Ag+  Ag26  1  0.80642775  0.32450223  0.15044489  1
  Ag+  Ag27  1  0.52454747  0.66960639  0.86237868  1
  Ag+  Ag28  1  0.52622828  0.17020915  -0.02585364  1
  Ag+  Ag29  1  0.35624093  0.50328335  0.85546482  1
  Ag+  Ag30  1  0.66453078  -0.02840184  0.31302910  1
  Ag+  Ag31  1  0.70480311  0.48549928  0.14993374  1
  Ag+  Ag32  1  0.83413168  -0.01742799  0.85862249  1
  Ag+  Ag33  1  0.17192880  0.30592613  0.13824489  1
  Ag+  Ag34  1  0.18826340  0.18932586  0.34019546  1
  Ag+  Ag35  1  0.16701687  0.18368591  -0.02462488  1
  Ag+  Ag36  1  -0.00457039  0.52785076  0.85319031  1
  Ag+  Ag37  1  0.64240451  0.69433754  -0.03289043  1
  Ag+  Ag38  1  0.69476501  0.80267230  0.86111222  1
  Ag+  Ag39  1  0.30919836  0.01024209  0.32669672  1
  Ag+  Ag40  1  -0.00556428  0.47277749  0.47764902  1
  Ag+  Ag41  1  0.19512086  0.66698393  0.13411430  1
  Ag+  Ag42  1  0.52756098  0.63864056  0.50444177  1
  Sn2+  Sn43  1  -0.00512301  0.16888449  0.50356216  1
  Sn2+  Sn44  1  0.00146395  0.83026904  0.82790430  1
  Sn2+  Sn45  1  0.16401052  0.83333539  0.00270508  1
  Sn2+  Sn46  1  0.83763004  0.66544401  0.49419458  1
  Sn2+  Sn47  1  0.50531369  0.17239982  0.67191278  1
  Sn2+  Sn48  1  0.83131903  0.34082262  0.49366310  1
  Sn2+  Sn49  1  0.15879050  0.49603015  0.00038848  1
  Sn2+  Sn50  1  0.66999376  0.16101808  0.83965972  1
  Sn2+  Sn51  1  0.16981523  0.16454568  0.65343896  1
  Sn2+  Sn52  1  0.17238160  0.66377822  0.50134642  1
  Sn2+  Sn53  1  0.33213760  0.16694595  0.15875388  1
  Sn2+  Sn54  1  -0.00342503  0.66475891  0.33545318  1
  Sn2+  Sn55  1  0.49020566  0.33223381  0.15932789  1
  Sn2+  Sn56  1  0.83273678  0.16003294  0.67200115  1
  Sn2+  Sn57  1  0.50601522  0.34283880  0.83525286  1
  Sn2+  Sn58  1  0.50510028  0.65630978  0.17074482  1
  Sn2+  Sn59  1  0.49958015  0.49829653  0.33878280  1
  Sn2+  Sn60  1  0.50007934  0.81994228  0.67387902  1
  Sn2+  Sn61  1  0.32472739  0.50924432  0.50218780  1
  Sn2+  Sn62  1  -0.01216275  0.00331772  0.33135866  1
  Sn2+  Sn63  1  0.50038147  0.00098424  0.16795788  1
  Sn2+  Sn64  1  0.83368124  0.33845274  0.84120354  1
  Bi3+  Bi65  1  0.66734251  0.33482883  0.33681936  1
  Bi3+  Bi66  1  0.49868712  0.33251564  0.50178827  1
  Bi3+  Bi67  1  0.83156036  0.00342689  0.49762304  1
  Bi3+  Bi68  1  0.83408700  0.50103359  0.66523155  1
  Bi3+  Bi69  1  0.83203359  0.17501618  0.33306938  1
  Bi3+  Bi70  1  -0.00500154  0.83571624  0.49869932  1
  Bi3+  Bi71  1  0.33431349  0.00048955  0.00647625  1
  Bi3+  Bi72  1  0.50465973  0.00221435  0.50024455  1
  Bi3+  Bi73  1  0.66484990  0.00542772  0.66803572  1
  Bi3+  Bi74  1  0.01174529  0.49889112  0.16658444  1
  Bi3+  Bi75  1  -0.00003787  0.33442939  0.00009570  1
  Bi3+  Bi76  1  0.83327248  0.66280110  0.17209424  1
  Bi3+  Bi77  1  0.16189854  0.49784833  0.66527835  1
  Bi3+  Bi78  1  0.33157405  0.82573762  0.83196730  1
  Bi3+  Bi79  1  0.33817456  0.33047005  0.33547298  1
  Bi3+  Bi80  1  0.00332954  0.83077731  0.16753434  1
  Bi3+  Bi81  1  0.33073376  0.83334206  0.49940872  1
  Bi3+  Bi82  1  0.16619921  0.33644658  0.82777463  1
  Bi3+  Bi83  1  0.00512506  0.16744579  0.17071558  1
  Bi3+  Bi84  1  0.16386810  0.82968914  0.33292273  1
  Bi3+  Bi85  1  0.16888926  0.50269871  0.33562925  1
  Te2-  Te86  1  0.16608882  0.16513946  0.18838294  1
  Te2-  Te87  1  0.16582732  0.16019691  0.48924742  1
  Te2-  Te88  1  0.15875369  0.16832322  0.82695593  1
  Te2-  Te89  1  0.17286361  0.51782606  0.16964652  1
  Te2-  Te90  1  0.15162517  0.49455466  0.50119129  1
  Te2-  Te91  1  0.14734458  0.49788349  0.82993323  1
  Te2-  Te92  1  0.16606762  0.81532484  0.16863362  1
  Te2-  Te93  1  0.16447027  0.83921158  0.49745035  1
  Te2-  Te94  1  0.16758236  0.83395883  0.83525152  1
  Te2-  Te95  1  0.49209982  0.16412660  0.17108869  1
  Te2-  Te96  1  0.50544148  0.16829362  0.50479977  1
  Te2-  Te97  1  0.49819538  0.17064147  0.83024966  1
  Te2-  Te98  1  0.48280933  0.49622036  0.16988273  1
  Te2-  Te99  1  0.49797289  0.49387734  0.50240256  1
  Te2-  Te100  1  0.50038713  0.51191319  0.82773375  1
  Te2-  Te101  1  0.49968611  0.83281265  0.16718368  1
  Te2-  Te102  1  0.49648282  0.83777022  0.50433757  1
  Te2-  Te103  1  0.49294223  0.81868670  0.83121958  1
  Te2-  Te104  1  0.84409739  0.18100794  0.17007465  1
  Te2-  Te105  1  0.82594688  0.16761079  0.49809393  1
  Te2-  Te106  1  0.83996013  0.17353597  0.83091986  1
  Te2-  Te107  1  0.84953257  0.49974822  0.17162179  1
  Te2-  Te108  1  0.84631882  0.49918137  0.50458473  1
  Te2-  Te109  1  0.84812887  0.49569879  0.82662258  1
  Te2-  Te110  1  0.83859906  0.83300664  0.17190988  1
  Te2-  Te111  1  0.83443671  0.83697509  0.48856995  1
  Te2-  Te112  1  0.83434624  0.83757058  0.83509244  1
  Te2-  Te113  1  0.17060370  -0.00539661  0.00953103  1
  Te2-  Te114  1  0.16213358  -0.00868582  0.33199038  1
  Te2-  Te115  1  0.16524446  0.00212828  0.66189534  1
  Te2-  Te116  1  0.16469474  0.33243617  -0.00804050  1
  Te2-  Te117  1  0.17282116  0.33885087  0.34103367  1
  Te2-  Te118  1  0.17295103  0.33350982  0.66480471  1
  Te2-  Te119  1  0.16048082  0.66478307  -0.00919244  1
  Te2-  Te120  1  0.16610235  0.66746160  0.33937660  1
  Te2-  Te121  1  0.15251920  0.66057853  0.67102787  1
  Te2-  Te122  1  0.49599219  0.01609104  -0.00082145  1
  Te2-  Te123  1  0.51896050  0.00606401  0.33833473  1
  Te2-  Te124  1  0.50206070  -0.00192681  0.66552266  1
  Te2-  Te125  1  0.49954739  0.32032517  0.00037597  1
  Te2-  Te126  1  0.49959265  0.32601685  0.33582370  1
  Te2-  Te127  1  0.48686312  0.34132987  0.66580356  1
  Te2-  Te128  1  0.50410426  0.66519925  0.00826780  1
  Te2-  Te129  1  0.50553409  0.66473540  0.34346623  1
  Te2-  Te130  1  0.49918643  0.65780893  0.65148726  1
  Te2-  Te131  1  0.83258925  0.00222435  0.00322736  1
  Te2-  Te132  1  0.81632813  0.00483028  0.33557875  1
  Te2-  Te133  1  0.82718632  -0.00405394  0.66018794  1
  Te2-  Te134  1  0.83700610  0.33833666  0.00673369  1
  Te2-  Te135  1  0.83017834  0.34226739  0.33638868  1
  Te2-  Te136  1  0.83841054  0.33288762  0.66516057  1
  Te2-  Te137  1  0.83243053  0.66385882  0.00559856  1
  Te2-  Te138  1  0.83164866  0.65431965  0.33224889  1
  Te2-  Te139  1  0.83810475  0.67007439  0.66428070  1
  Te2-  Te140  1  0.01620544  0.16843550  0.00578546  1
  Te2-  Te141  1  -0.00601362  0.16488265  0.33342479  1
  Te2-  Te142  1  0.00261389  0.17779451  0.66108024  1
  Te2-  Te143  1  -0.00105268  0.50073523  0.00058101  1
  Te2-  Te144  1  0.00682647  0.50125741  0.33229914  1
  Te2-  Te145  1  -0.00082545  0.49377059  0.66656213  1
  Te2-  Te146  1  -0.00557880  0.82477835  0.00336582  1
  Te2-  Te147  1  -0.00287845  0.83360225  0.33216216  1
  Te2-  Te148  1  -0.01115447  0.83718741  0.66173088  1
  Te2-  Te149  1  0.31554939  0.16119990  0.00070266  1
  Te2-  Te150  1  0.33459674  0.16044422  0.33076535  1
  Te2-  Te151  1  0.33094662  0.16248582  0.66861833  1
  Te2-  Te152  1  0.32858065  0.50062035  0.00032199  1
  Te2-  Te153  1  0.33151798  0.49681326  0.33778614  1
  Te2-  Te154  1  0.32551476  0.51070631  0.66393109  1
  Te2-  Te155  1  0.33114397  0.83620451  -0.00151211  1
  Te2-  Te156  1  0.32994007  0.84057173  0.33365775  1
  Te2-  Te157  1  0.32879895  0.82624038  0.66565531  1
  Te2-  Te158  1  0.66766805  0.18134321  0.01302446  1
  Te2-  Te159  1  0.67129657  0.17546418  0.30856679  1
  Te2-  Te160  1  0.66731116  0.17246905  0.67222208  1
  Te2-  Te161  1  0.66661428  0.48730496  0.00728389  1
  Te2-  Te162  1  0.65979379  0.50157240  0.33060587  1
  Te2-  Te163  1  0.67265522  0.48881379  0.66478075  1
  Te2-  Te164  1  0.67097373  0.83476498  0.00159822  1
  Te2-  Te165  1  0.67129527  0.82593017  0.34295440  1
  Te2-  Te166  1  0.66972023  0.83832643  0.66071782  1
  Te2-  Te167  1  0.00512021  -0.00453778  0.16786184  1
  Te2-  Te168  1  -0.00600525  -0.00052180  0.49589232  1
  Te2-  Te169  1  -0.01132487  0.00394573  0.83275372  1
  Te2-  Te170  1  0.02343848  0.33434357  0.16132807  1
  Te2-  Te171  1  0.00445957  0.32836463  0.50188899  1
  Te2-  Te172  1  0.00214186  0.32148160  0.83539982  1
  Te2-  Te173  1  -0.00161840  0.66771574  0.16411822  1
  Te2-  Te174  1  0.00312236  0.67475185  0.50399491  1
  Te2-  Te175  1  0.00408814  0.67410992  0.83151022  1
  Te2-  Te176  1  0.33125087  -0.00850488  0.17376679  1
  Te2-  Te177  1  0.33811276  -0.00159106  0.48563700  1
  Te2-  Te178  1  0.33348262  -0.00504181  0.83639080  1
  Te2-  Te179  1  0.31818984  0.33772715  0.17414171  1
  Te2-  Te180  1  0.33282629  0.33769747  0.49810916  1
  Te2-  Te181  1  0.33152004  0.35133238  0.83141123  1
  Te2-  Te182  1  0.33861146  0.67546388  0.16731518  1
  Te2-  Te183  1  0.32972682  0.67267987  0.50419978  1
  Te2-  Te184  1  0.32630211  0.66048324  0.82538187  1
  Te2-  Te185  1  0.66372004  -0.01662739  0.16617324  1
  Te2-  Te186  1  0.66680020  0.00125167  0.50568383  1
  Te2-  Te187  1  0.67632982  0.00517588  0.83036402  1
  Te2-  Te188  1  0.66070875  0.34298310  0.17268327  1
  Te2-  Te189  1  0.66134594  0.32734006  0.50127446  1
  Te2-  Te190  1  0.66321527  0.32877525  0.82685756  1
  Te2-  Te191  1  0.67094804  0.67511175  0.17311755  1
  Te2-  Te192  1  0.67049548  0.67062349  0.49403110  1
  Te2-  Te193  1  0.66803550  0.66300195  0.82707998  1
  Pb2+  Pb194  1  0.66651615  0.66577683  0.66097570  1
  Pb2+  Pb195  1  0.16516557  0.00014316  0.83614781  1
  Pb2+  Pb196  1  -0.00218703  0.00834157  0.66519276  1
  Pb2+  Pb197  1  0.49881851  0.83969423  -0.00272819  1
  Pb2+  Pb198  1  0.00085258  0.33311447  0.32893636  1
  Pb2+  Pb199  1  0.33028302  0.17375324  0.83402088  1
  Pb2+  Pb200  1  0.67365896  0.49825263  0.49708936  1
  Pb2+  Pb201  1  0.15854749  0.82811832  0.66729484  1
  Pb2+  Pb202  1  0.33577960  0.32923967  0.00335822  1
  Pb2+  Pb203  1  0.66566991  0.01005521  -0.00033868  1
  Pb2+  Pb204  1  0.50252260  0.49344112  0.00074581  1
  Pb2+  Pb205  1  0.33490066  0.17081711  0.50289056  1
  Pb2+  Pb206  1  0.50568516  -0.00509935  0.83275506  1
  Pb2+  Pb207  1  0.83135305  0.01146205  0.16854045  1
  Pb2+  Pb208  1  0.33548841  0.66739391  0.33585343  1
  Pb2+  Pb209  1  0.33648091  0.66760162  -0.00704778  1
  Pb2+  Pb210  1  0.83919566  0.17015261  0.00066904  1
  Pb2+  Pb211  1  0.50116253  0.83589349  0.33519911  1
  Pb2+  Pb212  1  0.67674353  0.49588617  0.83987590  1
  Pb2+  Pb213  1  -0.00080793  -0.00466701  -0.00079204  1
  Pb2+  Pb214  1  0.33331401  -0.00539257  0.66094436  1
  Pb2+  Pb215  1  0.83885732  0.66475440  0.83636123  1
