# generated using pymatgen
data_In22Ag21Sn22Bi21(Te54Pb11)2
_symmetry_space_group_name_H-M   'P 1'
_cell_length_a   19.16316594
_cell_length_b   19.17052976
_cell_length_c   19.15428175
_cell_angle_alpha   89.99131740
_cell_angle_beta   90.00029418
_cell_angle_gamma   90.00751239
_symmetry_Int_Tables_number   1
_chemical_formula_structural   In22Ag21Sn22Bi21(Te54Pb11)2
_chemical_formula_sum   'In22 Ag21 Sn22 Bi21 Te108 Pb22'
_cell_volume   7036.67086005
_cell_formula_units_Z   1
loop_
 _symmetry_equiv_pos_site_id
 _symmetry_equiv_pos_as_xyz
  1  'x, y, z'
loop_
 _atom_type_symbol
 _atom_type_oxidation_number
  In3+  3.0
  Ag+  1.0
  Sn2+  2.0
  Bi3+  3.0
  Te2-  -2.0
  Pb2+  2.0
loop_
 _atom_site_type_symbol
 _atom_site_label
 _atom_site_symmetry_multiplicity
 _atom_site_fract_x
 _atom_site_fract_y
 _atom_site_fract_z
 _atom_site_occupancy
  In3+  In0  1  0.50073511  0.34995059  0.83503244  1
  In3+  In1  1  0.65765634  0.50765864  0.49570844  1
  In3+  In2  1  0.66571959  0.82019302  0.17778676  1
  In3+  In3  1  0.83290990  -0.01663417  0.50774284  1
  In3+  In4  1  0.67423020  0.34687690  0.66383690  1
  In3+  In5  1  0.50552561  0.32947125  0.47639133  1
  In3+  In6  1  0.33127024  0.35585637  -0.00049368  1
  In3+  In7  1  0.85453531  0.83437480  0.66198742  1
  In3+  In8  1  0.16563642  0.52325474  0.35029273  1
  In3+  In9  1  0.85234801  0.66454384  0.84024597  1
  In3+  In10  1  0.00200778  0.17567980  0.83045728  1
  In3+  In11  1  0.33804078  0.33239991  0.66481668  1
  In3+  In12  1  0.14590771  0.50869808  0.00075808  1
  In3+  In13  1  0.18484593  0.81560886  0.00213605  1
  In3+  In14  1  0.34068339  0.17263493  0.83615496  1
  In3+  In15  1  0.00941543  0.35279485  -0.00124334  1
  In3+  In16  1  0.50570341  0.67925211  0.47325125  1
  In3+  In17  1  -0.01873454  0.50276800  0.50488829  1
  In3+  In18  1  0.49859210  0.14166992  -0.00184306  1
  In3+  In19  1  0.50958144  0.67121969  0.16962665  1
  In3+  In20  1  0.15618556  0.51071054  0.66072928  1
  In3+  In21  1  0.51852100  -0.01762885  0.17406589  1
  Ag+  Ag22  1  -0.01708307  -0.02831786  0.68497184  1
  Ag+  Ag23  1  0.02571675  0.86104167  0.49790276  1
  Ag+  Ag24  1  0.67066635  0.52438076  0.19574789  1
  Ag+  Ag25  1  -0.00589398  0.68373846  0.63947974  1
  Ag+  Ag26  1  0.30339359  0.30464141  0.36700406  1
  Ag+  Ag27  1  0.81391383  -0.03150485  0.17266565  1
  Ag+  Ag28  1  0.15485835  0.85256026  0.64071873  1
  Ag+  Ag29  1  0.52005066  0.49994630  0.35000071  1
  Ag+  Ag30  1  0.35309931  0.66833792  0.02488285  1
  Ag+  Ag31  1  0.47355135  -0.03044832  0.52575894  1
  Ag+  Ag32  1  0.64126582  -0.03009588  0.00318008  1
  Ag+  Ag33  1  0.02353747  0.69459769  -0.01698421  1
  Ag+  Ag34  1  0.49758148  0.68980965  0.80302196  1
  Ag+  Ag35  1  0.01060378  0.52152933  0.84001270  1
  Ag+  Ag36  1  0.68700475  -0.00920138  0.63685684  1
  Ag+  Ag37  1  0.85532972  0.34132379  0.49700600  1
  Ag+  Ag38  1  0.68317564  0.65849949  0.34383747  1
  Ag+  Ag39  1  0.52581139  0.83363433  0.00149938  1
  Ag+  Ag40  1  0.50363378  0.85681965  0.35286777  1
  Ag+  Ag41  1  0.85313841  0.64807479  0.19478027  1
  Ag+  Ag42  1  0.13621482  0.83198577  0.34845623  1
  Sn2+  Sn43  1  -0.00551502  0.67392669  0.32999110  1
  Sn2+  Sn44  1  0.34639948  0.50163470  0.17170299  1
  Sn2+  Sn45  1  0.17604276  0.66787166  0.83056001  1
  Sn2+  Sn46  1  -0.00921609  0.16624302  0.50234910  1
  Sn2+  Sn47  1  0.83795975  0.49951793  0.32900962  1
  Sn2+  Sn48  1  0.66717537  0.83805990  0.50256694  1
  Sn2+  Sn49  1  0.33176194  0.83633688  0.49485040  1
  Sn2+  Sn50  1  0.66400505  0.33901475  0.33298839  1
  Sn2+  Sn51  1  0.83189111  0.16654882  0.33516150  1
  Sn2+  Sn52  1  0.49359922  0.50388568  0.66697685  1
  Sn2+  Sn53  1  0.83588380  0.66117604  0.50386305  1
  Sn2+  Sn54  1  0.17029409  0.33949625  0.17368532  1
  Sn2+  Sn55  1  0.33570880  0.83115509  0.82916686  1
  Sn2+  Sn56  1  0.32548296  0.50780817  0.83767334  1
  Sn2+  Sn57  1  0.16352886  -0.00246235  0.50118251  1
  Sn2+  Sn58  1  0.66752323  0.15304931  0.83067998  1
  Sn2+  Sn59  1  0.83114488  0.83358273  -0.00628505  1
  Sn2+  Sn60  1  0.83150865  -0.00759775  0.85015396  1
  Sn2+  Sn61  1  0.16915994  0.33852962  0.83102434  1
  Sn2+  Sn62  1  0.33146011  -0.00971538  0.32998119  1
  Sn2+  Sn63  1  0.16523559  0.32572301  0.50131638  1
  Sn2+  Sn64  1  0.82232400  0.83032644  0.32819487  1
  Bi3+  Bi65  1  0.16687937  -0.00199196  0.16785685  1
  Bi3+  Bi66  1  0.00389564  0.33612199  0.67052049  1
  Bi3+  Bi67  1  0.66572602  0.83060412  0.83295595  1
  Bi3+  Bi68  1  0.33846697  0.50176233  0.49957432  1
  Bi3+  Bi69  1  0.49919833  0.33512488  0.15788823  1
  Bi3+  Bi70  1  0.33140871  0.66333022  0.66731965  1
  Bi3+  Bi71  1  0.66338914  0.66168716  -0.00332132  1
  Bi3+  Bi72  1  0.33412324  0.17061983  0.16133441  1
  Bi3+  Bi73  1  0.49839448  0.50345970  0.00151322  1
  Bi3+  Bi74  1  0.83647731  0.50246265  0.66588287  1
  Bi3+  Bi75  1  0.66602778  0.17072274  0.16361348  1
  Bi3+  Bi76  1  -0.00311407  -0.00141729  0.33713428  1
  Bi3+  Bi77  1  0.33029420  -0.00488845  0.66653730  1
  Bi3+  Bi78  1  -0.00436011  -0.00434827  -0.00519040  1
  Bi3+  Bi79  1  0.66463779  0.33101299  -0.00620133  1
  Bi3+  Bi80  1  0.66908068  0.16978712  0.50350751  1
  Bi3+  Bi81  1  0.67066781  -0.00380904  0.32712771  1
  Bi3+  Bi82  1  0.33413111  0.66662841  0.33356656  1
  Bi3+  Bi83  1  0.83123902  0.16465769  -0.00142874  1
  Bi3+  Bi84  1  0.16695361  0.16878555  -0.00180731  1
  Bi3+  Bi85  1  0.82851615  0.50019730  -0.00152250  1
  Te2-  Te86  1  0.16936834  0.16697152  0.16255753  1
  Te2-  Te87  1  0.16512907  0.16559098  0.49898436  1
  Te2-  Te88  1  0.16857875  0.16958321  0.83762526  1
  Te2-  Te89  1  0.16928182  0.49602578  0.15178737  1
  Te2-  Te90  1  0.17363982  0.49534502  0.50432940  1
  Te2-  Te91  1  0.15856528  0.49768749  0.84703260  1
  Te2-  Te92  1  0.16571965  0.83676608  0.15609738  1
  Te2-  Te93  1  0.17126530  0.83515413  0.49522559  1
  Te2-  Te94  1  0.17119731  0.83064805  0.84627146  1
  Te2-  Te95  1  0.49946678  0.16927012  0.15798117  1
  Te2-  Te96  1  0.50516852  0.17550485  0.49796148  1
  Te2-  Te97  1  0.49695829  0.16406291  0.84130499  1
  Te2-  Te98  1  0.50728880  0.49737797  0.16185772  1
  Te2-  Te99  1  0.50083337  0.48892393  0.49913263  1
  Te2-  Te100  1  0.49550009  0.50143230  0.83616502  1
  Te2-  Te101  1  0.50837452  0.83004157  0.15482194  1
  Te2-  Te102  1  0.50471930  0.83166259  0.49871788  1
  Te2-  Te103  1  0.50119389  0.83040071  0.84778519  1
  Te2-  Te104  1  0.82964674  0.17239126  0.16420455  1
  Te2-  Te105  1  0.83028144  0.17957593  0.49569596  1
  Te2-  Te106  1  0.83326395  0.16288034  0.83493177  1
  Te2-  Te107  1  0.82219049  0.50629360  0.16367644  1
  Te2-  Te108  1  0.82823178  0.49182778  0.50310185  1
  Te2-  Te109  1  0.83715702  0.50439700  0.82939476  1
  Te2-  Te110  1  0.82169660  0.82268700  0.16985946  1
  Te2-  Te111  1  0.82539096  0.82981547  0.50354905  1
  Te2-  Te112  1  0.82969031  0.82389427  0.82094267  1
  Te2-  Te113  1  0.15952491  0.00535256  0.00225844  1
  Te2-  Te114  1  0.16245810  -0.01624891  0.33243989  1
  Te2-  Te115  1  0.16875585  -0.00352999  0.66216566  1
  Te2-  Te116  1  0.16946709  0.32935726  -0.00084752  1
  Te2-  Te117  1  0.16579197  0.33213870  0.33175741  1
  Te2-  Te118  1  0.16999618  0.33500111  0.66804713  1
  Te2-  Te119  1  0.16501548  0.66152061  -0.00009255  1
  Te2-  Te120  1  0.16785127  0.68133982  0.33590910  1
  Te2-  Te121  1  0.16237633  0.66223512  0.67085886  1
  Te2-  Te122  1  0.49640079  -0.01157479  0.00944161  1
  Te2-  Te123  1  0.50622244  0.00240112  0.32494560  1
  Te2-  Te124  1  0.48902754  0.00176436  0.66613217  1
  Te2-  Te125  1  0.49863997  0.33508729  -0.00682106  1
  Te2-  Te126  1  0.50226916  0.35044007  0.32382329  1
  Te2-  Te127  1  0.49134103  0.33941390  0.67941908  1
  Te2-  Te128  1  0.50225222  0.66570142  0.01247972  1
  Te2-  Te129  1  0.49536259  0.64914623  0.32566625  1
  Te2-  Te130  1  0.49795619  0.66228823  0.65747660  1
  Te2-  Te131  1  0.83771082  0.00407637  0.01371053  1
  Te2-  Te132  1  0.83262106  -0.00156425  0.31995707  1
  Te2-  Te133  1  0.83681251  -0.01012666  0.66212531  1
  Te2-  Te134  1  0.82959751  0.33178689  -0.00484248  1
  Te2-  Te135  1  0.83226367  0.34029808  0.34397490  1
  Te2-  Te136  1  0.83563311  0.33779760  0.65621803  1
  Te2-  Te137  1  0.82445987  0.66167389  -0.00771007  1
  Te2-  Te138  1  0.82862057  0.66173811  0.33906418  1
  Te2-  Te139  1  0.84580905  0.66520498  0.66700911  1
  Te2-  Te140  1  -0.00208482  0.16129790  -0.01034110  1
  Te2-  Te141  1  -0.00162557  0.16359204  0.33428653  1
  Te2-  Te142  1  -0.00129929  0.17280205  0.67164055  1
  Te2-  Te143  1  -0.00917377  0.50554464  -0.00778226  1
  Te2-  Te144  1  0.01027887  0.50364408  0.33995781  1
  Te2-  Te145  1  0.00241280  0.49689135  0.67349394  1
  Te2-  Te146  1  -0.01093955  0.83428913  0.00067117  1
  Te2-  Te147  1  -0.01123033  0.83699903  0.34901999  1
  Te2-  Te148  1  0.00718870  0.83074721  0.65109220  1
  Te2-  Te149  1  0.33343319  0.16319268  -0.00386091  1
  Te2-  Te150  1  0.33528225  0.16717625  0.32815892  1
  Te2-  Te151  1  0.33526796  0.16987784  0.67421198  1
  Te2-  Te152  1  0.33651061  0.51041756  0.00035706  1
  Te2-  Te153  1  0.31810702  0.50407296  0.33715443  1
  Te2-  Te154  1  0.32394860  0.50044402  0.66616403  1
  Te2-  Te155  1  0.33432489  0.81709919  -0.00093075  1
  Te2-  Te156  1  0.35331979  0.83186052  0.33559603  1
  Te2-  Te157  1  0.32356354  0.82900296  0.66497213  1
  Te2-  Te158  1  0.66537302  0.16957796  -0.00134658  1
  Te2-  Te159  1  0.66924902  0.16746341  0.33045523  1
  Te2-  Te160  1  0.66881891  0.14055186  0.66584619  1
  Te2-  Te161  1  0.66489498  0.49435121  -0.00426346  1
  Te2-  Te162  1  0.66909068  0.50683095  0.34077794  1
  Te2-  Te163  1  0.66986320  0.50614181  0.65840584  1
  Te2-  Te164  1  0.67396864  0.82704630  0.00034397  1
  Te2-  Te165  1  0.65358031  0.83421723  0.32965426  1
  Te2-  Te166  1  0.65967822  0.84529714  0.66975677  1
  Te2-  Te167  1  0.00433487  0.00057167  0.16935845  1
  Te2-  Te168  1  -0.00964776  0.00540279  0.49869405  1
  Te2-  Te169  1  -0.00548840  -0.00113483  0.82901090  1
  Te2-  Te170  1  -0.00072860  0.33550341  0.16114221  1
  Te2-  Te171  1  0.00435125  0.33713848  0.50639166  1
  Te2-  Te172  1  0.00036185  0.33010551  0.83459083  1
  Te2-  Te173  1  -0.00380873  0.66760136  0.17153384  1
  Te2-  Te174  1  -0.00111380  0.65324181  0.49696550  1
  Te2-  Te175  1  0.00419988  0.66749441  0.83819630  1
  Te2-  Te176  1  0.32998216  0.00586435  0.16746416  1
  Te2-  Te177  1  0.33384285  0.00169170  0.49871392  1
  Te2-  Te178  1  0.33214833  0.00048722  0.83109243  1
  Te2-  Te179  1  0.33696498  0.33219627  0.16063806  1
  Te2-  Te180  1  0.33797313  0.33793620  0.50518376  1
  Te2-  Te181  1  0.33697937  0.33242078  0.83725286  1
  Te2-  Te182  1  0.33447835  0.66505738  0.17142102  1
  Te2-  Te183  1  0.34140998  0.66422707  0.50052169  1
  Te2-  Te184  1  0.34529309  0.66738673  0.82470784  1
  Te2-  Te185  1  0.66953464  0.00667833  0.15819912  1
  Te2-  Te186  1  0.67575878  0.00510322  0.48868106  1
  Te2-  Te187  1  0.67161338  -0.00681495  0.85225237  1
  Te2-  Te188  1  0.66235971  0.33232133  0.16105624  1
  Te2-  Te189  1  0.65710857  0.33031251  0.50451055  1
  Te2-  Te190  1  0.66087302  0.32736184  0.82758708  1
  Te2-  Te191  1  0.66223388  0.66675075  0.16443697  1
  Te2-  Te192  1  0.66029308  0.66444361  0.49112003  1
  Te2-  Te193  1  0.64869552  0.66934647  0.83056202  1
  Pb2+  Pb194  1  0.50190450  0.17485434  0.32672418  1
  Pb2+  Pb195  1  0.83219746  0.33382203  0.82583933  1
  Pb2+  Pb196  1  0.49222696  0.83148530  0.67274631  1
  Pb2+  Pb197  1  -0.00793333  0.83484718  0.17143331  1
  Pb2+  Pb198  1  0.16769812  0.66781549  0.50388090  1
  Pb2+  Pb199  1  0.16308609  -0.00110944  0.83073206  1
  Pb2+  Pb200  1  0.33595079  0.16816794  0.50235156  1
  Pb2+  Pb201  1  0.16588915  0.16423190  0.66779603  1
  Pb2+  Pb202  1  -0.00287700  0.50246012  0.16895205  1
  Pb2+  Pb203  1  0.67384311  0.67943312  0.66271644  1
  Pb2+  Pb204  1  0.83226168  0.16287539  0.66351649  1
  Pb2+  Pb205  1  0.50430808  -0.00427043  0.83279930  1
  Pb2+  Pb206  1  0.50658125  0.17259971  0.66941870  1
  Pb2+  Pb207  1  0.16537887  0.66444208  0.16971622  1
  Pb2+  Pb208  1  -0.00310638  0.16574631  0.15955448  1
  Pb2+  Pb209  1  0.33602060  0.83371581  0.16922845  1
  Pb2+  Pb210  1  0.00287121  0.83029083  0.82699884  1
  Pb2+  Pb211  1  0.00017973  0.33454511  0.33540517  1
  Pb2+  Pb212  1  0.32727652  -0.01117416  -0.00131721  1
  Pb2+  Pb213  1  0.16767458  0.15677673  0.33209040  1
  Pb2+  Pb214  1  0.66743224  0.50287996  0.82840118  1
  Pb2+  Pb215  1  0.82901656  0.34018132  0.17102564  1
