# generated using pymatgen
data_In22Ag21Sn22Bi21(Te54Pb11)2
_symmetry_space_group_name_H-M   'P 1'
_cell_length_a   19.18609777
_cell_length_b   19.14879764
_cell_length_c   19.19680568
_cell_angle_alpha   90.01022396
_cell_angle_beta   90.00330510
_cell_angle_gamma   89.99751040
_symmetry_Int_Tables_number   1
_chemical_formula_structural   In22Ag21Sn22Bi21(Te54Pb11)2
_chemical_formula_sum   'In22 Ag21 Sn22 Bi21 Te108 Pb22'
_cell_volume   7052.72781698
_cell_formula_units_Z   1
loop_
 _symmetry_equiv_pos_site_id
 _symmetry_equiv_pos_as_xyz
  1  'x, y, z'
loop_
 _atom_type_symbol
 _atom_type_oxidation_number
  In3+  3.0
  Ag+  1.0
  Sn2+  2.0
  Bi3+  3.0
  Te2-  -2.0
  Pb2+  2.0
loop_
 _atom_site_type_symbol
 _atom_site_label
 _atom_site_symmetry_multiplicity
 _atom_site_fract_x
 _atom_site_fract_y
 _atom_site_fract_z
 _atom_site_occupancy
  In3+  In0  1  0.66556189  0.49008029  0.17602762  1
  In3+  In1  1  0.18875642  0.33309333  0.83536706  1
  In3+  In2  1  0.35624889  0.17176217  0.15664995  1
  In3+  In3  1  0.82427112  0.16823918  0.33388072  1
  In3+  In4  1  0.66842972  0.68981873  0.65837583  1
  In3+  In5  1  0.82230205  -0.01808600  0.49860250  1
  In3+  In6  1  0.19501404  0.17318537  0.66786702  1
  In3+  In7  1  0.66020540  -0.00035851  -0.01679213  1
  In3+  In8  1  0.33899960  -0.01097491  0.31706040  1
  In3+  In9  1  0.51788884  0.00150656  0.81921000  1
  In3+  In10  1  0.67107170  0.50018301  0.52184734  1
  In3+  In11  1  -0.00631502  0.16777392  0.15748024  1
  In3+  In12  1  -0.01027096  0.16995190  0.82535872  1
  In3+  In13  1  0.16791040  0.16854111  0.31725394  1
  In3+  In14  1  0.84071290  0.16497365  -0.01652227  1
  In3+  In15  1  0.35015145  0.66091051  0.33110935  1
  In3+  In16  1  0.81454148  0.66465525  0.19465204  1
  In3+  In17  1  0.36001485  0.33619147  0.66742396  1
  In3+  In18  1  0.14083968  0.51151869  0.33526838  1
  In3+  In19  1  0.67465229  0.66852652  0.34791254  1
  In3+  In20  1  0.51213766  0.31499108  0.49759234  1
  In3+  In21  1  0.16480925  0.68237037  0.82384073  1
  Ag+  Ag22  1  -0.00167465  0.81094869  0.52890808  1
  Ag+  Ag23  1  0.36515713  0.85565573  0.52310714  1
  Ag+  Ag24  1  0.51871738  0.83971479  0.69430181  1
  Ag+  Ag25  1  0.36827771  0.30556891  0.03406698  1
  Ag+  Ag26  1  0.67894360  -0.00385011  0.64283668  1
  Ag+  Ag27  1  -0.03843583  0.53327840  0.50894689  1
  Ag+  Ag28  1  -0.02241435  0.79311948  0.85902046  1
  Ag+  Ag29  1  0.51858801  0.19082316  0.68460083  1
  Ag+  Ag30  1  0.51387659  0.33704552  0.84957180  1
  Ag+  Ag31  1  0.66327788  0.35670361  0.66742938  1
  Ag+  Ag32  1  0.81427254  0.47558277  0.34721473  1
  Ag+  Ag33  1  0.86326621  -0.02316044  0.86521375  1
  Ag+  Ag34  1  0.64030394  0.83489360  0.81259105  1
  Ag+  Ag35  1  0.51879948  0.16278323  -0.01928117  1
  Ag+  Ag36  1  0.37223408  0.87265968  0.19667862  1
  Ag+  Ag37  1  0.82042861  0.63864399  0.50399811  1
  Ag+  Ag38  1  0.64930948  0.86032688  0.52234322  1
  Ag+  Ag39  1  0.47398504  0.84313647  0.35710638  1
  Ag+  Ag40  1  0.83274081  0.52861069  0.68690763  1
  Ag+  Ag41  1  0.47345679  0.34504236  0.13989347  1
  Ag+  Ag42  1  0.02280981  0.33226103  0.00748396  1
  Sn2+  Sn43  1  0.33979356  0.66500524  0.65465649  1
  Sn2+  Sn44  1  0.00433822  0.00436589  0.33762187  1
  Sn2+  Sn45  1  0.49798730  0.66265457  0.16602129  1
  Sn2+  Sn46  1  0.00163993  0.48475778  0.82402237  1
  Sn2+  Sn47  1  0.00779137  0.83052036  0.16108923  1
  Sn2+  Sn48  1  0.66746416  0.17056927  0.50832405  1
  Sn2+  Sn49  1  0.82866559  -0.00457887  0.17232118  1
  Sn2+  Sn50  1  0.00198941  0.17087466  0.49985297  1
  Sn2+  Sn51  1  0.66693895  0.50661314  0.83350647  1
  Sn2+  Sn52  1  0.49935385  0.16124697  0.33187279  1
  Sn2+  Sn53  1  0.17066231  0.83836575  0.66080942  1
  Sn2+  Sn54  1  0.50385010  0.00165831  0.16205295  1
  Sn2+  Sn55  1  0.15875399  0.00269188  0.83395105  1
  Sn2+  Sn56  1  0.66338082  0.33220377  -0.00990084  1
  Sn2+  Sn57  1  0.16542905  0.33452361  0.50599255  1
  Sn2+  Sn58  1  -0.00805160  -0.00303821  0.66055289  1
  Sn2+  Sn59  1  0.16057013  0.49559660  -0.00024605  1
  Sn2+  Sn60  1  -0.00949100  0.49765817  0.17030202  1
  Sn2+  Sn61  1  0.33179918  0.16233325  0.48930277  1
  Sn2+  Sn62  1  0.34392483  -0.00173872  -0.00598354  1
  Sn2+  Sn63  1  0.49754825  0.83763357  0.00232579  1
  Sn2+  Sn64  1  0.66743726  0.16944377  0.16113791  1
  Bi3+  Bi65  1  0.83674936  0.83402782  0.33427845  1
  Bi3+  Bi66  1  0.83183564  0.33336037  0.16383704  1
  Bi3+  Bi67  1  0.33302001  0.49872656  0.83294484  1
  Bi3+  Bi68  1  0.66890489  0.83122491  0.16393188  1
  Bi3+  Bi69  1  0.50192694  0.66848726  0.49898268  1
  Bi3+  Bi70  1  0.82496377  0.16643602  0.66122496  1
  Bi3+  Bi71  1  0.16302395  0.00236711  0.50489901  1
  Bi3+  Bi72  1  0.83718957  0.83755989  0.66294119  1
  Bi3+  Bi73  1  0.33225920  0.66510283  0.00010880  1
  Bi3+  Bi74  1  0.16618599  0.66358412  0.16388154  1
  Bi3+  Bi75  1  0.83523880  0.32942775  0.50244544  1
  Bi3+  Bi76  1  0.66759517  0.66978172  -0.00692939  1
  Bi3+  Bi77  1  0.33382945  0.50265249  0.49981205  1
  Bi3+  Bi78  1  -0.00187159  0.66882342  0.33071073  1
  Bi3+  Bi79  1  0.33752533  0.16696714  0.83490084  1
  Bi3+  Bi80  1  0.33150432  -0.00107950  0.66714101  1
  Bi3+  Bi81  1  -0.01116882  0.33373976  0.66771215  1
  Bi3+  Bi82  1  0.16909629  0.67015483  0.50057139  1
  Bi3+  Bi83  1  0.82156956  0.33254129  0.83117945  1
  Bi3+  Bi84  1  0.66284410  0.16323407  0.83040363  1
  Bi3+  Bi85  1  0.16721110  0.83146201  -0.00281417  1
  Te2-  Te86  1  0.15359714  0.16482538  0.16473117  1
  Te2-  Te87  1  0.17012223  0.16768113  0.51217568  1
  Te2-  Te88  1  0.17334095  0.17313582  0.82613673  1
  Te2-  Te89  1  0.16270445  0.50089056  0.17453598  1
  Te2-  Te90  1  0.17187375  0.50341333  0.49312178  1
  Te2-  Te91  1  0.16964159  0.48682397  0.83022444  1
  Te2-  Te92  1  0.16761449  0.82708494  0.16186123  1
  Te2-  Te93  1  0.15217919  0.83506933  0.50259070  1
  Te2-  Te94  1  0.15929581  0.83430230  0.83303132  1
  Te2-  Te95  1  0.50511069  0.17424149  0.17477933  1
  Te2-  Te96  1  0.49854378  0.16357508  0.49413051  1
  Te2-  Te97  1  0.49884970  0.16685499  0.83032337  1
  Te2-  Te98  1  0.50630989  0.48794172  0.16717656  1
  Te2-  Te99  1  0.49975483  0.50773165  0.50075872  1
  Te2-  Te100  1  0.49667965  0.48780804  0.83011830  1
  Te2-  Te101  1  0.50746841  0.83265975  0.16076066  1
  Te2-  Te102  1  0.50767867  0.82617235  0.49791610  1
  Te2-  Te103  1  0.49643699  0.84097253  0.83999621  1
  Te2-  Te104  1  0.83593895  0.16870457  0.17843192  1
  Te2-  Te105  1  0.83190320  0.16880487  0.49499568  1
  Te2-  Te106  1  0.82670196  0.16437114  0.82935985  1
  Te2-  Te107  1  0.82977485  0.49918978  0.16893190  1
  Te2-  Te108  1  0.82280671  0.49011202  0.49386868  1
  Te2-  Te109  1  0.83244206  0.49451460  0.83060099  1
  Te2-  Te110  1  0.83431860  0.82759827  0.16710846  1
  Te2-  Te111  1  0.84799497  0.83473782  0.49899863  1
  Te2-  Te112  1  0.84148492  0.83753290  0.82634698  1
  Te2-  Te113  1  0.17000951  -0.00410655  0.00017450  1
  Te2-  Te114  1  0.17160874  0.00999035  0.33972623  1
  Te2-  Te115  1  0.16678648  0.00979611  0.66671144  1
  Te2-  Te116  1  0.16886489  0.33541896  -0.01010270  1
  Te2-  Te117  1  0.16691323  0.32201470  0.33675255  1
  Te2-  Te118  1  0.15248826  0.32581035  0.67317033  1
  Te2-  Te119  1  0.16844520  0.66532813  -0.00160995  1
  Te2-  Te120  1  0.16418508  0.66699259  0.32989068  1
  Te2-  Te121  1  0.16939016  0.66550948  0.66528538  1
  Te2-  Te122  1  0.50017095  0.01238675  0.00306002  1
  Te2-  Te123  1  0.49251402  -0.00749165  0.33260792  1
  Te2-  Te124  1  0.49154639  -0.01341910  0.67284949  1
  Te2-  Te125  1  0.50851059  0.31923735  -0.00426871  1
  Te2-  Te126  1  0.50161389  0.33196375  0.34540322  1
  Te2-  Te127  1  0.51237202  0.33307357  0.65086546  1
  Te2-  Te128  1  0.49745801  0.66472604  -0.00014670  1
  Te2-  Te129  1  0.50239713  0.67948905  0.33275538  1
  Te2-  Te130  1  0.50667909  0.67804531  0.66387427  1
  Te2-  Te131  1  0.83063487  0.01147296  0.00355352  1
  Te2-  Te132  1  0.83542126  0.00085325  0.33816490  1
  Te2-  Te133  1  0.82766406  0.00311089  0.65530857  1
  Te2-  Te134  1  0.82473897  0.32224143  -0.00154131  1
  Te2-  Te135  1  0.83344871  0.32928106  0.33135934  1
  Te2-  Te136  1  0.82287366  0.32826222  0.66631435  1
  Te2-  Te137  1  0.83160980  0.66491852  -0.00792019  1
  Te2-  Te138  1  0.83549572  0.66878729  0.34957854  1
  Te2-  Te139  1  0.82512962  0.67186443  0.65189260  1
  Te2-  Te140  1  -0.00528960  0.17931298  -0.00095174  1
  Te2-  Te141  1  0.00478529  0.16466836  0.33434053  1
  Te2-  Te142  1  -0.01291682  0.17021545  0.66976937  1
  Te2-  Te143  1  0.00233696  0.48578477  -0.00195711  1
  Te2-  Te144  1  -0.00927551  0.50338868  0.33910133  1
  Te2-  Te145  1  -0.01603562  0.49778554  0.65518855  1
  Te2-  Te146  1  0.00246621  0.83298486  -0.00132822  1
  Te2-  Te147  1  -0.00211167  0.83445271  0.32255701  1
  Te2-  Te148  1  0.00017290  0.83874479  0.67350581  1
  Te2-  Te149  1  0.33333003  0.16711499  0.00273269  1
  Te2-  Te150  1  0.32757913  0.15944327  0.33255342  1
  Te2-  Te151  1  0.34767504  0.16731763  0.66650952  1
  Te2-  Te152  1  0.32910859  0.50116850  -0.00367152  1
  Te2-  Te153  1  0.33656607  0.50490709  0.33623941  1
  Te2-  Te154  1  0.32973073  0.49720424  0.66550245  1
  Te2-  Te155  1  0.32964004  0.82825784  0.00061642  1
  Te2-  Te156  1  0.33039325  0.83758890  0.33063227  1
  Te2-  Te157  1  0.32775138  0.83238713  0.66287846  1
  Te2-  Te158  1  0.66504853  0.15837754  -0.00464520  1
  Te2-  Te159  1  0.66909930  0.16450381  0.33453808  1
  Te2-  Te160  1  0.66086197  0.14827781  0.66740120  1
  Te2-  Te161  1  0.66360321  0.50490120  -0.00763513  1
  Te2-  Te162  1  0.67296881  0.51131489  0.32707337  1
  Te2-  Te163  1  0.67832251  0.50498956  0.67472559  1
  Te2-  Te164  1  0.66473130  0.83815583  0.00184373  1
  Te2-  Te165  1  0.67660749  0.82127497  0.32568960  1
  Te2-  Te166  1  0.66807465  0.84225732  0.66590106  1
  Te2-  Te167  1  -0.00538152  0.00720839  0.16780690  1
  Te2-  Te168  1  0.00291594  0.01012269  0.49905977  1
  Te2-  Te169  1  0.00061896  0.01498312  0.83208547  1
  Te2-  Te170  1  -0.00619265  0.32884549  0.15650156  1
  Te2-  Te171  1  -0.00088928  0.33302730  0.50231111  1
  Te2-  Te172  1  -0.01452095  0.32621955  0.83153677  1
  Te2-  Te173  1  0.00238993  0.65962812  0.16768454  1
  Te2-  Te174  1  0.00961932  0.66942983  0.49301511  1
  Te2-  Te175  1  0.00806370  0.65313107  0.83044991  1
  Te2-  Te176  1  0.33352072  0.00978427  0.16375016  1
  Te2-  Te177  1  0.32572418  -0.00356847  0.50410861  1
  Te2-  Te178  1  0.32596875  0.00644586  0.83013180  1
  Te2-  Te179  1  0.33140581  0.32435154  0.17506957  1
  Te2-  Te180  1  0.32990252  0.33729281  0.51374579  1
  Te2-  Te181  1  0.34265017  0.33188718  0.82316350  1
  Te2-  Te182  1  0.33163993  0.66723270  0.16594519  1
  Te2-  Te183  1  0.33105701  0.66783794  0.49373904  1
  Te2-  Te184  1  0.32799735  0.66135667  0.83156129  1
  Te2-  Te185  1  0.66793570  -0.00145396  0.16512866  1
  Te2-  Te186  1  0.66782025  0.00204529  0.49452122  1
  Te2-  Te187  1  0.66677831  -0.00637589  0.83346996  1
  Te2-  Te188  1  0.67223595  0.33557800  0.16499485  1
  Te2-  Te189  1  0.66824517  0.33939765  0.50813498  1
  Te2-  Te190  1  0.66062148  0.32886365  0.82137464  1
  Te2-  Te191  1  0.66370409  0.66509821  0.15393773  1
  Te2-  Te192  1  0.67156041  0.65905746  0.50271199  1
  Te2-  Te193  1  0.66313460  0.68136644  0.83193312  1
  Pb2+  Pb194  1  0.33320225  0.50161110  0.16563999  1
  Pb2+  Pb195  1  0.82962500  0.83406863  -0.00551544  1
  Pb2+  Pb196  1  0.16593009  0.83744381  0.33653665  1
  Pb2+  Pb197  1  0.33513319  0.33105402  0.34544738  1
  Pb2+  Pb198  1  0.32804734  0.83677311  0.83245948  1
  Pb2+  Pb199  1  0.82977784  0.67137297  0.82426451  1
  Pb2+  Pb200  1  -0.00129780  0.65582041  0.00002470  1
  Pb2+  Pb201  1  0.50569742  0.50531230  0.66588962  1
  Pb2+  Pb202  1  -0.00255542  0.67031395  0.66308109  1
  Pb2+  Pb203  1  0.16388896  0.33269869  0.16185695  1
  Pb2+  Pb204  1  0.00172697  0.33207018  0.32987476  1
  Pb2+  Pb205  1  0.83153375  0.49570541  0.00053770  1
  Pb2+  Pb206  1  0.49672520  0.49162956  -0.00097332  1
  Pb2+  Pb207  1  0.66557661  0.33315538  0.33547004  1
  Pb2+  Pb208  1  0.15357089  0.49382610  0.66144049  1
  Pb2+  Pb209  1  0.66323369  -0.00887834  0.32948964  1
  Pb2+  Pb210  1  0.49886461  0.66384374  0.83248820  1
  Pb2+  Pb211  1  0.16752334  0.16709106  -0.00546191  1
  Pb2+  Pb212  1  0.16306449  -0.00493287  0.16980286  1
  Pb2+  Pb213  1  0.00123995  0.00525962  -0.00015640  1
  Pb2+  Pb214  1  0.49459796  -0.00673887  0.50604476  1
  Pb2+  Pb215  1  0.50654229  0.50703410  0.33389774  1
