# generated using pymatgen
data_In22Ag21Sn22Bi21(Te54Pb11)2
_symmetry_space_group_name_H-M   'P 1'
_cell_length_a   19.12967046
_cell_length_b   19.11331965
_cell_length_c   19.12191018
_cell_angle_alpha   89.98964299
_cell_angle_beta   90.00210181
_cell_angle_gamma   90.01372444
_symmetry_Int_Tables_number   1
_chemical_formula_structural   In22Ag21Sn22Bi21(Te54Pb11)2
_chemical_formula_sum   'In22 Ag21 Sn22 Bi21 Te108 Pb22'
_cell_volume   6991.57250363
_cell_formula_units_Z   1
loop_
 _symmetry_equiv_pos_site_id
 _symmetry_equiv_pos_as_xyz
  1  'x, y, z'
loop_
 _atom_type_symbol
 _atom_type_oxidation_number
  In3+  3.0
  Ag+  1.0
  Sn2+  2.0
  Bi3+  3.0
  Te2-  -2.0
  Pb2+  2.0
loop_
 _atom_site_type_symbol
 _atom_site_label
 _atom_site_symmetry_multiplicity
 _atom_site_fract_x
 _atom_site_fract_y
 _atom_site_fract_z
 _atom_site_occupancy
  In3+  In0  1  0.49992723  0.50089921  0.35363900  1
  In3+  In1  1  0.50539382  0.65299642  0.84709787  1
  In3+  In2  1  0.49751610  0.18982408  0.67584837  1
  In3+  In3  1  0.49637550  0.00124586  0.50197506  1
  In3+  In4  1  0.49898746  0.17999026  -0.00108241  1
  In3+  In5  1  0.34220675  -0.00142908  0.33267542  1
  In3+  In6  1  0.02221483  0.66586146  0.00608490  1
  In3+  In7  1  0.49720749  0.34971935  0.82131240  1
  In3+  In8  1  0.15602526  0.16504151  0.33240330  1
  In3+  In9  1  0.33703269  0.18384876  0.17186798  1
  In3+  In10  1  0.17575072  0.83638832  0.33269951  1
  In3+  In11  1  0.65843225  0.50426090  0.13889552  1
  In3+  In12  1  0.66070897  0.83575891  0.15839224  1
  In3+  In13  1  0.15246914  0.00063764  0.50290457  1
  In3+  In14  1  0.66205550  0.01137102  0.66585834  1
  In3+  In15  1  -0.00307712  0.65121235  0.66447260  1
  In3+  In16  1  0.65996154  0.83647813  0.84167052  1
  In3+  In17  1  0.67186385  0.34432398  0.67603999  1
  In3+  In18  1  0.81744577  0.49615840  0.67980426  1
  In3+  In19  1  0.34877331  0.49649988  0.16122297  1
  In3+  In20  1  -0.00027232  0.63801404  0.33471007  1
  In3+  In21  1  0.33107936  0.16884324  0.50878259  1
  Ag+  Ag22  1  0.19327598  0.49307085  -0.00244873  1
  Ag+  Ag23  1  0.80073725  0.14084813  -0.01350128  1
  Ag+  Ag24  1  0.34279731  0.52371861  0.80445993  1
  Ag+  Ag25  1  -0.02546654  0.16718740  0.14045849  1
  Ag+  Ag26  1  0.65894190  0.66599604  -0.02306296  1
  Ag+  Ag27  1  0.85426186  0.32953377  0.82327287  1
  Ag+  Ag28  1  0.34473248  0.64059938  -0.01298821  1
  Ag+  Ag29  1  0.02742834  0.01495328  0.67709495  1
  Ag+  Ag30  1  0.68260008  0.48017636  0.83348109  1
  Ag+  Ag31  1  -0.01528799  0.17201394  0.50519454  1
  Ag+  Ag32  1  0.02571573  0.34722032  0.65051118  1
  Ag+  Ag33  1  0.85062391  0.00187326  0.51752793  1
  Ag+  Ag34  1  0.02453205  0.32607897  0.32397691  1
  Ag+  Ag35  1  0.49232172  0.48205676  -0.00233020  1
  Ag+  Ag36  1  0.33214990  0.52602479  0.52297784  1
  Ag+  Ag37  1  0.35614959  0.33466286  0.67828921  1
  Ag+  Ag38  1  0.48225843  0.34600647  0.16066000  1
  Ag+  Ag39  1  0.66926366  0.02091353  0.02670782  1
  Ag+  Ag40  1  0.33840735  0.62828918  0.69100416  1
  Ag+  Ag41  1  0.50162108  0.80965327  0.34083418  1
  Ag+  Ag42  1  0.46379369  0.51503551  0.69716699  1
  Sn2+  Sn43  1  0.50015985  0.66371342  0.15823894  1
  Sn2+  Sn44  1  0.83691477  0.83494447  0.66831106  1
  Sn2+  Sn45  1  -0.00769210  0.17475206  0.82680912  1
  Sn2+  Sn46  1  0.65142441  0.66977974  0.66885171  1
  Sn2+  Sn47  1  0.16336747  -0.00072737  0.83564293  1
  Sn2+  Sn48  1  0.34979009  -0.00307856  0.00320691  1
  Sn2+  Sn49  1  0.66818663  0.17438101  0.16774703  1
  Sn2+  Sn50  1  -0.00648183  0.84719687  0.49968621  1
  Sn2+  Sn51  1  0.15494066  0.33554655  0.16285730  1
  Sn2+  Sn52  1  0.83806827  0.16309381  0.66901163  1
  Sn2+  Sn53  1  0.66638005  -0.00958529  0.33477276  1
  Sn2+  Sn54  1  0.16799825  0.82406366  0.00501540  1
  Sn2+  Sn55  1  0.33929109  0.00550518  0.66481394  1
  Sn2+  Sn56  1  0.15223201  0.17358665  0.66650272  1
  Sn2+  Sn57  1  0.84460409  0.16914620  0.33255306  1
  Sn2+  Sn58  1  0.33640724  0.82268898  0.82893042  1
  Sn2+  Sn59  1  0.66343479  0.83814266  0.50170132  1
  Sn2+  Sn60  1  0.33782271  0.33902493  -0.01184589  1
  Sn2+  Sn61  1  0.16902207  0.65750266  0.16023933  1
  Sn2+  Sn62  1  0.83824974  0.00289046  0.16646794  1
  Sn2+  Sn63  1  0.50441042  0.82176018  0.66140441  1
  Sn2+  Sn64  1  0.17253184  0.50063431  0.32817188  1
  Bi3+  Bi65  1  0.49874192  0.66748897  0.50111433  1
  Bi3+  Bi66  1  0.83289437  0.33173402  0.16517966  1
  Bi3+  Bi67  1  0.82989576  0.49730580  0.33731127  1
  Bi3+  Bi68  1  0.16689437  0.50099394  0.67139542  1
  Bi3+  Bi69  1  0.50040302  0.17167205  0.33103411  1
  Bi3+  Bi70  1  0.82722846  0.50345094  0.00213554  1
  Bi3+  Bi71  1  0.83005627  0.83465687  -0.00046546  1
  Bi3+  Bi72  1  0.66340073  0.33407210  0.33378689  1
  Bi3+  Bi73  1  0.33329063  0.16154967  0.83396987  1
  Bi3+  Bi74  1  0.33505230  0.33477383  0.33341553  1
  Bi3+  Bi75  1  -0.00122318  0.00857572  0.33705735  1
  Bi3+  Bi76  1  0.17495916  0.16789831  0.00197551  1
  Bi3+  Bi77  1  -0.00151087  0.83521313  0.82987886  1
  Bi3+  Bi78  1  0.32822550  0.66747697  0.32775649  1
  Bi3+  Bi79  1  0.16706958  0.66757727  0.50019873  1
  Bi3+  Bi80  1  0.66612879  0.66515670  0.33486988  1
  Bi3+  Bi81  1  0.83292835  0.66504732  0.16620216  1
  Bi3+  Bi82  1  0.49871654  0.83220602  0.00128472  1
  Bi3+  Bi83  1  0.33520520  0.83108551  0.16481784  1
  Bi3+  Bi84  1  0.16929687  0.66509924  0.83103893  1
  Bi3+  Bi85  1  0.66381745  0.16487474  0.49640227  1
  Te2-  Te86  1  0.18063669  0.16900760  0.16795544  1
  Te2-  Te87  1  0.17855790  0.15661531  0.49764903  1
  Te2-  Te88  1  0.17023622  0.16467727  0.83565013  1
  Te2-  Te89  1  0.16547921  0.50081431  0.15872602  1
  Te2-  Te90  1  0.17633474  0.50576121  0.49892796  1
  Te2-  Te91  1  0.17417545  0.50379261  0.84198971  1
  Te2-  Te92  1  0.16765866  0.82961561  0.16778433  1
  Te2-  Te93  1  0.16270803  0.83562135  0.49640201  1
  Te2-  Te94  1  0.16397630  0.83031795  0.83803657  1
  Te2-  Te95  1  0.49696746  0.17258809  0.16427032  1
  Te2-  Te96  1  0.49708628  0.16134627  0.49839727  1
  Te2-  Te97  1  0.49633551  0.16535647  0.83712772  1
  Te2-  Te98  1  0.50322398  0.49793897  0.14917610  1
  Te2-  Te99  1  0.48606605  0.50455030  0.50601395  1
  Te2-  Te100  1  0.48845499  0.50121683  0.84316959  1
  Te2-  Te101  1  0.50257017  0.83247396  0.16722476  1
  Te2-  Te102  1  0.50203266  0.83149398  0.49001892  1
  Te2-  Te103  1  0.50290626  0.82619493  0.83400005  1
  Te2-  Te104  1  0.82718160  0.17010677  0.15659630  1
  Te2-  Te105  1  0.82599836  0.15611844  0.50201698  1
  Te2-  Te106  1  0.83419870  0.17715893  0.84353044  1
  Te2-  Te107  1  0.82972323  0.50173114  0.17198166  1
  Te2-  Te108  1  0.83511030  0.50092802  0.49852522  1
  Te2-  Te109  1  0.83192571  0.49161763  0.83451912  1
  Te2-  Te110  1  0.82949504  0.83073802  0.16447018  1
  Te2-  Te111  1  0.83195694  0.84672185  0.50077567  1
  Te2-  Te112  1  0.83226008  0.83183390  0.83550198  1
  Te2-  Te113  1  0.16919590  0.00109433  0.00068418  1
  Te2-  Te114  1  0.16723531  0.00275856  0.34215433  1
  Te2-  Te115  1  0.17224877  0.00326224  0.65857139  1
  Te2-  Te116  1  0.16960640  0.33822022  0.00277540  1
  Te2-  Te117  1  0.17306211  0.33045119  0.33098727  1
  Te2-  Te118  1  0.16986587  0.33178374  0.66670095  1
  Te2-  Te119  1  0.17962175  0.65773420  -0.00411773  1
  Te2-  Te120  1  0.16451136  0.66642924  0.33363831  1
  Te2-  Te121  1  0.18621939  0.66364710  0.66540448  1
  Te2-  Te122  1  0.51659296  -0.00768714  -0.00192034  1
  Te2-  Te123  1  0.49755029  0.00906158  0.33408359  1
  Te2-  Te124  1  0.50655683  -0.00828134  0.65912166  1
  Te2-  Te125  1  0.49753603  0.33252250  0.01068113  1
  Te2-  Te126  1  0.49991289  0.33747514  0.31701317  1
  Te2-  Te127  1  0.50288722  0.34476341  0.66552369  1
  Te2-  Te128  1  0.49512593  0.67015392  -0.00231225  1
  Te2-  Te129  1  0.49796871  0.66043331  0.33175873  1
  Te2-  Te130  1  0.48497800  0.65948376  0.66149991  1
  Te2-  Te131  1  0.82111273  -0.00414397  -0.00032155  1
  Te2-  Te132  1  0.83544859  0.00755897  0.32960376  1
  Te2-  Te133  1  0.81698085  0.00270962  0.66036533  1
  Te2-  Te134  1  0.83210324  0.34261342  0.00366082  1
  Te2-  Te135  1  0.82528409  0.33497520  0.33310430  1
  Te2-  Te136  1  0.82369431  0.33716168  0.67824251  1
  Te2-  Te137  1  0.81708521  0.66793324  0.00490925  1
  Te2-  Te138  1  0.83431613  0.66374505  0.33314030  1
  Te2-  Te139  1  0.83723769  0.65539046  0.66942323  1
  Te2-  Te140  1  0.01399677  0.16597195  -0.00379290  1
  Te2-  Te141  1  0.00505241  0.17371479  0.34949719  1
  Te2-  Te142  1  -0.00465862  0.15931068  0.66059000  1
  Te2-  Te143  1  -0.00825077  0.50825315  0.00181165  1
  Te2-  Te144  1  -0.00078513  0.47951338  0.33470701  1
  Te2-  Te145  1  0.00409035  0.49476013  0.66742360  1
  Te2-  Te146  1  -0.00367611  0.83216092  -0.00279839  1
  Te2-  Te147  1  0.00059079  0.84669957  0.33511647  1
  Te2-  Te148  1  -0.00525363  0.84306037  0.66760857  1
  Te2-  Te149  1  0.33885112  0.16389090  0.00208859  1
  Te2-  Te150  1  0.33834362  0.16669348  0.32815066  1
  Te2-  Te151  1  0.33955966  0.16760200  0.66709005  1
  Te2-  Te152  1  0.33928976  0.49598284  0.00947268  1
  Te2-  Te153  1  0.33702116  0.50139452  0.31908071  1
  Te2-  Te154  1  0.32394025  0.48022089  0.66304967  1
  Te2-  Te155  1  0.33427806  0.83774236  0.00227796  1
  Te2-  Te156  1  0.34208643  0.83395768  0.32872005  1
  Te2-  Te157  1  0.33653783  0.84180566  0.67048347  1
  Te2-  Te158  1  0.65617225  0.16591557  -0.00062988  1
  Te2-  Te159  1  0.66418402  0.16852213  0.33339491  1
  Te2-  Te160  1  0.65866905  0.16666882  0.65966586  1
  Te2-  Te161  1  0.66370274  0.51213333  -0.01473333  1
  Te2-  Te162  1  0.66376706  0.49994344  0.33920709  1
  Te2-  Te163  1  0.66493455  0.49972342  0.68079848  1
  Te2-  Te164  1  0.66492126  0.81978214  -0.00117300  1
  Te2-  Te165  1  0.65583120  0.82728025  0.32871310  1
  Te2-  Te166  1  0.66890682  0.82443525  0.66714406  1
  Te2-  Te167  1  -0.00230047  0.01717110  0.16965785  1
  Te2-  Te168  1  -0.00110330  0.01194684  0.50123605  1
  Te2-  Te169  1  0.00171255  -0.00040331  0.82291045  1
  Te2-  Te170  1  -0.00391836  0.31567844  0.17733048  1
  Te2-  Te171  1  -0.00145765  0.32114129  0.50928072  1
  Te2-  Te172  1  0.00064632  0.32977910  0.82997487  1
  Te2-  Te173  1  -0.00286147  0.66924669  0.16931512  1
  Te2-  Te174  1  0.00591165  0.67155415  0.50045027  1
  Te2-  Te175  1  0.00442855  0.67312057  0.82863582  1
  Te2-  Te176  1  0.33323926  -0.00672533  0.17358988  1
  Te2-  Te177  1  0.34156943  0.00300492  0.49305822  1
  Te2-  Te178  1  0.32944392  -0.00067102  0.83629050  1
  Te2-  Te179  1  0.33266238  0.33870811  0.16779749  1
  Te2-  Te180  1  0.33341639  0.32278952  0.49242599  1
  Te2-  Te181  1  0.34457573  0.32341869  0.82697642  1
  Te2-  Te182  1  0.33211428  0.66846027  0.16763326  1
  Te2-  Te183  1  0.33264500  0.66884890  0.48957171  1
  Te2-  Te184  1  0.33440950  0.66666845  0.84021548  1
  Te2-  Te185  1  0.67154209  -0.00451217  0.17179037  1
  Te2-  Te186  1  0.65537502  0.00125386  0.49843501  1
  Te2-  Te187  1  0.66591225  -0.00849796  0.82148756  1
  Te2-  Te188  1  0.66947080  0.34238660  0.17103324  1
  Te2-  Te189  1  0.66499835  0.33092730  0.50130728  1
  Te2-  Te190  1  0.65011336  0.33569823  0.83103377  1
  Te2-  Te191  1  0.66745840  0.66210417  0.17480730  1
  Te2-  Te192  1  0.66482443  0.66839413  0.49913584  1
  Te2-  Te193  1  0.65697408  0.67285124  0.82824827  1
  Pb2+  Pb194  1  0.33316044  0.83533670  0.50413069  1
  Pb2+  Pb195  1  0.00491661  0.49340951  0.50045752  1
  Pb2+  Pb196  1  0.83783789  0.67368160  0.50464790  1
  Pb2+  Pb197  1  0.83463929  0.00604985  0.82563377  1
  Pb2+  Pb198  1  0.50272736  0.00490873  0.16412271  1
  Pb2+  Pb199  1  -0.00127206  0.84052219  0.16977776  1
  Pb2+  Pb200  1  0.16991384  0.33490664  0.83449495  1
  Pb2+  Pb201  1  0.16496709  0.00228246  0.17029989  1
  Pb2+  Pb202  1  0.66586109  0.33952325  0.00070515  1
  Pb2+  Pb203  1  -0.00187026  0.33155218  0.00028384  1
  Pb2+  Pb204  1  0.49782018  0.33264894  0.49363497  1
  Pb2+  Pb205  1  0.66121847  0.50102317  0.51016908  1
  Pb2+  Pb206  1  0.00438686  0.50097603  0.83654617  1
  Pb2+  Pb207  1  0.82919455  0.66196613  0.83752718  1
  Pb2+  Pb208  1  0.00010675  0.49306284  0.16646028  1
  Pb2+  Pb209  1  0.49654595  -0.00377840  0.82961066  1
  Pb2+  Pb210  1  -0.00463496  0.00325263  -0.00508501  1
  Pb2+  Pb211  1  0.16371772  0.32937795  0.49950376  1
  Pb2+  Pb212  1  0.66824147  0.16647473  0.82810404  1
  Pb2+  Pb213  1  0.16357991  0.83199089  0.66829023  1
  Pb2+  Pb214  1  0.82998376  0.83926488  0.33438594  1
  Pb2+  Pb215  1  0.83638794  0.32576831  0.50887991  1
