# generated using pymatgen
data_In22Ag21Sn22Bi21(Te54Pb11)2
_symmetry_space_group_name_H-M   'P 1'
_cell_length_a   19.14136364
_cell_length_b   19.17048200
_cell_length_c   19.16689764
_cell_angle_alpha   89.99013873
_cell_angle_beta   89.97347899
_cell_angle_gamma   89.99050738
_symmetry_Int_Tables_number   1
_chemical_formula_structural   In22Ag21Sn22Bi21(Te54Pb11)2
_chemical_formula_sum   'In22 Ag21 Sn22 Bi21 Te108 Pb22'
_cell_volume   7033.27617184
_cell_formula_units_Z   1
loop_
 _symmetry_equiv_pos_site_id
 _symmetry_equiv_pos_as_xyz
  1  'x, y, z'
loop_
 _atom_type_symbol
 _atom_type_oxidation_number
  In3+  3.0
  Ag+  1.0
  Sn2+  2.0
  Bi3+  3.0
  Te2-  -2.0
  Pb2+  2.0
loop_
 _atom_site_type_symbol
 _atom_site_label
 _atom_site_symmetry_multiplicity
 _atom_site_fract_x
 _atom_site_fract_y
 _atom_site_fract_z
 _atom_site_occupancy
  In3+  In0  1  0.83245316  0.67822794  0.83530107  1
  In3+  In1  1  0.66504048  -0.01965450  0.31469668  1
  In3+  In2  1  -0.00454614  0.33221704  0.67206194  1
  In3+  In3  1  0.50831666  0.00114436  0.51412881  1
  In3+  In4  1  0.00330026  0.84432430  0.82672839  1
  In3+  In5  1  0.82663931  0.33194226  0.82118168  1
  In3+  In6  1  0.65270631  0.14560703  0.16540206  1
  In3+  In7  1  -0.02380273  0.16491152  0.83891473  1
  In3+  In8  1  0.66742388  0.50662977  0.84991704  1
  In3+  In9  1  0.18868461  0.16799236  -0.00136739  1
  In3+  In10  1  0.02513744  0.32989399  0.35410279  1
  In3+  In11  1  0.50008904  0.15512913  0.30744556  1
  In3+  In12  1  0.83200453  0.50380952  0.65624736  1
  In3+  In13  1  0.50420681  0.50143099  0.32710811  1
  In3+  In14  1  0.49977212  0.50102510  0.01112147  1
  In3+  In15  1  0.51491218  0.00609968  0.85868653  1
  In3+  In16  1  0.65059748  0.50705278  0.16349246  1
  In3+  In17  1  0.65664625  0.85241433  0.83421471  1
  In3+  In18  1  -0.00019630  0.33977049  0.00386458  1
  In3+  In19  1  0.34518329  0.67424505  0.31650459  1
  In3+  In20  1  0.18702490  0.84659812  -0.00204335  1
  In3+  In21  1  0.33346823  0.47478260  0.48362833  1
  Ag+  Ag22  1  0.81067288  -0.02696241  0.81352733  1
  Ag+  Ag23  1  0.36178085  0.02992366  0.00540621  1
  Ag+  Ag24  1  0.32167962  0.14755408  0.16414153  1
  Ag+  Ag25  1  0.50063257  0.13828303  0.00310934  1
  Ag+  Ag26  1  0.48392143  0.85851001  0.32372284  1
  Ag+  Ag27  1  0.66545527  0.68639722  -0.02101424  1
  Ag+  Ag28  1  0.65191921  0.02102193  -0.02041305  1
  Ag+  Ag29  1  0.35235691  0.30500453  0.31073632  1
  Ag+  Ag30  1  0.34729398  0.48307293  0.19213796  1
  Ag+  Ag31  1  0.36115608  0.86372819  0.84777644  1
  Ag+  Ag32  1  0.82897534  0.18913536  0.69233092  1
  Ag+  Ag33  1  0.81126032  0.86029790  0.69461643  1
  Ag+  Ag34  1  0.47930714  -0.01787867  0.16804259  1
  Ag+  Ag35  1  0.64498555  0.84902750  0.47876502  1
  Ag+  Ag36  1  0.66092204  0.84573680  0.18017243  1
  Ag+  Ag37  1  -0.03183701  0.83210207  0.52820636  1
  Ag+  Ag38  1  0.17292183  0.35449347  0.51908645  1
  Ag+  Ag39  1  0.35461507  0.30323914  0.70075226  1
  Ag+  Ag40  1  0.86493106  0.47260693  0.30443586  1
  Ag+  Ag41  1  0.49564213  0.68669075  0.16848969  1
  Ag+  Ag42  1  0.64620096  0.18540704  0.80326771  1
  Sn2+  Sn43  1  0.17640069  0.49095993  0.66834088  1
  Sn2+  Sn44  1  0.81912750  0.16139432  -0.00069466  1
  Sn2+  Sn45  1  0.00229303  0.17046914  0.15361641  1
  Sn2+  Sn46  1  0.83090410  -0.00859590  0.51322454  1
  Sn2+  Sn47  1  0.49667635  0.66768108  0.84630349  1
  Sn2+  Sn48  1  0.66252459  0.32615510  0.67157814  1
  Sn2+  Sn49  1  0.33031366  0.17074848  0.49504977  1
  Sn2+  Sn50  1  0.82928220  0.83404055  0.00389823  1
  Sn2+  Sn51  1  0.33466095  0.83958846  0.50924253  1
  Sn2+  Sn52  1  0.33126980  0.33336567  0.01281211  1
  Sn2+  Sn53  1  0.83073798  0.83085197  0.33955399  1
  Sn2+  Sn54  1  0.17894340  0.49570412  -0.00157693  1
  Sn2+  Sn55  1  0.67340555  -0.00232508  0.66568849  1
  Sn2+  Sn56  1  0.16691663  0.33125836  0.82614495  1
  Sn2+  Sn57  1  0.33759272  -0.00075900  0.32424306  1
  Sn2+  Sn58  1  0.16129820  0.17362597  0.67216930  1
  Sn2+  Sn59  1  0.33789427  0.16187918  0.83375467  1
  Sn2+  Sn60  1  0.18345128  0.66307559  0.16595059  1
  Sn2+  Sn61  1  0.83298141  0.50108812  0.00654462  1
  Sn2+  Sn62  1  0.49887252  0.67261791  0.49226269  1
  Sn2+  Sn63  1  -0.00699677  0.67284669  0.33387336  1
  Sn2+  Sn64  1  0.17080827  0.33386140  0.16590455  1
  Bi3+  Bi65  1  0.33459682  0.66699109  0.66654101  1
  Bi3+  Bi66  1  0.50005291  0.50011267  0.66461814  1
  Bi3+  Bi67  1  -0.00108869  0.00403410  0.66629025  1
  Bi3+  Bi68  1  0.83074602  0.67035978  0.49978183  1
  Bi3+  Bi69  1  0.66730925  0.66117001  0.67034015  1
  Bi3+  Bi70  1  0.83385967  -0.00026739  0.16221887  1
  Bi3+  Bi71  1  0.17047281  0.50128270  0.32861158  1
  Bi3+  Bi72  1  0.66388613  0.66662856  0.33290168  1
  Bi3+  Bi73  1  0.33782835  0.66500842  -0.00287605  1
  Bi3+  Bi74  1  0.16295409  0.66572310  0.83689923  1
  Bi3+  Bi75  1  -0.00772612  0.83262808  0.16291716  1
  Bi3+  Bi76  1  0.16949111  0.00262775  0.83348124  1
  Bi3+  Bi77  1  0.83323354  0.33190169  0.16681470  1
  Bi3+  Bi78  1  0.66202176  0.50501953  0.50318699  1
  Bi3+  Bi79  1  0.17078096  -0.00241518  0.49932035  1
  Bi3+  Bi80  1  -0.00726488  0.00062898  -0.00179580  1
  Bi3+  Bi81  1  0.83149130  0.16868567  0.33053647  1
  Bi3+  Bi82  1  0.17200912  0.83354762  0.66996371  1
  Bi3+  Bi83  1  0.65908793  0.33830131  0.33683465  1
  Bi3+  Bi84  1  0.50960821  0.82470297  0.00780656  1
  Bi3+  Bi85  1  0.82633739  0.66922241  0.16554271  1
  Te2-  Te86  1  0.17354294  0.16914857  0.15806715  1
  Te2-  Te87  1  0.16663156  0.15744345  0.50150760  1
  Te2-  Te88  1  0.17168005  0.16395919  0.83768580  1
  Te2-  Te89  1  0.17373664  0.50309395  0.16500854  1
  Te2-  Te90  1  0.17391960  0.50088314  0.49574563  1
  Te2-  Te91  1  0.16349893  0.50189869  0.83241279  1
  Te2-  Te92  1  0.15947221  0.82788892  0.15894266  1
  Te2-  Te93  1  0.17163959  0.83616776  0.50424728  1
  Te2-  Te94  1  0.16213549  0.83230922  0.83487598  1
  Te2-  Te95  1  0.50006908  0.16140683  0.15567545  1
  Te2-  Te96  1  0.49889163  0.15565708  0.50024541  1
  Te2-  Te97  1  0.50607673  0.15770261  0.84447274  1
  Te2-  Te98  1  0.49344326  0.50101645  0.16881807  1
  Te2-  Te99  1  0.49520864  0.50247943  0.50160317  1
  Te2-  Te100  1  0.51034594  0.50081085  0.82724016  1
  Te2-  Te101  1  0.51115286  0.83348545  0.17062074  1
  Te2-  Te102  1  0.49825559  0.84528136  0.48622531  1
  Te2-  Te103  1  0.50342000  0.83454626  0.83619545  1
  Te2-  Te104  1  0.83187579  0.16674450  0.16863606  1
  Te2-  Te105  1  0.83457051  0.16097199  0.49057742  1
  Te2-  Te106  1  0.82495163  0.17677523  0.83833834  1
  Te2-  Te107  1  0.83408148  0.50228628  0.16613216  1
  Te2-  Te108  1  0.82896272  0.50488692  0.50055922  1
  Te2-  Te109  1  0.82251473  0.48548447  0.83932983  1
  Te2-  Te110  1  0.82533911  0.83271442  0.16975668  1
  Te2-  Te111  1  0.82587717  0.83188366  0.49785027  1
  Te2-  Te112  1  0.84416674  0.83132807  0.83550701  1
  Te2-  Te113  1  0.15733367  0.00661530  -0.00608469  1
  Te2-  Te114  1  0.16654556  0.00180787  0.33383360  1
  Te2-  Te115  1  0.16411500  -0.00060985  0.66829279  1
  Te2-  Te116  1  0.15614787  0.32909658  -0.00228572  1
  Te2-  Te117  1  0.17391718  0.33818494  0.33114230  1
  Te2-  Te118  1  0.16578046  0.33193253  0.66378201  1
  Te2-  Te119  1  0.16893108  0.66252039  -0.00231445  1
  Te2-  Te120  1  0.16563632  0.66451758  0.33005618  1
  Te2-  Te121  1  0.16817915  0.66739858  0.67107343  1
  Te2-  Te122  1  0.50581949  -0.01162372  0.00890767  1
  Te2-  Te123  1  0.51022666  0.00203648  0.31643339  1
  Te2-  Te124  1  0.50353466  -0.00267573  0.66837660  1
  Te2-  Te125  1  0.50078587  0.34671951  0.00030981  1
  Te2-  Te126  1  0.49350589  0.34266041  0.33391546  1
  Te2-  Te127  1  0.49474837  0.33482381  0.66698946  1
  Te2-  Te128  1  0.51161367  0.66116468  0.00567341  1
  Te2-  Te129  1  0.49965201  0.66080495  0.32338485  1
  Te2-  Te130  1  0.50085189  0.66378988  0.67196285  1
  Te2-  Te131  1  0.83262109  0.00118319  0.00090693  1
  Te2-  Te132  1  0.82060892  0.00324273  0.32951557  1
  Te2-  Te133  1  0.83756080  0.00205635  0.67094874  1
  Te2-  Te134  1  0.84217827  0.33257691  0.00650372  1
  Te2-  Te135  1  0.82824250  0.33313283  0.33041343  1
  Te2-  Te136  1  0.83565061  0.33426210  0.66553202  1
  Te2-  Te137  1  0.81872080  0.66229377  -0.00063323  1
  Te2-  Te138  1  0.82800011  0.66302746  0.33412426  1
  Te2-  Te139  1  0.83021560  0.66304301  0.67084803  1
  Te2-  Te140  1  -0.00630332  0.16465632  -0.00602821  1
  Te2-  Te141  1  -0.00192439  0.17372951  0.32914103  1
  Te2-  Te142  1  -0.01050124  0.16826967  0.67347531  1
  Te2-  Te143  1  0.00357539  0.49652006  -0.00072272  1
  Te2-  Te144  1  0.00552385  0.49500596  0.33532679  1
  Te2-  Te145  1  0.00026120  0.49176547  0.66591910  1
  Te2-  Te146  1  -0.00514029  0.83727452  0.00005203  1
  Te2-  Te147  1  -0.00052026  0.83443818  0.32469611  1
  Te2-  Te148  1  0.00689658  0.83777412  0.67066768  1
  Te2-  Te149  1  0.34004811  0.17452707  0.00859781  1
  Te2-  Te150  1  0.34405739  0.15909643  0.31867429  1
  Te2-  Te151  1  0.33266443  0.16442047  0.66579517  1
  Te2-  Te152  1  0.34114276  0.50497007  -0.00243850  1
  Te2-  Te153  1  0.33439734  0.51621913  0.33469006  1
  Te2-  Te154  1  0.33514449  0.50438014  0.65996233  1
  Te2-  Te155  1  0.34234740  0.82504914  -0.00909604  1
  Te2-  Te156  1  0.33917980  0.82889219  0.33155409  1
  Te2-  Te157  1  0.33410491  0.83205576  0.67834894  1
  Te2-  Te158  1  0.65508468  0.16260445  0.01358741  1
  Te2-  Te159  1  0.66052202  0.17629881  0.32412342  1
  Te2-  Te160  1  0.67813912  0.16779324  0.66240120  1
  Te2-  Te161  1  0.66093943  0.49578139  0.00244598  1
  Te2-  Te162  1  0.66163587  0.50184877  0.34097364  1
  Te2-  Te163  1  0.66689937  0.49753146  0.66533484  1
  Te2-  Te164  1  0.66919751  0.83234270  -0.01502709  1
  Te2-  Te165  1  0.66421394  0.82831713  0.33275478  1
  Te2-  Te166  1  0.66972747  0.82644094  0.68141078  1
  Te2-  Te167  1  -0.00279871  -0.00027683  0.16500480  1
  Te2-  Te168  1  0.00011899  -0.01450849  0.50357408  1
  Te2-  Te169  1  0.00157635  0.00517318  0.83229013  1
  Te2-  Te170  1  -0.00273442  0.32989798  0.16136631  1
  Te2-  Te171  1  0.01116750  0.33317909  0.50542959  1
  Te2-  Te172  1  -0.00200046  0.32325349  0.82810540  1
  Te2-  Te173  1  -0.00841418  0.66986361  0.16780280  1
  Te2-  Te174  1  -0.00532918  0.68036770  0.49859356  1
  Te2-  Te175  1  -0.00506561  0.66321734  0.83466347  1
  Te2-  Te176  1  0.33339881  0.00020672  0.15436686  1
  Te2-  Te177  1  0.33449357  0.00134944  0.49345046  1
  Te2-  Te178  1  0.33156172  0.00602122  0.84846582  1
  Te2-  Te179  1  0.33012161  0.33940951  0.16972014  1
  Te2-  Te180  1  0.32083689  0.32690651  0.49789333  1
  Te2-  Te181  1  0.32686622  0.33138188  0.83981778  1
  Te2-  Te182  1  0.34496299  0.66530842  0.16118606  1
  Te2-  Te183  1  0.34114872  0.67687323  0.50579302  1
  Te2-  Te184  1  0.32857870  0.66684186  0.83269268  1
  Te2-  Te185  1  0.67339084  -0.00789064  0.16229947  1
  Te2-  Te186  1  0.66363283  -0.00703195  0.50573375  1
  Te2-  Te187  1  0.66900357  0.00544705  0.83430478  1
  Te2-  Te188  1  0.67068694  0.34925792  0.17298806  1
  Te2-  Te189  1  0.66495269  0.33845276  0.49993371  1
  Te2-  Te190  1  0.67084902  0.32792127  0.83166136  1
  Te2-  Te191  1  0.66586881  0.65810196  0.17182204  1
  Te2-  Te192  1  0.66586976  0.66746990  0.50540269  1
  Te2-  Te193  1  0.67311875  0.65899384  0.83246870  1
  Pb2+  Pb194  1  0.33693246  0.49921628  0.82898396  1
  Pb2+  Pb195  1  0.49999736  0.32860349  0.16578429  1
  Pb2+  Pb196  1  0.50522688  0.16461403  0.67043213  1
  Pb2+  Pb197  1  0.49131331  0.32723398  0.49847779  1
  Pb2+  Pb198  1  -0.00884596  0.49187205  0.83238083  1
  Pb2+  Pb199  1  0.33485189  0.00022683  0.66921408  1
  Pb2+  Pb200  1  0.49686641  0.32983042  0.83661410  1
  Pb2+  Pb201  1  0.17027490  0.83265482  0.33061429  1
  Pb2+  Pb202  1  -0.00359372  0.66700158  0.66692774  1
  Pb2+  Pb203  1  0.66745135  0.16168019  0.49213130  1
  Pb2+  Pb204  1  0.16896175  -0.00109113  0.16286586  1
  Pb2+  Pb205  1  0.00065461  0.16000146  0.50367188  1
  Pb2+  Pb206  1  -0.01082463  0.00066806  0.33796776  1
  Pb2+  Pb207  1  0.00002480  0.50687391  0.50027741  1
  Pb2+  Pb208  1  0.34071719  0.83402413  0.16062339  1
  Pb2+  Pb209  1  0.50471354  0.83077003  0.65658792  1
  Pb2+  Pb210  1  0.66996584  0.32618958  0.00248091  1
  Pb2+  Pb211  1  0.00639133  0.49864905  0.16754494  1
  Pb2+  Pb212  1  0.83775810  0.33002601  0.49694526  1
  Pb2+  Pb213  1  0.17278229  0.17039071  0.33214513  1
  Pb2+  Pb214  1  0.17264539  0.66779263  0.49875137  1
  Pb2+  Pb215  1  -0.00692650  0.66893229  0.00078652  1
