# generated using pymatgen
data_In22Ag21Sn22Bi21(Te54Pb11)2
_symmetry_space_group_name_H-M   'P 1'
_cell_length_a   19.14911521
_cell_length_b   19.16235614
_cell_length_c   19.16081218
_cell_angle_alpha   90.00306824
_cell_angle_beta   89.99673055
_cell_angle_gamma   89.99929115
_symmetry_Int_Tables_number   1
_chemical_formula_structural   In22Ag21Sn22Bi21(Te54Pb11)2
_chemical_formula_sum   'In22 Ag21 Sn22 Bi21 Te108 Pb22'
_cell_volume   7030.90988991
_cell_formula_units_Z   1
loop_
 _symmetry_equiv_pos_site_id
 _symmetry_equiv_pos_as_xyz
  1  'x, y, z'
loop_
 _atom_type_symbol
 _atom_type_oxidation_number
  In3+  3.0
  Ag+  1.0
  Sn2+  2.0
  Bi3+  3.0
  Te2-  -2.0
  Pb2+  2.0
loop_
 _atom_site_type_symbol
 _atom_site_label
 _atom_site_symmetry_multiplicity
 _atom_site_fract_x
 _atom_site_fract_y
 _atom_site_fract_z
 _atom_site_occupancy
  In3+  In0  1  0.15808915  0.51918085  -0.00734245  1
  In3+  In1  1  0.00339718  0.16412028  0.47424130  1
  In3+  In2  1  0.84529915  0.67257415  0.15270426  1
  In3+  In3  1  -0.00630300  0.67341079  0.32508007  1
  In3+  In4  1  -0.00958591  0.33627470  0.31672947  1
  In3+  In5  1  0.00809472  0.83658187  0.16922539  1
  In3+  In6  1  -0.00684939  0.83716276  0.50499598  1
  In3+  In7  1  0.50519768  0.66255972  0.83466980  1
  In3+  In8  1  0.84317820  0.84063116  -0.00440600  1
  In3+  In9  1  0.83891170  0.00578143  0.17020333  1
  In3+  In10  1  0.84197833  0.50077805  0.32829759  1
  In3+  In11  1  0.83637357  0.32847360  0.52003547  1
  In3+  In12  1  0.32015982  0.83623652  0.13297881  1
  In3+  In13  1  0.50882967  0.84249655  -0.00148522  1
  In3+  In14  1  0.13545359  0.67428049  0.49764957  1
  In3+  In15  1  0.66489462  0.00113746  0.68198253  1
  In3+  In16  1  0.65488370  0.33347645  0.33306344  1
  In3+  In17  1  0.67408875  0.84916518  0.50620871  1
  In3+  In18  1  0.68029979  0.65841120  0.66271680  1
  In3+  In19  1  0.16259955  -0.01463270  0.86061564  1
  In3+  In20  1  -0.00054373  0.50105203  0.50516367  1
  In3+  In21  1  0.65576868  0.33481652  0.68214099  1
  Ag+  Ag22  1  -0.00212257  -0.02416960  0.34297957  1
  Ag+  Ag23  1  -0.02902557  0.53237644  0.86380051  1
  Ag+  Ag24  1  0.68980096  0.33441162  -0.02293334  1
  Ag+  Ag25  1  0.50935849  0.36267998  0.86953292  1
  Ag+  Ag26  1  0.82935318  -0.01483821  0.46955241  1
  Ag+  Ag27  1  -0.02410836  0.67900969  -0.02527351  1
  Ag+  Ag28  1  0.00123780  0.82254173  0.80638081  1
  Ag+  Ag29  1  0.86115003  0.35361042  0.85173290  1
  Ag+  Ag30  1  0.46256402  -0.01083055  0.85502311  1
  Ag+  Ag31  1  0.36346536  0.13346835  0.16441821  1
  Ag+  Ag32  1  0.36564271  0.86515619  0.83340729  1
  Ag+  Ag33  1  0.36819543  0.83589214  0.48015996  1
  Ag+  Ag34  1  0.14144984  0.83730074  -0.00225097  1
  Ag+  Ag35  1  -0.02341038  0.50147523  0.14949470  1
  Ag+  Ag36  1  0.52498214  0.30712624  0.18333040  1
  Ag+  Ag37  1  0.00126334  0.14096162  0.17598602  1
  Ag+  Ag38  1  0.46521589  0.02051383  0.19048827  1
  Ag+  Ag39  1  0.86722899  0.64131208  0.85870204  1
  Ag+  Ag40  1  0.51812812  0.52344945  0.68234904  1
  Ag+  Ag41  1  0.13552941  0.02931047  0.15445668  1
  Ag+  Ag42  1  0.83095660  0.63826948  0.48653733  1
  Sn2+  Sn43  1  0.67827201  0.83263608  0.83463508  1
  Sn2+  Sn44  1  0.49820068  0.49065910  -0.00375370  1
  Sn2+  Sn45  1  0.67271877  0.00190769  0.32576388  1
  Sn2+  Sn46  1  0.17291460  0.83887322  0.32933073  1
  Sn2+  Sn47  1  0.33876232  0.00319313  0.00172164  1
  Sn2+  Sn48  1  0.32223803  -0.00212876  0.32992500  1
  Sn2+  Sn49  1  0.50155326  0.17411841  -0.00643922  1
  Sn2+  Sn50  1  0.16915778  0.15793146  0.32580208  1
  Sn2+  Sn51  1  0.49605135  0.15762739  0.32253686  1
  Sn2+  Sn52  1  -0.00105944  0.33370605  -0.00048674  1
  Sn2+  Sn53  1  -0.00316715  0.00459331  0.65847883  1
  Sn2+  Sn54  1  -0.00541460  0.32794998  0.67097534  1
  Sn2+  Sn55  1  0.16099824  0.49751769  0.32683263  1
  Sn2+  Sn56  1  0.50464888  0.33404237  0.50263467  1
  Sn2+  Sn57  1  0.49608023  0.83583193  0.32360752  1
  Sn2+  Sn58  1  0.83602210  0.16324601  -0.00297963  1
  Sn2+  Sn59  1  0.67389645  0.16511100  0.15930109  1
  Sn2+  Sn60  1  0.65703209  0.00832235  0.00241843  1
  Sn2+  Sn61  1  0.33943509  0.16753113  0.84383341  1
  Sn2+  Sn62  1  0.33426880  0.51819560  0.50709118  1
  Sn2+  Sn63  1  0.66814340  0.49735279  0.83786841  1
  Sn2+  Sn64  1  0.33375077  -0.00564034  0.66303136  1
  Bi3+  Bi65  1  0.33266550  0.50176207  0.16995850  1
  Bi3+  Bi66  1  0.33222729  0.33002822  0.00106347  1
  Bi3+  Bi67  1  0.83190514  0.16478808  0.67038101  1
  Bi3+  Bi68  1  0.16744303  0.33556225  0.16809975  1
  Bi3+  Bi69  1  0.17051262  0.50162462  0.66434220  1
  Bi3+  Bi70  1  0.84004843  0.00095905  0.83404301  1
  Bi3+  Bi71  1  0.66879023  0.16699406  0.49747803  1
  Bi3+  Bi72  1  0.16210651  -0.00287647  0.49128003  1
  Bi3+  Bi73  1  0.83124852  0.83755114  0.67162935  1
  Bi3+  Bi74  1  0.16457840  0.66456463  0.17142721  1
  Bi3+  Bi75  1  0.33209483  0.66981743  0.66750300  1
  Bi3+  Bi76  1  0.33103885  0.33119113  0.32982388  1
  Bi3+  Bi77  1  0.50170244  0.67226821  0.16385649  1
  Bi3+  Bi78  1  0.17321556  0.67128355  0.83686789  1
  Bi3+  Bi79  1  0.00230502  0.16782846  0.83996394  1
  Bi3+  Bi80  1  0.66735666  0.49664423  0.50124363  1
  Bi3+  Bi81  1  0.33208222  0.66615265  -0.00014168  1
  Bi3+  Bi82  1  0.66418707  0.83441222  0.16774577  1
  Bi3+  Bi83  1  0.49764429  0.16268269  0.66665147  1
  Bi3+  Bi84  1  0.33778352  0.32982167  0.66140748  1
  Bi3+  Bi85  1  0.33008382  0.49749075  0.83374695  1
  Te2-  Te86  1  0.15163270  0.17435541  0.16895007  1
  Te2-  Te87  1  0.16206138  0.16370395  0.49558215  1
  Te2-  Te88  1  0.16785561  0.16184144  0.83579206  1
  Te2-  Te89  1  0.17116188  0.50300114  0.16522923  1
  Te2-  Te90  1  0.16586303  0.51187320  0.50145345  1
  Te2-  Te91  1  0.16741012  0.50490760  0.83018250  1
  Te2-  Te92  1  0.16354864  0.82402399  0.16411001  1
  Te2-  Te93  1  0.15127074  0.83002662  0.49785241  1
  Te2-  Te94  1  0.15026371  0.83350352  0.84526721  1
  Te2-  Te95  1  0.51032769  0.16166804  0.16335024  1
  Te2-  Te96  1  0.50365913  0.16677293  0.49813899  1
  Te2-  Te97  1  0.49376675  0.14379877  0.82851516  1
  Te2-  Te98  1  0.49409866  0.50872914  0.16587985  1
  Te2-  Te99  1  0.50162320  0.49744105  0.50265337  1
  Te2-  Te100  1  0.49465609  0.50374044  0.82813744  1
  Te2-  Te101  1  0.50203807  0.83322029  0.15865690  1
  Te2-  Te102  1  0.51560793  0.83377257  0.49687807  1
  Te2-  Te103  1  0.51152928  0.84438588  0.84254812  1
  Te2-  Te104  1  0.84715798  0.16053741  0.16287882  1
  Te2-  Te105  1  0.83564712  0.17393482  0.50511715  1
  Te2-  Te106  1  0.83477134  0.16496698  0.83203611  1
  Te2-  Te107  1  0.83108890  0.51032703  0.17421668  1
  Te2-  Te108  1  0.83527376  0.49019693  0.49973863  1
  Te2-  Te109  1  0.82966330  0.49647927  0.83033672  1
  Te2-  Te110  1  0.83060222  0.82268045  0.16241683  1
  Te2-  Te111  1  0.83473583  0.84208024  0.50412425  1
  Te2-  Te112  1  0.84827531  0.83870274  0.83639552  1
  Te2-  Te113  1  0.16826813  -0.01399292  0.01460403  1
  Te2-  Te114  1  0.15225709  -0.00187316  0.33064590  1
  Te2-  Te115  1  0.16389775  -0.00134292  0.65350161  1
  Te2-  Te116  1  0.16961268  0.33419462  0.00371595  1
  Te2-  Te117  1  0.16747525  0.33155994  0.33271288  1
  Te2-  Te118  1  0.17191504  0.33611272  0.66481674  1
  Te2-  Te119  1  0.17017222  0.67461698  0.00479689  1
  Te2-  Te120  1  0.15633249  0.66662081  0.33726169  1
  Te2-  Te121  1  0.16798464  0.66607367  0.66271600  1
  Te2-  Te122  1  0.49833533  -0.00097494  -0.00048810  1
  Te2-  Te123  1  0.49977564  -0.00200821  0.32975127  1
  Te2-  Te124  1  0.50260809  0.00130767  0.66471403  1
  Te2-  Te125  1  0.49142252  0.33227457  0.01188273  1
  Te2-  Te126  1  0.49584155  0.32849024  0.32982878  1
  Te2-  Te127  1  0.49921015  0.32510275  0.66476828  1
  Te2-  Te128  1  0.49567890  0.66375653  -0.00205122  1
  Te2-  Te129  1  0.49985041  0.66852511  0.32982359  1
  Te2-  Te130  1  0.49402357  0.66737611  0.67482855  1
  Te2-  Te131  1  0.82939916  -0.00426850  0.00040782  1
  Te2-  Te132  1  0.84574133  0.00181284  0.32493653  1
  Te2-  Te133  1  0.83142401  0.00101271  0.67018456  1
  Te2-  Te134  1  0.83612188  0.33251458  -0.00456720  1
  Te2-  Te135  1  0.83957212  0.34207098  0.33071337  1
  Te2-  Te136  1  0.82225654  0.32921747  0.67353538  1
  Te2-  Te137  1  0.83072089  0.67038674  -0.00233927  1
  Te2-  Te138  1  0.83841192  0.65875119  0.33929535  1
  Te2-  Te139  1  0.83004922  0.67472652  0.67369444  1
  Te2-  Te140  1  -0.00108908  0.16659615  0.00091315  1
  Te2-  Te141  1  0.00003842  0.17953969  0.32283852  1
  Te2-  Te142  1  -0.00514332  0.16683954  0.67274344  1
  Te2-  Te143  1  0.00700156  0.50156639  -0.00032592  1
  Te2-  Te144  1  0.00004448  0.49209587  0.35023206  1
  Te2-  Te145  1  0.00538390  0.49430637  0.66055594  1
  Te2-  Te146  1  -0.00496059  0.82202275  0.01749126  1
  Te2-  Te147  1  0.00021089  0.82839299  0.32623160  1
  Te2-  Te148  1  -0.00273323  0.83534399  0.65759658  1
  Te2-  Te149  1  0.33689584  0.16501166  0.01624667  1
  Te2-  Te150  1  0.33444383  0.16578158  0.31799023  1
  Te2-  Te151  1  0.33449052  0.16603887  0.66109594  1
  Te2-  Te152  1  0.33023364  0.50017179  -0.00051797  1
  Te2-  Te153  1  0.32979488  0.49853060  0.33701535  1
  Te2-  Te154  1  0.33347073  0.49632543  0.66764808  1
  Te2-  Te155  1  0.34276523  0.82947060  -0.01584181  1
  Te2-  Te156  1  0.33332333  0.83667737  0.33693516  1
  Te2-  Te157  1  0.33424891  0.83420051  0.68652092  1
  Te2-  Te158  1  0.66996955  0.18010070  0.00221984  1
  Te2-  Te159  1  0.66554770  0.16897299  0.33581761  1
  Te2-  Te160  1  0.66638544  0.17029260  0.66068266  1
  Te2-  Te161  1  0.66483175  0.48802143  -0.00316497  1
  Te2-  Te162  1  0.67039957  0.49507100  0.33902045  1
  Te2-  Te163  1  0.65987314  0.49526540  0.66374521  1
  Te2-  Te164  1  0.66689170  0.83384551  0.00345536  1
  Te2-  Te165  1  0.66701971  0.83534232  0.33283220  1
  Te2-  Te166  1  0.67022291  0.83501689  0.66285372  1
  Te2-  Te167  1  -0.00505994  -0.00924350  0.17155943  1
  Te2-  Te168  1  -0.00358639  0.00676257  0.49024029  1
  Te2-  Te169  1  0.00688058  0.00343893  0.83254639  1
  Te2-  Te170  1  0.00307673  0.35443213  0.16566258  1
  Te2-  Te171  1  -0.00634560  0.32356108  0.50476766  1
  Te2-  Te172  1  0.00364186  0.33007059  0.83143804  1
  Te2-  Te173  1  -0.00075067  0.65009557  0.17465100  1
  Te2-  Te174  1  -0.01694445  0.66535070  0.49493722  1
  Te2-  Te175  1  0.01077756  0.67561504  0.83246918  1
  Te2-  Te176  1  0.32572089  -0.01365767  0.16884285  1
  Te2-  Te177  1  0.32781253  -0.01380319  0.49767421  1
  Te2-  Te178  1  0.31483435  0.00488311  0.83248939  1
  Te2-  Te179  1  0.33026323  0.33942682  0.16715585  1
  Te2-  Te180  1  0.33346231  0.33235716  0.49565209  1
  Te2-  Te181  1  0.34274670  0.33333030  0.83331275  1
  Te2-  Te182  1  0.33327381  0.67024852  0.16622839  1
  Te2-  Te183  1  0.33892684  0.68423785  0.50666678  1
  Te2-  Te184  1  0.33528664  0.66224956  0.83392224  1
  Te2-  Te185  1  0.67722768  -0.00441273  0.16588479  1
  Te2-  Te186  1  0.68115804  0.00359132  0.48991559  1
  Te2-  Te187  1  0.67665145  -0.00297954  0.83891964  1
  Te2-  Te188  1  0.66826618  0.33043990  0.17937970  1
  Te2-  Te189  1  0.67432950  0.33093906  0.48990806  1
  Te2-  Te190  1  0.65112577  0.33342176  0.83570952  1
  Te2-  Te191  1  0.66574805  0.66945063  0.16560008  1
  Te2-  Te192  1  0.68032961  0.65866328  0.50746849  1
  Te2-  Te193  1  0.66009390  0.66708842  0.82406833  1
  Pb2+  Pb194  1  0.50627153  -0.00025896  0.49687550  1
  Pb2+  Pb195  1  0.66866546  0.66765350  0.33622991  1
  Pb2+  Pb196  1  0.83354232  0.83186341  0.33284226  1
  Pb2+  Pb197  1  0.66078895  0.49718815  0.16464610  1
  Pb2+  Pb198  1  0.50625825  0.66581195  0.50387079  1
  Pb2+  Pb199  1  0.16947375  0.16102378  0.00370353  1
  Pb2+  Pb200  1  0.66021865  0.16561215  0.83420545  1
  Pb2+  Pb201  1  0.66285469  0.66299205  -0.00756512  1
  Pb2+  Pb202  1  0.83171151  0.17195890  0.33225011  1
  Pb2+  Pb203  1  0.83216469  0.50235042  0.66499750  1
  Pb2+  Pb204  1  0.15954600  0.33965583  0.49807156  1
  Pb2+  Pb205  1  0.49928664  0.49614205  0.33534535  1
  Pb2+  Pb206  1  -0.00025205  -0.00407286  0.00246797  1
  Pb2+  Pb207  1  0.16963580  0.83538628  0.67493959  1
  Pb2+  Pb208  1  0.49994579  0.83437775  0.67321196  1
  Pb2+  Pb209  1  0.33239783  0.15828026  0.48893512  1
  Pb2+  Pb210  1  0.83675656  0.50065010  0.00089159  1
  Pb2+  Pb211  1  0.17087896  0.33224495  0.83561505  1
  Pb2+  Pb212  1  0.32691649  0.67002419  0.33929984  1
  Pb2+  Pb213  1  -0.00463659  0.66176398  0.66523408  1
  Pb2+  Pb214  1  0.83474159  0.33039887  0.16165760  1
  Pb2+  Pb215  1  0.16378086  0.16371400  0.66840019  1
