# generated using pymatgen
data_In22Ag21Sn22Bi21(Te54Pb11)2
_symmetry_space_group_name_H-M   'P 1'
_cell_length_a   19.12531282
_cell_length_b   19.16134673
_cell_length_c   19.17884261
_cell_angle_alpha   89.99421428
_cell_angle_beta   90.00873354
_cell_angle_gamma   90.00756988
_symmetry_Int_Tables_number   1
_chemical_formula_structural   In22Ag21Sn22Bi21(Te54Pb11)2
_chemical_formula_sum   'In22 Ag21 Sn22 Bi21 Te108 Pb22'
_cell_volume   7028.40794903
_cell_formula_units_Z   1
loop_
 _symmetry_equiv_pos_site_id
 _symmetry_equiv_pos_as_xyz
  1  'x, y, z'
loop_
 _atom_type_symbol
 _atom_type_oxidation_number
  In3+  3.0
  Ag+  1.0
  Sn2+  2.0
  Bi3+  3.0
  Te2-  -2.0
  Pb2+  2.0
loop_
 _atom_site_type_symbol
 _atom_site_label
 _atom_site_symmetry_multiplicity
 _atom_site_fract_x
 _atom_site_fract_y
 _atom_site_fract_z
 _atom_site_occupancy
  In3+  In0  1  0.66634928  0.33166278  0.31441082  1
  In3+  In1  1  -0.00133988  0.82325298  0.82738142  1
  In3+  In2  1  0.16556120  0.18572414  0.66730027  1
  In3+  In3  1  0.65862481  0.66473334  -0.01008105  1
  In3+  In4  1  0.33578262  -0.00277852  -0.00790215  1
  In3+  In5  1  0.66490385  0.18834908  0.50515978  1
  In3+  In6  1  0.68375293  0.82972582  0.50263586  1
  In3+  In7  1  0.64720338  0.48328628  0.16721084  1
  In3+  In8  1  0.33164632  0.65677652  0.33128568  1
  In3+  In9  1  0.16011143  0.83270302  -0.02247741  1
  In3+  In10  1  0.34520545  -0.00490210  0.32301239  1
  In3+  In11  1  0.00240299  0.15319665  0.49336779  1
  In3+  In12  1  0.33382389  0.83225436  0.16222106  1
  In3+  In13  1  -0.00014847  -0.01336832  0.66407322  1
  In3+  In14  1  0.16105552  0.35245236  0.49456626  1
  In3+  In15  1  0.00255925  0.66520481  0.66238483  1
  In3+  In16  1  0.66204744  0.83011663  0.14213451  1
  In3+  In17  1  0.16704697  0.83122813  0.65710867  1
  In3+  In18  1  0.16993953  0.35044341  0.85375060  1
  In3+  In19  1  0.49281158  0.50365033  0.67256783  1
  In3+  In20  1  0.82483865  0.82918986  0.66275649  1
  In3+  In21  1  0.83346583  -0.00772669  0.17909921  1
  Ag+  Ag22  1  0.17440834  0.48440186  0.02661488  1
  Ag+  Ag23  1  0.64333394  0.80033588  0.81193397  1
  Ag+  Ag24  1  0.16797594  0.18937524  0.02876145  1
  Ag+  Ag25  1  0.18846903  0.65214439  0.50242065  1
  Ag+  Ag26  1  -0.00092446  -0.02562699  0.30639238  1
  Ag+  Ag27  1  0.47541981  0.68419497  0.81403621  1
  Ag+  Ag28  1  0.31363796  0.52843038  0.50079059  1
  Ag+  Ag29  1  0.48156659  0.68195669  0.52395266  1
  Ag+  Ag30  1  0.19551894  0.52508382  0.31850859  1
  Ag+  Ag31  1  0.49549684  0.31395727  0.13663142  1
  Ag+  Ag32  1  0.67022167  0.36399620  0.01895794  1
  Ag+  Ag33  1  0.33517715  0.47331041  0.85166980  1
  Ag+  Ag34  1  0.35575386  0.82009317  0.86619586  1
  Ag+  Ag35  1  0.85708070  0.34001774  0.14664585  1
  Ag+  Ag36  1  0.64451005  0.66927887  0.69169859  1
  Ag+  Ag37  1  0.51232455  0.84312188  -0.02269324  1
  Ag+  Ag38  1  -0.01754538  0.81068174  0.47679345  1
  Ag+  Ag39  1  0.49913347  -0.02453177  0.15914757  1
  Ag+  Ag40  1  0.31434288  0.47183306  0.14277822  1
  Ag+  Ag41  1  0.02109544  0.33587551  0.30965869  1
  Ag+  Ag42  1  0.80272020  0.80363224  0.30939584  1
  Sn2+  Sn43  1  0.66203489  -0.01170361  0.67087264  1
  Sn2+  Sn44  1  0.00388411  0.50387049  0.49713421  1
  Sn2+  Sn45  1  -0.00027809  0.50013050  0.17225208  1
  Sn2+  Sn46  1  0.17658849  0.66547957  0.83017183  1
  Sn2+  Sn47  1  0.00390331  0.66184005  -0.00213173  1
  Sn2+  Sn48  1  0.50497230  -0.01592264  0.49314250  1
  Sn2+  Sn49  1  0.33311944  0.66539348  0.66705113  1
  Sn2+  Sn50  1  -0.00721490  0.33653120  0.66366102  1
  Sn2+  Sn51  1  0.65222918  0.49778491  0.83159401  1
  Sn2+  Sn52  1  0.33862698  0.16845187  0.16685054  1
  Sn2+  Sn53  1  0.16668196  0.66392037  0.16844586  1
  Sn2+  Sn54  1  0.82890451  0.65751615  0.16615040  1
  Sn2+  Sn55  1  0.84301733  0.33062274  0.49403090  1
  Sn2+  Sn56  1  0.66980699  0.33712790  0.67480504  1
  Sn2+  Sn57  1  0.49769615  0.17270575  0.66532307  1
  Sn2+  Sn58  1  0.65822132  0.66575124  0.34033006  1
  Sn2+  Sn59  1  0.49999758  0.34698978  0.83666439  1
  Sn2+  Sn60  1  0.01076453  0.50142363  0.83924374  1
  Sn2+  Sn61  1  0.50523705  0.83234650  0.32846524  1
  Sn2+  Sn62  1  0.83767071  0.34004464  0.84475691  1
  Sn2+  Sn63  1  0.32917926  0.15858877  0.84400054  1
  Sn2+  Sn64  1  0.17343139  0.34159726  0.17493211  1
  Bi3+  Bi65  1  0.83221062  0.66433889  0.49953004  1
  Bi3+  Bi66  1  0.50018390  0.50194715  0.33666810  1
  Bi3+  Bi67  1  0.66661749  0.16166493  0.16607480  1
  Bi3+  Bi68  1  0.50059487  0.33606339  0.50395885  1
  Bi3+  Bi69  1  0.83440176  0.49799503  0.33219823  1
  Bi3+  Bi70  1  0.16639181  0.83439152  0.33747442  1
  Bi3+  Bi71  1  0.16725045  -0.00012261  0.83053787  1
  Bi3+  Bi72  1  0.16658955  -0.00202953  0.49776688  1
  Bi3+  Bi73  1  0.00317135  0.17045909  0.83121327  1
  Bi3+  Bi74  1  0.16902654  0.50638489  0.66403714  1
  Bi3+  Bi75  1  0.66306379  0.50742581  0.50306663  1
  Bi3+  Bi76  1  0.83303716  0.16744102  0.33223725  1
  Bi3+  Bi77  1  0.16330996  0.16457114  0.33899593  1
  Bi3+  Bi78  1  0.32959881  0.83547747  0.49922148  1
  Bi3+  Bi79  1  0.66144737  0.00104895  0.00317626  1
  Bi3+  Bi80  1  0.49449648  0.50810313  0.00093202  1
  Bi3+  Bi81  1  0.83443633  0.00018847  0.50030713  1
  Bi3+  Bi82  1  0.33426441  0.16514843  0.50328697  1
  Bi3+  Bi83  1  0.83364207  0.00330752  0.83357655  1
  Bi3+  Bi84  1  0.66169893  0.16757005  0.83048292  1
  Bi3+  Bi85  1  0.50328882  0.66604338  0.17028338  1
  Te2-  Te86  1  0.16919065  0.16799326  0.17453102  1
  Te2-  Te87  1  0.16661250  0.16143518  0.50542259  1
  Te2-  Te88  1  0.16519588  0.16064643  0.82296817  1
  Te2-  Te89  1  0.17460511  0.50171139  0.17632481  1
  Te2-  Te90  1  0.16699629  0.50621106  0.49814462  1
  Te2-  Te91  1  0.18385351  0.49898270  0.82470261  1
  Te2-  Te92  1  0.17574478  0.83186165  0.17586729  1
  Te2-  Te93  1  0.16288592  0.83702377  0.50192853  1
  Te2-  Te94  1  0.15946885  0.83711950  0.82364313  1
  Te2-  Te95  1  0.50133360  0.16942882  0.16574765  1
  Te2-  Te96  1  0.50105617  0.16749196  0.50307287  1
  Te2-  Te97  1  0.49847008  0.16936723  0.83219518  1
  Te2-  Te98  1  0.49508137  0.50514729  0.16767068  1
  Te2-  Te99  1  0.50473055  0.49729817  0.50078015  1
  Te2-  Te100  1  0.48437143  0.50469581  0.83612597  1
  Te2-  Te101  1  0.50121253  0.82836676  0.16994006  1
  Te2-  Te102  1  0.49481440  0.82758999  0.49804726  1
  Te2-  Te103  1  0.50021015  0.82913969  0.83183330  1
  Te2-  Te104  1  0.82738047  0.18793022  0.17103980  1
  Te2-  Te105  1  0.82807845  0.16309954  0.49837225  1
  Te2-  Te106  1  0.83563629  0.16886378  0.83477576  1
  Te2-  Te107  1  0.83053746  0.48979402  0.17149345  1
  Te2-  Te108  1  0.82967968  0.50068262  0.49915967  1
  Te2-  Te109  1  0.83974452  0.49772358  0.83661639  1
  Te2-  Te110  1  0.82644171  0.83515956  0.17021560  1
  Te2-  Te111  1  0.83973754  0.83470892  0.50433463  1
  Te2-  Te112  1  0.84305037  0.84177338  0.83027679  1
  Te2-  Te113  1  0.17410706  -0.01088363  -0.00412785  1
  Te2-  Te114  1  0.14699669  0.00256277  0.33677398  1
  Te2-  Te115  1  0.15994053  -0.00685508  0.66418942  1
  Te2-  Te116  1  0.17216370  0.33585419  0.00425637  1
  Te2-  Te117  1  0.16546438  0.32945236  0.34173519  1
  Te2-  Te118  1  0.16348588  0.34046518  0.65519797  1
  Te2-  Te119  1  0.16576078  0.68062868  0.00031069  1
  Te2-  Te120  1  0.17436618  0.66885849  0.34383057  1
  Te2-  Te121  1  0.16179746  0.66725445  0.65512471  1
  Te2-  Te122  1  0.49447640  -0.01006983  0.00841919  1
  Te2-  Te123  1  0.49994092  0.00118707  0.33185338  1
  Te2-  Te124  1  0.50303309  0.00102644  0.66364764  1
  Te2-  Te125  1  0.51089428  0.34482909  -0.00702662  1
  Te2-  Te126  1  0.50877173  0.33830528  0.34092072  1
  Te2-  Te127  1  0.50222393  0.34145659  0.66792611  1
  Te2-  Te128  1  0.50571796  0.67081346  0.00544508  1
  Te2-  Te129  1  0.49522118  0.66354291  0.33367863  1
  Te2-  Te130  1  0.49951574  0.65748334  0.66810324  1
  Te2-  Te131  1  0.82931582  0.00312711  -0.00117496  1
  Te2-  Te132  1  0.84958209  0.00537641  0.33788327  1
  Te2-  Te133  1  0.83365814  -0.00669539  0.66699725  1
  Te2-  Te134  1  0.82111681  0.33768136  0.00245771  1
  Te2-  Te135  1  0.82125398  0.33301271  0.33796660  1
  Te2-  Te136  1  0.83150320  0.33425451  0.66689628  1
  Te2-  Te137  1  0.82981875  0.66827033  0.00536331  1
  Te2-  Te138  1  0.83285857  0.66345324  0.33557794  1
  Te2-  Te139  1  0.84284664  0.67278799  0.66419359  1
  Te2-  Te140  1  0.01522684  0.16911420  -0.00431441  1
  Te2-  Te141  1  -0.00202709  0.18515359  0.34052795  1
  Te2-  Te142  1  0.00571224  0.17072209  0.66539947  1
  Te2-  Te143  1  0.02306201  0.50405029  -0.00285764  1
  Te2-  Te144  1  -0.00520723  0.48649885  0.33298298  1
  Te2-  Te145  1  0.00488321  0.50647673  0.67136055  1
  Te2-  Te146  1  0.00489037  0.83052408  -0.00047262  1
  Te2-  Te147  1  0.00427631  0.82866317  0.33342362  1
  Te2-  Te148  1  0.00118379  0.83101240  0.67244228  1
  Te2-  Te149  1  0.31895854  0.15888939  0.00220384  1
  Te2-  Te150  1  0.32696479  0.15974669  0.33763699  1
  Te2-  Te151  1  0.32888876  0.16712342  0.66661222  1
  Te2-  Te152  1  0.32706464  0.50335331  0.00033402  1
  Te2-  Te153  1  0.33802862  0.50500253  0.34869234  1
  Te2-  Te154  1  0.33507189  0.50705990  0.65029271  1
  Te2-  Te155  1  0.32699985  0.84039368  0.00775706  1
  Te2-  Te156  1  0.33175945  0.84164803  0.33552731  1
  Te2-  Te157  1  0.32484881  0.83123185  0.66127085  1
  Te2-  Te158  1  0.66204241  0.16318389  -0.00201202  1
  Te2-  Te159  1  0.66881025  0.16781356  0.33465802  1
  Te2-  Te160  1  0.66534096  0.16357605  0.66778264  1
  Te2-  Te161  1  0.66183880  0.50915489  0.00185521  1
  Te2-  Te162  1  0.66710060  0.49823076  0.33325636  1
  Te2-  Te163  1  0.66002414  0.51213544  0.66857761  1
  Te2-  Te164  1  0.66047448  0.83555727  -0.00838911  1
  Te2-  Te165  1  0.66674637  0.83459631  0.34781313  1
  Te2-  Te166  1  0.67077973  0.82011376  0.66920607  1
  Te2-  Te167  1  -0.00388175  0.00152601  0.16126410  1
  Te2-  Te168  1  -0.00014990  -0.00104857  0.50952253  1
  Te2-  Te169  1  -0.00027852  0.00520212  0.82502624  1
  Te2-  Te170  1  0.00453333  0.33951805  0.16360334  1
  Te2-  Te171  1  0.00177311  0.33966335  0.50430225  1
  Te2-  Te172  1  0.00985703  0.33308001  0.83011416  1
  Te2-  Te173  1  -0.00026777  0.66086600  0.16501876  1
  Te2-  Te174  1  -0.00481128  0.66740300  0.50764410  1
  Te2-  Te175  1  0.00698079  0.66785319  0.83236727  1
  Te2-  Te176  1  0.34586361  -0.00236611  0.17015378  1
  Te2-  Te177  1  0.33330297  0.00160004  0.49552457  1
  Te2-  Te178  1  0.33020158  -0.00844498  0.83538260  1
  Te2-  Te179  1  0.34343741  0.32957340  0.16812846  1
  Te2-  Te180  1  0.33494213  0.32558975  0.49991418  1
  Te2-  Te181  1  0.32562070  0.32739681  0.83238922  1
  Te2-  Te182  1  0.33568673  0.67540749  0.17410954  1
  Te2-  Te183  1  0.33744505  0.67491376  0.49524013  1
  Te2-  Te184  1  0.33102896  0.67864651  0.83154371  1
  Te2-  Te185  1  0.65655573  -0.00259570  0.16503754  1
  Te2-  Te186  1  0.67118505  -0.01164840  0.50380332  1
  Te2-  Te187  1  0.67111073  0.00390529  0.83728208  1
  Te2-  Te188  1  0.64917466  0.32633743  0.16074708  1
  Te2-  Te189  1  0.66664408  0.34198243  0.50923547  1
  Te2-  Te190  1  0.66911046  0.32945092  0.83235923  1
  Te2-  Te191  1  0.66812895  0.67779680  0.17357607  1
  Te2-  Te192  1  0.67063857  0.67009347  0.50148033  1
  Te2-  Te193  1  0.67049540  0.65864984  0.83661929  1
  Pb2+  Pb194  1  0.83127181  0.83555027  -0.00020662  1
  Pb2+  Pb195  1  0.49537983  0.83012627  0.66511062  1
  Pb2+  Pb196  1  0.00646610  0.65811263  0.33506429  1
  Pb2+  Pb197  1  0.50203355  -0.00385998  0.83603221  1
  Pb2+  Pb198  1  0.17485074  -0.00066246  0.16800700  1
  Pb2+  Pb199  1  0.83603055  0.16958153  0.00461189  1
  Pb2+  Pb200  1  0.00240156  0.83084212  0.16995873  1
  Pb2+  Pb201  1  0.49731460  0.17027468  0.33310656  1
  Pb2+  Pb202  1  0.83730281  0.67011899  0.83423538  1
  Pb2+  Pb203  1  -0.00169125  0.33546443  -0.00233325  1
  Pb2+  Pb204  1  0.33358878  0.33696759  0.33375642  1
  Pb2+  Pb205  1  0.67641520  -0.00079166  0.33262810  1
  Pb2+  Pb206  1  0.33526914  0.66947373  0.00169867  1
  Pb2+  Pb207  1  0.00327391  0.00060828  -0.00699043  1
  Pb2+  Pb208  1  0.82976844  0.50243638  0.66928466  1
  Pb2+  Pb209  1  0.34270620  0.33475135  0.00029135  1
  Pb2+  Pb210  1  0.84258275  0.50307976  0.00513947  1
  Pb2+  Pb211  1  0.33234207  0.34027917  0.66551592  1
  Pb2+  Pb212  1  0.83807751  0.16491002  0.66658829  1
  Pb2+  Pb213  1  -0.00326284  0.16735459  0.17332002  1
  Pb2+  Pb214  1  0.32966787  -0.00091635  0.66556714  1
  Pb2+  Pb215  1  0.49362812  0.16184824  -0.00002374  1
