# generated using pymatgen
data_In22Ag21Sn22Bi21(Te54Pb11)2
_symmetry_space_group_name_H-M   'P 1'
_cell_length_a   19.17073432
_cell_length_b   19.14458622
_cell_length_c   19.19265104
_cell_angle_alpha   89.99360602
_cell_angle_beta   90.01129662
_cell_angle_gamma   89.97709264
_symmetry_Int_Tables_number   1
_chemical_formula_structural   In22Ag21Sn22Bi21(Te54Pb11)2
_chemical_formula_sum   'In22 Ag21 Sn22 Bi21 Te108 Pb22'
_cell_volume   7044.00497381
_cell_formula_units_Z   1
loop_
 _symmetry_equiv_pos_site_id
 _symmetry_equiv_pos_as_xyz
  1  'x, y, z'
loop_
 _atom_type_symbol
 _atom_type_oxidation_number
  In3+  3.0
  Ag+  1.0
  Sn2+  2.0
  Bi3+  3.0
  Te2-  -2.0
  Pb2+  2.0
loop_
 _atom_site_type_symbol
 _atom_site_label
 _atom_site_symmetry_multiplicity
 _atom_site_fract_x
 _atom_site_fract_y
 _atom_site_fract_z
 _atom_site_occupancy
  In3+  In0  1  0.50431569  0.49908311  -0.01300984  1
  In3+  In1  1  0.66856126  0.47774881  0.16746537  1
  In3+  In2  1  -0.01382435  0.32874573  0.65616251  1
  In3+  In3  1  -0.01647422  0.00664081  0.00277166  1
  In3+  In4  1  0.48970646  0.49563014  0.33558105  1
  In3+  In5  1  0.16628872  0.84648900  0.34637598  1
  In3+  In6  1  0.18064118  0.34328204  0.18740750  1
  In3+  In7  1  0.82739453  0.66890927  0.14245507  1
  In3+  In8  1  0.33668721  0.66030680  0.68071127  1
  In3+  In9  1  0.17416177  0.31578420  0.50064181  1
  In3+  In10  1  0.65128235  0.86319001  0.17798185  1
  In3+  In11  1  0.65145061  -0.00766631  0.00165709  1
  In3+  In12  1  0.67150297  0.50005109  0.48611933  1
  In3+  In13  1  0.51204665  0.16280144  0.00596228  1
  In3+  In14  1  0.66736471  0.84651583  0.51646524  1
  In3+  In15  1  0.63430546  0.50061926  0.82526537  1
  In3+  In16  1  0.33473096  0.01655632  0.66119582  1
  In3+  In17  1  0.31817192  0.49893187  0.49728027  1
  In3+  In18  1  0.67203992  0.33215987  0.65129276  1
  In3+  In19  1  0.49049538  0.00389032  0.18361123  1
  In3+  In20  1  0.85057011  0.86350427  0.66538287  1
  In3+  In21  1  0.02224940  0.66429077  0.01005420  1
  Ag+  Ag22  1  0.85633070  0.32944221  0.52298196  1
  Ag+  Ag23  1  0.67071034  0.14561281  0.47892909  1
  Ag+  Ag24  1  0.52156990  0.01067058  0.85152493  1
  Ag+  Ag25  1  0.13748954  0.51282593  0.36073137  1
  Ag+  Ag26  1  -0.02586523  0.63361521  0.65918513  1
  Ag+  Ag27  1  0.35461115  0.63214622  0.03147526  1
  Ag+  Ag28  1  0.03318401  0.47764286  0.19898423  1
  Ag+  Ag29  1  0.14130007  0.16449072  0.63844720  1
  Ag+  Ag30  1  0.80761890  0.15473483  0.02393257  1
  Ag+  Ag31  1  0.31104282  0.15360259  0.18919924  1
  Ag+  Ag32  1  0.13240172  -0.01631354  0.47977916  1
  Ag+  Ag33  1  0.02529667  -0.00062662  0.37227497  1
  Ag+  Ag34  1  0.85286429  0.15926632  0.63434468  1
  Ag+  Ag35  1  0.50305003  0.50036525  0.63767044  1
  Ag+  Ag36  1  0.34808894  0.31649495  0.31110527  1
  Ag+  Ag37  1  0.32820860  0.49221652  0.85479355  1
  Ag+  Ag38  1  0.51265761  0.85777665  0.66006567  1
  Ag+  Ag39  1  0.48768703  0.02918257  0.51721382  1
  Ag+  Ag40  1  0.64206814  0.15854822  0.18740455  1
  Ag+  Ag41  1  0.03530452  -0.01400553  0.66420461  1
  Ag+  Ag42  1  0.66531139  -0.00605098  0.35756863  1
  Sn2+  Sn43  1  0.50051896  0.32961910  0.16985791  1
  Sn2+  Sn44  1  0.84294281  0.65737145  0.82824700  1
  Sn2+  Sn45  1  0.83521401  0.84470481  -0.00196399  1
  Sn2+  Sn46  1  0.49734953  0.83313301  0.34871065  1
  Sn2+  Sn47  1  0.49821970  0.66399188  0.50301948  1
  Sn2+  Sn48  1  0.17079595  0.67357776  0.49978045  1
  Sn2+  Sn49  1  0.34448341  0.83493834  0.50436303  1
  Sn2+  Sn50  1  0.33097205  0.33069178  -0.00257536  1
  Sn2+  Sn51  1  0.49888845  0.33242963  0.50593656  1
  Sn2+  Sn52  1  0.83619155  0.00666170  0.82821364  1
  Sn2+  Sn53  1  0.33372400  0.16776079  0.83707873  1
  Sn2+  Sn54  1  0.83460957  0.32888483  0.83525544  1
  Sn2+  Sn55  1  0.16846230  0.33535678  0.82037617  1
  Sn2+  Sn56  1  -0.00325671  0.17124032  0.16644478  1
  Sn2+  Sn57  1  0.66272321  0.66991567  0.00502782  1
  Sn2+  Sn58  1  0.82857914  0.01197938  0.49205477  1
  Sn2+  Sn59  1  0.17837499  0.84371700  0.66421758  1
  Sn2+  Sn60  1  0.83328159  0.65621502  0.50689033  1
  Sn2+  Sn61  1  0.00653133  0.50540769  0.83152092  1
  Sn2+  Sn62  1  0.33003335  0.00231240  -0.01183603  1
  Sn2+  Sn63  1  0.17585506  0.49702391  0.66616972  1
  Sn2+  Sn64  1  0.83339534  -0.00065916  0.17348745  1
  Bi3+  Bi65  1  0.16964642  0.00452859  0.82773140  1
  Bi3+  Bi66  1  0.83221706  0.16655158  0.33086236  1
  Bi3+  Bi67  1  -0.00391126  0.16585062  0.83559437  1
  Bi3+  Bi68  1  0.66649212  0.33456326  -0.00057067  1
  Bi3+  Bi69  1  0.49819140  0.67059600  0.83090051  1
  Bi3+  Bi70  1  0.16694977  0.83465080  -0.00218608  1
  Bi3+  Bi71  1  0.83495787  0.33560473  0.16430114  1
  Bi3+  Bi72  1  0.50184186  0.17314032  0.66810051  1
  Bi3+  Bi73  1  0.16439994  0.66406116  0.16686298  1
  Bi3+  Bi74  1  0.66017666  0.00831226  0.67029041  1
  Bi3+  Bi75  1  0.33420793  0.83096009  0.82768789  1
  Bi3+  Bi76  1  0.16693256  0.66807668  0.82468314  1
  Bi3+  Bi77  1  0.17023160  0.16684814  -0.00204654  1
  Bi3+  Bi78  1  -0.00297114  0.83231611  0.16468769  1
  Bi3+  Bi79  1  0.33368104  0.33977972  0.66418338  1
  Bi3+  Bi80  1  0.83151269  0.50183441  0.33177074  1
  Bi3+  Bi81  1  0.66832761  0.17245260  0.83108189  1
  Bi3+  Bi82  1  -0.00063976  0.33551396  -0.00503513  1
  Bi3+  Bi83  1  0.33309581  0.66552286  0.33568204  1
  Bi3+  Bi84  1  -0.00401702  0.83354154  0.83243613  1
  Bi3+  Bi85  1  0.16483359  0.17122273  0.33190451  1
  Te2-  Te86  1  0.16608155  0.17213546  0.16480411  1
  Te2-  Te87  1  0.16840240  0.16273641  0.49516938  1
  Te2-  Te88  1  0.16696146  0.16609908  0.83564598  1
  Te2-  Te89  1  0.17084005  0.50015948  0.16195801  1
  Te2-  Te90  1  0.16594048  0.50370534  0.50346775  1
  Te2-  Te91  1  0.17817199  0.50634612  0.82770747  1
  Te2-  Te92  1  0.16204524  0.82929832  0.16108193  1
  Te2-  Te93  1  0.16900077  0.84135735  0.49875691  1
  Te2-  Te94  1  0.16545399  0.83461879  0.83274737  1
  Te2-  Te95  1  0.49847844  0.15994107  0.15891603  1
  Te2-  Te96  1  0.51396169  0.17293698  0.50277593  1
  Te2-  Te97  1  0.50193483  0.15772144  0.83492637  1
  Te2-  Te98  1  0.50840666  0.49761938  0.17757097  1
  Te2-  Te99  1  0.51335831  0.49998955  0.49031258  1
  Te2-  Te100  1  0.48099494  0.50330540  0.83620075  1
  Te2-  Te101  1  0.50331483  0.83940898  0.16366084  1
  Te2-  Te102  1  0.51235854  0.82469941  0.50889350  1
  Te2-  Te103  1  0.49634334  0.83233777  0.82035078  1
  Te2-  Te104  1  0.83908015  0.16945465  0.16696826  1
  Te2-  Te105  1  0.81936951  0.17979546  0.49243306  1
  Te2-  Te106  1  0.83202358  0.16773466  0.83375058  1
  Te2-  Te107  1  0.82851748  0.50376474  0.16754664  1
  Te2-  Te108  1  0.82596444  0.48171309  0.49838509  1
  Te2-  Te109  1  0.83910062  0.49950048  0.83305814  1
  Te2-  Te110  1  0.83704057  0.82781132  0.16393672  1
  Te2-  Te111  1  0.82179990  0.83307217  0.50892916  1
  Te2-  Te112  1  0.83523630  0.83332603  0.82512074  1
  Te2-  Te113  1  0.16560055  0.00028368  -0.00439058  1
  Te2-  Te114  1  0.17194535  0.00298405  0.33779292  1
  Te2-  Te115  1  0.17909366  0.01517876  0.66747312  1
  Te2-  Te116  1  0.16222948  0.32871973  -0.00882581  1
  Te2-  Te117  1  0.16853364  0.33585451  0.33916179  1
  Te2-  Te118  1  0.17191207  0.32192969  0.65716344  1
  Te2-  Te119  1  0.17688828  0.67085780  -0.00316357  1
  Te2-  Te120  1  0.16800976  0.65520633  0.32875594  1
  Te2-  Te121  1  0.17868742  0.66962224  0.66384418  1
  Te2-  Te122  1  0.49892509  0.00316859  -0.00448744  1
  Te2-  Te123  1  0.51274200  -0.00489443  0.33248493  1
  Te2-  Te124  1  0.49535471  0.00511115  0.66246660  1
  Te2-  Te125  1  0.50251842  0.33562197  0.00542218  1
  Te2-  Te126  1  0.49370890  0.33751001  0.32997753  1
  Te2-  Te127  1  0.49838733  0.33930327  0.66914238  1
  Te2-  Te128  1  0.49532053  0.66090475  -0.00234044  1
  Te2-  Te129  1  0.49885357  0.66950120  0.33375241  1
  Te2-  Te130  1  0.49302087  0.64921614  0.66994124  1
  Te2-  Te131  1  0.83360867  0.00935718  -0.00057612  1
  Te2-  Te132  1  0.81883918  0.00400827  0.33367584  1
  Te2-  Te133  1  0.82151052  0.01376087  0.66224109  1
  Te2-  Te134  1  0.83429320  0.32529830  0.00258985  1
  Te2-  Te135  1  0.83449330  0.33380780  0.32561300  1
  Te2-  Te136  1  0.83016839  0.32272601  0.66757496  1
  Te2-  Te137  1  0.82918480  0.67085842  -0.00885685  1
  Te2-  Te138  1  0.83733416  0.66627397  0.34755565  1
  Te2-  Te139  1  0.82877605  0.66010456  0.66347855  1
  Te2-  Te140  1  0.00448039  0.16778814  -0.00283311  1
  Te2-  Te141  1  0.00193831  0.15030013  0.33229034  1
  Te2-  Te142  1  -0.00367964  0.17644083  0.67461122  1
  Te2-  Te143  1  -0.00171027  0.50289216  -0.00769537  1
  Te2-  Te144  1  -0.00619675  0.50006277  0.33605939  1
  Te2-  Te145  1  0.00348468  0.48751495  0.67207411  1
  Te2-  Te146  1  0.00121388  0.82886931  -0.00450164  1
  Te2-  Te147  1  0.00616567  0.84939193  0.32982185  1
  Te2-  Te148  1  0.00151217  0.84186724  0.67051317  1
  Te2-  Te149  1  0.33298794  0.16658129  -0.00609262  1
  Te2-  Te150  1  0.33050782  0.17085010  0.33328497  1
  Te2-  Te151  1  0.34014654  0.17445301  0.66908548  1
  Te2-  Te152  1  0.34013756  0.49091947  0.00266919  1
  Te2-  Te153  1  0.33694834  0.50152114  0.34241380  1
  Te2-  Te154  1  0.34217943  0.50050629  0.65035006  1
  Te2-  Te155  1  0.33001773  0.83705331  -0.00654083  1
  Te2-  Te156  1  0.32789033  0.83057789  0.33346875  1
  Te2-  Te157  1  0.33528324  0.81952443  0.66479399  1
  Te2-  Te158  1  0.66508065  0.16929828  -0.00809198  1
  Te2-  Te159  1  0.66850119  0.16250946  0.33171649  1
  Te2-  Te160  1  0.66275341  0.17554068  0.67121540  1
  Te2-  Te161  1  0.65992808  0.49849375  0.00307179  1
  Te2-  Te162  1  0.67005619  0.50176478  0.32770084  1
  Te2-  Te163  1  0.65374329  0.48822183  0.67493560  1
  Te2-  Te164  1  0.66833988  0.83866095  0.00278464  1
  Te2-  Te165  1  0.66562317  0.84429614  0.32559606  1
  Te2-  Te166  1  0.65897939  0.83799841  0.66784517  1
  Te2-  Te167  1  -0.00200725  -0.00376925  0.15842292  1
  Te2-  Te168  1  -0.01050529  0.00077483  0.51736993  1
  Te2-  Te169  1  0.00420136  -0.00017381  0.82193284  1
  Te2-  Te170  1  -0.00049826  0.33939618  0.15799879  1
  Te2-  Te171  1  0.00389433  0.33090209  0.50213610  1
  Te2-  Te172  1  0.00197494  0.33171334  0.83401769  1
  Te2-  Te173  1  -0.00071713  0.66936434  0.16631852  1
  Te2-  Te174  1  0.00182704  0.66868399  0.51297315  1
  Te2-  Te175  1  0.00594723  0.67141073  0.80802807  1
  Te2-  Te176  1  0.33740855  0.00865718  0.16408748  1
  Te2-  Te177  1  0.34464441  -0.00411095  0.50662768  1
  Te2-  Te178  1  0.33119546  -0.00476356  0.82008761  1
  Te2-  Te179  1  0.33004852  0.32534547  0.16621439  1
  Te2-  Te180  1  0.33106442  0.34081703  0.49948490  1
  Te2-  Te181  1  0.32866694  0.34199263  0.82876490  1
  Te2-  Te182  1  0.33119488  0.66864085  0.17091649  1
  Te2-  Te183  1  0.33260940  0.66417737  0.49369594  1
  Te2-  Te184  1  0.33171374  0.66720203  0.83500927  1
  Te2-  Te185  1  0.66749264  0.01124274  0.15326288  1
  Te2-  Te186  1  0.66228874  -0.00001828  0.50720084  1
  Te2-  Te187  1  0.66686040  0.00305270  0.83530205  1
  Te2-  Te188  1  0.66934900  0.31893925  0.16162842  1
  Te2-  Te189  1  0.66099243  0.34343110  0.50077195  1
  Te2-  Te190  1  0.66578810  0.34030661  0.83927585  1
  Te2-  Te191  1  0.67539128  0.67102553  0.16365042  1
  Te2-  Te192  1  0.66850596  0.65583673  0.50017753  1
  Te2-  Te193  1  0.66191446  0.65669064  0.83590839  1
  Pb2+  Pb194  1  -0.00602810  0.83380599  0.50102107  1
  Pb2+  Pb195  1  0.83081582  0.49802594  -0.00075200  1
  Pb2+  Pb196  1  0.16599105  0.49720775  -0.00552360  1
  Pb2+  Pb197  1  0.66915786  0.67392774  0.33363558  1
  Pb2+  Pb198  1  0.34269513  -0.00110963  0.33981508  1
  Pb2+  Pb199  1  0.66538578  0.82991193  0.83397382  1
  Pb2+  Pb200  1  -0.00441854  0.50114808  0.50491459  1
  Pb2+  Pb201  1  0.33195051  0.83917098  0.16277299  1
  Pb2+  Pb202  1  0.50700210  0.66523769  0.16667677  1
  Pb2+  Pb203  1  0.83351202  0.83718250  0.33516088  1
  Pb2+  Pb204  1  0.49749055  0.83215337  -0.00912073  1
  Pb2+  Pb205  1  0.50141519  0.16580448  0.33240281  1
  Pb2+  Pb206  1  0.33954244  0.49401079  0.17302572  1
  Pb2+  Pb207  1  0.34043119  0.16860095  0.50101267  1
  Pb2+  Pb208  1  0.49679111  0.32625022  0.83689199  1
  Pb2+  Pb209  1  0.00162451  0.32407599  0.32840266  1
  Pb2+  Pb210  1  0.00425874  0.67480507  0.33762728  1
  Pb2+  Pb211  1  -0.00980383  0.16457127  0.50007579  1
  Pb2+  Pb212  1  0.82595724  0.49289002  0.66734044  1
  Pb2+  Pb213  1  0.66013427  0.66500628  0.66612883  1
  Pb2+  Pb214  1  0.66489729  0.32933070  0.33399721  1
  Pb2+  Pb215  1  0.16487065  0.00315733  0.16631982  1
