# generated using pymatgen
data_In22Ag21Sn22Bi21(Te54Pb11)2
_symmetry_space_group_name_H-M   'P 1'
_cell_length_a   19.16176971
_cell_length_b   19.15342759
_cell_length_c   19.15745287
_cell_angle_alpha   89.98378230
_cell_angle_beta   90.00516698
_cell_angle_gamma   90.01654104
_symmetry_Int_Tables_number   1
_chemical_formula_structural   In22Ag21Sn22Bi21(Te54Pb11)2
_chemical_formula_sum   'In22 Ag21 Sn22 Bi21 Te108 Pb22'
_cell_volume   7031.04454119
_cell_formula_units_Z   1
loop_
 _symmetry_equiv_pos_site_id
 _symmetry_equiv_pos_as_xyz
  1  'x, y, z'
loop_
 _atom_type_symbol
 _atom_type_oxidation_number
  In3+  3.0
  Ag+  1.0
  Sn2+  2.0
  Bi3+  3.0
  Te2-  -2.0
  Pb2+  2.0
loop_
 _atom_site_type_symbol
 _atom_site_label
 _atom_site_symmetry_multiplicity
 _atom_site_fract_x
 _atom_site_fract_y
 _atom_site_fract_z
 _atom_site_occupancy
  In3+  In0  1  0.66298716  0.68790789  0.33540868  1
  In3+  In1  1  0.81965238  -0.00418095  0.15696766  1
  In3+  In2  1  0.01410061  0.82936530  0.17106160  1
  In3+  In3  1  0.50751733  0.83784847  -0.00269869  1
  In3+  In4  1  0.32827677  0.49850939  0.17665565  1
  In3+  In5  1  0.82395686  0.84137921  0.33538896  1
  In3+  In6  1  0.84393127  0.16289441  0.33007390  1
  In3+  In7  1  0.47767322  0.83314630  0.33043592  1
  In3+  In8  1  0.17121528  0.85767250  0.33843703  1
  In3+  In9  1  0.85015227  0.34453683  0.15961361  1
  In3+  In10  1  -0.03350461  0.66729176  0.68402838  1
  In3+  In11  1  0.16182750  0.31469952  0.48484961  1
  In3+  In12  1  0.81721619  0.52112699  0.33115489  1
  In3+  In13  1  0.81405720  -0.00065230  0.49973822  1
  In3+  In14  1  0.33541548  0.00577614  -0.00532656  1
  In3+  In15  1  0.66246618  0.34280419  0.66471053  1
  In3+  In16  1  0.33112758  0.33855428  0.66528735  1
  In3+  In17  1  0.66827249  0.14625504  0.49598073  1
  In3+  In18  1  0.17181385  0.82189032  -0.00891377  1
  In3+  In19  1  0.00953073  -0.01968332  0.65791835  1
  In3+  In20  1  0.49157514  -0.01257202  0.17217012  1
  In3+  In21  1  0.15706203  0.00055310  0.16963546  1
  Ag+  Ag22  1  0.66544360  0.69464611  0.69051517  1
  Ag+  Ag23  1  0.82553874  0.52804613  -0.02166998  1
  Ag+  Ag24  1  0.31474186  0.85639994  0.16194815  1
  Ag+  Ag25  1  -0.00860976  0.35094179  0.31178219  1
  Ag+  Ag26  1  0.32948889  0.47379344  0.47778299  1
  Ag+  Ag27  1  0.80704573  0.69812714  0.16509416  1
  Ag+  Ag28  1  0.69278746  0.50256128  0.52775289  1
  Ag+  Ag29  1  0.66895925  0.00116748  0.31815158  1
  Ag+  Ag30  1  0.35211615  0.83688858  0.52052202  1
  Ag+  Ag31  1  0.80734807  0.16514442  0.02931692  1
  Ag+  Ag32  1  0.69176648  0.00055690  0.01770035  1
  Ag+  Ag33  1  0.52560710  0.50290173  0.63327707  1
  Ag+  Ag34  1  0.64638187  0.83414302  0.86138647  1
  Ag+  Ag35  1  0.80766849  0.84930130  0.69285849  1
  Ag+  Ag36  1  0.14233652  0.17170906  0.30480375  1
  Ag+  Ag37  1  0.18217950  0.01559548  0.51824139  1
  Ag+  Ag38  1  0.31810025  0.14499647  0.85322838  1
  Ag+  Ag39  1  0.13864432  -0.00640021  0.86401984  1
  Ag+  Ag40  1  0.17979952  0.35693230  0.19165574  1
  Ag+  Ag41  1  0.31018184  0.69798332  0.35242884  1
  Ag+  Ag42  1  -0.02279797  0.69373204  0.01145992  1
  Sn2+  Sn43  1  0.66719101  0.81510023  0.49953886  1
  Sn2+  Sn44  1  0.50248893  0.33517843  0.83225355  1
  Sn2+  Sn45  1  -0.00574700  0.33863279  0.00430442  1
  Sn2+  Sn46  1  0.50551672  0.16045209  -0.00386737  1
  Sn2+  Sn47  1  0.33731935  0.15668354  0.50053655  1
  Sn2+  Sn48  1  0.33339702  0.17037433  0.16700234  1
  Sn2+  Sn49  1  0.83458443  0.33306337  0.49025055  1
  Sn2+  Sn50  1  0.49431964  0.66395702  0.16722555  1
  Sn2+  Sn51  1  0.48597234  0.00435438  0.49359293  1
  Sn2+  Sn52  1  0.17272854  0.31775329  0.83272643  1
  Sn2+  Sn53  1  0.66183483  0.51102762  0.83225503  1
  Sn2+  Sn54  1  0.33646702  0.00176647  0.33216762  1
  Sn2+  Sn55  1  0.15131048  0.49690436  0.00199602  1
  Sn2+  Sn56  1  0.00463424  0.16782135  0.83510652  1
  Sn2+  Sn57  1  -0.00197283  0.50903884  0.16366645  1
  Sn2+  Sn58  1  0.66633336  0.83169491  0.16468016  1
  Sn2+  Sn59  1  0.32589779  0.33620075  -0.00317601  1
  Sn2+  Sn60  1  0.01597731  0.49846637  0.49297787  1
  Sn2+  Sn61  1  -0.00770938  -0.00253547  0.34008240  1
  Sn2+  Sn62  1  0.34230547  0.65867743  0.65250590  1
  Sn2+  Sn63  1  0.17212739  0.83455874  0.65939585  1
  Sn2+  Sn64  1  0.49536696  0.32674514  0.16520281  1
  Bi3+  Bi65  1  0.83299756  0.66883761  0.49529510  1
  Bi3+  Bi66  1  0.17062712  0.66489176  0.16700788  1
  Bi3+  Bi67  1  0.00083694  0.33882901  0.66615472  1
  Bi3+  Bi68  1  0.16829652  0.66771714  0.49986230  1
  Bi3+  Bi69  1  0.17075790  0.16671847  -0.00263228  1
  Bi3+  Bi70  1  0.66601111  0.00020562  0.66743102  1
  Bi3+  Bi71  1  0.50270217  0.50025493  0.33312720  1
  Bi3+  Bi72  1  0.16951747  0.50341813  0.66903184  1
  Bi3+  Bi73  1  0.66699012  0.15996054  0.82774176  1
  Bi3+  Bi74  1  -0.00204285  0.49952428  0.83645361  1
  Bi3+  Bi75  1  0.00395033  0.83244703  0.83065945  1
  Bi3+  Bi76  1  0.66761439  0.49325758  0.16578637  1
  Bi3+  Bi77  1  0.50391971  0.00130329  0.83214393  1
  Bi3+  Bi78  1  0.33390494  0.49692412  0.83703117  1
  Bi3+  Bi79  1  0.49983449  0.16156848  0.33161017  1
  Bi3+  Bi80  1  0.50255984  0.33905393  0.50015421  1
  Bi3+  Bi81  1  0.00373779  0.82922303  0.49567450  1
  Bi3+  Bi82  1  0.50172200  0.66541053  0.82721688  1
  Bi3+  Bi83  1  0.33427042  0.66665648  0.00059708  1
  Bi3+  Bi84  1  0.16827618  0.17027805  0.66838201  1
  Bi3+  Bi85  1  0.50104975  0.66667732  0.49697917  1
  Te2-  Te86  1  0.17230187  0.15693802  0.16073088  1
  Te2-  Te87  1  0.17072492  0.16199826  0.50337411  1
  Te2-  Te88  1  0.17238897  0.15176325  0.83232209  1
  Te2-  Te89  1  0.16442066  0.49968374  0.16400764  1
  Te2-  Te90  1  0.18258096  0.50579282  0.50665828  1
  Te2-  Te91  1  0.16451122  0.49751449  0.83434926  1
  Te2-  Te92  1  0.16822155  0.82949868  0.16801296  1
  Te2-  Te93  1  0.16498629  0.82876684  0.49094314  1
  Te2-  Te94  1  0.16614069  0.84553039  0.83494396  1
  Te2-  Te95  1  0.49817545  0.16345973  0.16802407  1
  Te2-  Te96  1  0.50643249  0.17256212  0.49713826  1
  Te2-  Te97  1  0.50520438  0.16621543  0.83251751  1
  Te2-  Te98  1  0.50160346  0.49400476  0.17062360  1
  Te2-  Te99  1  0.48131015  0.50212078  0.49307406  1
  Te2-  Te100  1  0.50102098  0.50281367  0.83721000  1
  Te2-  Te101  1  0.50464490  0.83214999  0.17401886  1
  Te2-  Te102  1  0.49515430  0.83114620  0.48542991  1
  Te2-  Te103  1  0.50176497  0.83158308  0.83259075  1
  Te2-  Te104  1  0.83535120  0.15092270  0.17399014  1
  Te2-  Te105  1  0.82747138  0.16307690  0.49556220  1
  Te2-  Te106  1  0.83130017  0.16531736  0.83067644  1
  Te2-  Te107  1  0.83240408  0.49338967  0.17815687  1
  Te2-  Te108  1  0.83897772  0.50421385  0.48657584  1
  Te2-  Te109  1  0.83325336  0.49962529  0.83432384  1
  Te2-  Te110  1  0.83916024  0.84192464  0.17779048  1
  Te2-  Te111  1  0.83997776  0.83005745  0.48992878  1
  Te2-  Te112  1  0.84381340  0.83122178  0.83382419  1
  Te2-  Te113  1  0.18035188  0.00015097  0.00559407  1
  Te2-  Te114  1  0.16756727  0.00833330  0.32260060  1
  Te2-  Te115  1  0.16282572  0.00439895  0.66356755  1
  Te2-  Te116  1  0.16590604  0.32813787  -0.00604535  1
  Te2-  Te117  1  0.15526500  0.31871878  0.33127745  1
  Te2-  Te118  1  0.16666471  0.33712095  0.66679282  1
  Te2-  Te119  1  0.17116457  0.66503471  0.00114565  1
  Te2-  Te120  1  0.17131161  0.65745587  0.33132291  1
  Te2-  Te121  1  0.17314619  0.66673663  0.66209230  1
  Te2-  Te122  1  0.49336347  -0.00780689  -0.00188548  1
  Te2-  Te123  1  0.51131511  -0.00124426  0.32952032  1
  Te2-  Te124  1  0.49956754  0.00148466  0.66307383  1
  Te2-  Te125  1  0.49749463  0.33024129  0.00370786  1
  Te2-  Te126  1  0.50196038  0.32831124  0.33554203  1
  Te2-  Te127  1  0.50458155  0.34937056  0.66155017  1
  Te2-  Te128  1  0.49916541  0.67534108  -0.00210209  1
  Te2-  Te129  1  0.50523469  0.66657501  0.33443837  1
  Te2-  Te130  1  0.51321858  0.65781942  0.66164644  1
  Te2-  Te131  1  0.83881094  0.00942899  0.00644182  1
  Te2-  Te132  1  0.82322064  0.00144511  0.34387979  1
  Te2-  Te133  1  0.83486204  -0.00983106  0.65289451  1
  Te2-  Te134  1  0.83314597  0.31299554  0.01127812  1
  Te2-  Te135  1  0.84670294  0.31717344  0.33213458  1
  Te2-  Te136  1  0.83809475  0.33458589  0.65978800  1
  Te2-  Te137  1  0.83269982  0.67026882  0.01775650  1
  Te2-  Te138  1  0.83186221  0.67399317  0.32329245  1
  Te2-  Te139  1  0.81468664  0.67270802  0.65804055  1
  Te2-  Te140  1  0.00839087  0.16770406  -0.00608340  1
  Te2-  Te141  1  -0.00120049  0.15597416  0.33440336  1
  Te2-  Te142  1  0.00590266  0.17362701  0.66919408  1
  Te2-  Te143  1  -0.01368418  0.49672110  -0.00265231  1
  Te2-  Te144  1  -0.00182901  0.49508850  0.33393144  1
  Te2-  Te145  1  0.00445341  0.50502074  0.66902552  1
  Te2-  Te146  1  0.01243366  0.83572034  -0.00207851  1
  Te2-  Te147  1  0.01333885  0.83316484  0.33093543  1
  Te2-  Te148  1  0.00465375  0.82502230  0.66445102  1
  Te2-  Te149  1  0.33488880  0.16531472  -0.00219518  1
  Te2-  Te150  1  0.33887053  0.16131907  0.33747158  1
  Te2-  Te151  1  0.33052189  0.17688712  0.66512048  1
  Te2-  Te152  1  0.33064820  0.50217891  -0.00182858  1
  Te2-  Te153  1  0.33902547  0.49657337  0.33050280  1
  Te2-  Te154  1  0.33121620  0.49805963  0.67609871  1
  Te2-  Te155  1  0.32893353  0.82841960  0.01271652  1
  Te2-  Te156  1  0.32914605  0.83645260  0.31300267  1
  Te2-  Te157  1  0.33081500  0.83200761  0.66709179  1
  Te2-  Te158  1  0.66449048  0.15131148  -0.00822182  1
  Te2-  Te159  1  0.66291047  0.15324212  0.34053720  1
  Te2-  Te160  1  0.66746054  0.16488362  0.66088917  1
  Te2-  Te161  1  0.67688108  0.49693683  0.00103229  1
  Te2-  Te162  1  0.66676767  0.49123820  0.32841199  1
  Te2-  Te163  1  0.66659698  0.49630663  0.67481380  1
  Te2-  Te164  1  0.66550183  0.84682557  0.00599413  1
  Te2-  Te165  1  0.67142030  0.84283978  0.33453631  1
  Te2-  Te166  1  0.66714258  0.83736526  0.65579457  1
  Te2-  Te167  1  0.00787208  -0.00897351  0.16938649  1
  Te2-  Te168  1  0.01041670  -0.00807061  0.50363324  1
  Te2-  Te169  1  -0.00053570  -0.00240579  0.82107248  1
  Te2-  Te170  1  0.00139588  0.33327122  0.16578629  1
  Te2-  Te171  1  0.00605718  0.33448838  0.50430083  1
  Te2-  Te172  1  0.00261186  0.33638271  0.83051097  1
  Te2-  Te173  1  0.00885347  0.67310903  0.15701301  1
  Te2-  Te174  1  -0.00110019  0.66585614  0.49769844  1
  Te2-  Te175  1  0.00113021  0.66503920  0.84361973  1
  Te2-  Te176  1  0.34314990  0.00165401  0.16133593  1
  Te2-  Te177  1  0.32740994  -0.01246550  0.49625460  1
  Te2-  Te178  1  0.34310415  0.00177790  0.83757507  1
  Te2-  Te179  1  0.32480492  0.33961171  0.16508710  1
  Te2-  Te180  1  0.33427031  0.32835687  0.50634721  1
  Te2-  Te181  1  0.33911681  0.33589764  0.82796520  1
  Te2-  Te182  1  0.33476849  0.65478186  0.16298872  1
  Te2-  Te183  1  0.33641989  0.68254352  0.49637883  1
  Te2-  Te184  1  0.33842661  0.66390390  0.83192949  1
  Te2-  Te185  1  0.66867325  -0.00337166  0.16675080  1
  Te2-  Te186  1  0.66048538  -0.00876886  0.50455288  1
  Te2-  Te187  1  0.66464603  -0.00934334  0.82832890  1
  Te2-  Te188  1  0.66531596  0.33031445  0.16927766  1
  Te2-  Te189  1  0.66612885  0.35221983  0.50801490  1
  Te2-  Te190  1  0.66488432  0.32576682  0.82532742  1
  Te2-  Te191  1  0.66496737  0.65948433  0.17833160  1
  Te2-  Te192  1  0.66900248  0.64948842  0.48732862  1
  Te2-  Te193  1  0.66329418  0.68056782  0.83797896  1
  Pb2+  Pb194  1  0.49860945  0.17641284  0.66601056  1
  Pb2+  Pb195  1  0.83164137  -0.00128967  0.83080790  1
  Pb2+  Pb196  1  0.32882214  0.32781927  0.33535908  1
  Pb2+  Pb197  1  0.66785094  0.66830200  0.00938831  1
  Pb2+  Pb198  1  0.66656930  0.32691444  -0.00102454  1
  Pb2+  Pb199  1  0.16783848  0.66889675  0.82928745  1
  Pb2+  Pb200  1  0.50041235  0.82778587  0.65976805  1
  Pb2+  Pb201  1  0.83383299  0.50339974  0.65890948  1
  Pb2+  Pb202  1  0.50084135  0.50162546  0.00390054  1
  Pb2+  Pb203  1  0.00301777  0.16557071  0.16281399  1
  Pb2+  Pb204  1  -0.00062919  0.16212888  0.50174293  1
  Pb2+  Pb205  1  0.83588238  0.16286611  0.66536678  1
  Pb2+  Pb206  1  0.83033047  0.66642688  0.84093257  1
  Pb2+  Pb207  1  0.33001353  0.00372702  0.66618276  1
  Pb2+  Pb208  1  0.83541864  0.33093656  0.83727246  1
  Pb2+  Pb209  1  0.16653298  0.49101093  0.33899357  1
  Pb2+  Pb210  1  0.00251974  0.66217478  0.32740267  1
  Pb2+  Pb211  1  0.00720735  0.00196547  -0.00258464  1
  Pb2+  Pb212  1  0.66582395  0.16464684  0.16746051  1
  Pb2+  Pb213  1  0.67804879  0.32500734  0.34042067  1
  Pb2+  Pb214  1  0.83719329  0.83661185  0.00320428  1
  Pb2+  Pb215  1  0.33453823  0.83413420  0.84360390  1
