# generated using pymatgen
data_In22Ag21Sn22Bi21(Te54Pb11)2
_symmetry_space_group_name_H-M   'P 1'
_cell_length_a   19.15795921
_cell_length_b   19.13885145
_cell_length_c   19.14873315
_cell_angle_alpha   90.00602404
_cell_angle_beta   90.01520117
_cell_angle_gamma   90.00504951
_symmetry_Int_Tables_number   1
_chemical_formula_structural   In22Ag21Sn22Bi21(Te54Pb11)2
_chemical_formula_sum   'In22 Ag21 Sn22 Bi21 Te108 Pb22'
_cell_volume   7021.09975441
_cell_formula_units_Z   1
loop_
 _symmetry_equiv_pos_site_id
 _symmetry_equiv_pos_as_xyz
  1  'x, y, z'
loop_
 _atom_type_symbol
 _atom_type_oxidation_number
  In3+  3.0
  Ag+  1.0
  Sn2+  2.0
  Bi3+  3.0
  Te2-  -2.0
  Pb2+  2.0
loop_
 _atom_site_type_symbol
 _atom_site_label
 _atom_site_symmetry_multiplicity
 _atom_site_fract_x
 _atom_site_fract_y
 _atom_site_fract_z
 _atom_site_occupancy
  In3+  In0  1  0.81600533  0.67226943  0.18538907  1
  In3+  In1  1  0.84849021  -0.00551495  0.50407496  1
  In3+  In2  1  0.17610895  0.32506923  0.49921231  1
  In3+  In3  1  0.33980534  0.67350770  0.34378086  1
  In3+  In4  1  0.17247210  0.49939814  0.65668774  1
  In3+  In5  1  0.52181681  0.83176672  0.33122399  1
  In3+  In6  1  0.50057793  0.36319345  0.83139143  1
  In3+  In7  1  0.50311296  0.65876811  0.15996573  1
  In3+  In8  1  0.34143102  0.83442404  0.84033813  1
  In3+  In9  1  0.67107899  0.67158802  0.68087446  1
  In3+  In10  1  0.01036253  -0.00205595  0.67624451  1
  In3+  In11  1  0.66529220  -0.01895929  0.32950766  1
  In3+  In12  1  0.66077100  0.16719955  0.49557624  1
  In3+  In13  1  0.32091458  0.00097766  0.33371789  1
  In3+  In14  1  0.66602604  0.65669213  0.33159933  1
  In3+  In15  1  0.50003216  0.00294403  0.15906976  1
  In3+  In16  1  0.33619172  0.64483298  0.00207502  1
  In3+  In17  1  0.84822825  0.16938478  0.01286478  1
  In3+  In18  1  0.81652637  0.16106560  0.67345170  1
  In3+  In19  1  -0.00221542  0.31606140  0.65391115  1
  In3+  In20  1  0.81617923  0.49903084  0.02641096  1
  In3+  In21  1  0.66278845  0.49886223  0.81630321  1
  Ag+  Ag22  1  0.34972259  0.52575385  0.19133398  1
  Ag+  Ag23  1  0.48221094  0.66867034  0.85650267  1
  Ag+  Ag24  1  0.14188612  0.13527202  0.02867828  1
  Ag+  Ag25  1  0.35772484  0.30239099  0.66475380  1
  Ag+  Ag26  1  0.35715233  -0.02349155  0.69330257  1
  Ag+  Ag27  1  0.02036564  -0.01968667  0.33244685  1
  Ag+  Ag28  1  0.69524638  0.30857032  0.66903094  1
  Ag+  Ag29  1  0.85987141  0.86598196  0.64392871  1
  Ag+  Ag30  1  0.46988661  0.19727697  0.67520265  1
  Ag+  Ag31  1  0.83107307  0.85631807  0.31336624  1
  Ag+  Ag32  1  0.16202863  0.69570630  0.47738414  1
  Ag+  Ag33  1  0.80918922  0.48416590  0.34769494  1
  Ag+  Ag34  1  -0.00051484  0.02865505  -0.02345168  1
  Ag+  Ag35  1  0.64146691  0.48128792  0.16533624  1
  Ag+  Ag36  1  0.19373121  0.17388208  0.31823912  1
  Ag+  Ag37  1  0.50457963  0.36235235  0.19596978  1
  Ag+  Ag38  1  0.65399042  0.82093108  0.15727195  1
  Ag+  Ag39  1  0.51920547  0.47497629  0.30423608  1
  Ag+  Ag40  1  0.36122206  -0.00986521  0.03138093  1
  Ag+  Ag41  1  0.51747020  0.48098217  0.01771266  1
  Ag+  Ag42  1  0.33377155  0.84766226  0.46972928  1
  Sn2+  Sn43  1  0.16752189  0.82596073  0.66435943  1
  Sn2+  Sn44  1  0.68078285  -0.00258439  0.00518920  1
  Sn2+  Sn45  1  0.66831858  0.83125564  0.83952440  1
  Sn2+  Sn46  1  0.33688304  0.67316309  0.66340349  1
  Sn2+  Sn47  1  0.83558072  0.50195225  0.66243655  1
  Sn2+  Sn48  1  0.65780468  0.17071990  0.83006950  1
  Sn2+  Sn49  1  -0.00996622  0.49826730  0.83013168  1
  Sn2+  Sn50  1  0.17334880  0.00073575  0.83854267  1
  Sn2+  Sn51  1  -0.00382999  0.16515557  0.49112246  1
  Sn2+  Sn52  1  0.17470919  0.66685914  0.82434799  1
  Sn2+  Sn53  1  0.16222152  -0.00102132  0.15991955  1
  Sn2+  Sn54  1  0.83142309  0.16284555  0.33824950  1
  Sn2+  Sn55  1  0.66030749  0.00027793  0.66374715  1
  Sn2+  Sn56  1  0.00311990  0.15856097  0.17377231  1
  Sn2+  Sn57  1  0.49755610  -0.00532799  0.83268048  1
  Sn2+  Sn58  1  0.33921776  0.82962976  0.16405300  1
  Sn2+  Sn59  1  0.81199676  0.34308617  0.16969739  1
  Sn2+  Sn60  1  0.66556609  0.34257800  0.34036484  1
  Sn2+  Sn61  1  0.16874333  0.49543481  0.33176223  1
  Sn2+  Sn62  1  0.82294161  -0.00530939  0.83525972  1
  Sn2+  Sn63  1  0.00167620  0.49849447  0.16667130  1
  Sn2+  Sn64  1  -0.00719718  0.83583001  0.17401685  1
  Bi3+  Bi65  1  0.49394109  0.66930816  0.49649352  1
  Bi3+  Bi66  1  0.49511328  0.50849321  0.66087970  1
  Bi3+  Bi67  1  0.16481787  0.00147730  0.49896892  1
  Bi3+  Bi68  1  0.49904274  -0.00135336  0.49815774  1
  Bi3+  Bi69  1  -0.00126287  0.66458239  0.66773003  1
  Bi3+  Bi70  1  0.33613180  0.16938961  0.16091170  1
  Bi3+  Bi71  1  0.16801890  0.83402157  -0.00163866  1
  Bi3+  Bi72  1  0.00046214  0.66737583  0.33058574  1
  Bi3+  Bi73  1  0.33503185  0.32513706  -0.00320658  1
  Bi3+  Bi74  1  0.00376385  0.66481911  0.00304112  1
  Bi3+  Bi75  1  0.00099048  0.33564994  0.32975165  1
  Bi3+  Bi76  1  0.49808127  0.16739434  -0.01202891  1
  Bi3+  Bi77  1  0.16411818  0.16630725  0.66614457  1
  Bi3+  Bi78  1  0.50005920  0.33423166  0.50870543  1
  Bi3+  Bi79  1  0.83387533  -0.00014441  0.16803702  1
  Bi3+  Bi80  1  0.33321030  0.16423261  0.83276649  1
  Bi3+  Bi81  1  0.16745848  0.49952130  -0.00034971  1
  Bi3+  Bi82  1  0.33199666  0.50223061  0.49870883  1
  Bi3+  Bi83  1  0.83550969  0.66406465  0.83356924  1
  Bi3+  Bi84  1  0.50130612  0.83353921  0.66801812  1
  Bi3+  Bi85  1  0.00206675  0.34051072  0.00139768  1
  Te2-  Te86  1  0.17165320  0.16391411  0.16881860  1
  Te2-  Te87  1  0.16388986  0.16606701  0.50274764  1
  Te2-  Te88  1  0.16819710  0.16489288  0.82833595  1
  Te2-  Te89  1  0.17130492  0.49919477  0.16291469  1
  Te2-  Te90  1  0.17032598  0.48859063  0.50125918  1
  Te2-  Te91  1  0.16507542  0.50328685  0.83441768  1
  Te2-  Te92  1  0.16811535  0.83740359  0.16343105  1
  Te2-  Te93  1  0.18055679  0.83946867  0.50161470  1
  Te2-  Te94  1  0.17086944  0.83492610  0.83228695  1
  Te2-  Te95  1  0.49860512  0.15798929  0.15873206  1
  Te2-  Te96  1  0.50264440  0.16818879  0.51353899  1
  Te2-  Te97  1  0.49615589  0.16065309  0.82220518  1
  Te2-  Te98  1  0.49319612  0.50757847  0.16221520  1
  Te2-  Te99  1  0.49445346  0.50476137  0.49529107  1
  Te2-  Te100  1  0.50602786  0.51953303  0.82703343  1
  Te2-  Te101  1  0.50763357  0.84725332  0.17602273  1
  Te2-  Te102  1  0.48547103  0.83251479  0.49758519  1
  Te2-  Te103  1  0.49969536  0.82165988  0.83314289  1
  Te2-  Te104  1  0.83337742  0.16705836  0.16475062  1
  Te2-  Te105  1  0.82766977  0.15574453  0.50643267  1
  Te2-  Te106  1  0.82790885  0.16362424  0.82791325  1
  Te2-  Te107  1  0.83384727  0.50766249  0.17406402  1
  Te2-  Te108  1  0.82926032  0.50000982  0.49382422  1
  Te2-  Te109  1  0.82214556  0.50166007  0.82884910  1
  Te2-  Te110  1  0.82507661  0.82919223  0.16805171  1
  Te2-  Te111  1  0.82798769  0.84225451  0.50408866  1
  Te2-  Te112  1  0.82969720  0.82771481  0.83420381  1
  Te2-  Te113  1  0.14682213  -0.00632989  -0.00120193  1
  Te2-  Te114  1  0.16745205  0.01189879  0.33450117  1
  Te2-  Te115  1  0.16099153  -0.00030604  0.66200589  1
  Te2-  Te116  1  0.16924504  0.33444530  -0.00302491  1
  Te2-  Te117  1  0.16382424  0.32157065  0.33925839  1
  Te2-  Te118  1  0.15437983  0.33296561  0.66034987  1
  Te2-  Te119  1  0.17188489  0.66769186  -0.00331130  1
  Te2-  Te120  1  0.16303496  0.66658942  0.33340883  1
  Te2-  Te121  1  0.16223942  0.65886614  0.66523926  1
  Te2-  Te122  1  0.50583280  0.00353209  0.00067995  1
  Te2-  Te123  1  0.50874283  -0.00480206  0.33683126  1
  Te2-  Te124  1  0.49971046  -0.00530639  0.66253267  1
  Te2-  Te125  1  0.49694776  0.33653212  -0.01257217  1
  Te2-  Te126  1  0.50073081  0.33573344  0.34469565  1
  Te2-  Te127  1  0.50199946  0.34540604  0.67102191  1
  Te2-  Te128  1  0.49335389  0.66162467  0.00407754  1
  Te2-  Te129  1  0.49559212  0.67799997  0.33191548  1
  Te2-  Te130  1  0.50723672  0.67072032  0.65905835  1
  Te2-  Te131  1  0.84857613  0.00921866  0.00496800  1
  Te2-  Te132  1  0.81986202  0.00316620  0.33308019  1
  Te2-  Te133  1  0.83003881  0.00576802  0.66422612  1
  Te2-  Te134  1  0.83569766  0.33592422  0.00426171  1
  Te2-  Te135  1  0.83472258  0.33853656  0.32773114  1
  Te2-  Te136  1  0.84188601  0.33132036  0.66557119  1
  Te2-  Te137  1  0.83942084  0.65713806  -0.00130454  1
  Te2-  Te138  1  0.83914669  0.66086022  0.33308665  1
  Te2-  Te139  1  0.83328621  0.66589314  0.66777633  1
  Te2-  Te140  1  0.00315014  0.17659347  0.00180065  1
  Te2-  Te141  1  -0.00793734  0.17547330  0.33239893  1
  Te2-  Te142  1  -0.00085229  0.15904875  0.66057251  1
  Te2-  Te143  1  0.00164566  0.50233341  -0.00128478  1
  Te2-  Te144  1  0.00702830  0.50029044  0.33030175  1
  Te2-  Te145  1  -0.00075496  0.50305867  0.66890436  1
  Te2-  Te146  1  0.00287988  0.82628935  0.00778466  1
  Te2-  Te147  1  -0.01421687  0.83294101  0.33252875  1
  Te2-  Te148  1  -0.00026941  0.83097887  0.66778534  1
  Te2-  Te149  1  0.33629825  0.16216891  -0.00346778  1
  Te2-  Te150  1  0.33919258  0.16692356  0.32942796  1
  Te2-  Te151  1  0.32654564  0.15611502  0.67023512  1
  Te2-  Te152  1  0.32974753  0.49186268  -0.00074172  1
  Te2-  Te153  1  0.32903769  0.50847663  0.33477572  1
  Te2-  Te154  1  0.32908008  0.50523963  0.66514507  1
  Te2-  Te155  1  0.32953406  0.84873222  -0.00198363  1
  Te2-  Te156  1  0.32962665  0.82723520  0.32386708  1
  Te2-  Te157  1  0.33589146  0.83141543  0.67778870  1
  Te2-  Te158  1  0.66036530  0.16456139  -0.00634717  1
  Te2-  Te159  1  0.66826560  0.17905675  0.33970415  1
  Te2-  Te160  1  0.66610281  0.16436405  0.66896275  1
  Te2-  Te161  1  0.66346147  0.49845842  0.01354966  1
  Te2-  Te162  1  0.66479239  0.50356104  0.31965788  1
  Te2-  Te163  1  0.66224278  0.51265814  0.66255871  1
  Te2-  Te164  1  0.66476158  0.83554686  0.00878097  1
  Te2-  Te165  1  0.67733327  0.82830107  0.33062562  1
  Te2-  Te166  1  0.66305613  0.82796777  0.67071031  1
  Te2-  Te167  1  -0.00609953  -0.00158579  0.18439980  1
  Te2-  Te168  1  0.00014421  -0.00064421  0.48132992  1
  Te2-  Te169  1  -0.00471008  -0.00027733  0.82967364  1
  Te2-  Te170  1  -0.00113314  0.33341984  0.16481197  1
  Te2-  Te171  1  -0.00064152  0.33243019  0.49760023  1
  Te2-  Te172  1  -0.00167808  0.33678271  0.83621845  1
  Te2-  Te173  1  -0.00124717  0.66662207  0.16577984  1
  Te2-  Te174  1  0.01301181  0.66771592  0.50112012  1
  Te2-  Te175  1  -0.00016701  0.66511157  0.83386802  1
  Te2-  Te176  1  0.33635289  0.00296410  0.17508791  1
  Te2-  Te177  1  0.33357770  -0.00492826  0.48886505  1
  Te2-  Te178  1  0.33346010  -0.00244249  0.83548630  1
  Te2-  Te179  1  0.34815427  0.33030091  0.16293102  1
  Te2-  Te180  1  0.33491701  0.33443000  0.51386239  1
  Te2-  Te181  1  0.34215000  0.32954288  0.82195940  1
  Te2-  Te182  1  0.34189071  0.66886934  0.15760270  1
  Te2-  Te183  1  0.32546758  0.66482822  0.49726438  1
  Te2-  Te184  1  0.33437173  0.67454172  0.83866731  1
  Te2-  Te185  1  0.67089396  -0.00111527  0.17176445  1
  Te2-  Te186  1  0.65906555  0.00777537  0.49539486  1
  Te2-  Te187  1  0.66698928  -0.00537440  0.83580440  1
  Te2-  Te188  1  0.65370699  0.33460446  0.17011945  1
  Te2-  Te189  1  0.66289477  0.32527860  0.51590470  1
  Te2-  Te190  1  0.65936161  0.34071946  0.81712139  1
  Te2-  Te191  1  0.65921686  0.67357919  0.17345643  1
  Te2-  Te192  1  0.66033385  0.66894873  0.48521185  1
  Te2-  Te193  1  0.67179134  0.66205303  0.83512865  1
  Pb2+  Pb194  1  0.33387071  0.16207468  0.50305959  1
  Pb2+  Pb195  1  0.49606365  0.82995155  0.00578206  1
  Pb2+  Pb196  1  0.82863037  0.33100799  0.83451992  1
  Pb2+  Pb197  1  0.66629434  0.16676423  0.16618393  1
  Pb2+  Pb198  1  0.33215060  0.34072701  0.33274094  1
  Pb2+  Pb199  1  0.16918204  0.66652435  0.16776375  1
  Pb2+  Pb200  1  0.65969983  0.83715345  0.50220900  1
  Pb2+  Pb201  1  0.66819081  0.66445924  0.00248059  1
  Pb2+  Pb202  1  0.83350930  0.83388701  0.00111340  1
  Pb2+  Pb203  1  0.50430965  0.16518603  0.33514879  1
  Pb2+  Pb204  1  0.83428725  0.67171761  0.49895510  1
  Pb2+  Pb205  1  -0.00100867  0.50162317  0.49993194  1
  Pb2+  Pb206  1  0.17158275  0.33528269  0.82851889  1
  Pb2+  Pb207  1  0.00257641  0.83317426  0.49958571  1
  Pb2+  Pb208  1  0.16012745  0.84011948  0.33180116  1
  Pb2+  Pb209  1  -0.00190025  0.16796566  0.82947439  1
  Pb2+  Pb210  1  0.82994023  0.32484924  0.49547068  1
  Pb2+  Pb211  1  0.17360606  0.33301698  0.16398192  1
  Pb2+  Pb212  1  0.33422908  0.50114466  0.83350259  1
  Pb2+  Pb213  1  0.66317163  0.33272530  -0.00450490  1
  Pb2+  Pb214  1  0.00133369  0.83389853  0.83950993  1
  Pb2+  Pb215  1  0.66283307  0.49783808  0.49397418  1
