# generated using pymatgen
data_In22Ag21Sn22Bi21(Te54Pb11)2
_symmetry_space_group_name_H-M   'P 1'
_cell_length_a   19.14416188
_cell_length_b   19.13640659
_cell_length_c   19.15307127
_cell_angle_alpha   89.98310079
_cell_angle_beta   89.99473649
_cell_angle_gamma   90.00017350
_symmetry_Int_Tables_number   1
_chemical_formula_structural   In22Ag21Sn22Bi21(Te54Pb11)2
_chemical_formula_sum   'In22 Ag21 Sn22 Bi21 Te108 Pb22'
_cell_volume   7016.73624438
_cell_formula_units_Z   1
loop_
 _symmetry_equiv_pos_site_id
 _symmetry_equiv_pos_as_xyz
  1  'x, y, z'
loop_
 _atom_type_symbol
 _atom_type_oxidation_number
  In3+  3.0
  Ag+  1.0
  Sn2+  2.0
  Bi3+  3.0
  Te2-  -2.0
  Pb2+  2.0
loop_
 _atom_site_type_symbol
 _atom_site_label
 _atom_site_symmetry_multiplicity
 _atom_site_fract_x
 _atom_site_fract_y
 _atom_site_fract_z
 _atom_site_occupancy
  In3+  In0  1  0.50011578  0.16703994  0.67799521  1
  In3+  In1  1  0.15747468  0.15781796  0.00972534  1
  In3+  In2  1  0.81641116  0.48993841  0.33619418  1
  In3+  In3  1  0.18659471  0.66964717  0.15968512  1
  In3+  In4  1  0.33120832  0.16400954  0.84748627  1
  In3+  In5  1  0.33483008  0.01257402  0.33929991  1
  In3+  In6  1  0.00312698  0.32469903  0.69464758  1
  In3+  In7  1  0.33384432  0.68911313  0.68190279  1
  In3+  In8  1  0.34466668  0.83685164  0.16356132  1
  In3+  In9  1  0.82833928  0.32352044  0.14694222  1
  In3+  In10  1  0.49636018  -0.00173858  0.51690906  1
  In3+  In11  1  -0.01550088  0.67331232  0.67445484  1
  In3+  In12  1  0.32729195  0.01230115  0.67498627  1
  In3+  In13  1  0.67713325  0.83475615  0.50915113  1
  In3+  In14  1  0.16891272  0.15646864  0.66313693  1
  In3+  In15  1  0.67823210  0.83109887  0.16506810  1
  In3+  In16  1  0.49951717  0.16827796  0.34504818  1
  In3+  In17  1  0.34550204  0.66141486  0.34640640  1
  In3+  In18  1  0.16700001  0.33351030  0.84150395  1
  In3+  In19  1  0.34908180  0.68257212  0.00086511  1
  In3+  In20  1  0.49512601  0.52305119  -0.00380911  1
  In3+  In21  1  0.65694132  0.34248476  0.33592101  1
  Ag+  Ag22  1  0.02092489  0.19468218  0.16681171  1
  Ag+  Ag23  1  0.48569330  0.65690591  0.19051751  1
  Ag+  Ag24  1  0.82583474  0.86510061  -0.02467217  1
  Ag+  Ag25  1  0.34921653  0.16317085  0.51574631  1
  Ag+  Ag26  1  0.33295564  0.00181456  0.02553120  1
  Ag+  Ag27  1  0.02360805  0.31345560  0.00390641  1
  Ag+  Ag28  1  0.47736591  0.64015628  0.80916371  1
  Ag+  Ag29  1  0.68749911  0.64461778  0.67092975  1
  Ag+  Ag30  1  0.50052380  0.52020858  0.33432189  1
  Ag+  Ag31  1  0.68625406  0.00469285  0.67956368  1
  Ag+  Ag32  1  0.19306805  0.00020603  0.50125350  1
  Ag+  Ag33  1  0.80706885  0.80109030  0.33342683  1
  Ag+  Ag34  1  0.80683507  0.30717217  0.80595506  1
  Ag+  Ag35  1  0.79982642  0.69162726  0.80432734  1
  Ag+  Ag36  1  0.19246593  0.81394532  0.68538550  1
  Ag+  Ag37  1  0.31053601  0.31082177  0.33109931  1
  Ag+  Ag38  1  0.80712325  -0.02326990  0.87137846  1
  Ag+  Ag39  1  0.81118717  0.84638037  0.67997346  1
  Ag+  Ag40  1  0.51535708  0.00125273  0.81623913  1
  Ag+  Ag41  1  0.66016856  0.30771144  -0.02619492  1
  Ag+  Ag42  1  0.69406426  -0.02511796  -0.02463127  1
  Sn2+  Sn43  1  0.83926754  0.33558400  0.50313538  1
  Sn2+  Sn44  1  0.83114352  0.67438652  0.50195179  1
  Sn2+  Sn45  1  0.16175436  0.66565106  0.82803136  1
  Sn2+  Sn46  1  0.49924402  0.67334902  0.50489208  1
  Sn2+  Sn47  1  -0.00363360  0.33038833  0.32100411  1
  Sn2+  Sn48  1  0.33492959  0.16830951  0.16515843  1
  Sn2+  Sn49  1  0.17056745  0.50102902  0.66551928  1
  Sn2+  Sn50  1  0.16903076  0.68637407  0.49500395  1
  Sn2+  Sn51  1  0.33415855  0.48460088  0.49494985  1
  Sn2+  Sn52  1  0.66711283  0.16308638  0.50041876  1
  Sn2+  Sn53  1  0.01076098  0.16641446  0.48916120  1
  Sn2+  Sn54  1  0.66118242  0.50323571  0.16519548  1
  Sn2+  Sn55  1  0.00301273  -0.00080663  0.33422479  1
  Sn2+  Sn56  1  0.16699880  0.33940607  0.16673305  1
  Sn2+  Sn57  1  0.66467934  0.16453810  0.16411192  1
  Sn2+  Sn58  1  0.50852669  0.83605699  0.67355398  1
  Sn2+  Sn59  1  -0.00519802  0.49598343  0.16831766  1
  Sn2+  Sn60  1  0.65904062  0.50806078  0.50331435  1
  Sn2+  Sn61  1  0.32535544  0.32948994  0.65655511  1
  Sn2+  Sn62  1  0.83072480  0.17343961  0.33106098  1
  Sn2+  Sn63  1  -0.00444483  0.83571994  0.82804569  1
  Sn2+  Sn64  1  0.18248096  0.49778008  0.33674129  1
  Bi3+  Bi65  1  0.49941028  0.16251613  0.00435041  1
  Bi3+  Bi66  1  0.66555849  0.83281819  0.82988017  1
  Bi3+  Bi67  1  0.67077391  0.66838935  -0.00595314  1
  Bi3+  Bi68  1  -0.00133465  0.82801332  0.16691783  1
  Bi3+  Bi69  1  -0.00161542  0.83318612  0.49835331  1
  Bi3+  Bi70  1  -0.00032536  0.49753128  0.49883817  1
  Bi3+  Bi71  1  0.33649558  0.49800318  0.16780188  1
  Bi3+  Bi72  1  0.83226391  0.00171164  0.17764981  1
  Bi3+  Bi73  1  0.16652705  0.33218526  0.50039999  1
  Bi3+  Bi74  1  0.16364283  0.83112045  0.33237576  1
  Bi3+  Bi75  1  0.66473705  0.00197790  0.33071285  1
  Bi3+  Bi76  1  0.82768092  0.00209752  0.50101048  1
  Bi3+  Bi77  1  0.83062871  0.50370539  0.00235499  1
  Bi3+  Bi78  1  0.83358893  0.16059762  0.66415437  1
  Bi3+  Bi79  1  0.83144980  0.66518156  0.16411389  1
  Bi3+  Bi80  1  -0.00029199  0.50274601  0.83221690  1
  Bi3+  Bi81  1  0.00444111  0.66479867  0.33694689  1
  Bi3+  Bi82  1  -0.00140818  0.66575134  0.00057856  1
  Bi3+  Bi83  1  0.50113202  -0.00214348  0.16382502  1
  Bi3+  Bi84  1  0.16157024  0.00132551  0.82616130  1
  Bi3+  Bi85  1  0.50590506  0.84146085  -0.00009765  1
  Te2-  Te86  1  0.16675808  0.16864213  0.16390353  1
  Te2-  Te87  1  0.16827980  0.16318879  0.50575411  1
  Te2-  Te88  1  0.17108265  0.16749859  0.82093965  1
  Te2-  Te89  1  0.17147157  0.50200390  0.16934462  1
  Te2-  Te90  1  0.16605002  0.49839605  0.49950018  1
  Te2-  Te91  1  0.16520863  0.49543692  0.83315336  1
  Te2-  Te92  1  0.16432896  0.83133203  0.16644764  1
  Te2-  Te93  1  0.16267254  0.84753183  0.49526564  1
  Te2-  Te94  1  0.16407107  0.83759968  0.82754237  1
  Te2-  Te95  1  0.49882138  0.16391704  0.16732353  1
  Te2-  Te96  1  0.49666291  0.15727824  0.49922536  1
  Te2-  Te97  1  0.49051856  0.15230684  0.83422675  1
  Te2-  Te98  1  0.50034553  0.50976883  0.17178814  1
  Te2-  Te99  1  0.50169489  0.50104177  0.48900320  1
  Te2-  Te100  1  0.49963710  0.49790403  0.83966726  1
  Te2-  Te101  1  0.49834122  0.82889902  0.16229723  1
  Te2-  Te102  1  0.49688848  0.84236338  0.50366537  1
  Te2-  Te103  1  0.50227524  0.84966950  0.83822745  1
  Te2-  Te104  1  0.83118866  0.16903943  0.16788895  1
  Te2-  Te105  1  0.83602990  0.16693401  0.50182353  1
  Te2-  Te106  1  0.83620052  0.16542708  0.82543976  1
  Te2-  Te107  1  0.82954758  0.50182907  0.17225659  1
  Te2-  Te108  1  0.83539102  0.50291682  0.49661564  1
  Te2-  Te109  1  0.84046494  0.50291867  0.83727595  1
  Te2-  Te110  1  0.83378082  0.83073257  0.18233144  1
  Te2-  Te111  1  0.83291865  0.83562923  0.48445930  1
  Te2-  Te112  1  0.83551608  0.83546643  0.82684520  1
  Te2-  Te113  1  0.17837503  0.00531431  -0.00431503  1
  Te2-  Te114  1  0.17593347  -0.00432733  0.34381945  1
  Te2-  Te115  1  0.17143892  0.00267988  0.65614113  1
  Te2-  Te116  1  0.17287100  0.32542912  -0.00139679  1
  Te2-  Te117  1  0.16374373  0.33351949  0.33410795  1
  Te2-  Te118  1  0.16061597  0.33211048  0.66305975  1
  Te2-  Te119  1  0.16350629  0.66675970  -0.00188126  1
  Te2-  Te120  1  0.16654605  0.66690904  0.32974511  1
  Te2-  Te121  1  0.18107009  0.66942668  0.66547220  1
  Te2-  Te122  1  0.48682057  0.00081172  0.00616826  1
  Te2-  Te123  1  0.49721548  0.00641584  0.32650286  1
  Te2-  Te124  1  0.48435671  0.00833605  0.67018552  1
  Te2-  Te125  1  0.51042091  0.32527072  0.00345569  1
  Te2-  Te126  1  0.50613815  0.32293975  0.33282089  1
  Te2-  Te127  1  0.49739495  0.32365069  0.66574703  1
  Te2-  Te128  1  0.50474427  0.67754552  -0.00519606  1
  Te2-  Te129  1  0.50098355  0.66965258  0.33666692  1
  Te2-  Te130  1  0.48525009  0.66741768  0.66476493  1
  Te2-  Te131  1  0.83474774  0.00752207  0.01522460  1
  Te2-  Te132  1  0.83069008  0.00429875  0.33809220  1
  Te2-  Te133  1  0.83333326  -0.00358711  0.66134572  1
  Te2-  Te134  1  0.80923976  0.34432874  0.00097447  1
  Te2-  Te135  1  0.83716736  0.33803021  0.33646595  1
  Te2-  Te136  1  0.84429993  0.33029822  0.66650785  1
  Te2-  Te137  1  0.83313764  0.66594099  0.00065150  1
  Te2-  Te138  1  0.83827631  0.65468497  0.33184534  1
  Te2-  Te139  1  0.83067448  0.67959329  0.66165353  1
  Te2-  Te140  1  0.00501965  0.16822351  0.01286417  1
  Te2-  Te141  1  -0.00009914  0.16798615  0.32009876  1
  Te2-  Te142  1  -0.00013342  0.17089856  0.66218668  1
  Te2-  Te143  1  -0.00340756  0.50414201  -0.00115491  1
  Te2-  Te144  1  0.00801688  0.50261041  0.33672199  1
  Te2-  Te145  1  0.00400476  0.50797030  0.66461233  1
  Te2-  Te146  1  -0.01229062  0.82816207  0.00164996  1
  Te2-  Te147  1  0.00116706  0.82908641  0.33315275  1
  Te2-  Te148  1  0.00168971  0.82416230  0.65876693  1
  Te2-  Te149  1  0.33260243  0.15762119  0.00223321  1
  Te2-  Te150  1  0.33809026  0.16687447  0.32584004  1
  Te2-  Te151  1  0.33432024  0.16901150  0.66193854  1
  Te2-  Te152  1  0.34128748  0.49779547  0.00245738  1
  Te2-  Te153  1  0.34720875  0.50684241  0.32991789  1
  Te2-  Te154  1  0.33315424  0.48958498  0.66082636  1
  Te2-  Te155  1  0.33171817  0.83987008  0.00547492  1
  Te2-  Te156  1  0.32653534  0.81862620  0.32242653  1
  Te2-  Te157  1  0.33536985  0.84116242  0.66256532  1
  Te2-  Te158  1  0.66232528  0.16247535  0.00387701  1
  Te2-  Te159  1  0.66108935  0.16330856  0.33500932  1
  Te2-  Te160  1  0.66146353  0.15474295  0.66181252  1
  Te2-  Te161  1  0.65874475  0.50826195  0.00462680  1
  Te2-  Te162  1  0.65925475  0.49994826  0.33587961  1
  Te2-  Te163  1  0.66700239  0.49820005  0.66219191  1
  Te2-  Te164  1  0.67641253  0.83123278  -0.00029147  1
  Te2-  Te165  1  0.66446459  0.83697276  0.33686657  1
  Te2-  Te166  1  0.66507569  0.85148750  0.66268686  1
  Te2-  Te167  1  -0.00279420  -0.00817762  0.17011722  1
  Te2-  Te168  1  -0.00657521  -0.00082569  0.49452887  1
  Te2-  Te169  1  0.00175074  0.00026825  0.83180124  1
  Te2-  Te170  1  -0.00379021  0.33891039  0.15327037  1
  Te2-  Te171  1  0.00470881  0.33553194  0.49527876  1
  Te2-  Te172  1  0.00851501  0.33783385  0.85010632  1
  Te2-  Te173  1  -0.00310674  0.66493286  0.16852720  1
  Te2-  Te174  1  0.00187606  0.66442686  0.50048268  1
  Te2-  Te175  1  0.00277988  0.66680353  0.83314309  1
  Te2-  Te176  1  0.33510644  -0.00433088  0.17573118  1
  Te2-  Te177  1  0.34119671  0.01061618  0.49330698  1
  Te2-  Te178  1  0.32268259  0.00900503  0.82748092  1
  Te2-  Te179  1  0.33236980  0.33718396  0.18056092  1
  Te2-  Te180  1  0.32723518  0.32192152  0.48568366  1
  Te2-  Te181  1  0.32493359  0.32376322  0.83187802  1
  Te2-  Te182  1  0.34243611  0.66390113  0.15504806  1
  Te2-  Te183  1  0.33096063  0.66146190  0.49619534  1
  Te2-  Te184  1  0.33484534  0.66963890  0.83766500  1
  Te2-  Te185  1  0.66634410  -0.00544070  0.16828839  1
  Te2-  Te186  1  0.65997510  -0.00436025  0.49257958  1
  Te2-  Te187  1  0.66504881  -0.00428262  0.82922283  1
  Te2-  Te188  1  0.67649464  0.33361701  0.18262157  1
  Te2-  Te189  1  0.66955069  0.33277143  0.49196894  1
  Te2-  Te190  1  0.66530580  0.33360142  0.82726610  1
  Te2-  Te191  1  0.67010381  0.67346491  0.16667677  1
  Te2-  Te192  1  0.66286986  0.67605988  0.51671928  1
  Te2-  Te193  1  0.65698104  0.67259511  0.82337127  1
  Pb2+  Pb194  1  0.16667301  0.16478536  0.33750014  1
  Pb2+  Pb195  1  0.66678096  0.16343734  0.83495084  1
  Pb2+  Pb196  1  0.16634119  0.49836685  0.00312173  1
  Pb2+  Pb197  1  0.67273899  0.50559394  0.83588136  1
  Pb2+  Pb198  1  0.33723203  0.84194056  0.83498801  1
  Pb2+  Pb199  1  0.49650518  0.33049313  0.49839231  1
  Pb2+  Pb200  1  0.33400462  0.49809087  0.82876201  1
  Pb2+  Pb201  1  -0.00055251  -0.00597009  0.66309602  1
  Pb2+  Pb202  1  0.33042658  0.83434384  0.49445320  1
  Pb2+  Pb203  1  0.83670288  0.50538465  0.67069287  1
  Pb2+  Pb204  1  0.83200686  0.17820778  -0.00584721  1
  Pb2+  Pb205  1  0.67099282  0.66974403  0.34306954  1
  Pb2+  Pb206  1  0.66976222  0.32398703  0.65964587  1
  Pb2+  Pb207  1  0.00324445  0.16818496  0.83626783  1
  Pb2+  Pb208  1  0.50580148  0.34069915  0.16746936  1
  Pb2+  Pb209  1  0.49619584  0.32508571  0.83701891  1
  Pb2+  Pb210  1  0.34203380  0.32847176  0.00816526  1
  Pb2+  Pb211  1  0.49948118  0.50001436  0.65966889  1
  Pb2+  Pb212  1  0.16469897  -0.00029454  0.17209300  1
  Pb2+  Pb213  1  0.49599017  0.83912055  0.33410933  1
  Pb2+  Pb214  1  0.15803020  0.83342285  -0.00520562  1
  Pb2+  Pb215  1  0.00456763  -0.00230295  -0.00068015  1
