# generated using pymatgen
data_In22Ag21Sn22Bi21(Te54Pb11)2
_symmetry_space_group_name_H-M   'P 1'
_cell_length_a   19.14378962
_cell_length_b   19.15388044
_cell_length_c   19.15850794
_cell_angle_alpha   90.00318683
_cell_angle_beta   89.99741897
_cell_angle_gamma   90.00698590
_symmetry_Int_Tables_number   1
_chemical_formula_structural   In22Ag21Sn22Bi21(Te54Pb11)2
_chemical_formula_sum   'In22 Ag21 Sn22 Bi21 Te108 Pb22'
_cell_volume   7025.00057336
_cell_formula_units_Z   1
loop_
 _symmetry_equiv_pos_site_id
 _symmetry_equiv_pos_as_xyz
  1  'x, y, z'
loop_
 _atom_type_symbol
 _atom_type_oxidation_number
  In3+  3.0
  Ag+  1.0
  Sn2+  2.0
  Bi3+  3.0
  Te2-  -2.0
  Pb2+  2.0
loop_
 _atom_site_type_symbol
 _atom_site_label
 _atom_site_symmetry_multiplicity
 _atom_site_fract_x
 _atom_site_fract_y
 _atom_site_fract_z
 _atom_site_occupancy
  In3+  In0  1  0.31998170  0.16683705  0.15556597  1
  In3+  In1  1  0.31082261  0.32177094  0.66865771  1
  In3+  In2  1  0.84432383  0.50636902  0.65824389  1
  In3+  In3  1  0.68107457  0.49879874  0.82316167  1
  In3+  In4  1  0.67919379  0.00964608  0.67062498  1
  In3+  In5  1  0.32519618  0.66941151  0.00937515  1
  In3+  In6  1  0.32395110  0.66225132  0.34782006  1
  In3+  In7  1  0.32968067  0.68098567  0.66927487  1
  In3+  In8  1  0.83244847  0.66766000  0.48560774  1
  In3+  In9  1  0.50299422  0.63455246  0.16591152  1
  In3+  In10  1  0.01369736  0.01770058  0.66024304  1
  In3+  In11  1  0.32750307  0.50057820  0.83263015  1
  In3+  In12  1  0.00492236  0.48243182  0.15340015  1
  In3+  In13  1  0.31497643  0.33704029  0.31901792  1
  In3+  In14  1  0.84298785  0.49890064  0.34258889  1
  In3+  In15  1  -0.00040003  0.01438066  -0.01716400  1
  In3+  In16  1  0.49475970  0.49879553  0.67535442  1
  In3+  In17  1  0.00034516  0.16801219  0.85963267  1
  In3+  In18  1  0.00732163  -0.02063730  0.33996406  1
  In3+  In19  1  0.33108167  0.81952593  0.83165149  1
  In3+  In20  1  0.68516863  0.82506888  0.83494263  1
  In3+  In21  1  0.51117427  0.82144941  0.32918077  1
  Ag+  Ag22  1  0.16369758  0.14475220  0.68375191  1
  Ag+  Ag23  1  0.16212927  0.48008784  0.02725863  1
  Ag+  Ag24  1  0.85319829  0.64044012  0.83428515  1
  Ag+  Ag25  1  0.16813881  0.18799775  -0.02091707  1
  Ag+  Ag26  1  0.19054940  0.36284450  0.50254787  1
  Ag+  Ag27  1  -0.02565467  0.64185074  0.30467402  1
  Ag+  Ag28  1  0.46641087  0.32813312  0.18810340  1
  Ag+  Ag29  1  0.85201190  0.81011600  -0.02752189  1
  Ag+  Ag30  1  0.35490911  0.81098070  0.47073917  1
  Ag+  Ag31  1  0.02792034  0.35901669  -0.03280379  1
  Ag+  Ag32  1  0.63827063  0.34155227  0.35373894  1
  Ag+  Ag33  1  0.19321037  0.50350386  0.68649643  1
  Ag+  Ag34  1  0.18875387  0.66636280  0.85507524  1
  Ag+  Ag35  1  0.18647714  0.02307589  0.49996819  1
  Ag+  Ag36  1  0.65951649  0.51460717  0.47995167  1
  Ag+  Ag37  1  0.29707109  0.15854044  0.85642365  1
  Ag+  Ag38  1  0.14637452  0.49338660  0.33095325  1
  Ag+  Ag39  1  0.85571371  -0.00065813  0.81092445  1
  Ag+  Ag40  1  0.02210508  0.18232538  0.17611591  1
  Ag+  Ag41  1  0.50015894  0.85941531  0.69384369  1
  Ag+  Ag42  1  0.16519522  0.34684925  0.14420884  1
  Sn2+  Sn43  1  0.01288844  0.16334639  0.48963298  1
  Sn2+  Sn44  1  0.00218359  0.82880163  0.83460553  1
  Sn2+  Sn45  1  0.00944426  0.49750930  0.50067477  1
  Sn2+  Sn46  1  0.16870824  0.17414595  0.33822253  1
  Sn2+  Sn47  1  0.83814951  0.17329651  0.32999078  1
  Sn2+  Sn48  1  0.49478692  0.01844467  0.16882197  1
  Sn2+  Sn49  1  0.33647834  0.83432638  0.16757255  1
  Sn2+  Sn50  1  0.67135583  0.33452512  0.00786496  1
  Sn2+  Sn51  1  0.83601021  0.67030870  0.14499423  1
  Sn2+  Sn52  1  0.01699480  0.50620170  0.83019511  1
  Sn2+  Sn53  1  0.48450631  0.16874266  0.67063753  1
  Sn2+  Sn54  1  0.49305589  -0.00203872  0.50074307  1
  Sn2+  Sn55  1  0.66174229  0.33703893  0.66452816  1
  Sn2+  Sn56  1  0.66844135  0.17566236  0.50070038  1
  Sn2+  Sn57  1  0.65732309  0.83238459  0.51629965  1
  Sn2+  Sn58  1  0.49373070  -0.00231075  0.83294988  1
  Sn2+  Sn59  1  0.66280802  0.66600565  0.66725170  1
  Sn2+  Sn60  1  0.15915239  0.00952078  0.17298452  1
  Sn2+  Sn61  1  0.32888668  0.33828396  -0.00867569  1
  Sn2+  Sn62  1  0.15411695  0.83643643  -0.00172071  1
  Sn2+  Sn63  1  0.50246354  0.67013567  0.83270865  1
  Sn2+  Sn64  1  0.50009266  0.33873088  0.49608798  1
  Bi3+  Bi65  1  0.33390558  0.16751798  0.50010542  1
  Bi3+  Bi66  1  0.50133284  0.16954801  0.33747367  1
  Bi3+  Bi67  1  0.16143079  0.66809259  0.50079761  1
  Bi3+  Bi68  1  0.66157506  0.66646006  -0.00114701  1
  Bi3+  Bi69  1  0.16813059  0.83021955  0.33474878  1
  Bi3+  Bi70  1  0.83146411  0.33456165  0.50060228  1
  Bi3+  Bi71  1  -0.00218048  0.82805940  0.50385604  1
  Bi3+  Bi72  1  0.66847422  0.16526573  0.83229956  1
  Bi3+  Bi73  1  0.84002857  0.16768295  0.00069634  1
  Bi3+  Bi74  1  0.33298963  0.00064109  0.66833013  1
  Bi3+  Bi75  1  0.00427886  0.33326576  0.33578852  1
  Bi3+  Bi76  1  0.66904838  0.16741203  0.16800243  1
  Bi3+  Bi77  1  -0.00009996  0.83620194  0.16613501  1
  Bi3+  Bi78  1  0.49800690  0.33241602  0.83013084  1
  Bi3+  Bi79  1  0.84296610  0.33372617  0.16792276  1
  Bi3+  Bi80  1  0.00081421  0.33573055  0.66270356  1
  Bi3+  Bi81  1  0.83536777  0.00099489  0.16998190  1
  Bi3+  Bi82  1  0.49462317  0.49563267  -0.00263174  1
  Bi3+  Bi83  1  0.00128994  0.66659958  0.66493074  1
  Bi3+  Bi84  1  0.50087340  0.49882300  0.33289732  1
  Bi3+  Bi85  1  0.83053619  -0.00136637  0.50003645  1
  Te2-  Te86  1  0.16789722  0.16547891  0.17820459  1
  Te2-  Te87  1  0.17050582  0.16881905  0.49555256  1
  Te2-  Te88  1  0.15268713  0.16695972  0.83150034  1
  Te2-  Te89  1  0.15863067  0.49372465  0.17368904  1
  Te2-  Te90  1  0.16643737  0.50816373  0.48447848  1
  Te2-  Te91  1  0.17351917  0.51282306  0.83400728  1
  Te2-  Te92  1  0.16470495  0.83746636  0.17022322  1
  Te2-  Te93  1  0.16034128  0.82954679  0.49696358  1
  Te2-  Te94  1  0.17368266  0.81943572  0.83265756  1
  Te2-  Te95  1  0.50397184  0.18058809  0.17061048  1
  Te2-  Te96  1  0.50102647  0.16843313  0.50248570  1
  Te2-  Te97  1  0.50495993  0.16824991  0.83231773  1
  Te2-  Te98  1  0.49849542  0.47592147  0.16345076  1
  Te2-  Te99  1  0.50987580  0.50008418  0.49649850  1
  Te2-  Te100  1  0.49230019  0.49661149  0.83556459  1
  Te2-  Te101  1  0.49626743  0.84390482  0.17650574  1
  Te2-  Te102  1  0.49902829  0.83364460  0.48584296  1
  Te2-  Te103  1  0.48529448  0.83616166  0.83813188  1
  Te2-  Te104  1  0.83378145  0.16668760  0.16431944  1
  Te2-  Te105  1  0.83467273  0.16500434  0.49760843  1
  Te2-  Te106  1  0.83495981  0.15186473  0.83544405  1
  Te2-  Te107  1  0.84377214  0.49953991  0.16828268  1
  Te2-  Te108  1  0.82786865  0.50101098  0.50198940  1
  Te2-  Te109  1  0.83078263  0.49448111  0.83138200  1
  Te2-  Te110  1  0.83410781  0.83570548  0.16596257  1
  Te2-  Te111  1  0.82981411  0.83064716  0.50177507  1
  Te2-  Te112  1  0.83221573  0.85134845  0.83374145  1
  Te2-  Te113  1  0.15528896  -0.00482560  0.00170841  1
  Te2-  Te114  1  0.16196142  -0.00380162  0.34667560  1
  Te2-  Te115  1  0.16622051  -0.00250864  0.65456016  1
  Te2-  Te116  1  0.16997578  0.33450336  -0.00288421  1
  Te2-  Te117  1  0.16706018  0.34382343  0.35098165  1
  Te2-  Te118  1  0.16147223  0.35495240  0.65496141  1
  Te2-  Te119  1  0.17299144  0.66954644  0.00172502  1
  Te2-  Te120  1  0.17061156  0.66389961  0.33530077  1
  Te2-  Te121  1  0.17142095  0.65472864  0.66158238  1
  Te2-  Te122  1  0.49918895  0.00124521  0.00474980  1
  Te2-  Te123  1  0.49819108  0.00803362  0.33282970  1
  Te2-  Te124  1  0.49393597  0.00389818  0.66242849  1
  Te2-  Te125  1  0.49564676  0.33475650  -0.00607893  1
  Te2-  Te126  1  0.49318222  0.33421811  0.33391470  1
  Te2-  Te127  1  0.50253695  0.33648170  0.66751914  1
  Te2-  Te128  1  0.49743262  0.65953499  0.00344053  1
  Te2-  Te129  1  0.49419839  0.66524713  0.32770237  1
  Te2-  Te130  1  0.49222141  0.65651983  0.66967317  1
  Te2-  Te131  1  0.84531298  0.00724756  0.00842392  1
  Te2-  Te132  1  0.83527767  0.00311428  0.33663792  1
  Te2-  Te133  1  0.83207952  -0.00271319  0.66351334  1
  Te2-  Te134  1  0.84296002  0.32998551  0.00449313  1
  Te2-  Te135  1  0.83797432  0.34038401  0.33404001  1
  Te2-  Te136  1  0.83275394  0.33928110  0.66338546  1
  Te2-  Te137  1  0.82726296  0.66613247  -0.01373832  1
  Te2-  Te138  1  0.83083971  0.65747645  0.33227425  1
  Te2-  Te139  1  0.83372648  0.65792763  0.68357468  1
  Te2-  Te140  1  0.00955159  0.16538707  0.01100863  1
  Te2-  Te141  1  0.00049153  0.17128389  0.32714018  1
  Te2-  Te142  1  0.01299048  0.17052936  0.65869819  1
  Te2-  Te143  1  0.01352855  0.50043255  0.00019824  1
  Te2-  Te144  1  -0.00148068  0.50073044  0.33487193  1
  Te2-  Te145  1  -0.00146459  0.50150339  0.66710287  1
  Te2-  Te146  1  -0.00590286  0.83830525  0.00111585  1
  Te2-  Te147  1  0.00321412  0.82193687  0.33616897  1
  Te2-  Te148  1  -0.00167465  0.82838116  0.66791316  1
  Te2-  Te149  1  0.31772692  0.16803718  0.00146577  1
  Te2-  Te150  1  0.33901015  0.17644757  0.33822397  1
  Te2-  Te151  1  0.31554386  0.16581944  0.66247740  1
  Te2-  Te152  1  0.32962029  0.50411241  -0.00584352  1
  Te2-  Te153  1  0.34032578  0.49972696  0.33332029  1
  Te2-  Te154  1  0.33988582  0.49348920  0.67392625  1
  Te2-  Te155  1  0.32844231  0.82771439  -0.00291742  1
  Te2-  Te156  1  0.33017225  0.82943879  0.32828139  1
  Te2-  Te157  1  0.34616686  0.83498814  0.67395358  1
  Te2-  Te158  1  0.66852277  0.16784696  -0.00164544  1
  Te2-  Te159  1  0.66503913  0.17866173  0.33205675  1
  Te2-  Te160  1  0.66818630  0.16595069  0.66998096  1
  Te2-  Te161  1  0.66176667  0.50213067  -0.00271640  1
  Te2-  Te162  1  0.66347647  0.49104971  0.33410796  1
  Te2-  Te163  1  0.65647852  0.49937721  0.67439065  1
  Te2-  Te164  1  0.66710702  0.83190491  -0.00962364  1
  Te2-  Te165  1  0.66343878  0.83313836  0.33846227  1
  Te2-  Te166  1  0.64927577  0.83147038  0.67308164  1
  Te2-  Te167  1  -0.00279496  -0.00379677  0.18189454  1
  Te2-  Te168  1  -0.00783009  -0.00695607  0.50169670  1
  Te2-  Te169  1  0.00238262  -0.00007363  0.82492283  1
  Te2-  Te170  1  0.00871860  0.33021746  0.17237576  1
  Te2-  Te171  1  -0.00738674  0.33170977  0.49980496  1
  Te2-  Te172  1  -0.00127837  0.33299691  0.82580129  1
  Te2-  Te173  1  -0.00463773  0.67379897  0.16392558  1
  Te2-  Te174  1  -0.00991493  0.66552607  0.50277544  1
  Te2-  Te175  1  -0.00202762  0.66849778  0.82676640  1
  Te2-  Te176  1  0.33006196  0.00921546  0.16745178  1
  Te2-  Te177  1  0.33224221  0.00081302  0.50437244  1
  Te2-  Te178  1  0.33211639  0.01484566  0.83045206  1
  Te2-  Te179  1  0.31820349  0.32523962  0.16636702  1
  Te2-  Te180  1  0.33563119  0.33212682  0.51451562  1
  Te2-  Te181  1  0.33549338  0.32215703  0.82401463  1
  Te2-  Te182  1  0.34087062  0.66670382  0.15899789  1
  Te2-  Te183  1  0.33179071  0.67017114  0.50722095  1
  Te2-  Te184  1  0.33460986  0.66398682  0.82643181  1
  Te2-  Te185  1  0.66852621  0.00357330  0.16747665  1
  Te2-  Te186  1  0.66844084  0.00101682  0.50948287  1
  Te2-  Te187  1  0.65708802  0.00246377  0.82454465  1
  Te2-  Te188  1  0.68002127  0.32864592  0.16489090  1
  Te2-  Te189  1  0.67149206  0.33502182  0.49879763  1
  Te2-  Te190  1  0.66352878  0.33182870  0.83572490  1
  Te2-  Te191  1  0.66492013  0.66647854  0.16308024  1
  Te2-  Te192  1  0.67646792  0.65943841  0.50651145  1
  Te2-  Te193  1  0.66176629  0.66707395  0.83587091  1
  Pb2+  Pb194  1  0.50407676  0.66655983  0.50405915  1
  Pb2+  Pb195  1  0.83186795  0.32357585  0.83486328  1
  Pb2+  Pb196  1  0.16825044  -0.00895316  0.83077652  1
  Pb2+  Pb197  1  0.17197288  0.82438509  0.66385356  1
  Pb2+  Pb198  1  0.66571492  0.00917671  0.33955805  1
  Pb2+  Pb199  1  0.84324038  0.16750789  0.66457150  1
  Pb2+  Pb200  1  0.67191567  0.49509961  0.16811803  1
  Pb2+  Pb201  1  0.33492033  0.50040520  0.50331927  1
  Pb2+  Pb202  1  0.49801250  0.82989725  0.00558451  1
  Pb2+  Pb203  1  0.16679683  0.66570913  0.16915854  1
  Pb2+  Pb204  1  0.32839025  0.49732706  0.16436970  1
  Pb2+  Pb205  1  0.49027122  0.16793356  0.00068294  1
  Pb2+  Pb206  1  0.66233315  0.65977144  0.33539532  1
  Pb2+  Pb207  1  0.82451377  0.82339747  0.67065936  1
  Pb2+  Pb208  1  0.67472401  0.00059264  -0.00602761  1
  Pb2+  Pb209  1  0.00425143  0.66815582  -0.00438684  1
  Pb2+  Pb210  1  0.32724054  -0.00431592  -0.00151608  1
  Pb2+  Pb211  1  0.32867470  0.00234499  0.33571433  1
  Pb2+  Pb212  1  0.83591749  0.83291719  0.33274719  1
  Pb2+  Pb213  1  0.66514011  0.83379953  0.16460887  1
  Pb2+  Pb214  1  0.16750158  0.33952355  0.82501483  1
  Pb2+  Pb215  1  0.83546664  0.49758313  0.00068804  1
