# generated using pymatgen
data_In22Ag21Sn22Bi21(Te54Pb11)2
_symmetry_space_group_name_H-M   'P 1'
_cell_length_a   19.11846348
_cell_length_b   19.12528198
_cell_length_c   19.11546243
_cell_angle_alpha   89.99565605
_cell_angle_beta   90.00397288
_cell_angle_gamma   89.99562983
_symmetry_Int_Tables_number   1
_chemical_formula_structural   In22Ag21Sn22Bi21(Te54Pb11)2
_chemical_formula_sum   'In22 Ag21 Sn22 Bi21 Te108 Pb22'
_cell_volume   6989.49241927
_cell_formula_units_Z   1
loop_
 _symmetry_equiv_pos_site_id
 _symmetry_equiv_pos_as_xyz
  1  'x, y, z'
loop_
 _atom_type_symbol
 _atom_type_oxidation_number
  In3+  3.0
  Ag+  1.0
  Sn2+  2.0
  Bi3+  3.0
  Te2-  -2.0
  Pb2+  2.0
loop_
 _atom_site_type_symbol
 _atom_site_label
 _atom_site_symmetry_multiplicity
 _atom_site_fract_x
 _atom_site_fract_y
 _atom_site_fract_z
 _atom_site_occupancy
  In3+  In0  1  0.16079362  0.83744012  0.33569289  1
  In3+  In1  1  0.65786446  0.01442315  0.00285498  1
  In3+  In2  1  0.49611816  0.50670504  0.33544722  1
  In3+  In3  1  0.81416470  0.00209265  0.83078227  1
  In3+  In4  1  0.34748974  0.16824732  0.14844439  1
  In3+  In5  1  0.66701401  0.33202378  -0.02570269  1
  In3+  In6  1  0.16277440  0.83401305  0.66406128  1
  In3+  In7  1  0.16667387  0.48325882  0.66746251  1
  In3+  In8  1  0.16349665  0.01559789  0.83204105  1
  In3+  In9  1  0.17554378  0.66364538  0.50736253  1
  In3+  In10  1  0.33389127  0.85060680  0.82803358  1
  In3+  In11  1  0.82840094  0.01174556  0.52172994  1
  In3+  In12  1  -0.00241821  0.83527389  0.50762851  1
  In3+  In13  1  0.33969186  0.33676839  -0.02352602  1
  In3+  In14  1  0.32965981  0.82911097  0.51087832  1
  In3+  In15  1  0.82043607  0.33298268  0.17686693  1
  In3+  In16  1  0.17745737  0.33136609  0.52567243  1
  In3+  In17  1  0.00384786  0.33901397  0.34942574  1
  In3+  In18  1  0.66642224  0.01102488  0.31804008  1
  In3+  In19  1  0.82807101  0.83597727  0.33807691  1
  In3+  In20  1  0.33841842  0.66480085  0.00210575  1
  In3+  In21  1  0.00212213  0.50405721  0.50891932  1
  Ag+  Ag22  1  0.47460050  0.02713348  0.80846840  1
  Ag+  Ag23  1  0.34698970  0.33527689  0.67564127  1
  Ag+  Ag24  1  0.33521230  0.46652278  0.14503361  1
  Ag+  Ag25  1  0.35245304  0.15073207  0.80837754  1
  Ag+  Ag26  1  0.83735996  0.83021926  0.64846217  1
  Ag+  Ag27  1  0.64505339  0.47615872  0.83112012  1
  Ag+  Ag28  1  0.66846141  0.18021620  0.51806010  1
  Ag+  Ag29  1  0.82424565  0.19062670  0.66230657  1
  Ag+  Ag30  1  0.81681347  0.63183095  0.13728854  1
  Ag+  Ag31  1  0.47893229  0.01304432  0.15009455  1
  Ag+  Ag32  1  0.47573112  0.64006902  0.16334290  1
  Ag+  Ag33  1  0.63927496  0.18680955  0.80285832  1
  Ag+  Ag34  1  0.53238989  0.17123870  0.69183138  1
  Ag+  Ag35  1  -0.01190747  0.49914314  0.85287122  1
  Ag+  Ag36  1  0.00134411  0.31424342  0.65045238  1
  Ag+  Ag37  1  0.17612917  0.31676256  0.82528726  1
  Ag+  Ag38  1  -0.00199991  -0.01936302  -0.03290851  1
  Ag+  Ag39  1  0.64347520  0.29812159  0.66314767  1
  Ag+  Ag40  1  0.64653073  0.19403924  0.16472758  1
  Ag+  Ag41  1  0.65311627  0.63968665  0.69217208  1
  Ag+  Ag42  1  0.32230221  0.49342791  0.51632714  1
  Sn2+  Sn43  1  0.83330857  0.49612099  0.67041899  1
  Sn2+  Sn44  1  0.33906752  0.01915989  0.66091227  1
  Sn2+  Sn45  1  0.66865068  0.83223214  0.50918508  1
  Sn2+  Sn46  1  0.49946589  0.33370157  0.16949457  1
  Sn2+  Sn47  1  -0.00051292  0.83093914  0.17151053  1
  Sn2+  Sn48  1  0.32953524  0.49439294  0.82588070  1
  Sn2+  Sn49  1  -0.00586050  0.16949632  0.50388139  1
  Sn2+  Sn50  1  -0.00173570  0.00770339  0.66530721  1
  Sn2+  Sn51  1  0.34529388  0.83379232  0.16962718  1
  Sn2+  Sn52  1  0.66463578  0.49202737  0.51798786  1
  Sn2+  Sn53  1  0.83099775  0.66500100  0.82523010  1
  Sn2+  Sn54  1  0.34755487  0.17326861  0.50930058  1
  Sn2+  Sn55  1  0.32722773  0.34121525  0.33793310  1
  Sn2+  Sn56  1  -0.00695723  0.00322896  0.33157694  1
  Sn2+  Sn57  1  -0.00394359  0.17966710  0.83303478  1
  Sn2+  Sn58  1  0.00045627  0.67173267  -0.00476483  1
  Sn2+  Sn59  1  0.83225621  0.00735221  0.15878157  1
  Sn2+  Sn60  1  0.66809533  0.66551107  -0.00516027  1
  Sn2+  Sn61  1  0.17348029  0.16576235  0.33851690  1
  Sn2+  Sn62  1  0.01271725  0.50029168  0.16549563  1
  Sn2+  Sn63  1  -0.01454743  0.66403519  0.66800923  1
  Sn2+  Sn64  1  0.16960400  0.16275135  0.66896258  1
  Bi3+  Bi65  1  0.16822022  0.66761205  0.82958806  1
  Bi3+  Bi66  1  0.49936525  0.16702558  0.33647261  1
  Bi3+  Bi67  1  0.33522063  0.66846802  0.33171535  1
  Bi3+  Bi68  1  0.16847998  0.83336407  -0.00001394  1
  Bi3+  Bi69  1  0.83421120  0.66741334  0.50190832  1
  Bi3+  Bi70  1  0.83449936  0.16455152  -0.00784706  1
  Bi3+  Bi71  1  0.49703792  0.33186455  0.50076268  1
  Bi3+  Bi72  1  0.83462612  0.83845892  0.00377155  1
  Bi3+  Bi73  1  0.50107821  0.83130222  0.00526305  1
  Bi3+  Bi74  1  0.00076622  0.16738756  0.17014992  1
  Bi3+  Bi75  1  0.66837010  0.66776349  0.33241931  1
  Bi3+  Bi76  1  0.00140288  0.66625617  0.33217521  1
  Bi3+  Bi77  1  0.66658956  0.83684771  0.83574696  1
  Bi3+  Bi78  1  0.49919278  0.83214974  0.33328025  1
  Bi3+  Bi79  1  0.67179178  0.83182597  0.17073502  1
  Bi3+  Bi80  1  0.66691339  -0.00481732  0.66859510  1
  Bi3+  Bi81  1  0.49881148  0.66997351  0.83677333  1
  Bi3+  Bi82  1  0.16266584  0.16776876  0.00127614  1
  Bi3+  Bi83  1  0.00048261  0.33206750  0.00054852  1
  Bi3+  Bi84  1  0.16459073  0.33313016  0.16221622  1
  Bi3+  Bi85  1  0.84185590  0.33109959  0.83213477  1
  Te2-  Te86  1  0.16627323  0.16894647  0.16825707  1
  Te2-  Te87  1  0.16702673  0.17737998  0.49961948  1
  Te2-  Te88  1  0.16266103  0.16986535  0.83828933  1
  Te2-  Te89  1  0.18220849  0.49520304  0.16535146  1
  Te2-  Te90  1  0.17222053  0.49682085  0.50801184  1
  Te2-  Te91  1  0.16773060  0.50835008  0.82153100  1
  Te2-  Te92  1  0.16845757  0.83448867  0.16420337  1
  Te2-  Te93  1  0.16639061  0.83250525  0.50265981  1
  Te2-  Te94  1  0.17200917  0.82911142  0.83531945  1
  Te2-  Te95  1  0.50127685  0.15986025  0.17233269  1
  Te2-  Te96  1  0.51418968  0.17040951  0.49600949  1
  Te2-  Te97  1  0.49672725  0.16881727  0.83687198  1
  Te2-  Te98  1  0.48616038  0.49296426  0.17265593  1
  Te2-  Te99  1  0.49802996  0.49569189  0.49409307  1
  Te2-  Te100  1  0.49992920  0.50577092  0.83153657  1
  Te2-  Te101  1  0.50663411  0.84017750  0.16957542  1
  Te2-  Te102  1  0.49528496  0.83323638  0.49813683  1
  Te2-  Te103  1  0.49883962  0.83217155  0.84072829  1
  Te2-  Te104  1  0.83946504  0.17426880  0.16410509  1
  Te2-  Te105  1  0.82670331  0.16380529  0.50962125  1
  Te2-  Te106  1  0.83626084  0.15969488  0.82931481  1
  Te2-  Te107  1  0.83633252  0.48950988  0.16642354  1
  Te2-  Te108  1  0.83844940  0.50416039  0.50199656  1
  Te2-  Te109  1  0.84210870  0.50335346  0.82841448  1
  Te2-  Te110  1  0.83515321  0.83670956  0.16630475  1
  Te2-  Te111  1  0.83770184  0.83107914  0.49974176  1
  Te2-  Te112  1  0.83158538  0.83675091  0.84248405  1
  Te2-  Te113  1  0.15849807  -0.00108805  -0.00875238  1
  Te2-  Te114  1  0.16458847  -0.00644168  0.33890738  1
  Te2-  Te115  1  0.17162982  -0.01120550  0.67404052  1
  Te2-  Te116  1  0.16923124  0.33013677  -0.00385936  1
  Te2-  Te117  1  0.15951406  0.33278792  0.32845647  1
  Te2-  Te118  1  0.15064172  0.33217988  0.67601358  1
  Te2-  Te119  1  0.16883178  0.67054595  -0.00319325  1
  Te2-  Te120  1  0.16764396  0.67339722  0.34218173  1
  Te2-  Te121  1  0.16505878  0.67837000  0.66285018  1
  Te2-  Te122  1  0.50365450  -0.00626553  0.00601782  1
  Te2-  Te123  1  0.50800397  -0.00264504  0.33100961  1
  Te2-  Te124  1  0.50195439  0.01219758  0.66565448  1
  Te2-  Te125  1  0.49943211  0.33115635  0.00255022  1
  Te2-  Te126  1  0.49687331  0.33056740  0.33550717  1
  Te2-  Te127  1  0.49652579  0.32122401  0.66250205  1
  Te2-  Te128  1  0.49853258  0.66924294  0.01091171  1
  Te2-  Te129  1  0.50112602  0.66857537  0.31798748  1
  Te2-  Te130  1  0.50790842  0.66709069  0.66963583  1
  Te2-  Te131  1  0.84946389  0.00137963  -0.00923445  1
  Te2-  Te132  1  0.82737484  -0.00839724  0.33222730  1
  Te2-  Te133  1  0.83348934  -0.01649512  0.67200993  1
  Te2-  Te134  1  0.83132670  0.32771593  -0.00231551  1
  Te2-  Te135  1  0.84050584  0.33304373  0.33508996  1
  Te2-  Te136  1  0.85239749  0.33404080  0.67310543  1
  Te2-  Te137  1  0.83815399  0.67247750  -0.00236300  1
  Te2-  Te138  1  0.83598286  0.67602011  0.33577879  1
  Te2-  Te139  1  0.82634940  0.67585808  0.66392126  1
  Te2-  Te140  1  0.00022776  0.16743840  0.00364008  1
  Te2-  Te141  1  0.00222671  0.17117961  0.33582330  1
  Te2-  Te142  1  0.00535882  0.16535888  0.66131540  1
  Te2-  Te143  1  0.00226624  0.49894548  0.00215162  1
  Te2-  Te144  1  0.00219789  0.50019277  0.33251274  1
  Te2-  Te145  1  0.01127473  0.50836950  0.65905188  1
  Te2-  Te146  1  0.00298245  0.83588865  0.00180155  1
  Te2-  Te147  1  0.00466987  0.83088546  0.33821890  1
  Te2-  Te148  1  -0.00433581  0.83220596  0.66107693  1
  Te2-  Te149  1  0.32741950  0.17294413  -0.00346711  1
  Te2-  Te150  1  0.33578548  0.16900168  0.34383646  1
  Te2-  Te151  1  0.32735639  0.17995537  0.66611850  1
  Te2-  Te152  1  0.33504469  0.49418371  -0.00046064  1
  Te2-  Te153  1  0.33993944  0.50718582  0.33437921  1
  Te2-  Te154  1  0.32648562  0.49072902  0.66446976  1
  Te2-  Te155  1  0.33388306  0.83128992  0.00034335  1
  Te2-  Te156  1  0.33295226  0.83073653  0.33890287  1
  Te2-  Te157  1  0.33289798  0.83331840  0.66541973  1
  Te2-  Te158  1  0.67476744  0.16818341  0.01448683  1
  Te2-  Te159  1  0.66530839  0.16452964  0.31624706  1
  Te2-  Te160  1  0.68107568  0.15456760  0.66516375  1
  Te2-  Te161  1  0.66838005  0.49346157  -0.01428262  1
  Te2-  Te162  1  0.65892021  0.50326806  0.33638168  1
  Te2-  Te163  1  0.67119642  0.49671969  0.67414040  1
  Te2-  Te164  1  0.66909168  0.83468699  0.00271683  1
  Te2-  Te165  1  0.66580337  0.83194478  0.33755298  1
  Te2-  Te166  1  0.67356417  0.83521073  0.67000673  1
  Te2-  Te167  1  -0.00231556  0.00335314  0.17321860  1
  Te2-  Te168  1  -0.01036599  -0.00372705  0.49685739  1
  Te2-  Te169  1  0.01020692  0.00185371  0.82334862  1
  Te2-  Te170  1  0.00229683  0.33300539  0.16361182  1
  Te2-  Te171  1  0.00846524  0.34101715  0.50351775  1
  Te2-  Te172  1  0.00110961  0.34640028  0.84168960  1
  Te2-  Te173  1  -0.00267650  0.66417312  0.17055527  1
  Te2-  Te174  1  0.00201397  0.66589267  0.49515614  1
  Te2-  Te175  1  0.00373235  0.65756988  0.83430508  1
  Te2-  Te176  1  0.33315321  0.00815194  0.16728325  1
  Te2-  Te177  1  0.32963444  0.00160418  0.50472852  1
  Te2-  Te178  1  0.33061837  0.00638210  0.83027852  1
  Te2-  Te179  1  0.32916277  0.32127106  0.17144923  1
  Te2-  Te180  1  0.32970851  0.34182894  0.50137310  1
  Te2-  Te181  1  0.32304542  0.33676914  0.82411022  1
  Te2-  Te182  1  0.33303968  0.67422062  0.16594235  1
  Te2-  Te183  1  0.33077358  0.65995817  0.49835456  1
  Te2-  Te184  1  0.33572539  0.66343818  0.84029244  1
  Te2-  Te185  1  0.67249607  -0.00582525  0.16303315  1
  Te2-  Te186  1  0.67719300  -0.00413618  0.50169393  1
  Te2-  Te187  1  0.66088569  -0.00222850  0.84261644  1
  Te2-  Te188  1  0.66757149  0.33976566  0.17093147  1
  Te2-  Te189  1  0.66470786  0.32975616  0.51326279  1
  Te2-  Te190  1  0.67539741  0.32985766  0.82197367  1
  Te2-  Te191  1  0.67711264  0.66849233  0.16743312  1
  Te2-  Te192  1  0.67027359  0.66351630  0.49430567  1
  Te2-  Te193  1  0.66223119  0.67244502  0.83573038  1
  Pb2+  Pb194  1  0.83400575  0.49850586  -0.00519924  1
  Pb2+  Pb195  1  0.33498369  0.66241613  0.67059886  1
  Pb2+  Pb196  1  0.33718464  0.00125907  0.33480924  1
  Pb2+  Pb197  1  0.65925278  0.50462202  0.16334481  1
  Pb2+  Pb198  1  0.50225068  0.50001981  0.00027779  1
  Pb2+  Pb199  1  0.50486834  0.16348528  0.00018823  1
  Pb2+  Pb200  1  0.16907670  0.49844480  -0.00914817  1
  Pb2+  Pb201  1  0.50213596  0.49350193  0.66287375  1
  Pb2+  Pb202  1  0.83323180  0.16077521  0.33653724  1
  Pb2+  Pb203  1  0.50499380  0.00344268  0.49874543  1
  Pb2+  Pb204  1  0.16381435  0.66590637  0.16915909  1
  Pb2+  Pb205  1  0.50250219  0.66546415  0.49413812  1
  Pb2+  Pb206  1  0.16457710  0.00109217  0.16491786  1
  Pb2+  Pb207  1  0.66523593  0.33219699  0.34306145  1
  Pb2+  Pb208  1  0.33075986  0.00061062  -0.00170764  1
  Pb2+  Pb209  1  0.49778361  0.33453519  0.82936019  1
  Pb2+  Pb210  1  0.15905687  0.00568942  0.50721916  1
  Pb2+  Pb211  1  0.50385708  0.83745527  0.67096488  1
  Pb2+  Pb212  1  0.00063073  0.82937283  0.82875175  1
  Pb2+  Pb213  1  0.83468385  0.33456268  0.50877131  1
  Pb2+  Pb214  1  0.17258608  0.49988972  0.33785068  1
  Pb2+  Pb215  1  0.83068272  0.50597907  0.33360002  1
