# generated using pymatgen
data_In22Ag21Sn22Bi21(Te54Pb11)2
_symmetry_space_group_name_H-M   'P 1'
_cell_length_a   19.10779191
_cell_length_b   19.13142996
_cell_length_c   19.11350010
_cell_angle_alpha   89.99464027
_cell_angle_beta   89.99543063
_cell_angle_gamma   90.00449498
_symmetry_Int_Tables_number   1
_chemical_formula_structural   In22Ag21Sn22Bi21(Te54Pb11)2
_chemical_formula_sum   'In22 Ag21 Sn22 Bi21 Te108 Pb22'
_cell_volume   6987.11922591
_cell_formula_units_Z   1
loop_
 _symmetry_equiv_pos_site_id
 _symmetry_equiv_pos_as_xyz
  1  'x, y, z'
loop_
 _atom_type_symbol
 _atom_type_oxidation_number
  In3+  3.0
  Ag+  1.0
  Sn2+  2.0
  Bi3+  3.0
  Te2-  -2.0
  Pb2+  2.0
loop_
 _atom_site_type_symbol
 _atom_site_label
 _atom_site_symmetry_multiplicity
 _atom_site_fract_x
 _atom_site_fract_y
 _atom_site_fract_z
 _atom_site_occupancy
  In3+  In0  1  0.48232791  0.81306276  0.32902645  1
  In3+  In1  1  0.33048052  0.01081968  0.66411700  1
  In3+  In2  1  0.00021995  0.48627104  0.16123150  1
  In3+  In3  1  0.67140483  0.65948377  0.67835515  1
  In3+  In4  1  0.16910758  0.64624073  0.84643138  1
  In3+  In5  1  0.83346091  0.02117591  0.86005686  1
  In3+  In6  1  0.82563888  0.49143410  0.68266871  1
  In3+  In7  1  0.81596934  0.18389331  0.32650657  1
  In3+  In8  1  0.66687264  -0.02350235  0.33120530  1
  In3+  In9  1  0.68706283  0.82657473  0.16691468  1
  In3+  In10  1  0.66586521  0.65830637  0.02288349  1
  In3+  In11  1  0.83749271  0.17697308  0.02790500  1
  In3+  In12  1  -0.01818321  0.66836935  0.31882126  1
  In3+  In13  1  0.16474097  0.50198206  0.31567409  1
  In3+  In14  1  0.83021501  0.32296549  0.49323755  1
  In3+  In15  1  0.00405780  -0.00863062  0.00851338  1
  In3+  In16  1  0.00141426  0.33611192  0.32910808  1
  In3+  In17  1  0.49639958  0.00459663  0.84277586  1
  In3+  In18  1  0.81940760  0.49888580  0.33184407  1
  In3+  In19  1  0.66617156  0.81246452  0.49245644  1
  In3+  In20  1  0.82860966  0.65822494  0.49103604  1
  In3+  In21  1  0.48318039  0.18961468  0.33287805  1
  Ag+  Ag22  1  0.83199131  0.35135234  0.86546776  1
  Ag+  Ag23  1  0.15214593  0.80479889  0.33483016  1
  Ag+  Ag24  1  0.19092159  0.48252200  0.01150010  1
  Ag+  Ag25  1  0.85493776  -0.00378724  0.16569916  1
  Ag+  Ag26  1  0.33550951  0.18897145  0.50197848  1
  Ag+  Ag27  1  0.16477935  0.80605629  -0.02213275  1
  Ag+  Ag28  1  0.33530522  0.18607879  0.14418065  1
  Ag+  Ag29  1  0.83125757  0.19406452  0.68541967  1
  Ag+  Ag30  1  0.84795465  0.65181911  0.15273425  1
  Ag+  Ag31  1  0.35954211  0.49329358  0.85459721  1
  Ag+  Ag32  1  0.02004882  0.82236245  0.16598626  1
  Ag+  Ag33  1  0.68549786  0.50143179  0.48594335  1
  Ag+  Ag34  1  0.52194362  0.49540408  0.30923703  1
  Ag+  Ag35  1  0.18553767  0.35772863  0.16498335  1
  Ag+  Ag36  1  0.48195070  0.35393728  0.16672518  1
  Ag+  Ag37  1  0.83191974  0.35280415  0.16560021  1
  Ag+  Ag38  1  0.65508695  0.50134675  0.85600945  1
  Ag+  Ag39  1  0.48551699  0.64881434  0.16568777  1
  Ag+  Ag40  1  0.30768525  0.85443517  0.48386467  1
  Ag+  Ag41  1  0.83137670  0.52248231  0.03181048  1
  Ag+  Ag42  1  0.67871961  0.66948203  0.32657936  1
  Sn2+  Sn43  1  -0.00375841  0.66266696  0.00425952  1
  Sn2+  Sn44  1  0.50793203  0.49893342  0.00352944  1
  Sn2+  Sn45  1  0.16798548  0.33621144  0.48838972  1
  Sn2+  Sn46  1  0.16160146  0.49866110  0.67709347  1
  Sn2+  Sn47  1  0.16703632  0.17458251  0.00875891  1
  Sn2+  Sn48  1  0.16046883  0.33295209  0.84807045  1
  Sn2+  Sn49  1  0.17505798  0.00250730  0.49728095  1
  Sn2+  Sn50  1  0.50571314  0.33924626  0.49434996  1
  Sn2+  Sn51  1  0.16803212  0.66927049  0.50349309  1
  Sn2+  Sn52  1  0.00590931  0.16729113  0.49638749  1
  Sn2+  Sn53  1  0.32956749  0.32822968  0.32551397  1
  Sn2+  Sn54  1  0.00095035  0.33375830  0.66864391  1
  Sn2+  Sn55  1  0.66132218  0.34052004  0.32376937  1
  Sn2+  Sn56  1  0.33040250  0.33295576  -0.00332815  1
  Sn2+  Sn57  1  0.16531497  -0.00308206  0.83748687  1
  Sn2+  Sn58  1  0.65761371  0.16658825  0.16583985  1
  Sn2+  Sn59  1  0.00024080  0.83400649  0.84992520  1
  Sn2+  Sn60  1  0.32277318  -0.00524111  -0.00033654  1
  Sn2+  Sn61  1  -0.00224180  -0.00332008  0.32983913  1
  Sn2+  Sn62  1  0.33737062  0.00026024  0.33440374  1
  Sn2+  Sn63  1  0.33549093  0.66406276  0.00069792  1
  Sn2+  Sn64  1  -0.00628143  -0.00035841  0.66747547  1
  Bi3+  Bi65  1  -0.00208855  0.49943767  0.83724874  1
  Bi3+  Bi66  1  0.66767531  0.33221948  0.00190909  1
  Bi3+  Bi67  1  -0.00037791  0.66557425  0.66219097  1
  Bi3+  Bi68  1  0.50292108  0.66307724  0.49365772  1
  Bi3+  Bi69  1  0.50231305  -0.00227066  0.49691949  1
  Bi3+  Bi70  1  0.66560519  -0.00507828  0.00395009  1
  Bi3+  Bi71  1  0.83337266  0.83029900  0.66626885  1
  Bi3+  Bi72  1  0.33509210  0.66185696  0.33385567  1
  Bi3+  Bi73  1  0.15828879  0.16688432  0.66440053  1
  Bi3+  Bi74  1  0.32838502  0.83651011  0.17013799  1
  Bi3+  Bi75  1  0.50073755  0.83121725  0.66137543  1
  Bi3+  Bi76  1  0.16792120  0.00182860  0.16980126  1
  Bi3+  Bi77  1  0.83449857  0.00056780  0.49163335  1
  Bi3+  Bi78  1  0.66874167  0.82832998  0.83293527  1
  Bi3+  Bi79  1  0.16824796  0.17010480  0.33404296  1
  Bi3+  Bi80  1  0.49743490  -0.00199008  0.17245067  1
  Bi3+  Bi81  1  0.66707665  0.33615105  0.66233690  1
  Bi3+  Bi82  1  0.33303160  0.50237042  0.50179064  1
  Bi3+  Bi83  1  0.33330373  0.66682388  0.66500991  1
  Bi3+  Bi84  1  0.83932123  0.83502804  0.33167357  1
  Bi3+  Bi85  1  0.50326037  0.49934616  0.66148780  1
  Te2-  Te86  1  0.18249557  0.16321944  0.16926206  1
  Te2-  Te87  1  0.17602540  0.17128114  0.50145620  1
  Te2-  Te88  1  0.16581705  0.17026674  0.83007168  1
  Te2-  Te89  1  0.15482665  0.50204640  0.15551414  1
  Te2-  Te90  1  0.16996426  0.49508321  0.50899016  1
  Te2-  Te91  1  0.15922009  0.49111053  0.84458923  1
  Te2-  Te92  1  0.16754585  0.83979288  0.18334598  1
  Te2-  Te93  1  0.16417122  0.83194305  0.48787347  1
  Te2-  Te94  1  0.16420900  0.84070002  0.83338294  1
  Te2-  Te95  1  0.48454893  0.16035554  0.18089203  1
  Te2-  Te96  1  0.49190330  0.16525333  0.48935716  1
  Te2-  Te97  1  0.50047354  0.16489739  0.83210203  1
  Te2-  Te98  1  0.50194895  0.50154875  0.16332951  1
  Te2-  Te99  1  0.49553853  0.50014820  0.49981647  1
  Te2-  Te100  1  0.50631040  0.50246698  0.82775196  1
  Te2-  Te101  1  0.49274692  0.83482576  0.17441692  1
  Te2-  Te102  1  0.50751275  0.82931468  0.49708710  1
  Te2-  Te103  1  0.50443439  0.83594800  0.82977153  1
  Te2-  Te104  1  0.83156110  0.14786090  0.17673296  1
  Te2-  Te105  1  0.83419487  0.16680844  0.48342464  1
  Te2-  Te106  1  0.83461079  0.16723925  0.82966120  1
  Te2-  Te107  1  0.84249897  0.50528051  0.17921382  1
  Te2-  Te108  1  0.83488111  0.50283073  0.48300400  1
  Te2-  Te109  1  0.83583723  0.49663944  0.83201384  1
  Te2-  Te110  1  0.83649509  0.84312320  0.17061383  1
  Te2-  Te111  1  0.82639179  0.83403089  0.49968045  1
  Te2-  Te112  1  0.83094924  0.82879664  0.82903900  1
  Te2-  Te113  1  0.16033224  0.00774974  0.00240659  1
  Te2-  Te114  1  0.16760971  0.00760717  0.33618588  1
  Te2-  Te115  1  0.16626466  0.00460771  0.66630799  1
  Te2-  Te116  1  0.16723447  0.33404610  0.01307442  1
  Te2-  Te117  1  0.15858367  0.33681234  0.31810685  1
  Te2-  Te118  1  0.16078764  0.33009702  0.66818454  1
  Te2-  Te119  1  0.16417504  0.66154855  -0.00310710  1
  Te2-  Te120  1  0.17189752  0.65770395  0.33667722  1
  Te2-  Te121  1  0.16564633  0.66530262  0.66743519  1
  Te2-  Te122  1  0.49901433  -0.00012717  0.00266862  1
  Te2-  Te123  1  0.50539745  -0.01205343  0.33664731  1
  Te2-  Te124  1  0.49954975  -0.00399031  0.66076060  1
  Te2-  Te125  1  0.50483013  0.33507317  0.01326290  1
  Te2-  Te126  1  0.50075063  0.34320454  0.32133672  1
  Te2-  Te127  1  0.50304574  0.33360283  0.66612000  1
  Te2-  Te128  1  0.50694970  0.66390774  0.01258394  1
  Te2-  Te129  1  0.49719543  0.65873672  0.32782676  1
  Te2-  Te130  1  0.50108585  0.66566382  0.66222560  1
  Te2-  Te131  1  0.83203935  -0.00120491  0.01162596  1
  Te2-  Te132  1  0.82832346  -0.00352559  0.33005256  1
  Te2-  Te133  1  0.83542794  -0.00718798  0.65444758  1
  Te2-  Te134  1  0.82893218  0.32776700  0.01106347  1
  Te2-  Te135  1  0.83647450  0.33675762  0.32719655  1
  Te2-  Te136  1  0.83209459  0.33670424  0.64933927  1
  Te2-  Te137  1  0.82340381  0.66817884  0.00739135  1
  Te2-  Te138  1  0.82866655  0.66978062  0.33110879  1
  Te2-  Te139  1  0.83423481  0.66536433  0.65456809  1
  Te2-  Te140  1  -0.00752794  0.16280174  0.00134421  1
  Te2-  Te141  1  0.00643738  0.16832061  0.33425009  1
  Te2-  Te142  1  -0.00756239  0.16712695  0.66163755  1
  Te2-  Te143  1  -0.01872557  0.50423581  0.00539492  1
  Te2-  Te144  1  0.01021288  0.50878299  0.32325009  1
  Te2-  Te145  1  -0.00684457  0.50320109  0.66763370  1
  Te2-  Te146  1  0.01472462  0.83501823  0.00869651  1
  Te2-  Te147  1  0.00354227  0.82454552  0.32384375  1
  Te2-  Te148  1  -0.00221961  0.82978131  0.66930938  1
  Te2-  Te149  1  0.33292231  0.16455467  -0.00296260  1
  Te2-  Te150  1  0.33132439  0.16762363  0.34880070  1
  Te2-  Te151  1  0.32928600  0.16594225  0.65569276  1
  Te2-  Te152  1  0.33638343  0.50493607  -0.00123869  1
  Te2-  Te153  1  0.32063580  0.49789851  0.33679143  1
  Te2-  Te154  1  0.33373995  0.50490663  0.66680852  1
  Te2-  Te155  1  0.31774859  0.83078405  0.00243591  1
  Te2-  Te156  1  0.32979050  0.82964895  0.33795207  1
  Te2-  Te157  1  0.33797162  0.82883050  0.66204669  1
  Te2-  Te158  1  0.67412103  0.16068297  0.00065918  1
  Te2-  Te159  1  0.66442840  0.17415659  0.32679434  1
  Te2-  Te160  1  0.67911351  0.17190389  0.66334146  1
  Te2-  Te161  1  0.67913714  0.50122427  0.00024869  1
  Te2-  Te162  1  0.66586019  0.50683177  0.33697285  1
  Te2-  Te163  1  0.66881822  0.50079484  0.65603906  1
  Te2-  Te164  1  0.66437405  0.83317072  -0.00257644  1
  Te2-  Te165  1  0.67203870  0.82209663  0.33010948  1
  Te2-  Te166  1  0.66677685  0.82591859  0.66715018  1
  Te2-  Te167  1  0.00423613  -0.00100822  0.16553494  1
  Te2-  Te168  1  -0.00092610  0.00081929  0.49502878  1
  Te2-  Te169  1  -0.00955126  -0.00562214  0.83837599  1
  Te2-  Te170  1  -0.01612659  0.33449683  0.17326855  1
  Te2-  Te171  1  -0.00438087  0.33294464  0.48899555  1
  Te2-  Te172  1  -0.01402101  0.33794347  0.83116891  1
  Te2-  Te173  1  -0.00651094  0.67593855  0.16599051  1
  Te2-  Te174  1  -0.00191871  0.66511487  0.49792477  1
  Te2-  Te175  1  0.00836069  0.66495844  0.82880050  1
  Te2-  Te176  1  0.33317018  -0.00137684  0.16745735  1
  Te2-  Te177  1  0.33852800  -0.00451633  0.50474166  1
  Te2-  Te178  1  0.33370602  -0.00061187  0.82950890  1
  Te2-  Te179  1  0.33292387  0.33194722  0.16519218  1
  Te2-  Te180  1  0.33646044  0.33820949  0.49618153  1
  Te2-  Te181  1  0.33225963  0.34573677  0.83843434  1
  Te2-  Te182  1  0.33668663  0.67053442  0.16795808  1
  Te2-  Te183  1  0.33739963  0.66847255  0.49963377  1
  Te2-  Te184  1  0.32636444  0.65734320  0.83101767  1
  Te2-  Te185  1  0.65847909  -0.00634453  0.16687274  1
  Te2-  Te186  1  0.66763266  0.00428104  0.49261958  1
  Te2-  Te187  1  0.67574512  -0.00575230  0.83741150  1
  Te2-  Te188  1  0.68043655  0.32855228  0.16383989  1
  Te2-  Te189  1  0.67228095  0.34591324  0.49636586  1
  Te2-  Te190  1  0.67666310  0.34539296  0.83412604  1
  Te2-  Te191  1  0.66679984  0.67480337  0.17317247  1
  Te2-  Te192  1  0.66789289  0.65737604  0.48727232  1
  Te2-  Te193  1  0.66809458  0.66033243  0.83290824  1
  Pb2+  Pb194  1  0.66399496  0.17521367  0.49382973  1
  Pb2+  Pb195  1  -0.00031575  0.16498015  0.83153868  1
  Pb2+  Pb196  1  0.49967178  0.66721943  0.84038933  1
  Pb2+  Pb197  1  0.50156281  0.16807422  0.01127262  1
  Pb2+  Pb198  1  0.33244059  0.17046074  0.82948253  1
  Pb2+  Pb199  1  0.32906148  0.33786543  0.66626529  1
  Pb2+  Pb200  1  0.00238370  0.49853465  0.49375508  1
  Pb2+  Pb201  1  0.16935558  0.83423249  0.66046465  1
  Pb2+  Pb202  1  0.33188390  0.82875326  0.83095069  1
  Pb2+  Pb203  1  0.67048199  -0.00344106  0.66484721  1
  Pb2+  Pb204  1  0.67012405  0.50060083  0.16711472  1
  Pb2+  Pb205  1  0.00790557  0.16720645  0.16814531  1
  Pb2+  Pb206  1  0.83742041  0.66094181  0.83243344  1
  Pb2+  Pb207  1  0.67034115  0.17549804  0.83162676  1
  Pb2+  Pb208  1  0.50607302  0.33704403  0.84324994  1
  Pb2+  Pb209  1  -0.00187223  0.33566441  0.00024458  1
  Pb2+  Pb210  1  0.84020069  0.83242929  0.00264542  1
  Pb2+  Pb211  1  0.49295036  0.83193502  0.00715965  1
  Pb2+  Pb212  1  0.33195513  0.49908398  0.16726469  1
  Pb2+  Pb213  1  -0.00278085  0.83336983  0.49645775  1
  Pb2+  Pb214  1  0.50454859  0.16400655  0.65965580  1
  Pb2+  Pb215  1  0.16355023  0.67408165  0.16611643  1
