# generated using pymatgen
data_In22Ag21Sn22Bi21(Te54Pb11)2
_symmetry_space_group_name_H-M   'P 1'
_cell_length_a   19.17589989
_cell_length_b   19.12222566
_cell_length_c   19.12529238
_cell_angle_alpha   89.99716286
_cell_angle_beta   90.00271526
_cell_angle_gamma   90.00916625
_symmetry_Int_Tables_number   1
_chemical_formula_structural   In22Ag21Sn22Bi21(Te54Pb11)2
_chemical_formula_sum   'In22 Ag21 Sn22 Bi21 Te108 Pb22'
_cell_volume   7012.97465800
_cell_formula_units_Z   1
loop_
 _symmetry_equiv_pos_site_id
 _symmetry_equiv_pos_as_xyz
  1  'x, y, z'
loop_
 _atom_type_symbol
 _atom_type_oxidation_number
  In3+  3.0
  Ag+  1.0
  Sn2+  2.0
  Bi3+  3.0
  Te2-  -2.0
  Pb2+  2.0
loop_
 _atom_site_type_symbol
 _atom_site_label
 _atom_site_symmetry_multiplicity
 _atom_site_fract_x
 _atom_site_fract_y
 _atom_site_fract_z
 _atom_site_occupancy
  In3+  In0  1  0.66451514  0.32770064  0.66108172  1
  In3+  In1  1  0.32146127  0.32162389  0.66604236  1
  In3+  In2  1  0.84705331  0.32940423  0.49755078  1
  In3+  In3  1  0.83678148  0.17295106  0.34520645  1
  In3+  In4  1  -0.00236313  0.68860377  0.34343351  1
  In3+  In5  1  0.15007498  0.33087782  0.48532154  1
  In3+  In6  1  0.17713533  0.83595444  0.02180146  1
  In3+  In7  1  0.83152550  0.83035663  0.66062038  1
  In3+  In8  1  0.01271661  0.85213663  0.83141840  1
  In3+  In9  1  0.17462474  0.67941394  0.82604984  1
  In3+  In10  1  0.82199815  -0.00305963  0.83062633  1
  In3+  In11  1  0.65750925  0.16689132  0.50212135  1
  In3+  In12  1  0.35597936  0.66778873  0.66476157  1
  In3+  In13  1  0.66738377  0.82848834  0.82228505  1
  In3+  In14  1  0.83144265  0.48725293  0.66653046  1
  In3+  In15  1  0.83731710  0.48773566  0.33215855  1
  In3+  In16  1  0.83382109  0.49112410  0.00876360  1
  In3+  In17  1  0.64803973  -0.00003668  0.66160886  1
  In3+  In18  1  0.48800456  0.83908334  -0.01109940  1
  In3+  In19  1  0.66724435  0.48084457  0.17623811  1
  In3+  In20  1  0.18162968  0.15967601  0.66528720  1
  In3+  In21  1  0.01523552  0.17489861  0.80735746  1
  Ag+  Ag22  1  0.49312794  0.02186518  0.18859505  1
  Ag+  Ag23  1  0.31551112  0.84200660  0.81819785  1
  Ag+  Ag24  1  0.64267552  0.32181523  0.35073122  1
  Ag+  Ag25  1  0.47534313  -0.00032077  0.53601175  1
  Ag+  Ag26  1  0.18395081  -0.02860989  0.49394809  1
  Ag+  Ag27  1  0.47415320  0.01199546  0.83593114  1
  Ag+  Ag28  1  0.65452878  0.63964477  0.64600018  1
  Ag+  Ag29  1  0.35873133  0.52666223  0.50687791  1
  Ag+  Ag30  1  0.35301555  0.02016736  0.66343996  1
  Ag+  Ag31  1  0.02265997  0.32591007  0.65824493  1
  Ag+  Ag32  1  0.85538620  0.33155746  0.19396890  1
  Ag+  Ag33  1  0.02416414  0.16760811  0.49810300  1
  Ag+  Ag34  1  0.19424402  0.32547686  0.18567761  1
  Ag+  Ag35  1  0.36233750  0.19008098  0.83139346  1
  Ag+  Ag36  1  0.47784209  0.29510057  0.80115419  1
  Ag+  Ag37  1  0.51359721  0.18322768  0.65999585  1
  Ag+  Ag38  1  0.19982408  0.86706678  0.36260429  1
  Ag+  Ag39  1  0.30482013  0.64760855  -0.02903800  1
  Ag+  Ag40  1  0.83822032  0.80757193  0.32840252  1
  Ag+  Ag41  1  0.18551833  0.32866309  0.82046907  1
  Ag+  Ag42  1  -0.00969384  0.32830631  0.30537220  1
  Sn2+  Sn43  1  0.16874973  0.65476408  0.16389658  1
  Sn2+  Sn44  1  0.49324194  0.16871675  -0.01230749  1
  Sn2+  Sn45  1  0.82793323  0.66807544  0.50266432  1
  Sn2+  Sn46  1  0.49470207  0.83793883  0.66967691  1
  Sn2+  Sn47  1  0.50696735  0.32784486  0.16463883  1
  Sn2+  Sn48  1  0.66990100  0.66585334  0.33614747  1
  Sn2+  Sn49  1  0.66266034  0.50058402  0.83771832  1
  Sn2+  Sn50  1  0.32551299  0.66070036  0.33069652  1
  Sn2+  Sn51  1  0.17631077  0.00809162  0.82207954  1
  Sn2+  Sn52  1  0.66333957  0.00535336  0.33306981  1
  Sn2+  Sn53  1  0.49790579  0.32730664  0.50007716  1
  Sn2+  Sn54  1  0.50096215  0.66396614  0.83906571  1
  Sn2+  Sn55  1  0.33449937  0.49844526  0.17534291  1
  Sn2+  Sn56  1  0.16214606  0.16439669  0.33586700  1
  Sn2+  Sn57  1  0.00664034  0.33082420  -0.00498102  1
  Sn2+  Sn58  1  0.00079996  0.49383359  0.17345968  1
  Sn2+  Sn59  1  0.50814871  0.83860421  0.32938279  1
  Sn2+  Sn60  1  0.83868087  0.00138475  0.50166025  1
  Sn2+  Sn61  1  0.16296869  0.17021315  -0.00253635  1
  Sn2+  Sn62  1  0.32699590  0.33407889  0.34405234  1
  Sn2+  Sn63  1  0.65766494  -0.00380314  -0.00603298  1
  Sn2+  Sn64  1  0.82374817  0.00682044  0.16858397  1
  Bi3+  Bi65  1  0.66799106  0.16452312  0.16870944  1
  Bi3+  Bi66  1  0.66529214  0.66869834  0.00053338  1
  Bi3+  Bi67  1  0.00115882  0.00030988  0.00006391  1
  Bi3+  Bi68  1  0.82488199  0.33341083  0.83195953  1
  Bi3+  Bi69  1  -0.00382135  0.49271803  0.83374526  1
  Bi3+  Bi70  1  0.83373546  0.67054620  0.83321380  1
  Bi3+  Bi71  1  0.66665330  0.83548706  0.16874372  1
  Bi3+  Bi72  1  0.33706094  0.83305243  0.16710062  1
  Bi3+  Bi73  1  0.50008818  0.66868743  0.16920257  1
  Bi3+  Bi74  1  0.50072913  0.50163484  -0.00094006  1
  Bi3+  Bi75  1  -0.00514370  0.01204246  0.33607433  1
  Bi3+  Bi76  1  0.00131641  0.00596604  0.66575496  1
  Bi3+  Bi77  1  -0.00076041  0.49610442  0.50131735  1
  Bi3+  Bi78  1  0.16173055  0.49713021  0.66929032  1
  Bi3+  Bi79  1  0.66818691  0.84385988  0.49831094  1
  Bi3+  Bi80  1  -0.00024034  0.66767982  0.00006689  1
  Bi3+  Bi81  1  0.33261564  -0.00273873  -0.01178106  1
  Bi3+  Bi82  1  0.33749818  0.16956446  0.50180247  1
  Bi3+  Bi83  1  0.66816522  0.16688533  0.83507053  1
  Bi3+  Bi84  1  0.16124082  0.49931093  0.33257422  1
  Bi3+  Bi85  1  0.83349042  0.16863495  0.00210123  1
  Te2-  Te86  1  0.17027818  0.17527359  0.16707827  1
  Te2-  Te87  1  0.17265226  0.17962774  0.50659731  1
  Te2-  Te88  1  0.16408563  0.17680634  0.82476400  1
  Te2-  Te89  1  0.17005713  0.48723606  0.17159667  1
  Te2-  Te90  1  0.16136221  0.48782925  0.50220968  1
  Te2-  Te91  1  0.15913456  0.48278856  0.83148934  1
  Te2-  Te92  1  0.17236824  0.83178787  0.17350193  1
  Te2-  Te93  1  0.16314277  0.82596084  0.49843839  1
  Te2-  Te94  1  0.16739968  0.83347655  0.83244702  1
  Te2-  Te95  1  0.50360913  0.16581266  0.16096531  1
  Te2-  Te96  1  0.50186193  0.15293230  0.51202227  1
  Te2-  Te97  1  0.50798307  0.15675481  0.82994496  1
  Te2-  Te98  1  0.50534409  0.50181165  0.16495755  1
  Te2-  Te99  1  0.50294492  0.50133109  0.50021369  1
  Te2-  Te100  1  0.49990837  0.50105682  0.83654539  1
  Te2-  Te101  1  0.50098175  0.83053574  0.16197126  1
  Te2-  Te102  1  0.50720178  0.85150604  0.49971945  1
  Te2-  Te103  1  0.51383561  0.82549053  0.83635776  1
  Te2-  Te104  1  0.83029449  0.17771336  0.16417203  1
  Te2-  Te105  1  0.81804846  0.17396602  0.50026932  1
  Te2-  Te106  1  0.83038145  0.16398559  0.83782330  1
  Te2-  Te107  1  0.82930191  0.48502003  0.17243146  1
  Te2-  Te108  1  0.83749207  0.49594858  0.50397738  1
  Te2-  Te109  1  0.83180478  0.50125632  0.82840516  1
  Te2-  Te110  1  0.82815557  0.83677437  0.17663845  1
  Te2-  Te111  1  0.82934592  0.83645490  0.49041459  1
  Te2-  Te112  1  0.82551466  0.83475698  0.83236675  1
  Te2-  Te113  1  0.16600042  -0.00326266  -0.00206469  1
  Te2-  Te114  1  0.15926998  0.00589606  0.34319715  1
  Te2-  Te115  1  0.15883711  0.00662528  0.65251723  1
  Te2-  Te116  1  0.16647701  0.32696277  -0.00412667  1
  Te2-  Te117  1  0.15859466  0.33342106  0.32990930  1
  Te2-  Te118  1  0.16854274  0.33555795  0.67190243  1
  Te2-  Te119  1  0.16207613  0.67325609  -0.00369081  1
  Te2-  Te120  1  0.15513263  0.66165029  0.32859945  1
  Te2-  Te121  1  0.15551656  0.66182714  0.67291443  1
  Te2-  Te122  1  0.49523419  -0.00537294  -0.01320947  1
  Te2-  Te123  1  0.50317086  -0.00077811  0.33265811  1
  Te2-  Te124  1  0.49591771  -0.00721903  0.68268012  1
  Te2-  Te125  1  0.49892106  0.33804044  0.00048535  1
  Te2-  Te126  1  0.49729832  0.33434977  0.33422082  1
  Te2-  Te127  1  0.50912256  0.32970678  0.66162636  1
  Te2-  Te128  1  0.50390403  0.66599624  0.00513176  1
  Te2-  Te129  1  0.50354244  0.66849882  0.33163062  1
  Te2-  Te130  1  0.51130609  0.66717662  0.66900398  1
  Te2-  Te131  1  0.83607932  0.00391113  0.00111244  1
  Te2-  Te132  1  0.83347775  0.01617648  0.32968380  1
  Te2-  Te133  1  0.84062092  -0.00744619  0.67161066  1
  Te2-  Te134  1  0.83309810  0.33254284  -0.00639446  1
  Te2-  Te135  1  0.84187774  0.33209262  0.34111538  1
  Te2-  Te136  1  0.82242865  0.33180707  0.66457740  1
  Te2-  Te137  1  0.83246666  0.66522297  -0.00105294  1
  Te2-  Te138  1  0.84002966  0.65877934  0.33509196  1
  Te2-  Te139  1  0.82240921  0.67584816  0.67093834  1
  Te2-  Te140  1  -0.00227093  0.16148335  -0.00060287  1
  Te2-  Te141  1  -0.00569334  0.17704917  0.34526400  1
  Te2-  Te142  1  -0.00247217  0.17284815  0.65710728  1
  Te2-  Te143  1  -0.00382073  0.50282084  -0.00098826  1
  Te2-  Te144  1  -0.00391446  0.48321252  0.33905358  1
  Te2-  Te145  1  -0.00477066  0.48561556  0.66685983  1
  Te2-  Te146  1  0.00021706  0.83508330  -0.00557500  1
  Te2-  Te147  1  -0.01138009  0.84156861  0.33341975  1
  Te2-  Te148  1  -0.00740103  0.83686217  0.66992718  1
  Te2-  Te149  1  0.33385567  0.16194997  -0.01848428  1
  Te2-  Te150  1  0.33175847  0.16879927  0.33560672  1
  Te2-  Te151  1  0.33302502  0.16646801  0.67587158  1
  Te2-  Te152  1  0.33534560  0.50659351  0.00175395  1
  Te2-  Te153  1  0.32454845  0.49966263  0.34613755  1
  Te2-  Te154  1  0.32657847  0.51508017  0.65553272  1
  Te2-  Te155  1  0.33253260  0.83173653  0.00039400  1
  Te2-  Te156  1  0.33804428  0.83183443  0.33122525  1
  Te2-  Te157  1  0.33421535  0.81960464  0.67296876  1
  Te2-  Te158  1  0.66701510  0.16345770  0.00098544  1
  Te2-  Te159  1  0.67134756  0.17632192  0.33064404  1
  Te2-  Te160  1  0.66052756  0.15940756  0.66886732  1
  Te2-  Te161  1  0.66726908  0.50513830  0.00449171  1
  Te2-  Te162  1  0.67775294  0.49448697  0.33081146  1
  Te2-  Te163  1  0.67236264  0.49607429  0.66860774  1
  Te2-  Te164  1  0.66353430  0.83195038  0.00366950  1
  Te2-  Te165  1  0.67390671  0.83472507  0.33371226  1
  Te2-  Te166  1  0.67097247  0.84468925  0.66403548  1
  Te2-  Te167  1  0.00127086  0.00185337  0.16614608  1
  Te2-  Te168  1  -0.00399199  0.01839700  0.49952082  1
  Te2-  Te169  1  0.00812097  0.01074800  0.83303596  1
  Te2-  Te170  1  -0.00198635  0.33791762  0.15668111  1
  Te2-  Te171  1  -0.00238299  0.32726241  0.51124769  1
  Te2-  Te172  1  -0.01407509  0.32893711  0.82822022  1
  Te2-  Te173  1  0.00151783  0.66156082  0.16222550  1
  Te2-  Te174  1  -0.00531210  0.66283667  0.49795705  1
  Te2-  Te175  1  -0.00453474  0.65757164  0.83730420  1
  Te2-  Te176  1  0.34341684  -0.00158457  0.16024159  1
  Te2-  Te177  1  0.32840577  0.00787160  0.51214917  1
  Te2-  Te178  1  0.32877231  -0.01135445  0.82628841  1
  Te2-  Te179  1  0.33903194  0.33806867  0.17088065  1
  Te2-  Te180  1  0.33713284  0.32891857  0.51037181  1
  Te2-  Te181  1  0.33701242  0.33661173  0.82111103  1
  Te2-  Te182  1  0.33560892  0.66737842  0.17094327  1
  Te2-  Te183  1  0.33420743  0.67116934  0.50068238  1
  Te2-  Te184  1  0.32896706  0.67347841  0.82933668  1
  Te2-  Te185  1  0.65600030  -0.00009823  0.16509926  1
  Te2-  Te186  1  0.67303521  0.00759163  0.50253569  1
  Te2-  Te187  1  0.67097821  -0.00126512  0.82850446  1
  Te2-  Te188  1  0.66675596  0.32959215  0.17331516  1
  Te2-  Te189  1  0.66148007  0.32396393  0.49790476  1
  Te2-  Te190  1  0.66407274  0.33072466  0.82708856  1
  Te2-  Te191  1  0.66628890  0.66913468  0.16852777  1
  Te2-  Te192  1  0.67011205  0.67355555  0.50203020  1
  Te2-  Te193  1  0.67165520  0.66933224  0.83786511  1
  Pb2+  Pb194  1  0.16479781  0.49698163  0.00025850  1
  Pb2+  Pb195  1  0.16707718  0.65735003  0.49938595  1
  Pb2+  Pb196  1  0.00069229  0.17101872  0.17184271  1
  Pb2+  Pb197  1  0.66879396  0.49446506  0.50001897  1
  Pb2+  Pb198  1  0.33795191  0.84082638  0.50728200  1
  Pb2+  Pb199  1  -0.01136876  0.65866139  0.66840672  1
  Pb2+  Pb200  1  0.32766958  0.50479038  0.82797399  1
  Pb2+  Pb201  1  0.33576588  0.16837886  0.15579485  1
  Pb2+  Pb202  1  0.83075066  0.16182024  0.66837324  1
  Pb2+  Pb203  1  0.33238836  0.33657476  -0.00341200  1
  Pb2+  Pb204  1  0.49944150  0.50033117  0.33361537  1
  Pb2+  Pb205  1  0.00095231  0.83123711  0.16644434  1
  Pb2+  Pb206  1  0.66508642  0.33402002  0.00195546  1
  Pb2+  Pb207  1  0.50216016  0.67987200  0.50065887  1
  Pb2+  Pb208  1  0.83077798  0.83592680  0.00263388  1
  Pb2+  Pb209  1  0.17344735  0.00403355  0.16755030  1
  Pb2+  Pb210  1  0.49640331  0.49466314  0.66774673  1
  Pb2+  Pb211  1  0.50264872  0.16664155  0.33938232  1
  Pb2+  Pb212  1  0.16641465  0.83862579  0.66516956  1
  Pb2+  Pb213  1  0.33550370  0.00028711  0.33776866  1
  Pb2+  Pb214  1  -0.00300460  0.84602045  0.50003773  1
  Pb2+  Pb215  1  0.83372267  0.65699787  0.16883043  1
