# generated using pymatgen
data_In22Ag21Sn22Bi21(Te54Pb11)2
_symmetry_space_group_name_H-M   'P 1'
_cell_length_a   19.25497637
_cell_length_b   19.24646103
_cell_length_c   19.21424980
_cell_angle_alpha   90.01616205
_cell_angle_beta   90.02488253
_cell_angle_gamma   89.98810521
_symmetry_Int_Tables_number   1
_chemical_formula_structural   In22Ag21Sn22Bi21(Te54Pb11)2
_chemical_formula_sum   'In22 Ag21 Sn22 Bi21 Te108 Pb22'
_cell_volume   7120.61065354
_cell_formula_units_Z   1
loop_
 _symmetry_equiv_pos_site_id
 _symmetry_equiv_pos_as_xyz
  1  'x, y, z'
loop_
 _atom_type_symbol
 _atom_type_oxidation_number
  In3+  3.0
  Ag+  1.0
  Sn2+  2.0
  Bi3+  3.0
  Te2-  -2.0
  Pb2+  2.0
loop_
 _atom_site_type_symbol
 _atom_site_label
 _atom_site_symmetry_multiplicity
 _atom_site_fract_x
 _atom_site_fract_y
 _atom_site_fract_z
 _atom_site_occupancy
  In3+  In0  1  0.67046603  0.47966303  0.12711117  1
  In3+  In1  1  0.01677653  0.81547891  0.82718445  1
  In3+  In2  1  0.18374323  0.82201651  0.01411121  1
  In3+  In3  1  0.64784598  0.65083855  0.33459506  1
  In3+  In4  1  0.00234550  -0.01383968  -0.01809690  1
  In3+  In5  1  0.14595036  -0.02293732  0.49866683  1
  In3+  In6  1  0.84291889  -0.00197476  0.14806873  1
  In3+  In7  1  0.31392490  0.66298209  0.65129882  1
  In3+  In8  1  0.85276409  0.53030107  -0.00468399  1
  In3+  In9  1  0.49901326  0.83566431  0.67054878  1
  In3+  In10  1  0.50116783  -0.01744815  0.50210696  1
  In3+  In11  1  0.82556447  0.49729989  0.65768913  1
  In3+  In12  1  0.31636859  0.33019789  -0.00193715  1
  In3+  In13  1  0.02118349  0.16591476  0.51087826  1
  In3+  In14  1  -0.01408640  0.33131368  0.34507679  1
  In3+  In15  1  0.32957533  0.15435446  0.51276632  1
  In3+  In16  1  0.66695811  0.51924972  0.50223985  1
  In3+  In17  1  0.83702515  0.67067639  0.50901139  1
  In3+  In18  1  -0.00118826  0.32335848  0.67824279  1
  In3+  In19  1  0.66226171  0.16628748  0.51534182  1
  In3+  In20  1  0.66950745  0.84679439  0.85171814  1
  In3+  In21  1  0.67036409  0.31520671  -0.01065443  1
  Ag+  Ag22  1  0.19328467  0.86139613  0.30837552  1
  Ag+  Ag23  1  0.02759552  0.16468948  0.80965363  1
  Ag+  Ag24  1  0.30667438  -0.04063810  0.64440344  1
  Ag+  Ag25  1  0.69429837  0.52873415  0.82913413  1
  Ag+  Ag26  1  0.20683226  0.69828851  0.15855099  1
  Ag+  Ag27  1  0.63885581  -0.01924306  -0.01105295  1
  Ag+  Ag28  1  0.29696854  0.86156054  0.19587002  1
  Ag+  Ag29  1  0.49643780  0.13547054  0.64680866  1
  Ag+  Ag30  1  0.29903962  -0.02047821  0.02448772  1
  Ag+  Ag31  1  0.18895569  0.69809852  0.45889570  1
  Ag+  Ag32  1  0.69052417  0.35703865  0.36548117  1
  Ag+  Ag33  1  0.68349888  0.18418127  0.80943808  1
  Ag+  Ag34  1  0.19728181  -0.03351619  0.13976119  1
  Ag+  Ag35  1  0.31418293  0.68913422  0.00251822  1
  Ag+  Ag36  1  0.02320582  0.68880851  -0.02399346  1
  Ag+  Ag37  1  0.83090885  0.86366357  0.68959972  1
  Ag+  Ag38  1  0.85781452  0.83381807  -0.01970415  1
  Ag+  Ag39  1  0.29504189  0.70356662  0.28001092  1
  Ag+  Ag40  1  0.19268891  0.85877993  0.66649550  1
  Ag+  Ag41  1  0.02587713  0.52283568  0.51883922  1
  Ag+  Ag42  1  0.46914376  0.68793074  0.50416669  1
  Sn2+  Sn43  1  0.33847349  0.50045532  0.50339453  1
  Sn2+  Sn44  1  0.83436130  0.32603806  0.50448727  1
  Sn2+  Sn45  1  0.66424556  0.66796753  0.00441629  1
  Sn2+  Sn46  1  0.49985579  0.32673423  0.83252321  1
  Sn2+  Sn47  1  0.49571601  0.00240662  0.83527522  1
  Sn2+  Sn48  1  0.82603254  0.33026673  0.83391212  1
  Sn2+  Sn49  1  0.66637454  0.33380982  0.66446658  1
  Sn2+  Sn50  1  0.81779351  0.17240706  0.67409214  1
  Sn2+  Sn51  1  0.17181504  0.50644618  0.00541772  1
  Sn2+  Sn52  1  0.16376146  0.51158693  0.33203601  1
  Sn2+  Sn53  1  0.16054657  0.32903190  0.83385173  1
  Sn2+  Sn54  1  0.83466462  0.00114175  0.83023262  1
  Sn2+  Sn55  1  -0.00871569  0.32925780  0.00359613  1
  Sn2+  Sn56  1  0.49663781  0.83427263  -0.00547122  1
  Sn2+  Sn57  1  0.16347853  0.16451068  0.00683140  1
  Sn2+  Sn58  1  0.67014743  0.00179812  0.32131446  1
  Sn2+  Sn59  1  0.16542756  0.34508480  0.49272422  1
  Sn2+  Sn60  1  0.49850600  0.66144137  0.82890711  1
  Sn2+  Sn61  1  0.00068052  0.66273864  0.32801377  1
  Sn2+  Sn62  1  0.50094673  0.16622214  0.34453438  1
  Sn2+  Sn63  1  -0.01127628  0.82987952  0.16883403  1
  Sn2+  Sn64  1  0.82204219  -0.00222498  0.50109323  1
  Bi3+  Bi65  1  0.83797308  0.83301435  0.33467389  1
  Bi3+  Bi66  1  0.83423465  0.33266903  0.16411478  1
  Bi3+  Bi67  1  0.66445995  0.83224491  0.16842437  1
  Bi3+  Bi68  1  -0.00447322  0.82661370  0.50532411  1
  Bi3+  Bi69  1  0.50403623  0.50506455  0.66828847  1
  Bi3+  Bi70  1  0.50084716  0.16575729  -0.00113103  1
  Bi3+  Bi71  1  -0.00051852  0.16490417  0.16684917  1
  Bi3+  Bi72  1  0.66958155  0.83609458  0.50181718  1
  Bi3+  Bi73  1  0.66661990  0.16392486  0.16392907  1
  Bi3+  Bi74  1  0.33421383  0.33854396  0.33591968  1
  Bi3+  Bi75  1  0.16281238  0.49756265  0.66638829  1
  Bi3+  Bi76  1  0.49874403  0.33373682  0.50064496  1
  Bi3+  Bi77  1  0.34122848  0.16527056  0.83040777  1
  Bi3+  Bi78  1  -0.00481487  0.49943191  0.17143790  1
  Bi3+  Bi79  1  0.16439223  0.33075170  0.16838507  1
  Bi3+  Bi80  1  0.50731053  0.66347531  0.17232454  1
  Bi3+  Bi81  1  0.49574477  0.49723340  0.33843986  1
  Bi3+  Bi82  1  0.50411527  0.50054158  -0.00253962  1
  Bi3+  Bi83  1  0.33366208  0.50314335  0.84003102  1
  Bi3+  Bi84  1  -0.00169740  0.66024310  0.66679651  1
  Bi3+  Bi85  1  0.83544803  0.66825754  0.17045668  1
  Te2-  Te86  1  0.16236302  0.16649294  0.16749832  1
  Te2-  Te87  1  0.17236665  0.17376955  0.50265508  1
  Te2-  Te88  1  0.17399880  0.17013304  0.83771974  1
  Te2-  Te89  1  0.15871319  0.49344446  0.16398591  1
  Te2-  Te90  1  0.16834840  0.50012972  0.50425132  1
  Te2-  Te91  1  0.16896214  0.49587099  0.83564509  1
  Te2-  Te92  1  0.14952261  0.83269223  0.16781798  1
  Te2-  Te93  1  0.15506306  0.82489734  0.52006301  1
  Te2-  Te94  1  0.16516104  0.83444783  0.81328057  1
  Te2-  Te95  1  0.50318952  0.16463476  0.16593191  1
  Te2-  Te96  1  0.50450036  0.17264830  0.50270144  1
  Te2-  Te97  1  0.50054936  0.16881957  0.83983127  1
  Te2-  Te98  1  0.51025476  0.50210611  0.16923586  1
  Te2-  Te99  1  0.50967616  0.49621167  0.50378473  1
  Te2-  Te100  1  0.49439327  0.49614239  0.83223065  1
  Te2-  Te101  1  0.50406726  0.82712376  0.16485289  1
  Te2-  Te102  1  0.50423739  0.82922675  0.50759836  1
  Te2-  Te103  1  0.50946192  0.83032528  0.82463595  1
  Te2-  Te104  1  0.83418119  0.16731491  0.16706002  1
  Te2-  Te105  1  0.81781972  0.16548452  0.50589598  1
  Te2-  Te106  1  0.82559134  0.16669301  0.83165525  1
  Te2-  Te107  1  0.83002766  0.49933914  0.16056536  1
  Te2-  Te108  1  0.81904153  0.49469679  0.50548003  1
  Te2-  Te109  1  0.83640887  0.49738733  0.84620610  1
  Te2-  Te110  1  0.82859958  0.83473179  0.17100158  1
  Te2-  Te111  1  0.83523991  0.83080136  0.49905824  1
  Te2-  Te112  1  0.82032276  0.83819345  0.83603030  1
  Te2-  Te113  1  0.15637676  -0.00070040  -0.00132142  1
  Te2-  Te114  1  0.16738947  -0.00186456  0.34938003  1
  Te2-  Te115  1  0.16743699  0.00552533  0.65079351  1
  Te2-  Te116  1  0.16114443  0.33522312  0.00503578  1
  Te2-  Te117  1  0.17219658  0.33672795  0.33020001  1
  Te2-  Te118  1  0.15914699  0.33706454  0.66452592  1
  Te2-  Te119  1  0.16401498  0.67136675  0.01371344  1
  Te2-  Te120  1  0.16073841  0.66307354  0.32224160  1
  Te2-  Te121  1  0.16033986  0.65715259  0.67049565  1
  Te2-  Te122  1  0.49537247  0.00279508  -0.00400198  1
  Te2-  Te123  1  0.50272397  -0.00081667  0.34297324  1
  Te2-  Te124  1  0.49889118  -0.01036988  0.66147872  1
  Te2-  Te125  1  0.51388644  0.33684881  0.00017847  1
  Te2-  Te126  1  0.49754220  0.33522162  0.33614316  1
  Te2-  Te127  1  0.50157285  0.34416133  0.66490510  1
  Te2-  Te128  1  0.50759952  0.66106351  0.00367199  1
  Te2-  Te129  1  0.49639918  0.65860053  0.34762366  1
  Te2-  Te130  1  0.49363098  0.66377406  0.65566955  1
  Te2-  Te131  1  0.84633522  -0.01365133  -0.00304960  1
  Te2-  Te132  1  0.83236632  -0.00371572  0.33786578  1
  Te2-  Te133  1  0.83199889  0.00965416  0.66539084  1
  Te2-  Te134  1  0.82602432  0.33072329  0.00383736  1
  Te2-  Te135  1  0.83014801  0.33509397  0.32998917  1
  Te2-  Te136  1  0.83918873  0.33969701  0.66711996  1
  Te2-  Te137  1  0.83116423  0.68133159  0.00602568  1
  Te2-  Te138  1  0.83323407  0.67012435  0.33368080  1
  Te2-  Te139  1  0.83425511  0.65148721  0.66604917  1
  Te2-  Te140  1  -0.00052449  0.17073750  0.00638875  1
  Te2-  Te141  1  -0.00361157  0.17109117  0.33255478  1
  Te2-  Te142  1  -0.00151991  0.17016167  0.66345330  1
  Te2-  Te143  1  -0.00035802  0.49799826  0.00484579  1
  Te2-  Te144  1  -0.00235489  0.49028835  0.33561918  1
  Te2-  Te145  1  -0.00204583  0.49448529  0.66086953  1
  Te2-  Te146  1  0.00390234  0.83262421  -0.01538973  1
  Te2-  Te147  1  -0.00141629  0.83035904  0.34202724  1
  Te2-  Te148  1  -0.02109363  0.82440439  0.67525547  1
  Te2-  Te149  1  0.33664285  0.17609310  -0.00493660  1
  Te2-  Te150  1  0.33616844  0.17418772  0.33987161  1
  Te2-  Te151  1  0.34842749  0.16872841  0.66499978  1
  Te2-  Te152  1  0.33992915  0.48716149  0.00095854  1
  Te2-  Te153  1  0.33417207  0.50099538  0.33637658  1
  Te2-  Te154  1  0.33225002  0.50610584  0.67448560  1
  Te2-  Te155  1  0.33283999  0.84077471  0.00261946  1
  Te2-  Te156  1  0.33495174  0.82972877  0.33580379  1
  Te2-  Te157  1  0.33828421  0.81811518  0.66976567  1
  Te2-  Te158  1  0.66372877  0.16338262  0.00345563  1
  Te2-  Te159  1  0.66151023  0.16044797  0.32454701  1
  Te2-  Te160  1  0.64881788  0.16367129  0.66890265  1
  Te2-  Te161  1  0.66346174  0.50377934  -0.02095394  1
  Te2-  Te162  1  0.66179993  0.49631214  0.34084610  1
  Te2-  Te163  1  0.66846214  0.49977776  0.67967928  1
  Te2-  Te164  1  0.65932365  0.83594860  0.00534973  1
  Te2-  Te165  1  0.67313263  0.83587079  0.33536453  1
  Te2-  Te166  1  0.68485257  0.83292122  0.65886085  1
  Te2-  Te167  1  -0.00468405  0.00227354  0.16246037  1
  Te2-  Te168  1  -0.00535281  0.00321325  0.50178795  1
  Te2-  Te169  1  0.00046177  0.01838194  0.83435092  1
  Te2-  Te170  1  -0.00137444  0.33353263  0.17107193  1
  Te2-  Te171  1  -0.00282817  0.32020533  0.49700455  1
  Te2-  Te172  1  0.00056808  0.31599876  0.83212611  1
  Te2-  Te173  1  -0.00712120  0.65996766  0.16715501  1
  Te2-  Te174  1  -0.00820214  0.66340820  0.50232856  1
  Te2-  Te175  1  -0.00185872  0.66141715  0.83404627  1
  Te2-  Te176  1  0.33760485  0.00129501  0.16751136  1
  Te2-  Te177  1  0.34577215  0.00298639  0.50861202  1
  Te2-  Te178  1  0.33689920  0.00499336  0.82402180  1
  Te2-  Te179  1  0.32966433  0.33482892  0.16773147  1
  Te2-  Te180  1  0.33561085  0.33495995  0.49925345  1
  Te2-  Te181  1  0.33074255  0.33530715  0.83739113  1
  Te2-  Te182  1  0.35073265  0.66556898  0.14873837  1
  Te2-  Te183  1  0.32512496  0.66004322  0.50038391  1
  Te2-  Te184  1  0.33840264  0.66438718  0.85630105  1
  Te2-  Te185  1  0.67853513  -0.00328885  0.15564553  1
  Te2-  Te186  1  0.66014209  -0.00004581  0.49792970  1
  Te2-  Te187  1  0.66669573  -0.00379114  0.84454282  1
  Te2-  Te188  1  0.67335102  0.32910318  0.16783293  1
  Te2-  Te189  1  0.66304682  0.32099769  0.50309306  1
  Te2-  Te190  1  0.66823832  0.32769000  0.83384682  1
  Te2-  Te191  1  0.67132592  0.66890366  0.17540068  1
  Te2-  Te192  1  0.67410916  0.67144106  0.49521750  1
  Te2-  Te193  1  0.65989760  0.67120956  0.83445985  1
  Pb2+  Pb194  1  0.33092065  0.50453332  0.17096960  1
  Pb2+  Pb195  1  0.32447625  0.83264330  0.50069165  1
  Pb2+  Pb196  1  0.16570875  0.16741476  0.33531627  1
  Pb2+  Pb197  1  0.82743896  0.16595945  0.33946778  1
  Pb2+  Pb198  1  0.33461046  0.00374594  0.33748565  1
  Pb2+  Pb199  1  0.17141978  -0.00142896  0.82924838  1
  Pb2+  Pb200  1  0.50963806  -0.00424715  0.16445286  1
  Pb2+  Pb201  1  0.33223429  0.16659645  0.16444869  1
  Pb2+  Pb202  1  0.66386998  -0.00412730  0.67715030  1
  Pb2+  Pb203  1  0.17453866  0.66723604  0.83837789  1
  Pb2+  Pb204  1  0.82727652  0.67202870  0.83647434  1
  Pb2+  Pb205  1  0.83398357  0.15855054  -0.00278699  1
  Pb2+  Pb206  1  -0.00003300  0.48680282  0.83002338  1
  Pb2+  Pb207  1  -0.00106251  -0.00868613  0.67089341  1
  Pb2+  Pb208  1  0.33549249  0.33512119  0.66822400  1
  Pb2+  Pb209  1  0.50471449  0.33259011  0.16636840  1
  Pb2+  Pb210  1  0.00080217  -0.00296022  0.32685036  1
  Pb2+  Pb211  1  0.83293186  0.50525724  0.33560486  1
  Pb2+  Pb212  1  0.33856044  0.83758429  0.83689099  1
  Pb2+  Pb213  1  0.17547932  0.16982412  0.67088256  1
  Pb2+  Pb214  1  0.65911590  0.67120901  0.66748049  1
  Pb2+  Pb215  1  0.50446873  0.82859138  0.33184132  1
