# generated using pymatgen
data_In22Ag21Sn22Bi21(Te54Pb11)2
_symmetry_space_group_name_H-M   'P 1'
_cell_length_a   19.15169217
_cell_length_b   19.14622425
_cell_length_c   19.13328655
_cell_angle_alpha   90.01525839
_cell_angle_beta   90.01359784
_cell_angle_gamma   90.00429290
_symmetry_Int_Tables_number   1
_chemical_formula_structural   In22Ag21Sn22Bi21(Te54Pb11)2
_chemical_formula_sum   'In22 Ag21 Sn22 Bi21 Te108 Pb22'
_cell_volume   7015.84265994
_cell_formula_units_Z   1
loop_
 _symmetry_equiv_pos_site_id
 _symmetry_equiv_pos_as_xyz
  1  'x, y, z'
loop_
 _atom_type_symbol
 _atom_type_oxidation_number
  In3+  3.0
  Ag+  1.0
  Sn2+  2.0
  Bi3+  3.0
  Te2-  -2.0
  Pb2+  2.0
loop_
 _atom_site_type_symbol
 _atom_site_label
 _atom_site_symmetry_multiplicity
 _atom_site_fract_x
 _atom_site_fract_y
 _atom_site_fract_z
 _atom_site_occupancy
  In3+  In0  1  0.82688851  0.68878777  0.50023866  1
  In3+  In1  1  0.66852419  0.00791067  0.34545534  1
  In3+  In2  1  0.31645984  0.00428899  0.68364834  1
  In3+  In3  1  0.49535824  0.00634984  0.50329301  1
  In3+  In4  1  0.01757975  0.00062691  -0.00713782  1
  In3+  In5  1  0.48650588  0.84217871  0.33869928  1
  In3+  In6  1  0.17469523  0.30130859  0.16719704  1
  In3+  In7  1  0.50105129  0.01113990  0.16181045  1
  In3+  In8  1  0.66736819  0.83972835  0.19562167  1
  In3+  In9  1  0.01795146  0.83223014  0.51387662  1
  In3+  In10  1  0.01870769  0.84467727  0.82928221  1
  In3+  In11  1  0.49373934  0.33222801  0.19254759  1
  In3+  In12  1  0.66327897  0.66322153  0.65431502  1
  In3+  In13  1  0.34444309  0.31955957  -0.02106884  1
  In3+  In14  1  0.33707693  0.30929779  0.34131270  1
  In3+  In15  1  0.17201148  0.48699095  0.66373892  1
  In3+  In16  1  0.82725333  0.66739512  0.17896998  1
  In3+  In17  1  0.83371423  0.83260629  0.35465091  1
  In3+  In18  1  0.49312578  0.66052719  0.81354748  1
  In3+  In19  1  0.00367386  0.18118173  0.50610444  1
  In3+  In20  1  -0.00492356  0.30894432  -0.00122756  1
  In3+  In21  1  0.82000993  0.16849114  -0.00298199  1
  Ag+  Ag22  1  0.02406025  0.32817593  0.63949676  1
  Ag+  Ag23  1  0.64737540  0.68924407  0.35433922  1
  Ag+  Ag24  1  0.86364261  0.01993032  0.47245073  1
  Ag+  Ag25  1  0.66393988  0.52747763  0.86141189  1
  Ag+  Ag26  1  0.49921070  0.13995676  0.33744279  1
  Ag+  Ag27  1  0.49553193  0.02701317  0.80317780  1
  Ag+  Ag28  1  0.36128571  0.85471780  0.85257177  1
  Ag+  Ag29  1  0.31154146  -0.00657382  0.34549424  1
  Ag+  Ag30  1  0.13737224  0.33007855  0.52781663  1
  Ag+  Ag31  1  0.85148495  0.01619508  0.82795609  1
  Ag+  Ag32  1  0.51169480  0.30717340  0.50277723  1
  Ag+  Ag33  1  0.66343667  0.85623788  0.50214173  1
  Ag+  Ag34  1  0.30440374  0.47665864  0.85900814  1
  Ag+  Ag35  1  0.14216289  -0.00001156  0.18692545  1
  Ag+  Ag36  1  0.83545558  0.35564159  0.85265168  1
  Ag+  Ag37  1  0.29998376  0.13935135  0.82040850  1
  Ag+  Ag38  1  0.18788431  0.83908043  0.64723810  1
  Ag+  Ag39  1  0.53027016  0.68584816  0.48543311  1
  Ag+  Ag40  1  0.15997989  0.18431508  -0.01082589  1
  Ag+  Ag41  1  0.63882932  0.34599876  -0.03179675  1
  Ag+  Ag42  1  0.19788337  0.02150394  0.83096094  1
  Sn2+  Sn43  1  0.66387254  0.83668278  0.82885243  1
  Sn2+  Sn44  1  0.67058246  0.16164989  0.49704852  1
  Sn2+  Sn45  1  0.00656143  0.16379681  0.17113755  1
  Sn2+  Sn46  1  -0.00011128  0.16898474  0.83377187  1
  Sn2+  Sn47  1  -0.00481077  0.49277817  0.83175548  1
  Sn2+  Sn48  1  0.32492269  0.00498677  0.00541145  1
  Sn2+  Sn49  1  0.67147247  0.00331464  -0.00423636  1
  Sn2+  Sn50  1  0.16603861  0.48999603  -0.00217044  1
  Sn2+  Sn51  1  0.17724540  0.16175808  0.33058905  1
  Sn2+  Sn52  1  0.82235156  0.32788820  0.51329270  1
  Sn2+  Sn53  1  0.00872110  0.49389186  0.16229081  1
  Sn2+  Sn54  1  0.82260149  0.66754972  0.83071131  1
  Sn2+  Sn55  1  0.00508944  0.65877300  0.67239173  1
  Sn2+  Sn56  1  0.82863495  0.33530135  0.16551871  1
  Sn2+  Sn57  1  0.15746791  0.83572319  0.32888463  1
  Sn2+  Sn58  1  0.66419151  0.33620987  0.32923177  1
  Sn2+  Sn59  1  -0.00143294  0.00440862  0.33311958  1
  Sn2+  Sn60  1  0.33826950  0.33690597  0.65948394  1
  Sn2+  Sn61  1  0.82930863  0.49602154  0.33671670  1
  Sn2+  Sn62  1  0.49575997  0.15918225  -0.00177736  1
  Sn2+  Sn63  1  0.34118106  0.67255882  0.33478820  1
  Sn2+  Sn64  1  0.49669355  0.83055670  0.66803540  1
  Bi3+  Bi65  1  0.82762910  0.83592548  -0.00481906  1
  Bi3+  Bi66  1  0.16614033  0.66990657  0.83127854  1
  Bi3+  Bi67  1  0.83772013  0.49823582  0.66779629  1
  Bi3+  Bi68  1  0.50456531  0.83486211  0.00160155  1
  Bi3+  Bi69  1  0.33883621  0.16792910  0.16232429  1
  Bi3+  Bi70  1  0.33411487  0.49827588  0.16539419  1
  Bi3+  Bi71  1  -0.00052255  0.67124054  -0.00300791  1
  Bi3+  Bi72  1  0.49937548  0.50165504  0.33637080  1
  Bi3+  Bi73  1  0.49899729  0.49880791  0.66135019  1
  Bi3+  Bi74  1  0.33379886  0.49854912  0.49917770  1
  Bi3+  Bi75  1  0.66941616  0.49833056  0.16685436  1
  Bi3+  Bi76  1  0.34234818  0.83423205  0.50020335  1
  Bi3+  Bi77  1  0.66417487  0.49186480  0.49609720  1
  Bi3+  Bi78  1  0.50322075  0.66511159  0.17316925  1
  Bi3+  Bi79  1  0.66686477  0.16258953  0.83524530  1
  Bi3+  Bi80  1  0.82532098  0.83101632  0.67230864  1
  Bi3+  Bi81  1  -0.00008797  0.66991979  0.33293842  1
  Bi3+  Bi82  1  0.66820355  0.16816108  0.16691890  1
  Bi3+  Bi83  1  0.33171212  0.67319091  0.66401700  1
  Bi3+  Bi84  1  0.66557388  -0.00749773  0.67112419  1
  Bi3+  Bi85  1  0.16751456  0.83319144  -0.00117645  1
  Te2-  Te86  1  0.17433073  0.14831963  0.16481511  1
  Te2-  Te87  1  0.16004949  0.17896272  0.49810256  1
  Te2-  Te88  1  0.15783420  0.16441677  0.84261962  1
  Te2-  Te89  1  0.17231410  0.50548002  0.16486228  1
  Te2-  Te90  1  0.16887983  0.48363760  0.50481243  1
  Te2-  Te91  1  0.16549980  0.50621491  0.82419335  1
  Te2-  Te92  1  0.16707343  0.84948193  0.16380970  1
  Te2-  Te93  1  0.17175866  0.83544963  0.49805495  1
  Te2-  Te94  1  0.16804120  0.82848700  0.83817354  1
  Te2-  Te95  1  0.50242769  0.16991454  0.17185821  1
  Te2-  Te96  1  0.49930093  0.16048315  0.48826857  1
  Te2-  Te97  1  0.50471204  0.17020402  0.83758173  1
  Te2-  Te98  1  0.49998234  0.49903305  0.16965575  1
  Te2-  Te99  1  0.49860633  0.50571851  0.49890443  1
  Te2-  Te100  1  0.51668984  0.50559568  0.82354247  1
  Te2-  Te101  1  0.51077404  0.82707878  0.17185474  1
  Te2-  Te102  1  0.50526570  0.83098224  0.49268505  1
  Te2-  Te103  1  0.50185149  0.81810173  0.83791139  1
  Te2-  Te104  1  0.83176648  0.16811441  0.16113679  1
  Te2-  Te105  1  0.84160658  0.16129373  0.49969736  1
  Te2-  Te106  1  0.83326059  0.16097843  0.84350790  1
  Te2-  Te107  1  0.83243884  0.50119674  0.16921039  1
  Te2-  Te108  1  0.82811544  0.49527477  0.50228025  1
  Te2-  Te109  1  0.82356280  0.50261967  0.82875732  1
  Te2-  Te110  1  0.82240587  0.82896012  0.15962539  1
  Te2-  Te111  1  0.81766549  0.84014279  0.50631500  1
  Te2-  Te112  1  0.82882084  0.82842727  0.83438110  1
  Te2-  Te113  1  0.16870548  -0.00776542  -0.01770742  1
  Te2-  Te114  1  0.16559695  0.00240099  0.33374574  1
  Te2-  Te115  1  0.16665265  -0.01240798  0.67923380  1
  Te2-  Te116  1  0.15818841  0.33132825  0.01192466  1
  Te2-  Te117  1  0.17401851  0.32636380  0.31982960  1
  Te2-  Te118  1  0.16954114  0.33351012  0.67310638  1
  Te2-  Te119  1  0.16477942  0.66709018  -0.00217455  1
  Te2-  Te120  1  0.16476580  0.67089797  0.33476759  1
  Te2-  Te121  1  0.16576427  0.68628798  0.66900422  1
  Te2-  Te122  1  0.50012436  -0.00411537  0.00643445  1
  Te2-  Te123  1  0.51582950  -0.00770046  0.32922603  1
  Te2-  Te124  1  0.50273985  -0.00543106  0.65794992  1
  Te2-  Te125  1  0.49676964  0.32971637  -0.00159553  1
  Te2-  Te126  1  0.49425051  0.33922237  0.34830749  1
  Te2-  Te127  1  0.49750173  0.33430948  0.65356907  1
  Te2-  Te128  1  0.50252602  0.66880688  0.00905246  1
  Te2-  Te129  1  0.50203960  0.66945862  0.33626900  1
  Te2-  Te130  1  0.49829530  0.66343090  0.65426380  1
  Te2-  Te131  1  0.82954522  -0.00049915  -0.01217658  1
  Te2-  Te132  1  0.82526497  -0.00683319  0.33327652  1
  Te2-  Te133  1  0.82683050  -0.00480977  0.67862539  1
  Te2-  Te134  1  0.84228250  0.32427859  -0.00099028  1
  Te2-  Te135  1  0.83179968  0.33301555  0.33311195  1
  Te2-  Te136  1  0.83845851  0.33655832  0.66761904  1
  Te2-  Te137  1  0.83686401  0.66923333  -0.00030404  1
  Te2-  Te138  1  0.83854087  0.66914415  0.33669041  1
  Te2-  Te139  1  0.83480180  0.66361323  0.66119537  1
  Te2-  Te140  1  0.01255914  0.15687453  0.00512494  1
  Te2-  Te141  1  0.00177390  0.16217208  0.33297484  1
  Te2-  Te142  1  0.00009977  0.17707321  0.66220235  1
  Te2-  Te143  1  0.00378237  0.50840350  0.00061105  1
  Te2-  Te144  1  -0.00037231  0.50508813  0.33147614  1
  Te2-  Te145  1  0.00265655  0.49007020  0.66828131  1
  Te2-  Te146  1  -0.00407084  0.83466128  -0.00379260  1
  Te2-  Te147  1  -0.00861346  0.83327030  0.33534454  1
  Te2-  Te148  1  -0.01198469  0.82868614  0.66581426  1
  Te2-  Te149  1  0.32639106  0.17186126  -0.00048417  1
  Te2-  Te150  1  0.34595757  0.15782525  0.32764853  1
  Te2-  Te151  1  0.33238451  0.15927281  0.67494538  1
  Te2-  Te152  1  0.33184241  0.49420226  0.00222576  1
  Te2-  Te153  1  0.33612040  0.50474896  0.33208508  1
  Te2-  Te154  1  0.33290663  0.50615033  0.66209248  1
  Te2-  Te155  1  0.33739694  0.83479543  -0.00315466  1
  Te2-  Te156  1  0.33275745  0.84378883  0.33434309  1
  Te2-  Te157  1  0.33602905  0.83830722  0.66195503  1
  Te2-  Te158  1  0.66583494  0.17176730  0.00528652  1
  Te2-  Te159  1  0.65599869  0.16414401  0.32884216  1
  Te2-  Te160  1  0.66586876  0.15981891  0.66478396  1
  Te2-  Te161  1  0.66914712  0.48814746  0.00340902  1
  Te2-  Te162  1  0.66317605  0.50041511  0.33112983  1
  Te2-  Te163  1  0.66756058  0.50588087  0.65839833  1
  Te2-  Te164  1  0.66544575  0.83498142  -0.00049366  1
  Te2-  Te165  1  0.67814221  0.83156322  0.34545799  1
  Te2-  Te166  1  0.66360633  0.82598694  0.65426335  1
  Te2-  Te167  1  -0.00382774  0.00251931  0.16395968  1
  Te2-  Te168  1  0.00201713  -0.01477952  0.50031738  1
  Te2-  Te169  1  -0.00308922  -0.00321682  0.83797897  1
  Te2-  Te170  1  0.00073340  0.33349566  0.15764472  1
  Te2-  Te171  1  -0.00704187  0.33331751  0.49364250  1
  Te2-  Te172  1  -0.01056517  0.33351899  0.84554144  1
  Te2-  Te173  1  -0.00517719  0.66634939  0.16650803  1
  Te2-  Te174  1  -0.00521568  0.67576678  0.49877520  1
  Te2-  Te175  1  -0.00103697  0.66253072  0.83438964  1
  Te2-  Te176  1  0.34761750  0.00601466  0.16802098  1
  Te2-  Te177  1  0.34070220  -0.00245875  0.49053736  1
  Te2-  Te178  1  0.34725859  -0.00088803  0.83070284  1
  Te2-  Te179  1  0.33147403  0.33437771  0.16904427  1
  Te2-  Te180  1  0.33261506  0.33631708  0.49515557  1
  Te2-  Te181  1  0.33347162  0.33715768  0.83045668  1
  Te2-  Te182  1  0.33653575  0.66565190  0.16709279  1
  Te2-  Te183  1  0.33072127  0.66888715  0.50004284  1
  Te2-  Te184  1  0.33730768  0.66472452  0.82489773  1
  Te2-  Te185  1  0.66058392  0.00239300  0.16564093  1
  Te2-  Te186  1  0.66093066  0.00409172  0.50179292  1
  Te2-  Te187  1  0.64431928  0.00071256  0.83025937  1
  Te2-  Te188  1  0.66418537  0.33332883  0.16790730  1
  Te2-  Te189  1  0.66049271  0.32834023  0.49760683  1
  Te2-  Te190  1  0.68408228  0.32154559  0.83245629  1
  Te2-  Te191  1  0.66971723  0.66183018  0.17233026  1
  Te2-  Te192  1  0.67407545  0.65679168  0.49632439  1
  Te2-  Te193  1  0.66257144  0.66931131  0.82822955  1
  Pb2+  Pb194  1  0.33549965  0.66676343  -0.00912751  1
  Pb2+  Pb195  1  0.66922183  0.66631030  0.00210065  1
  Pb2+  Pb196  1  0.16424195  0.65770497  0.50491687  1
  Pb2+  Pb197  1  0.83734149  0.49511418  -0.00199478  1
  Pb2+  Pb198  1  0.49914914  0.16440972  0.66586692  1
  Pb2+  Pb199  1  -0.00540442  0.83476080  0.16706999  1
  Pb2+  Pb200  1  0.82826296  -0.00131153  0.15736914  1
  Pb2+  Pb201  1  0.50928530  0.33637228  0.82936946  1
  Pb2+  Pb202  1  -0.00444418  0.50502855  0.50155017  1
  Pb2+  Pb203  1  -0.00595511  0.00052078  0.66764306  1
  Pb2+  Pb204  1  0.16192896  0.33355308  0.84257381  1
  Pb2+  Pb205  1  0.83313725  0.16681946  0.67244359  1
  Pb2+  Pb206  1  0.82910660  0.16591026  0.33282483  1
  Pb2+  Pb207  1  0.33889315  0.83978702  0.16310533  1
  Pb2+  Pb208  1  0.16910400  0.00706492  0.50546317  1
  Pb2+  Pb209  1  0.00267944  0.33232965  0.32515713  1
  Pb2+  Pb210  1  0.67166103  0.33558468  0.67045091  1
  Pb2+  Pb211  1  0.16466049  0.16114203  0.67157229  1
  Pb2+  Pb212  1  0.33200146  0.16816116  0.50255018  1
  Pb2+  Pb213  1  0.16922504  0.49550470  0.33127319  1
  Pb2+  Pb214  1  0.49980181  0.49829028  -0.00570153  1
  Pb2+  Pb215  1  0.16378311  0.67681586  0.16763593  1
