# generated using pymatgen
data_In22Ag21Sn22Bi21(Te54Pb11)2
_symmetry_space_group_name_H-M   'P 1'
_cell_length_a   19.16767187
_cell_length_b   19.15805061
_cell_length_c   19.15601271
_cell_angle_alpha   90.01428281
_cell_angle_beta   89.99379743
_cell_angle_gamma   90.01916415
_symmetry_Int_Tables_number   1
_chemical_formula_structural   In22Ag21Sn22Bi21(Te54Pb11)2
_chemical_formula_sum   'In22 Ag21 Sn22 Bi21 Te108 Pb22'
_cell_volume   7034.37891917
_cell_formula_units_Z   1
loop_
 _symmetry_equiv_pos_site_id
 _symmetry_equiv_pos_as_xyz
  1  'x, y, z'
loop_
 _atom_type_symbol
 _atom_type_oxidation_number
  In3+  3.0
  Ag+  1.0
  Sn2+  2.0
  Bi3+  3.0
  Te2-  -2.0
  Pb2+  2.0
loop_
 _atom_site_type_symbol
 _atom_site_label
 _atom_site_symmetry_multiplicity
 _atom_site_fract_x
 _atom_site_fract_y
 _atom_site_fract_z
 _atom_site_occupancy
  In3+  In0  1  0.33675811  0.83722163  0.16589156  1
  In3+  In1  1  0.49722379  0.00273123  0.81131808  1
  In3+  In2  1  0.67395012  0.33889570  0.33517080  1
  In3+  In3  1  0.50275356  0.83612960  0.66040972  1
  In3+  In4  1  -0.01555612  0.00040495  0.33464402  1
  In3+  In5  1  0.67447876  0.83548201  0.16284776  1
  In3+  In6  1  0.19419011  0.33091634  0.84715525  1
  In3+  In7  1  0.83568714  0.15414747  0.33794904  1
  In3+  In8  1  0.16851552  0.83502057  0.68059097  1
  In3+  In9  1  0.33121815  0.83153112  0.51088465  1
  In3+  In10  1  0.49476810  0.49692913  0.66930852  1
  In3+  In11  1  0.49267289  0.82823678  -0.01625228  1
  In3+  In12  1  0.50171329  0.50385019  0.34516398  1
  In3+  In13  1  0.66445989  0.33066041  0.68012649  1
  In3+  In14  1  0.67037628  0.15238901  0.82501491  1
  In3+  In15  1  0.16757656  0.15178339  0.34303479  1
  In3+  In16  1  0.35005297  0.34300170  -0.00009515  1
  In3+  In17  1  -0.01115206  0.67212905  -0.00259095  1
  In3+  In18  1  -0.00456293  0.33849289  -0.00303997  1
  In3+  In19  1  0.00577380  0.15397389  0.16441944  1
  In3+  In20  1  0.83183262  0.33666679  0.50703800  1
  In3+  In21  1  0.19423336  0.66650584  0.15766908  1
  Ag+  Ag22  1  0.65834022  0.49683077  0.52318151  1
  Ag+  Ag23  1  0.36246658  0.47079463  0.50287756  1
  Ag+  Ag24  1  0.48860360  0.30079751  0.80839383  1
  Ag+  Ag25  1  0.64502245  0.31819066  -0.02349820  1
  Ag+  Ag26  1  0.30126985  0.03002703  0.69900603  1
  Ag+  Ag27  1  -0.02410646  0.69548300  0.64106786  1
  Ag+  Ag28  1  0.14710814  0.69803607  0.80821859  1
  Ag+  Ag29  1  0.86453070  -0.03151794  0.52173258  1
  Ag+  Ag30  1  0.31517083  0.49835719  0.14250043  1
  Ag+  Ag31  1  0.30564875  0.68408379  -0.02686968  1
  Ag+  Ag32  1  0.33724622  0.84822401  0.81072238  1
  Ag+  Ag33  1  0.69419289  -0.02570890  0.67490230  1
  Ag+  Ag34  1  0.87283011  0.68060415  0.79782701  1
  Ag+  Ag35  1  0.52206478  0.65392795  0.52085493  1
  Ag+  Ag36  1  0.30761277  0.14061746  0.82965040  1
  Ag+  Ag37  1  0.17148106  0.19134762  0.68283099  1
  Ag+  Ag38  1  0.80457449  0.47792644  0.33864843  1
  Ag+  Ag39  1  0.64458139  0.69463585  -0.01991910  1
  Ag+  Ag40  1  0.80770985  0.83971856  0.35683089  1
  Ag+  Ag41  1  0.79971381  0.86314075  0.69304626  1
  Ag+  Ag42  1  0.19162026  0.02672559  0.16263311  1
  Sn2+  Sn43  1  -0.00085126  0.50340627  0.17047428  1
  Sn2+  Sn44  1  0.17787355  0.66278892  0.50481131  1
  Sn2+  Sn45  1  -0.00312852  0.16608379  0.82963989  1
  Sn2+  Sn46  1  -0.00923872  0.50015293  0.50150884  1
  Sn2+  Sn47  1  0.00114643  0.83060173  0.17099791  1
  Sn2+  Sn48  1  -0.00514089  0.82898467  0.49907767  1
  Sn2+  Sn49  1  0.49025847  0.16286183  -0.00508949  1
  Sn2+  Sn50  1  0.16772929  -0.00461357  0.49091951  1
  Sn2+  Sn51  1  0.49916755  0.82690784  0.33546150  1
  Sn2+  Sn52  1  0.00761649  -0.00057939  -0.00031816  1
  Sn2+  Sn53  1  0.83965005  0.15890298  0.66194474  1
  Sn2+  Sn54  1  -0.00264982  0.67076746  0.33159914  1
  Sn2+  Sn55  1  0.01058473  -0.00580502  0.66547708  1
  Sn2+  Sn56  1  0.16822613  0.33684954  0.50329947  1
  Sn2+  Sn57  1  0.82934667  0.50035488  0.00668593  1
  Sn2+  Sn58  1  0.16625971  0.50742457  0.66747345  1
  Sn2+  Sn59  1  0.00056327  0.33534677  0.67079359  1
  Sn2+  Sn60  1  0.66781807  0.00324666  0.35434444  1
  Sn2+  Sn61  1  0.50255164  0.66571295  0.16901632  1
  Sn2+  Sn62  1  0.66446536  0.00846271  -0.00313881  1
  Sn2+  Sn63  1  0.66359045  0.82820808  0.83793597  1
  Sn2+  Sn64  1  0.32909828  0.34176274  0.32930602  1
  Bi3+  Bi65  1  0.33280038  0.66386946  0.33753530  1
  Bi3+  Bi66  1  0.16841041  0.83344546  0.33353548  1
  Bi3+  Bi67  1  0.49876600  0.66725456  0.83177770  1
  Bi3+  Bi68  1  0.33249132  0.00166209  0.33433608  1
  Bi3+  Bi69  1  0.83130794  0.16528234  -0.00086473  1
  Bi3+  Bi70  1  0.66582216  0.66841577  0.33001515  1
  Bi3+  Bi71  1  0.83306726  0.66331112  0.49241374  1
  Bi3+  Bi72  1  0.50377017  -0.00456117  0.16590952  1
  Bi3+  Bi73  1  0.33558063  0.50184237  0.82779548  1
  Bi3+  Bi74  1  0.83701367  0.49893598  0.66286252  1
  Bi3+  Bi75  1  0.66911340  0.50305487  0.16585495  1
  Bi3+  Bi76  1  0.33324244  0.66679238  0.66847943  1
  Bi3+  Bi77  1  0.83343391  0.66676417  0.16903726  1
  Bi3+  Bi78  1  0.50167831  0.33653910  0.17067848  1
  Bi3+  Bi79  1  0.83376439  0.33617062  0.16840909  1
  Bi3+  Bi80  1  0.66751909  0.17170186  0.50125323  1
  Bi3+  Bi81  1  0.83298801  0.00115091  0.16771801  1
  Bi3+  Bi82  1  -0.00157037  0.49637922  0.83376346  1
  Bi3+  Bi83  1  0.17031808  0.50101460  0.34120541  1
  Bi3+  Bi84  1  0.66931735  0.50375320  0.83766537  1
  Bi3+  Bi85  1  0.50204317  -0.00417320  0.49734889  1
  Te2-  Te86  1  0.16040901  0.17067128  0.16807741  1
  Te2-  Te87  1  0.16345126  0.16374695  0.49507528  1
  Te2-  Te88  1  0.16434794  0.17650764  0.82905629  1
  Te2-  Te89  1  0.16937021  0.50714690  0.17555416  1
  Te2-  Te90  1  0.16102191  0.49853265  0.50216978  1
  Te2-  Te91  1  0.17016895  0.48628794  0.83120777  1
  Te2-  Te92  1  0.17304418  0.82118373  0.17205514  1
  Te2-  Te93  1  0.17102790  0.83424604  0.49364857  1
  Te2-  Te94  1  0.18322417  0.83725637  0.83474358  1
  Te2-  Te95  1  0.50087504  0.16668020  0.16346202  1
  Te2-  Te96  1  0.50312632  0.16410551  0.49989447  1
  Te2-  Te97  1  0.51373708  0.15927703  0.83448131  1
  Te2-  Te98  1  0.50822134  0.49741041  0.17280910  1
  Te2-  Te99  1  0.50774058  0.50762791  0.50474710  1
  Te2-  Te100  1  0.50331794  0.50351651  0.82847414  1
  Te2-  Te101  1  0.49793075  0.83456661  0.17008213  1
  Te2-  Te102  1  0.49664492  0.83393293  0.50234300  1
  Te2-  Te103  1  0.49047368  0.83272164  0.83104485  1
  Te2-  Te104  1  0.83850853  0.16684455  0.16748697  1
  Te2-  Te105  1  0.82717212  0.17262891  0.49728832  1
  Te2-  Te106  1  0.82718954  0.16715838  0.83371332  1
  Te2-  Te107  1  0.83238676  0.50064519  0.18241437  1
  Te2-  Te108  1  0.82982622  0.49694008  0.48997283  1
  Te2-  Te109  1  0.83446185  0.51127736  0.83218649  1
  Te2-  Te110  1  0.83166105  0.83654539  0.16568415  1
  Te2-  Te111  1  0.83477759  0.82779911  0.50130572  1
  Te2-  Te112  1  0.83236300  0.82090909  0.82848833  1
  Te2-  Te113  1  0.16660776  -0.00214300  0.01349173  1
  Te2-  Te114  1  0.17209397  0.00022747  0.31594793  1
  Te2-  Te115  1  0.16641906  -0.00875344  0.66294095  1
  Te2-  Te116  1  0.15561444  0.33150692  -0.00288487  1
  Te2-  Te117  1  0.16787673  0.33698186  0.33597623  1
  Te2-  Te118  1  0.15835403  0.33556962  0.66071753  1
  Te2-  Te119  1  0.16620344  0.66322178  0.00936142  1
  Te2-  Te120  1  0.16904995  0.66731059  0.33689157  1
  Te2-  Te121  1  0.17072953  0.67189496  0.66657903  1
  Te2-  Te122  1  0.50625012  -0.00697543  0.00519930  1
  Te2-  Te123  1  0.49774380  -0.00109433  0.33174274  1
  Te2-  Te124  1  0.48802017  -0.00845958  0.65986512  1
  Te2-  Te125  1  0.50390749  0.33168434  0.00917969  1
  Te2-  Te126  1  0.49540891  0.33672405  0.33227433  1
  Te2-  Te127  1  0.50627763  0.33704638  0.66750330  1
  Te2-  Te128  1  0.50118513  0.67375072  -0.00168942  1
  Te2-  Te129  1  0.49868836  0.66439808  0.33656143  1
  Te2-  Te130  1  0.49727442  0.67128822  0.66558524  1
  Te2-  Te131  1  0.83157989  0.00171828  0.00241645  1
  Te2-  Te132  1  0.83185764  -0.01027329  0.33142635  1
  Te2-  Te133  1  0.84015673  0.00110649  0.66252155  1
  Te2-  Te134  1  0.83675230  0.32973946  0.00604180  1
  Te2-  Te135  1  0.83136188  0.33203715  0.33041407  1
  Te2-  Te136  1  0.83113617  0.33521859  0.66362030  1
  Te2-  Te137  1  0.83499633  0.66186514  0.00763644  1
  Te2-  Te138  1  0.83076092  0.68628995  0.33177178  1
  Te2-  Te139  1  0.83530533  0.66043868  0.65762591  1
  Te2-  Te140  1  -0.00702118  0.16304577  0.00135152  1
  Te2-  Te141  1  0.00383368  0.16078317  0.32689916  1
  Te2-  Te142  1  0.00544835  0.16385040  0.67107042  1
  Te2-  Te143  1  -0.00386244  0.49621401  -0.00037681  1
  Te2-  Te144  1  0.00807642  0.50410535  0.33222473  1
  Te2-  Te145  1  -0.00214852  0.50255357  0.67206336  1
  Te2-  Te146  1  0.00006314  0.82886810  0.00067075  1
  Te2-  Te147  1  0.00740123  0.84072354  0.33079790  1
  Te2-  Te148  1  0.01287306  0.83376445  0.66527480  1
  Te2-  Te149  1  0.33443100  0.16875023  -0.01491215  1
  Te2-  Te150  1  0.32641688  0.16691470  0.32904969  1
  Te2-  Te151  1  0.32430261  0.17138237  0.67890280  1
  Te2-  Te152  1  0.33557161  0.49591689  -0.00574835  1
  Te2-  Te153  1  0.33567046  0.50127173  0.35454287  1
  Te2-  Te154  1  0.33706959  0.50275875  0.65557708  1
  Te2-  Te155  1  0.34092019  0.82096594  0.01330087  1
  Te2-  Te156  1  0.33203150  0.83213931  0.32360319  1
  Te2-  Te157  1  0.32760395  0.83066622  0.66561939  1
  Te2-  Te158  1  0.66929282  0.17100629  -0.00845654  1
  Te2-  Te159  1  0.67137436  0.16833838  0.33718760  1
  Te2-  Te160  1  0.66874095  0.17565521  0.66571161  1
  Te2-  Te161  1  0.67087459  0.49234875  0.00193398  1
  Te2-  Te162  1  0.65984427  0.50368144  0.33001509  1
  Te2-  Te163  1  0.67208943  0.49197559  0.66935426  1
  Te2-  Te164  1  0.66052576  0.83864441  0.00248224  1
  Te2-  Te165  1  0.66160212  0.83269620  0.32793052  1
  Te2-  Te166  1  0.65793738  0.83080806  0.66763485  1
  Te2-  Te167  1  -0.00587411  -0.00052880  0.16819575  1
  Te2-  Te168  1  0.00257156  -0.00055840  0.48997899  1
  Te2-  Te169  1  0.00008147  -0.00174067  0.83781304  1
  Te2-  Te170  1  -0.00476334  0.33614972  0.16133186  1
  Te2-  Te171  1  -0.00770033  0.33383264  0.50109040  1
  Te2-  Te172  1  -0.00600946  0.33430100  0.83822008  1
  Te2-  Te173  1  -0.00531611  0.66637703  0.16385436  1
  Te2-  Te174  1  -0.00099509  0.66457682  0.49875632  1
  Te2-  Te175  1  0.01042005  0.65843391  0.84501802  1
  Te2-  Te176  1  0.33875640  0.00293931  0.16889425  1
  Te2-  Te177  1  0.33534216  -0.00761868  0.49494704  1
  Te2-  Te178  1  0.34553608  -0.00402617  0.83475185  1
  Te2-  Te179  1  0.33646158  0.34622013  0.16002246  1
  Te2-  Te180  1  0.33190245  0.32724400  0.49923541  1
  Te2-  Te181  1  0.34905111  0.33904529  0.84071911  1
  Te2-  Te182  1  0.34185041  0.64489106  0.17617393  1
  Te2-  Te183  1  0.33785545  0.67606854  0.50134936  1
  Te2-  Te184  1  0.33599515  0.66009371  0.83170854  1
  Te2-  Te185  1  0.66749209  -0.00262635  0.17123161  1
  Te2-  Te186  1  0.66338932  0.00634744  0.51101418  1
  Te2-  Te187  1  0.65906670  -0.00281776  0.82110478  1
  Te2-  Te188  1  0.66923060  0.33634468  0.17452346  1
  Te2-  Te189  1  0.67285896  0.34313853  0.49069095  1
  Te2-  Te190  1  0.65882282  0.34250416  0.83375834  1
  Te2-  Te191  1  0.66989096  0.66922097  0.16601167  1
  Te2-  Te192  1  0.66732398  0.65764418  0.49372731  1
  Te2-  Te193  1  0.66363169  0.66731222  0.83742771  1
  Pb2+  Pb194  1  0.00286206  0.82807386  0.83044156  1
  Pb2+  Pb195  1  0.82917565  0.82791641  -0.00239357  1
  Pb2+  Pb196  1  0.66820340  0.66136865  0.66823324  1
  Pb2+  Pb197  1  0.32833785  0.33545604  0.66937482  1
  Pb2+  Pb198  1  0.82976732  -0.00729764  0.83261502  1
  Pb2+  Pb199  1  0.16924544  0.83019736  0.00279631  1
  Pb2+  Pb200  1  0.33303622  0.17615773  0.15646141  1
  Pb2+  Pb201  1  0.32866715  0.15890150  0.50848847  1
  Pb2+  Pb202  1  0.82611623  0.34262619  0.83615690  1
  Pb2+  Pb203  1  0.16475105  0.16389317  -0.00196453  1
  Pb2+  Pb204  1  -0.00116362  0.33565239  0.33296091  1
  Pb2+  Pb205  1  0.16627633  0.50002506  -0.00003779  1
  Pb2+  Pb206  1  0.67033023  0.16698687  0.16189177  1
  Pb2+  Pb207  1  0.16726803  0.00411359  0.83267107  1
  Pb2+  Pb208  1  0.50451390  0.34091719  0.50009415  1
  Pb2+  Pb209  1  0.66766605  0.83299411  0.49763293  1
  Pb2+  Pb210  1  -0.00377066  0.16643664  0.50213495  1
  Pb2+  Pb211  1  0.33728740  -0.00522341  0.00059330  1
  Pb2+  Pb212  1  0.50033819  0.16805510  0.33184251  1
  Pb2+  Pb213  1  0.16469250  0.33886366  0.16871143  1
  Pb2+  Pb214  1  0.49558927  0.16140021  0.66733718  1
  Pb2+  Pb215  1  0.50442139  0.50562500  0.00227056  1
