# generated using pymatgen
data_In22Ag21Sn22Bi21(Te54Pb11)2
_symmetry_space_group_name_H-M   'P 1'
_cell_length_a   19.13254847
_cell_length_b   19.14652466
_cell_length_c   19.11674708
_cell_angle_alpha   89.99398986
_cell_angle_beta   90.01307319
_cell_angle_gamma   89.99826590
_symmetry_Int_Tables_number   1
_chemical_formula_structural   In22Ag21Sn22Bi21(Te54Pb11)2
_chemical_formula_sum   'In22 Ag21 Sn22 Bi21 Te108 Pb22'
_cell_volume   7002.88118722
_cell_formula_units_Z   1
loop_
 _symmetry_equiv_pos_site_id
 _symmetry_equiv_pos_as_xyz
  1  'x, y, z'
loop_
 _atom_type_symbol
 _atom_type_oxidation_number
  In3+  3.0
  Ag+  1.0
  Sn2+  2.0
  Bi3+  3.0
  Te2-  -2.0
  Pb2+  2.0
loop_
 _atom_site_type_symbol
 _atom_site_label
 _atom_site_symmetry_multiplicity
 _atom_site_fract_x
 _atom_site_fract_y
 _atom_site_fract_z
 _atom_site_occupancy
  In3+  In0  1  0.30707331  0.01091486  0.33113986  1
  In3+  In1  1  0.33928330  0.34196096  0.66314424  1
  In3+  In2  1  0.49336446  -0.00008682  0.83466254  1
  In3+  In3  1  0.17121201  0.83297462  -0.01534908  1
  In3+  In4  1  0.83111569  0.17577253  0.33563491  1
  In3+  In5  1  0.65347329  0.67219362  0.67722489  1
  In3+  In6  1  0.00228652  0.65095583  0.33769416  1
  In3+  In7  1  0.01642457  0.00498011  0.67761704  1
  In3+  In8  1  0.01904377  -0.00212279  -0.00562210  1
  In3+  In9  1  0.01309562  0.35390378  -0.00137044  1
  In3+  In10  1  0.01009711  0.83459049  0.17535946  1
  In3+  In11  1  0.16208185  0.50615922  0.68866443  1
  In3+  In12  1  0.17360970  0.49669599  0.35044375  1
  In3+  In13  1  0.83703763  0.01005641  0.50290677  1
  In3+  In14  1  0.32978590  0.17916302  0.16470849  1
  In3+  In15  1  0.82873290  -0.01965714  0.83692691  1
  In3+  In16  1  0.49515836  0.65476116  0.49808187  1
  In3+  In17  1  0.84352974  0.50673723  0.66494413  1
  In3+  In18  1  0.86271313  0.83091353  0.33425738  1
  In3+  In19  1  0.31118675  0.17364467  0.83738947  1
  In3+  In20  1  0.16931043  0.67563937  0.82968081  1
  In3+  In21  1  0.49083126  0.48758205  0.33804693  1
  Ag+  Ag22  1  -0.00274820  -0.00162443  0.36150942  1
  Ag+  Ag23  1  0.17046864  0.18098027  -0.00193829  1
  Ag+  Ag24  1  0.01309617  0.13485424  0.47007006  1
  Ag+  Ag25  1  0.33225495  0.31064582  0.35813904  1
  Ag+  Ag26  1  0.16830713  0.85184709  0.31202682  1
  Ag+  Ag27  1  0.51973846  0.51841180  0.03201692  1
  Ag+  Ag28  1  0.01448617  0.47548145  0.47857289  1
  Ag+  Ag29  1  0.52818386  0.80527280  -0.02114884  1
  Ag+  Ag30  1  0.19832876  0.47680678  -0.00668736  1
  Ag+  Ag31  1  0.81107613  0.65499911  0.85580326  1
  Ag+  Ag32  1  0.64434869  0.82881084  0.84705787  1
  Ag+  Ag33  1  0.18976824  0.01344620  0.83529507  1
  Ag+  Ag34  1  0.31494141  0.34594528  -0.00441604  1
  Ag+  Ag35  1  0.51968633  0.49623206  0.68179656  1
  Ag+  Ag36  1  0.80469594  0.49817959  0.33461820  1
  Ag+  Ag37  1  0.17110703  0.85922661  0.65009001  1
  Ag+  Ag38  1  0.63290817  0.69869389  0.02061353  1
  Ag+  Ag39  1  0.18017885  0.19051350  0.63761439  1
  Ag+  Ag40  1  0.35330633  0.64003562  0.66605759  1
  Ag+  Ag41  1  0.69175229  -0.02917175  0.67028219  1
  Ag+  Ag42  1  0.49039425  0.35368585  0.49852993  1
  Sn2+  Sn43  1  0.84679018  0.16439013  -0.00051747  1
  Sn2+  Sn44  1  0.16630882  0.67105004  0.50426864  1
  Sn2+  Sn45  1  0.83549053  0.00366479  0.17560679  1
  Sn2+  Sn46  1  0.48939198  0.83843197  0.32664415  1
  Sn2+  Sn47  1  0.32797552  0.16907495  0.51180224  1
  Sn2+  Sn48  1  0.67323318  0.16322892  0.50709283  1
  Sn2+  Sn49  1  0.49429889  0.17097834  0.66371491  1
  Sn2+  Sn50  1  0.82155633  0.50056457  0.00405890  1
  Sn2+  Sn51  1  -0.00138551  0.66960271  -0.00130176  1
  Sn2+  Sn52  1  0.15962290  0.16744856  0.32984601  1
  Sn2+  Sn53  1  0.49490327  0.33506090  0.16829545  1
  Sn2+  Sn54  1  0.00366856  0.82838361  0.50316931  1
  Sn2+  Sn55  1  0.16988291  0.66079837  0.16858684  1
  Sn2+  Sn56  1  -0.00183347  0.50588375  0.82915532  1
  Sn2+  Sn57  1  0.49035446  0.83414756  0.66817617  1
  Sn2+  Sn58  1  0.33671610  0.00766919  0.00374875  1
  Sn2+  Sn59  1  0.00152793  0.32431008  0.66400770  1
  Sn2+  Sn60  1  0.67626316  0.49947286  0.50053066  1
  Sn2+  Sn61  1  0.66623334  0.14789380  0.82876814  1
  Sn2+  Sn62  1  0.33395700  0.83499542  0.50352518  1
  Sn2+  Sn63  1  0.67045979  0.66831011  0.33310081  1
  Sn2+  Sn64  1  0.49307836  0.17065404  -0.00469762  1
  Bi3+  Bi65  1  -0.00260552  0.16454684  0.83533095  1
  Bi3+  Bi66  1  0.50265357  -0.00241416  0.50358161  1
  Bi3+  Bi67  1  0.82968258  0.33588596  0.49908336  1
  Bi3+  Bi68  1  0.66212734  0.33568938  0.66261661  1
  Bi3+  Bi69  1  0.33113844  0.49923868  0.15814236  1
  Bi3+  Bi70  1  0.33394043  0.00083548  0.66541530  1
  Bi3+  Bi71  1  0.00035983  0.83005918  0.83396935  1
  Bi3+  Bi72  1  0.32781030  0.67237578  0.34202549  1
  Bi3+  Bi73  1  0.83288284  0.33566237  0.16874114  1
  Bi3+  Bi74  1  0.33432145  0.83206481  0.83107052  1
  Bi3+  Bi75  1  0.66432118  0.00401637  -0.01020983  1
  Bi3+  Bi76  1  0.49937393  0.00118773  0.16591022  1
  Bi3+  Bi77  1  0.00133618  0.66926682  0.66527302  1
  Bi3+  Bi78  1  0.83716247  0.16888159  0.66645213  1
  Bi3+  Bi79  1  0.66471116  0.50574529  0.82832225  1
  Bi3+  Bi80  1  0.33303631  0.49743471  0.83295906  1
  Bi3+  Bi81  1  0.66484746  0.82964821  0.50072197  1
  Bi3+  Bi82  1  0.00226661  0.16241386  0.16344110  1
  Bi3+  Bi83  1  0.83175669  0.66593471  0.49743427  1
  Bi3+  Bi84  1  0.66634009  0.33321879  -0.00297406  1
  Bi3+  Bi85  1  0.66505933  0.83496611  0.16742046  1
  Te2-  Te86  1  0.16907379  0.16551218  0.15975173  1
  Te2-  Te87  1  0.15743548  0.16396302  0.49546991  1
  Te2-  Te88  1  0.16012429  0.15897230  0.84587521  1
  Te2-  Te89  1  0.17083994  0.50391553  0.14208771  1
  Te2-  Te90  1  0.15935529  0.50173966  0.50272125  1
  Te2-  Te91  1  0.16911878  0.50206290  0.84467254  1
  Te2-  Te92  1  0.16203344  0.83169100  0.16568030  1
  Te2-  Te93  1  0.16457434  0.83065357  0.50639457  1
  Te2-  Te94  1  0.16569018  0.83073656  0.83121573  1
  Te2-  Te95  1  0.49039127  0.16489261  0.16720053  1
  Te2-  Te96  1  0.50119237  0.15807862  0.50488824  1
  Te2-  Te97  1  0.50267398  0.15888693  0.82878426  1
  Te2-  Te98  1  0.49563930  0.49739348  0.17513379  1
  Te2-  Te99  1  0.50038698  0.50057562  0.49354220  1
  Te2-  Te100  1  0.49615027  0.49915304  0.82607492  1
  Te2-  Te101  1  0.50126787  0.83935799  0.15840151  1
  Te2-  Te102  1  0.50093069  0.83594546  0.50118346  1
  Te2-  Te103  1  0.49720086  0.83843786  0.83711309  1
  Te2-  Te104  1  0.83579113  0.16976603  0.17096519  1
  Te2-  Te105  1  0.84156664  0.16940344  0.50008797  1
  Te2-  Te106  1  0.83543440  0.16846513  0.82930777  1
  Te2-  Te107  1  0.83506402  0.49738134  0.18039588  1
  Te2-  Te108  1  0.83529546  0.50064876  0.48976225  1
  Te2-  Te109  1  0.82815354  0.50961543  0.82690422  1
  Te2-  Te110  1  0.82849826  0.83819955  0.17697742  1
  Te2-  Te111  1  0.82921468  0.83120657  0.49227034  1
  Te2-  Te112  1  0.83896701  0.82804358  0.82920085  1
  Te2-  Te113  1  0.17169885  -0.00881244  -0.01260006  1
  Te2-  Te114  1  0.15674384  -0.00069577  0.33412763  1
  Te2-  Te115  1  0.16921008  0.00444407  0.68110040  1
  Te2-  Te116  1  0.16402883  0.33018789  -0.00017049  1
  Te2-  Te117  1  0.18167049  0.33877065  0.33423254  1
  Te2-  Te118  1  0.16852559  0.33441518  0.66663547  1
  Te2-  Te119  1  0.15869640  0.67586016  -0.00606542  1
  Te2-  Te120  1  0.16562538  0.65819495  0.33658425  1
  Te2-  Te121  1  0.16029847  0.65931287  0.67189253  1
  Te2-  Te122  1  0.50326740  0.00494751  -0.00042199  1
  Te2-  Te123  1  0.50285224  -0.00126077  0.33441448  1
  Te2-  Te124  1  0.49562388  0.00058888  0.66888526  1
  Te2-  Te125  1  0.50792840  0.32648614  0.00231498  1
  Te2-  Te126  1  0.48536316  0.33397891  0.34152521  1
  Te2-  Te127  1  0.49693594  0.34315869  0.65531033  1
  Te2-  Te128  1  0.49254194  0.66066636  0.00062041  1
  Te2-  Te129  1  0.49217950  0.67351808  0.34215141  1
  Te2-  Te130  1  0.49925810  0.66050215  0.65544426  1
  Te2-  Te131  1  0.82578367  0.00443951  -0.00348902  1
  Te2-  Te132  1  0.84392166  -0.00557784  0.34342439  1
  Te2-  Te133  1  0.83431888  0.00607868  0.66067282  1
  Te2-  Te134  1  0.82893579  0.33220692  0.00610149  1
  Te2-  Te135  1  0.83230933  0.34317093  0.33443256  1
  Te2-  Te136  1  0.83022746  0.33791075  0.66202643  1
  Te2-  Te137  1  0.83749943  0.66199702  -0.00044456  1
  Te2-  Te138  1  0.84360177  0.66411616  0.33573442  1
  Te2-  Te139  1  0.83926064  0.66325347  0.65948623  1
  Te2-  Te140  1  0.00808419  0.15731149  0.00128459  1
  Te2-  Te141  1  -0.00272045  0.15684337  0.32557965  1
  Te2-  Te142  1  0.00033951  0.16284959  0.67292145  1
  Te2-  Te143  1  -0.01029059  0.50269976  -0.00408157  1
  Te2-  Te144  1  0.01579207  0.49791148  0.33227441  1
  Te2-  Te145  1  0.00002702  0.49912367  0.66932622  1
  Te2-  Te146  1  0.00443382  0.83790044  -0.00005065  1
  Te2-  Te147  1  0.01266661  0.84558078  0.33062733  1
  Te2-  Te148  1  0.01092205  0.83639791  0.67082008  1
  Te2-  Te149  1  0.32392732  0.16425195  -0.00712567  1
  Te2-  Te150  1  0.32691818  0.16478126  0.33362565  1
  Te2-  Te151  1  0.32287674  0.16538978  0.67378426  1
  Te2-  Te152  1  0.34518601  0.49300354  -0.00507327  1
  Te2-  Te153  1  0.33179987  0.50855688  0.32525100  1
  Te2-  Te154  1  0.32027658  0.49573362  0.66895828  1
  Te2-  Te155  1  0.32733240  0.83417790  -0.00628724  1
  Te2-  Te156  1  0.32076304  0.83312344  0.33588979  1
  Te2-  Te157  1  0.32413421  0.83847530  0.66913654  1
  Te2-  Te158  1  0.66937947  0.16658069  -0.00525670  1
  Te2-  Te159  1  0.67462989  0.16519217  0.33644672  1
  Te2-  Te160  1  0.67060624  0.17330847  0.66627518  1
  Te2-  Te161  1  0.66181796  0.49847805  -0.00899729  1
  Te2-  Te162  1  0.65449014  0.50789970  0.33254809  1
  Te2-  Te163  1  0.66634083  0.50147996  0.66537537  1
  Te2-  Te164  1  0.67152596  0.84005294  -0.00441727  1
  Te2-  Te165  1  0.65968115  0.82907080  0.33339690  1
  Te2-  Te166  1  0.66367364  0.82600839  0.66391218  1
  Te2-  Te167  1  -0.00455818  -0.00296153  0.15276222  1
  Te2-  Te168  1  -0.00688751  -0.00480440  0.51002257  1
  Te2-  Te169  1  -0.00989919  -0.00302160  0.83533891  1
  Te2-  Te170  1  -0.00245196  0.32794962  0.16202971  1
  Te2-  Te171  1  -0.00615632  0.33297593  0.50319230  1
  Te2-  Te172  1  -0.00276975  0.33059811  0.83899966  1
  Te2-  Te173  1  0.00474457  0.67696956  0.17548578  1
  Te2-  Te174  1  -0.00438568  0.66796965  0.49797701  1
  Te2-  Te175  1  0.00416446  0.66765586  0.82844910  1
  Te2-  Te176  1  0.33629792  0.00538863  0.17307394  1
  Te2-  Te177  1  0.33610100  0.00241544  0.49811576  1
  Te2-  Te178  1  0.33784620  -0.00139181  0.83238591  1
  Te2-  Te179  1  0.33712544  0.33254431  0.14792315  1
  Te2-  Te180  1  0.34156545  0.32780575  0.50615596  1
  Te2-  Te181  1  0.33327731  0.32809600  0.84087157  1
  Te2-  Te182  1  0.33162210  0.66573147  0.17031403  1
  Te2-  Te183  1  0.33630488  0.66662933  0.50853992  1
  Te2-  Te184  1  0.32903138  0.66645367  0.81624134  1
  Te2-  Te185  1  0.66521514  -0.00234576  0.16612994  1
  Te2-  Te186  1  0.66766251  -0.00492266  0.51532588  1
  Te2-  Te187  1  0.67239562  -0.01472770  0.82404409  1
  Te2-  Te188  1  0.66641804  0.33208670  0.16601219  1
  Te2-  Te189  1  0.66393457  0.33119174  0.50099206  1
  Te2-  Te190  1  0.66566644  0.33510938  0.82873649  1
  Te2-  Te191  1  0.66709370  0.67128279  0.16143056  1
  Te2-  Te192  1  0.66605370  0.66729958  0.49815206  1
  Te2-  Te193  1  0.66794980  0.67292240  0.82901629  1
  Pb2+  Pb194  1  0.49947399  0.67014930  0.17259588  1
  Pb2+  Pb195  1  0.32920146  0.49915155  0.49793181  1
  Pb2+  Pb196  1  0.67430453  -0.00404576  0.34438883  1
  Pb2+  Pb197  1  0.83233498  0.34071843  0.83533411  1
  Pb2+  Pb198  1  0.16948880  0.33681491  0.16970012  1
  Pb2+  Pb199  1  0.16544713  -0.00060365  0.15935825  1
  Pb2+  Pb200  1  0.49903165  0.33051742  0.83086807  1
  Pb2+  Pb201  1  0.32457144  0.66257409  -0.00831257  1
  Pb2+  Pb202  1  0.00298053  0.32699718  0.33624854  1
  Pb2+  Pb203  1  0.83846378  0.83205741  0.00109678  1
  Pb2+  Pb204  1  0.83966354  0.83399217  0.66198330  1
  Pb2+  Pb205  1  0.16610481  0.33189053  0.50135392  1
  Pb2+  Pb206  1  0.00411182  0.50462146  0.16452472  1
  Pb2+  Pb207  1  0.50083335  0.66590255  0.83222814  1
  Pb2+  Pb208  1  0.66257432  0.16465802  0.16189389  1
  Pb2+  Pb209  1  0.16614206  -0.00275188  0.51004053  1
  Pb2+  Pb210  1  0.49792369  0.16720731  0.33787170  1
  Pb2+  Pb211  1  0.66890788  0.50006811  0.15978833  1
  Pb2+  Pb212  1  0.65964342  0.33797164  0.33526817  1
  Pb2+  Pb213  1  0.33093486  0.83651556  0.16531166  1
  Pb2+  Pb214  1  0.16491022  0.33012849  0.83065494  1
  Pb2+  Pb215  1  0.83686098  0.66814568  0.16562080  1
