# generated using pymatgen
data_In22Ag21Sn22Bi21(Te54Pb11)2
_symmetry_space_group_name_H-M   'P 1'
_cell_length_a   19.09797304
_cell_length_b   19.12108472
_cell_length_c   19.11784651
_cell_angle_alpha   90.00770463
_cell_angle_beta   89.99422242
_cell_angle_gamma   89.98678439
_symmetry_Int_Tables_number   1
_chemical_formula_structural   In22Ag21Sn22Bi21(Te54Pb11)2
_chemical_formula_sum   'In22 Ag21 Sn22 Bi21 Te108 Pb22'
_cell_volume   6981.33944319
_cell_formula_units_Z   1
loop_
 _symmetry_equiv_pos_site_id
 _symmetry_equiv_pos_as_xyz
  1  'x, y, z'
loop_
 _atom_type_symbol
 _atom_type_oxidation_number
  In3+  3.0
  Ag+  1.0
  Sn2+  2.0
  Bi3+  3.0
  Te2-  -2.0
  Pb2+  2.0
loop_
 _atom_site_type_symbol
 _atom_site_label
 _atom_site_symmetry_multiplicity
 _atom_site_fract_x
 _atom_site_fract_y
 _atom_site_fract_z
 _atom_site_occupancy
  In3+  In0  1  0.50918341  0.66724270  0.16242901  1
  In3+  In1  1  0.32065975  0.83695220  0.83264430  1
  In3+  In2  1  0.17001700  0.50686252  0.65203203  1
  In3+  In3  1  -0.01287844  0.83658146  0.82713162  1
  In3+  In4  1  0.66941183  0.50206668  0.49797167  1
  In3+  In5  1  0.69502746  0.16915109  0.49627989  1
  In3+  In6  1  0.33852223  0.50265760  0.83046443  1
  In3+  In7  1  0.82381458  0.50048437  0.01645418  1
  In3+  In8  1  0.16920728  0.48448840  -0.00792760  1
  In3+  In9  1  0.33869695  0.67610201  0.01406476  1
  In3+  In10  1  0.49716722  0.67919906  0.83243571  1
  In3+  In11  1  0.66956016  0.33223570  0.32562548  1
  In3+  In12  1  0.67347896  0.00385399  0.33488771  1
  In3+  In13  1  0.83459466  0.83434934  0.33106650  1
  In3+  In14  1  0.33698501  0.67091790  0.32616563  1
  In3+  In15  1  0.16756845  0.33093722  0.82607959  1
  In3+  In16  1  0.82746753  0.32733556  0.16814026  1
  In3+  In17  1  0.33788222  0.67612746  0.65969447  1
  In3+  In18  1  0.83596038  0.14906487  0.68415300  1
  In3+  In19  1  0.15595579  0.15824290  0.30200911  1
  In3+  In20  1  -0.00163249  0.00691830  0.01390904  1
  In3+  In21  1  0.16677293  0.30211162  0.50922778  1
  Ag+  Ag22  1  0.47257421  0.48032023  0.00093017  1
  Ag+  Ag23  1  0.14315909  -0.00461119  0.16911078  1
  Ag+  Ag24  1  0.81651003  0.53040658  0.30864577  1
  Ag+  Ag25  1  0.32299349  0.35107947  0.64075976  1
  Ag+  Ag26  1  0.85530696  0.86158753  -0.02190237  1
  Ag+  Ag27  1  0.83778775  0.69005833  0.14295554  1
  Ag+  Ag28  1  0.18819835  0.85358432  0.66853250  1
  Ag+  Ag29  1  0.85341223  -0.01194553  0.49343696  1
  Ag+  Ag30  1  0.14253196  0.14482099  0.00143563  1
  Ag+  Ag31  1  0.47215402  -0.01950552  0.83528925  1
  Ag+  Ag32  1  0.14951455  -0.00123204  0.52559676  1
  Ag+  Ag33  1  0.84331097  0.15355625  0.02164233  1
  Ag+  Ag34  1  0.51983872  0.36506927  0.16660681  1
  Ag+  Ag35  1  0.01485640  0.13832681  0.52334389  1
  Ag+  Ag36  1  0.49651024  0.63780627  0.47896936  1
  Ag+  Ag37  1  0.30662250  0.82171473  0.18870550  1
  Ag+  Ag38  1  0.84439391  -0.01812407  0.15308369  1
  Ag+  Ag39  1  -0.01953700  0.16716340  0.14898967  1
  Ag+  Ag40  1  0.83040701  0.86042050  0.68404740  1
  Ag+  Ag41  1  0.68980385  0.32812531  0.01912689  1
  Ag+  Ag42  1  0.83656035  -0.00122424  0.85480376  1
  Sn2+  Sn43  1  0.32497097  0.15819071  0.50530527  1
  Sn2+  Sn44  1  0.67228208  -0.00094028  0.66835604  1
  Sn2+  Sn45  1  0.66533030  0.50316873  0.16485762  1
  Sn2+  Sn46  1  0.50093453  0.00206344  0.51191891  1
  Sn2+  Sn47  1  0.66722225  0.50014072  0.83698199  1
  Sn2+  Sn48  1  0.16521879  0.84041517  -0.00894413  1
  Sn2+  Sn49  1  0.66928232  0.84563496  0.83555102  1
  Sn2+  Sn50  1  0.82281962  0.67335391  0.50110097  1
  Sn2+  Sn51  1  0.00497981  0.15586695  0.83656228  1
  Sn2+  Sn52  1  0.49859315  0.84329178  0.33622071  1
  Sn2+  Sn53  1  0.33125192  -0.00208645  0.00495174  1
  Sn2+  Sn54  1  0.65784862  0.33267918  0.66989999  1
  Sn2+  Sn55  1  -0.00289987  0.32820902  0.00196687  1
  Sn2+  Sn56  1  0.17039918  0.33122779  0.17210807  1
  Sn2+  Sn57  1  0.32828308  0.83915447  0.50128236  1
  Sn2+  Sn58  1  -0.00274786  0.00346182  0.33078749  1
  Sn2+  Sn59  1  0.15309956  -0.00047007  0.83596700  1
  Sn2+  Sn60  1  0.15568444  0.68133083  0.16292789  1
  Sn2+  Sn61  1  0.33200335  0.00090477  0.32549434  1
  Sn2+  Sn62  1  0.83945163  0.33241872  0.49883828  1
  Sn2+  Sn63  1  0.49059340  0.16357849  0.33285592  1
  Sn2+  Sn64  1  -0.00313131  -0.00616767  0.66424654  1
  Bi3+  Bi65  1  0.50500659  0.16891280  0.00021512  1
  Bi3+  Bi66  1  0.66735383  0.16731807  0.83083381  1
  Bi3+  Bi67  1  0.66545377  0.66533779  0.66552370  1
  Bi3+  Bi68  1  0.50160519  0.16641085  0.66815662  1
  Bi3+  Bi69  1  0.50556194  0.83377317  0.00033647  1
  Bi3+  Bi70  1  0.66343367  0.66587237  0.33458681  1
  Bi3+  Bi71  1  0.33424497  0.33298423  0.33181672  1
  Bi3+  Bi72  1  0.16452922  0.49789632  0.33192213  1
  Bi3+  Bi73  1  -0.00022712  0.32976784  0.33101407  1
  Bi3+  Bi74  1  0.49782978  0.33213417  0.84076502  1
  Bi3+  Bi75  1  0.83531733  0.49689234  0.66281056  1
  Bi3+  Bi76  1  0.66429771  0.66211906  0.00084399  1
  Bi3+  Bi77  1  0.33302560  0.16594104  0.83866294  1
  Bi3+  Bi78  1  0.33359442  0.15898831  0.16744788  1
  Bi3+  Bi79  1  0.33195314  0.33198968  0.00283082  1
  Bi3+  Bi80  1  0.83576941  0.16599210  0.33155203  1
  Bi3+  Bi81  1  -0.00473211  0.50084865  0.49908713  1
  Bi3+  Bi82  1  0.00208024  0.48840929  0.16716211  1
  Bi3+  Bi83  1  0.66656789  0.83235099  0.16593121  1
  Bi3+  Bi84  1  0.66717650  0.16538343  0.16565785  1
  Bi3+  Bi85  1  0.00050632  0.83348165  0.50171934  1
  Te2-  Te86  1  0.17340161  0.15753574  0.15202088  1
  Te2-  Te87  1  0.16200359  0.15194691  0.50510400  1
  Te2-  Te88  1  0.16974263  0.16955253  0.85086445  1
  Te2-  Te89  1  0.16298841  0.50544871  0.16967840  1
  Te2-  Te90  1  0.16208258  0.50600925  0.49737532  1
  Te2-  Te91  1  0.17221343  0.49375833  0.83811435  1
  Te2-  Te92  1  0.16369178  0.84065390  0.16375236  1
  Te2-  Te93  1  0.16353308  0.84395089  0.51537045  1
  Te2-  Te94  1  0.16896669  0.83449313  0.82100131  1
  Te2-  Te95  1  0.50310661  0.16345040  0.16362207  1
  Te2-  Te96  1  0.49203964  0.16384709  0.50444617  1
  Te2-  Te97  1  0.50155304  0.16792941  0.83452955  1
  Te2-  Te98  1  0.49950389  0.51029471  0.15340404  1
  Te2-  Te99  1  0.50704472  0.49245194  0.50174933  1
  Te2-  Te100  1  0.49566144  0.49377081  0.84802066  1
  Te2-  Te101  1  0.50303986  0.82518702  0.16337586  1
  Te2-  Te102  1  0.49740412  0.84251494  0.49908325  1
  Te2-  Te103  1  0.50165612  0.83523735  0.83626946  1
  Te2-  Te104  1  0.83253802  0.17276099  0.16739745  1
  Te2-  Te105  1  0.84484649  0.17190306  0.49235062  1
  Te2-  Te106  1  0.83063229  0.16041035  0.83361960  1
  Te2-  Te107  1  0.83868929  0.48578407  0.17081760  1
  Te2-  Te108  1  0.83209550  0.50158827  0.50037599  1
  Te2-  Te109  1  0.83500340  0.49728217  0.82787183  1
  Te2-  Te110  1  0.82981102  0.83610430  0.17614131  1
  Te2-  Te111  1  0.83614169  0.83792262  0.48772799  1
  Te2-  Te112  1  0.83301422  0.83905306  0.83507781  1
  Te2-  Te113  1  0.15759481  -0.00384406  0.00465831  1
  Te2-  Te114  1  0.16614888  0.00595184  0.31866564  1
  Te2-  Te115  1  0.16444644  -0.00061652  0.67329615  1
  Te2-  Te116  1  0.16995213  0.33339321  0.00385024  1
  Te2-  Te117  1  0.16740375  0.33451885  0.33971719  1
  Te2-  Te118  1  0.17581313  0.33618500  0.66746845  1
  Te2-  Te119  1  0.17797478  0.67501542  0.00551016  1
  Te2-  Te120  1  0.17557289  0.66476009  0.33055032  1
  Te2-  Te121  1  0.17885555  0.66074882  0.66781424  1
  Te2-  Te122  1  0.50319328  -0.00104072  -0.01367983  1
  Te2-  Te123  1  0.50137161  0.00410244  0.33319656  1
  Te2-  Te124  1  0.50451860  0.00427395  0.68381841  1
  Te2-  Te125  1  0.49510933  0.33335556  0.00705442  1
  Te2-  Te126  1  0.49949178  0.33368229  0.31811142  1
  Te2-  Te127  1  0.49119540  0.32954235  0.67173731  1
  Te2-  Te128  1  0.50005548  0.66901347  -0.00255676  1
  Te2-  Te129  1  0.49836145  0.66800304  0.33190973  1
  Te2-  Te130  1  0.50083391  0.66569002  0.67490298  1
  Te2-  Te131  1  0.84258870  0.00600555  0.00736695  1
  Te2-  Te132  1  0.82679436  0.00455511  0.34292743  1
  Te2-  Te133  1  0.82804397  0.00188572  0.64219819  1
  Te2-  Te134  1  0.83546302  0.34440655  0.00296214  1
  Te2-  Te135  1  0.83179503  0.32970906  0.32892796  1
  Te2-  Te136  1  0.82916157  0.33516159  0.66363020  1
  Te2-  Te137  1  0.82771742  0.65515087  0.00056188  1
  Te2-  Te138  1  0.82542913  0.67177129  0.34213125  1
  Te2-  Te139  1  0.82747886  0.65983313  0.66479582  1
  Te2-  Te140  1  -0.00699594  0.16316626  -0.00154591  1
  Te2-  Te141  1  0.00408241  0.16984684  0.33169469  1
  Te2-  Te142  1  -0.00965940  0.16454859  0.66640681  1
  Te2-  Te143  1  0.01226276  0.49830786  0.00539962  1
  Te2-  Te144  1  -0.00142194  0.49467555  0.33341366  1
  Te2-  Te145  1  0.00601894  0.50019129  0.66451469  1
  Te2-  Te146  1  -0.00085067  0.83809759  -0.00758864  1
  Te2-  Te147  1  -0.00091990  0.83430283  0.33334170  1
  Te2-  Te148  1  -0.01906439  0.83593176  0.66812842  1
  Te2-  Te149  1  0.33946750  0.16597225  0.00172180  1
  Te2-  Te150  1  0.32377154  0.17033017  0.33132342  1
  Te2-  Te151  1  0.33560959  0.16763963  0.67522094  1
  Te2-  Te152  1  0.32617798  0.50445273  -0.00304723  1
  Te2-  Te153  1  0.33090387  0.50031831  0.33353781  1
  Te2-  Te154  1  0.32773397  0.49372588  0.67311809  1
  Te2-  Te155  1  0.34032421  0.82935969  -0.01150026  1
  Te2-  Te156  1  0.33341413  0.82745916  0.33314255  1
  Te2-  Te157  1  0.33617994  0.83125939  0.67348902  1
  Te2-  Te158  1  0.67016418  0.17722403  0.00128134  1
  Te2-  Te159  1  0.66426688  0.17128129  0.33075566  1
  Te2-  Te160  1  0.66881660  0.16893557  0.66309037  1
  Te2-  Te161  1  0.66974063  0.49823605  0.00023889  1
  Te2-  Te162  1  0.67430045  0.49824473  0.33613810  1
  Te2-  Te163  1  0.66877654  0.50052052  0.66541823  1
  Te2-  Te164  1  0.66954384  0.82807148  0.00328682  1
  Te2-  Te165  1  0.66466785  0.83060155  0.32998646  1
  Te2-  Te166  1  0.68072849  0.82881673  0.66685155  1
  Te2-  Te167  1  -0.00664788  0.01373642  0.16633737  1
  Te2-  Te168  1  0.00399331  -0.00531767  0.49297467  1
  Te2-  Te169  1  -0.01172247  -0.00394819  0.82800352  1
  Te2-  Te170  1  0.00589076  0.32191313  0.16813491  1
  Te2-  Te171  1  0.00968563  0.33820512  0.49537009  1
  Te2-  Te172  1  0.00998057  0.32847376  0.83355650  1
  Te2-  Te173  1  -0.01379019  0.66058504  0.16670116  1
  Te2-  Te174  1  -0.00048402  0.66692695  0.49886840  1
  Te2-  Te175  1  0.00169727  0.67270996  0.83439620  1
  Te2-  Te176  1  0.33707516  -0.00342773  0.16484925  1
  Te2-  Te177  1  0.33267125  -0.00211468  0.49260974  1
  Te2-  Te178  1  0.32505228  0.00019476  0.83704079  1
  Te2-  Te179  1  0.33332838  0.32797903  0.16829464  1
  Te2-  Te180  1  0.32681652  0.32970012  0.49489662  1
  Te2-  Te181  1  0.33017462  0.33218569  0.84038475  1
  Te2-  Te182  1  0.33421928  0.67638549  0.16744205  1
  Te2-  Te183  1  0.34767300  0.66881853  0.50643773  1
  Te2-  Te184  1  0.34201934  0.66179397  0.82530597  1
  Te2-  Te185  1  0.67555489  0.00058986  0.17345275  1
  Te2-  Te186  1  0.66005447  0.01314857  0.49485712  1
  Te2-  Te187  1  0.68569889  0.00502574  0.83188587  1
  Te2-  Te188  1  0.66425228  0.33293918  0.16444516  1
  Te2-  Te189  1  0.67084126  0.32758872  0.49582772  1
  Te2-  Te190  1  0.66238951  0.33151722  0.83420018  1
  Te2-  Te191  1  0.67899699  0.66595756  0.16864381  1
  Te2-  Te192  1  0.65142922  0.66367160  0.49933369  1
  Te2-  Te193  1  0.65899094  0.66686181  0.83386908  1
  Pb2+  Pb194  1  0.00071492  0.67099944  0.66689755  1
  Pb2+  Pb195  1  0.16438053  0.16508379  0.67793362  1
  Pb2+  Pb196  1  0.82845223  0.66763066  0.83512372  1
  Pb2+  Pb197  1  0.00435643  0.66881507  0.00197334  1
  Pb2+  Pb198  1  0.17525676  0.67737549  0.50040692  1
  Pb2+  Pb199  1  0.50544175  0.49932514  0.32668985  1
  Pb2+  Pb200  1  -0.00061388  0.33078088  0.66262666  1
  Pb2+  Pb201  1  0.50454776  -0.00487996  0.16059682  1
  Pb2+  Pb202  1  0.33180131  0.50024900  0.16449356  1
  Pb2+  Pb203  1  0.67141041  0.00504840  0.00016311  1
  Pb2+  Pb204  1  -0.00397222  0.83883723  0.16226838  1
  Pb2+  Pb205  1  0.17419594  0.66629196  0.83745590  1
  Pb2+  Pb206  1  0.50991988  0.83634518  0.66507640  1
  Pb2+  Pb207  1  0.00006745  0.66477562  0.33074486  1
  Pb2+  Pb208  1  0.83441494  0.32939970  0.83391487  1
  Pb2+  Pb209  1  0.33665572  0.00186775  0.66136808  1
  Pb2+  Pb210  1  0.66700957  0.84103625  0.49886353  1
  Pb2+  Pb211  1  0.33340080  0.50200768  0.50260405  1
  Pb2+  Pb212  1  0.16653763  0.84147100  0.33933290  1
  Pb2+  Pb213  1  0.00193028  0.49743741  0.83727721  1
  Pb2+  Pb214  1  0.50429621  0.32735220  0.49344555  1
  Pb2+  Pb215  1  0.49899316  0.49756508  0.67695383  1
