# generated using pymatgen
data_In22Ag21Sn22Bi21(Te54Pb11)2
_symmetry_space_group_name_H-M   'P 1'
_cell_length_a   19.14183659
_cell_length_b   19.15783051
_cell_length_c   19.14721114
_cell_angle_alpha   90.00468557
_cell_angle_beta   89.99453320
_cell_angle_gamma   90.02468842
_symmetry_Int_Tables_number   1
_chemical_formula_structural   In22Ag21Sn22Bi21(Te54Pb11)2
_chemical_formula_sum   'In22 Ag21 Sn22 Bi21 Te108 Pb22'
_cell_volume   7021.58913855
_cell_formula_units_Z   1
loop_
 _symmetry_equiv_pos_site_id
 _symmetry_equiv_pos_as_xyz
  1  'x, y, z'
loop_
 _atom_type_symbol
 _atom_type_oxidation_number
  In3+  3.0
  Ag+  1.0
  Sn2+  2.0
  Bi3+  3.0
  Te2-  -2.0
  Pb2+  2.0
loop_
 _atom_site_type_symbol
 _atom_site_label
 _atom_site_symmetry_multiplicity
 _atom_site_fract_x
 _atom_site_fract_y
 _atom_site_fract_z
 _atom_site_occupancy
  In3+  In0  1  0.83938897  0.01130299  0.84115427  1
  In3+  In1  1  0.19114728  0.49664549  -0.00879481  1
  In3+  In2  1  0.49297076  0.67258121  0.83961697  1
  In3+  In3  1  0.32208902  0.84053268  0.84502435  1
  In3+  In4  1  0.32507400  0.66551254  0.66484200  1
  In3+  In5  1  0.68130114  0.50069930  0.50240602  1
  In3+  In6  1  0.01752828  0.66568115  -0.02019674  1
  In3+  In7  1  0.33118088  0.32604947  0.66134960  1
  In3+  In8  1  0.32750971  0.32230818  0.00772574  1
  In3+  In9  1  0.49881802  0.67461908  0.50217778  1
  In3+  In10  1  0.16204210  0.30847988  0.83576989  1
  In3+  In11  1  -0.01057770  0.15839732  0.84699147  1
  In3+  In12  1  0.83026759  0.68510220  0.15295572  1
  In3+  In13  1  -0.01935716  0.67738202  0.65984047  1
  In3+  In14  1  0.66804537  0.01206959  0.66140326  1
  In3+  In15  1  0.49551048  0.33232311  0.84231907  1
  In3+  In16  1  0.33043914  0.01219017  0.66865926  1
  In3+  In17  1  0.82260227  0.83612986  -0.00257655  1
  In3+  In18  1  0.48581264  0.50149094  0.34488597  1
  In3+  In19  1  0.01337037  0.17566275  0.50137360  1
  In3+  In20  1  0.85253143  0.83016435  0.35076344  1
  In3+  In21  1  0.48911888  0.66739591  0.14889371  1
  Ag+  Ag22  1  0.85934338  0.31050629  0.84118448  1
  Ag+  Ag23  1  0.85660400  0.64262656  0.50097509  1
  Ag+  Ag24  1  0.69109871  0.00435152  -0.01996102  1
  Ag+  Ag25  1  0.31802197  0.66638494  0.02489300  1
  Ag+  Ag26  1  0.80386152  0.16166220  -0.01443666  1
  Ag+  Ag27  1  0.34378372  0.13670974  0.13186986  1
  Ag+  Ag28  1  0.69227792  0.14495127  0.51518851  1
  Ag+  Ag29  1  0.18337943  0.14580035  0.30600422  1
  Ag+  Ag30  1  0.47821422  0.30357336  0.13826631  1
  Ag+  Ag31  1  0.33017259  0.51939355  0.50589797  1
  Ag+  Ag32  1  0.16970396  0.00912723  0.83134598  1
  Ag+  Ag33  1  0.32732772  0.02433940  0.02605508  1
  Ag+  Ag34  1  0.47845086  -0.02375927  0.48717029  1
  Ag+  Ag35  1  0.16841675  0.13543960  0.01436509  1
  Ag+  Ag36  1  0.18546602  0.31677357  0.47434855  1
  Ag+  Ag37  1  0.64675263  0.84593431  0.19176036  1
  Ag+  Ag38  1  0.85759317  0.16681407  0.64655270  1
  Ag+  Ag39  1  0.18248838  0.85782881  0.35849195  1
  Ag+  Ag40  1  0.32624298  0.19145464  0.83638076  1
  Ag+  Ag41  1  0.84556067  0.52994094  -0.00791494  1
  Ag+  Ag42  1  0.02443056  0.83400479  0.52186718  1
  Sn2+  Sn43  1  0.32985361  0.83234344  0.49526806  1
  Sn2+  Sn44  1  0.83667793  0.16660797  0.32965676  1
  Sn2+  Sn45  1  0.82948992  0.51099771  0.31944918  1
  Sn2+  Sn46  1  0.66794560  0.83170982  0.49571160  1
  Sn2+  Sn47  1  0.00114811  0.83242375  0.17384252  1
  Sn2+  Sn48  1  0.33040052  0.49476963  0.82892227  1
  Sn2+  Sn49  1  0.33315833  0.83966874  0.15272863  1
  Sn2+  Sn50  1  0.33266077  0.00455647  0.34280251  1
  Sn2+  Sn51  1  0.32926670  0.67321795  0.33887929  1
  Sn2+  Sn52  1  0.50316053  0.84451872  -0.00212994  1
  Sn2+  Sn53  1  0.33967916  0.16591479  0.49953604  1
  Sn2+  Sn54  1  0.49415103  0.83756850  0.66835892  1
  Sn2+  Sn55  1  0.50644343  0.50036185  0.00087437  1
  Sn2+  Sn56  1  0.17517327  0.83395140  0.66131150  1
  Sn2+  Sn57  1  0.00346450  0.83583403  0.83691388  1
  Sn2+  Sn58  1  0.67186524  0.32612480  0.00191009  1
  Sn2+  Sn59  1  0.66236597  0.16203282  0.16724863  1
  Sn2+  Sn60  1  0.49518285  0.17169258  0.33464065  1
  Sn2+  Sn61  1  0.49519270  0.50089247  0.66238209  1
  Sn2+  Sn62  1  0.17098149  0.49907303  0.66829634  1
  Sn2+  Sn63  1  0.16714131  0.65482244  0.49638263  1
  Sn2+  Sn64  1  0.66922146  0.32871304  0.66654478  1
  Bi3+  Bi65  1  0.66121782  0.66643353  0.66576613  1
  Bi3+  Bi66  1  0.66770010  0.83452819  0.83156772  1
  Bi3+  Bi67  1  0.17009267  0.33410400  0.16522095  1
  Bi3+  Bi68  1  0.66627090  0.33112711  0.33251803  1
  Bi3+  Bi69  1  0.83088589  0.00044198  0.16437599  1
  Bi3+  Bi70  1  0.82560557  0.32920599  0.16071253  1
  Bi3+  Bi71  1  0.49434322  0.33412465  0.50081295  1
  Bi3+  Bi72  1  -0.00115583  0.00091101  0.33629989  1
  Bi3+  Bi73  1  0.49967669  -0.00017740  0.82850092  1
  Bi3+  Bi74  1  -0.00128776  0.66668630  0.33867604  1
  Bi3+  Bi75  1  0.16754974  0.83167778  -0.00223022  1
  Bi3+  Bi76  1  0.00134249  0.33286612  0.66854238  1
  Bi3+  Bi77  1  0.66472884  0.00428638  0.33689481  1
  Bi3+  Bi78  1  -0.00461510  0.50035532  0.83434848  1
  Bi3+  Bi79  1  0.16707298  0.50029391  0.33341655  1
  Bi3+  Bi80  1  0.49882475  0.16857376  0.66288844  1
  Bi3+  Bi81  1  0.66275955  0.49532510  0.83568024  1
  Bi3+  Bi82  1  0.16580087  0.16727790  0.67180762  1
  Bi3+  Bi83  1  -0.00119858  0.32924477  0.33744136  1
  Bi3+  Bi84  1  0.66843591  0.50122287  0.16566310  1
  Bi3+  Bi85  1  0.83386958  -0.00031034  0.50232778  1
  Te2-  Te86  1  0.17603797  0.17247741  0.16186591  1
  Te2-  Te87  1  0.16804629  0.17378087  0.50905749  1
  Te2-  Te88  1  0.17839879  0.15955693  0.83068270  1
  Te2-  Te89  1  0.16699010  0.49937070  0.16465856  1
  Te2-  Te90  1  0.17788470  0.49696078  0.49619101  1
  Te2-  Te91  1  0.16011259  0.50340165  0.83918765  1
  Te2-  Te92  1  0.16574339  0.83473920  0.16012851  1
  Te2-  Te93  1  0.17022853  0.83230486  0.50173705  1
  Te2-  Te94  1  0.16624405  0.83467680  0.83099213  1
  Te2-  Te95  1  0.48965259  0.16350623  0.17317658  1
  Te2-  Te96  1  0.49916226  0.17392197  0.50122183  1
  Te2-  Te97  1  0.49039634  0.16685644  0.82752519  1
  Te2-  Te98  1  0.50820787  0.51526098  0.17103048  1
  Te2-  Te99  1  0.48227297  0.49523958  0.49848422  1
  Te2-  Te100  1  0.50154900  0.49335961  0.83139115  1
  Te2-  Te101  1  0.50414984  0.82248834  0.16442465  1
  Te2-  Te102  1  0.49887459  0.83191746  0.50082067  1
  Te2-  Te103  1  0.50323103  0.83294154  0.83238616  1
  Te2-  Te104  1  0.83284392  0.16470963  0.16963819  1
  Te2-  Te105  1  0.83756946  0.16160904  0.49912852  1
  Te2-  Te106  1  0.83367437  0.16599034  0.84049493  1
  Te2-  Te107  1  0.82741924  0.49217287  0.15321904  1
  Te2-  Te108  1  0.83373554  0.49716725  0.49881718  1
  Te2-  Te109  1  0.82812339  0.49898626  0.84367599  1
  Te2-  Te110  1  0.83311529  0.83872127  0.15684052  1
  Te2-  Te111  1  0.82893432  0.83772037  0.50131613  1
  Te2-  Te112  1  0.83317671  0.83788187  0.83746361  1
  Te2-  Te113  1  0.18287900  -0.00989038  -0.01606304  1
  Te2-  Te114  1  0.16167563  0.00264071  0.33430588  1
  Te2-  Te115  1  0.17180549  0.00074266  0.67826284  1
  Te2-  Te116  1  0.17039001  0.34261428  0.00027665  1
  Te2-  Te117  1  0.16118688  0.33682643  0.33003901  1
  Te2-  Te118  1  0.16721638  0.33376925  0.67802133  1
  Te2-  Te119  1  0.17117914  0.66267575  -0.00124382  1
  Te2-  Te120  1  0.16067940  0.66306086  0.33249772  1
  Te2-  Te121  1  0.16932039  0.66451065  0.66166782  1
  Te2-  Te122  1  0.47590033  -0.00245117  -0.00789193  1
  Te2-  Te123  1  0.50223077  0.00274265  0.34292879  1
  Te2-  Te124  1  0.50589274  0.00528311  0.66344393  1
  Te2-  Te125  1  0.49521608  0.33502004  -0.00227369  1
  Te2-  Te126  1  0.50359859  0.34285277  0.33512230  1
  Te2-  Te127  1  0.49357097  0.33225956  0.66649489  1
  Te2-  Te128  1  0.49695613  0.67153119  -0.00463014  1
  Te2-  Te129  1  0.49670033  0.65985027  0.34644042  1
  Te2-  Te130  1  0.50062560  0.66517324  0.65978174  1
  Te2-  Te131  1  0.83807908  0.01048871  -0.00136693  1
  Te2-  Te132  1  0.83300833  -0.00506892  0.33217883  1
  Te2-  Te133  1  0.82784795  0.01672814  0.66844942  1
  Te2-  Te134  1  0.82953040  0.31460574  -0.00260644  1
  Te2-  Te135  1  0.83417299  0.33549349  0.33064301  1
  Te2-  Te136  1  0.83697501  0.31915610  0.67787111  1
  Te2-  Te137  1  0.83115737  0.67641139  -0.00137683  1
  Te2-  Te138  1  0.83662424  0.67088399  0.35119414  1
  Te2-  Te139  1  0.82713767  0.66525559  0.65299906  1
  Te2-  Te140  1  0.02183912  0.16568072  -0.00530309  1
  Te2-  Te141  1  0.00569335  0.16668532  0.33934524  1
  Te2-  Te142  1  0.00269989  0.17106051  0.67603464  1
  Te2-  Te143  1  -0.00719498  0.51221916  -0.00413793  1
  Te2-  Te144  1  -0.00123120  0.49967637  0.33620152  1
  Te2-  Te145  1  -0.00044803  0.49869103  0.67061132  1
  Te2-  Te146  1  0.00305270  0.82353155  -0.00126299  1
  Te2-  Te147  1  0.00453606  0.83265206  0.33313494  1
  Te2-  Te148  1  -0.00036058  0.82994476  0.66796323  1
  Te2-  Te149  1  0.31970935  0.17224940  -0.00936615  1
  Te2-  Te150  1  0.32582701  0.16269297  0.34001021  1
  Te2-  Te151  1  0.33275658  0.16983563  0.67712385  1
  Te2-  Te152  1  0.34033511  0.51627971  -0.00237468  1
  Te2-  Te153  1  0.33006696  0.50159247  0.33819236  1
  Te2-  Te154  1  0.33017329  0.50728584  0.65929901  1
  Te2-  Te155  1  0.33251422  0.81589559  -0.00611582  1
  Te2-  Te156  1  0.32424224  0.83500264  0.32897084  1
  Te2-  Te157  1  0.33495955  0.82085262  0.66580251  1
  Te2-  Te158  1  0.65754710  0.15432297  0.00634545  1
  Te2-  Te159  1  0.66678724  0.16898441  0.33489563  1
  Te2-  Te160  1  0.66304893  0.16948755  0.65918992  1
  Te2-  Te161  1  0.66477622  0.49996599  -0.00049174  1
  Te2-  Te162  1  0.67086899  0.49725336  0.33367942  1
  Te2-  Te163  1  0.66533230  0.49957559  0.66874534  1
  Te2-  Te164  1  0.67050005  0.85037063  -0.00733801  1
  Te2-  Te165  1  0.66384492  0.83739853  0.33702318  1
  Te2-  Te166  1  0.66396050  0.82954069  0.66869343  1
  Te2-  Te167  1  -0.00347423  0.00001574  0.17071338  1
  Te2-  Te168  1  -0.00264110  -0.01590604  0.49739270  1
  Te2-  Te169  1  -0.00027130  0.00193591  0.83172128  1
  Te2-  Te170  1  -0.00287209  0.33409729  0.17114612  1
  Te2-  Te171  1  0.00188206  0.33313191  0.50335070  1
  Te2-  Te172  1  0.00480309  0.33610101  0.83348538  1
  Te2-  Te173  1  -0.01591206  0.66992989  0.17512217  1
  Te2-  Te174  1  0.00051889  0.67943825  0.50398133  1
  Te2-  Te175  1  -0.00336670  0.66646316  0.82246679  1
  Te2-  Te176  1  0.33575489  -0.00412840  0.17415731  1
  Te2-  Te177  1  0.33527019  -0.00040371  0.50998082  1
  Te2-  Te178  1  0.33969023  -0.01228141  0.81960465  1
  Te2-  Te179  1  0.33498804  0.33452523  0.16222368  1
  Te2-  Te180  1  0.32885616  0.33054560  0.50788773  1
  Te2-  Te181  1  0.33180401  0.33952976  0.83656958  1
  Te2-  Te182  1  0.33697507  0.67087185  0.17206864  1
  Te2-  Te183  1  0.33741680  0.66792852  0.50236683  1
  Te2-  Te184  1  0.34228791  0.66354912  0.82041231  1
  Te2-  Te185  1  0.66948554  -0.00745419  0.17451543  1
  Te2-  Te186  1  0.67054316  0.00072891  0.50197535  1
  Te2-  Te187  1  0.66533592  -0.00189748  0.83271835  1
  Te2-  Te188  1  0.66395297  0.33291435  0.16919853  1
  Te2-  Te189  1  0.66069102  0.34552992  0.49803934  1
  Te2-  Te190  1  0.65340656  0.33428672  0.83428637  1
  Te2-  Te191  1  0.67845671  0.66811478  0.16866211  1
  Te2-  Te192  1  0.65660435  0.65756704  0.50430796  1
  Te2-  Te193  1  0.65866274  0.66566714  0.83103732  1
  Pb2+  Pb194  1  0.49013442  0.83238581  0.33185784  1
  Pb2+  Pb195  1  0.33949656  0.50011420  0.16650980  1
  Pb2+  Pb196  1  0.16919147  0.00264126  0.15993114  1
  Pb2+  Pb197  1  0.01147887  0.50526798  0.50366280  1
  Pb2+  Pb198  1  0.83032761  0.84463328  0.66799912  1
  Pb2+  Pb199  1  0.17395653  0.66872316  0.82774620  1
  Pb2+  Pb200  1  0.15935626  0.67049822  0.16762060  1
  Pb2+  Pb201  1  0.83202796  0.48860743  0.67520022  1
  Pb2+  Pb202  1  0.50377359  -0.00309857  0.16409163  1
  Pb2+  Pb203  1  0.01025187  -0.00376841  -0.00138723  1
  Pb2+  Pb204  1  0.82754457  0.66430356  0.82539345  1
  Pb2+  Pb205  1  0.33402529  0.32942381  0.33513989  1
  Pb2+  Pb206  1  0.16737189  0.00620591  0.50348351  1
  Pb2+  Pb207  1  -0.00008715  0.00287830  0.66261012  1
  Pb2+  Pb208  1  0.83151246  0.32784349  0.50681273  1
  Pb2+  Pb209  1  0.66068624  0.16650400  0.83261005  1
  Pb2+  Pb210  1  -0.00327529  0.50370306  0.16546867  1
  Pb2+  Pb211  1  0.49064987  0.16344323  -0.00121268  1
  Pb2+  Pb212  1  0.00761926  0.16806250  0.16571629  1
  Pb2+  Pb213  1  0.66236569  0.67566172  0.00284728  1
  Pb2+  Pb214  1  -0.00490949  0.33495818  0.00037182  1
  Pb2+  Pb215  1  0.66593451  0.66801962  0.33488906  1
