# generated using pymatgen
data_In22Ag21Sn22Bi21(Te54Pb11)2
_symmetry_space_group_name_H-M   'P 1'
_cell_length_a   19.15229106
_cell_length_b   19.14769139
_cell_length_c   19.13397164
_cell_angle_alpha   89.99872891
_cell_angle_beta   90.00701236
_cell_angle_gamma   89.98651217
_symmetry_Int_Tables_number   1
_chemical_formula_structural   In22Ag21Sn22Bi21(Te54Pb11)2
_chemical_formula_sum   'In22 Ag21 Sn22 Bi21 Te108 Pb22'
_cell_volume   7016.85113733
_cell_formula_units_Z   1
loop_
 _symmetry_equiv_pos_site_id
 _symmetry_equiv_pos_as_xyz
  1  'x, y, z'
loop_
 _atom_type_symbol
 _atom_type_oxidation_number
  In3+  3.0
  Ag+  1.0
  Sn2+  2.0
  Bi3+  3.0
  Te2-  -2.0
  Pb2+  2.0
loop_
 _atom_site_type_symbol
 _atom_site_label
 _atom_site_symmetry_multiplicity
 _atom_site_fract_x
 _atom_site_fract_y
 _atom_site_fract_z
 _atom_site_occupancy
  In3+  In0  1  -0.00428430  0.82651116  0.83037863  1
  In3+  In1  1  0.50577981  0.17294475  0.00437436  1
  In3+  In2  1  0.16365086  0.65442451  0.48660246  1
  In3+  In3  1  0.17015484  0.83411614  -0.00259941  1
  In3+  In4  1  0.51366973  0.83087647  0.67024383  1
  In3+  In5  1  0.33816138  0.19770550  0.83380472  1
  In3+  In6  1  0.49349762  0.49602747  0.33727833  1
  In3+  In7  1  0.16831420  -0.00686592  0.82193997  1
  In3+  In8  1  0.67595958  0.66255874  0.31714127  1
  In3+  In9  1  0.67852356  0.82784365  0.47995203  1
  In3+  In10  1  0.16788843  0.81333474  0.65582186  1
  In3+  In11  1  0.68205443  0.01932658  0.33735757  1
  In3+  In12  1  0.33191054  0.01667579  0.32551317  1
  In3+  In13  1  0.67576376  0.33002187  0.68977362  1
  In3+  In14  1  0.48984637  0.66618179  0.18349155  1
  In3+  In15  1  -0.02629829  0.00229201  -0.00064743  1
  In3+  In16  1  0.00665847  0.33544660  0.64124787  1
  In3+  In17  1  0.83512320  0.65902543  0.18560335  1
  In3+  In18  1  0.00084812  0.65709327  0.65912221  1
  In3+  In19  1  0.82281396  0.17440408  -0.00030648  1
  In3+  In20  1  0.34888375  0.65418205  -0.00378412  1
  In3+  In21  1  0.66242422  0.82898878  0.83816200  1
  Ag+  Ag22  1  0.64231446  0.13762291  0.81951895  1
  Ag+  Ag23  1  0.34430909  0.50658841  0.80884858  1
  Ag+  Ag24  1  0.35293611  0.49446193  0.17039669  1
  Ag+  Ag25  1  0.01847195  0.67207019  0.35659493  1
  Ag+  Ag26  1  0.49306251  0.14398170  0.35736559  1
  Ag+  Ag27  1  0.83841115  0.83530285  0.31325226  1
  Ag+  Ag28  1  0.66745450  0.02351138  -0.02796251  1
  Ag+  Ag29  1  0.35538367  0.66437911  0.30465063  1
  Ag+  Ag30  1  0.66551596  0.31537036  -0.00569275  1
  Ag+  Ag31  1  -0.00266321  0.47971437  0.47423978  1
  Ag+  Ag32  1  0.80507381  -0.01486946  0.14287826  1
  Ag+  Ag33  1  0.03670493  0.38026936  0.33982259  1
  Ag+  Ag34  1  0.64323526  0.47961734  0.83711091  1
  Ag+  Ag35  1  0.50125096  0.35870554  0.52645853  1
  Ag+  Ag36  1  -0.02043358  -0.03293716  0.64219771  1
  Ag+  Ag37  1  0.36955246  0.30393187  0.63733750  1
  Ag+  Ag38  1  0.13979593  0.51489136  0.33720326  1
  Ag+  Ag39  1  0.84865693  0.47616530  0.33688190  1
  Ag+  Ag40  1  0.47699344  0.64080615  0.82946357  1
  Ag+  Ag41  1  0.18256311  0.69148908  0.84011270  1
  Ag+  Ag42  1  0.81483566  0.83487454  0.66439236  1
  Sn2+  Sn43  1  0.33509876  0.83279601  0.49218216  1
  Sn2+  Sn44  1  0.16045243  0.66258788  0.16234449  1
  Sn2+  Sn45  1  0.49763156  0.33456289  0.16727394  1
  Sn2+  Sn46  1  0.83445780  0.66298345  0.49742346  1
  Sn2+  Sn47  1  0.50268396  0.16061585  0.66410690  1
  Sn2+  Sn48  1  0.16740865  0.16804731  0.33234634  1
  Sn2+  Sn49  1  0.16112119  0.82063587  0.33305964  1
  Sn2+  Sn50  1  0.33774634  0.35454178  0.33722637  1
  Sn2+  Sn51  1  0.83159092  0.33088779  0.17350561  1
  Sn2+  Sn52  1  0.82891540  0.50874142  0.66217864  1
  Sn2+  Sn53  1  0.33086738  0.82360473  0.17460857  1
  Sn2+  Sn54  1  0.32513854  0.00137434  0.66590673  1
  Sn2+  Sn55  1  0.49614132  0.00149346  0.83860623  1
  Sn2+  Sn56  1  0.16693799  0.34293212  0.17181007  1
  Sn2+  Sn57  1  0.34230890  -0.00298136  -0.00488807  1
  Sn2+  Sn58  1  0.82509121  0.49699879  0.00190184  1
  Sn2+  Sn59  1  0.00175513  0.17519131  0.50000435  1
  Sn2+  Sn60  1  0.84014272  0.16021737  0.67254909  1
  Sn2+  Sn61  1  0.67344040  0.83599450  0.16390262  1
  Sn2+  Sn62  1  0.50618361  -0.00473552  0.16544346  1
  Sn2+  Sn63  1  0.16122116  -0.00724991  0.50364848  1
  Sn2+  Sn64  1  0.16688865  0.15670844  -0.00035042  1
  Bi3+  Bi65  1  0.83493894  0.33839011  0.83566762  1
  Bi3+  Bi66  1  0.16451045  0.33308206  0.83742749  1
  Bi3+  Bi67  1  0.33041970  0.66644070  0.67307518  1
  Bi3+  Bi68  1  -0.00220551  0.49988949  0.17407135  1
  Bi3+  Bi69  1  0.16309796  0.17149291  0.66772660  1
  Bi3+  Bi70  1  0.67329952  0.66301288  0.67170612  1
  Bi3+  Bi71  1  0.00091796  0.66977273  -0.00023804  1
  Bi3+  Bi72  1  0.49791786  0.83511957  -0.00062975  1
  Bi3+  Bi73  1  0.33604644  0.33588987  0.00170844  1
  Bi3+  Bi74  1  0.00009983  0.83426670  0.16540441  1
  Bi3+  Bi75  1  0.83575047  0.66637045  0.83417883  1
  Bi3+  Bi76  1  0.16364711  0.50082149  0.66557857  1
  Bi3+  Bi77  1  0.50193420  0.33182239  0.83430026  1
  Bi3+  Bi78  1  0.83201041  -0.00088954  0.50343776  1
  Bi3+  Bi79  1  0.66384467  0.34222818  0.32876273  1
  Bi3+  Bi80  1  0.00029481  0.16661733  0.17020267  1
  Bi3+  Bi81  1  0.66770385  0.66888634  -0.00240632  1
  Bi3+  Bi82  1  0.00496577  0.16616447  0.83684283  1
  Bi3+  Bi83  1  0.66714774  0.16907527  0.16625022  1
  Bi3+  Bi84  1  0.16997327  -0.00113537  0.16608079  1
  Bi3+  Bi85  1  0.49497552  -0.00309885  0.50168162  1
  Te2-  Te86  1  0.16496762  0.16474382  0.16548460  1
  Te2-  Te87  1  0.16569666  0.16493992  0.50347651  1
  Te2-  Te88  1  0.17115530  0.17043515  0.83354706  1
  Te2-  Te89  1  0.15761830  0.50260043  0.18275399  1
  Te2-  Te90  1  0.15306469  0.50171217  0.49413065  1
  Te2-  Te91  1  0.16643312  0.49182902  0.83160930  1
  Te2-  Te92  1  0.16367225  0.83268201  0.16640372  1
  Te2-  Te93  1  0.16429821  0.83408414  0.50246154  1
  Te2-  Te94  1  0.16439350  0.83828210  0.83847703  1
  Te2-  Te95  1  0.50364763  0.16407922  0.15819576  1
  Te2-  Te96  1  0.50027259  0.15957808  0.50415320  1
  Te2-  Te97  1  0.49861014  0.16696792  0.83290226  1
  Te2-  Te98  1  0.50099486  0.51091088  0.17345529  1
  Te2-  Te99  1  0.49996511  0.50271043  0.49477215  1
  Te2-  Te100  1  0.49554255  0.49467976  0.83370322  1
  Te2-  Te101  1  0.49965402  0.82434706  0.16209555  1
  Te2-  Te102  1  0.50427021  0.83631303  0.50974963  1
  Te2-  Te103  1  0.50334623  0.84011154  0.83302711  1
  Te2-  Te104  1  0.83450474  0.16306436  0.16029928  1
  Te2-  Te105  1  0.83301709  0.16439006  0.50270377  1
  Te2-  Te106  1  0.83962950  0.17287181  0.84101995  1
  Te2-  Te107  1  0.83507916  0.50465287  0.17988434  1
  Te2-  Te108  1  0.84384447  0.50569593  0.49083613  1
  Te2-  Te109  1  0.83618053  0.50122369  0.83079091  1
  Te2-  Te110  1  0.83621773  0.84253543  0.16501583  1
  Te2-  Te111  1  0.82664906  0.83493507  0.51463665  1
  Te2-  Te112  1  0.84161307  0.83247844  0.82658453  1
  Te2-  Te113  1  0.17682832  -0.00462169  0.00512972  1
  Te2-  Te114  1  0.17530105  -0.00216887  0.33130584  1
  Te2-  Te115  1  0.16376991  0.00951318  0.66973976  1
  Te2-  Te116  1  0.17048517  0.33147492  0.00345746  1
  Te2-  Te117  1  0.17391995  0.32536803  0.33208610  1
  Te2-  Te118  1  0.16560643  0.33533337  0.67048678  1
  Te2-  Te119  1  0.16181824  0.67492886  -0.00777432  1
  Te2-  Te120  1  0.16444580  0.66273037  0.33322416  1
  Te2-  Te121  1  0.16460356  0.66301108  0.68770057  1
  Te2-  Te122  1  0.50904106  -0.00264885  0.00242066  1
  Te2-  Te123  1  0.48698571  -0.00134459  0.33546231  1
  Te2-  Te124  1  0.49324368  -0.00432146  0.66666342  1
  Te2-  Te125  1  0.50281878  0.33042145  -0.00162241  1
  Te2-  Te126  1  0.50293143  0.34204315  0.32274472  1
  Te2-  Te127  1  0.50854675  0.33025086  0.67254326  1
  Te2-  Te128  1  0.50228670  0.67210956  -0.02041015  1
  Te2-  Te129  1  0.50152576  0.66681428  0.33658307  1
  Te2-  Te130  1  0.49908046  0.67383770  0.68094142  1
  Te2-  Te131  1  0.81786772  0.00408149  -0.00098515  1
  Te2-  Te132  1  0.83124716  -0.01174054  0.34219699  1
  Te2-  Te133  1  0.83671415  -0.00794596  0.66591276  1
  Te2-  Te134  1  0.82418525  0.33411284  0.00135993  1
  Te2-  Te135  1  0.82473070  0.33040501  0.33303359  1
  Te2-  Te136  1  0.82805812  0.33561192  0.67109891  1
  Te2-  Te137  1  0.83461939  0.66359327  -0.00017447  1
  Te2-  Te138  1  0.82443042  0.68525692  0.33419878  1
  Te2-  Te139  1  0.83981098  0.67430332  0.66935681  1
  Te2-  Te140  1  -0.00068942  0.16356007  0.00417342  1
  Te2-  Te141  1  -0.00057228  0.16154341  0.33065485  1
  Te2-  Te142  1  -0.00073843  0.17241740  0.67173678  1
  Te2-  Te143  1  -0.00218141  0.50286051  0.00845730  1
  Te2-  Te144  1  -0.01001997  0.52096562  0.33282182  1
  Te2-  Te145  1  -0.00015278  0.50059847  0.65951846  1
  Te2-  Te146  1  0.00551637  0.83631365  -0.00104561  1
  Te2-  Te147  1  -0.00597300  0.82227258  0.32881729  1
  Te2-  Te148  1  0.01705516  0.83078115  0.67605081  1
  Te2-  Te149  1  0.33863222  0.16992877  -0.00750754  1
  Te2-  Te150  1  0.34403532  0.16911446  0.32928528  1
  Te2-  Te151  1  0.32872974  0.16913382  0.67619769  1
  Te2-  Te152  1  0.33153412  0.50136933  0.01692387  1
  Te2-  Te153  1  0.34091161  0.51214422  0.32221962  1
  Te2-  Te154  1  0.32670859  0.50483922  0.66135002  1
  Te2-  Te155  1  0.33416626  0.82900616  0.00267762  1
  Te2-  Te156  1  0.32815249  0.81249038  0.33380042  1
  Te2-  Te157  1  0.32048510  0.83177110  0.66663123  1
  Te2-  Te158  1  0.66436855  0.16652700  0.00083354  1
  Te2-  Te159  1  0.65332723  0.17196300  0.33063263  1
  Te2-  Te160  1  0.67196029  0.17251139  0.67795071  1
  Te2-  Te161  1  0.66711296  0.50738050  -0.01296046  1
  Te2-  Te162  1  0.66708161  0.50964692  0.33168606  1
  Te2-  Te163  1  0.66913517  0.50047406  0.67697640  1
  Te2-  Te164  1  0.66267021  0.83322794  -0.00128544  1
  Te2-  Te165  1  0.66640380  0.82155374  0.32994147  1
  Te2-  Te166  1  0.66809531  0.82857477  0.67857290  1
  Te2-  Te167  1  0.00614636  0.00055694  0.16068640  1
  Te2-  Te168  1  -0.00137535  0.00366984  0.50171947  1
  Te2-  Te169  1  0.01345473  0.00597896  0.84313925  1
  Te2-  Te170  1  -0.00148715  0.33167896  0.18442989  1
  Te2-  Te171  1  -0.00056641  0.33247941  0.48172639  1
  Te2-  Te172  1  -0.00107630  0.32930427  0.84502658  1
  Te2-  Te173  1  -0.00640586  0.67138518  0.16218287  1
  Te2-  Te174  1  0.00729195  0.67041096  0.50598336  1
  Te2-  Te175  1  -0.00192989  0.67099780  0.83636563  1
  Te2-  Te176  1  0.33288397  -0.00315582  0.16904275  1
  Te2-  Te177  1  0.33155569  -0.00499854  0.49573606  1
  Te2-  Te178  1  0.32739106  -0.00197625  0.83650560  1
  Te2-  Te179  1  0.33557066  0.34133515  0.16375769  1
  Te2-  Te180  1  0.34911380  0.33402773  0.49686001  1
  Te2-  Te181  1  0.33324101  0.35127234  0.83824563  1
  Te2-  Te182  1  0.33467966  0.66363267  0.15607276  1
  Te2-  Te183  1  0.32047974  0.67037644  0.51184366  1
  Te2-  Te184  1  0.32812337  0.65617402  0.84034981  1
  Te2-  Te185  1  0.66587433  0.00449643  0.18225278  1
  Te2-  Te186  1  0.66174171  -0.00588604  0.49474345  1
  Te2-  Te187  1  0.66692987  -0.00610766  0.82938583  1
  Te2-  Te188  1  0.66622156  0.33046111  0.15915354  1
  Te2-  Te189  1  0.65384346  0.33778654  0.49243221  1
  Te2-  Te190  1  0.66976567  0.33338382  0.84365576  1
  Te2-  Te191  1  0.66920551  0.66908730  0.16070420  1
  Te2-  Te192  1  0.66516232  0.67354311  0.51233497  1
  Te2-  Te193  1  0.67376299  0.67320130  0.83293850  1
  Pb2+  Pb194  1  0.49716784  0.83493180  0.33520794  1
  Pb2+  Pb195  1  0.33575890  0.82866160  0.83426480  1
  Pb2+  Pb196  1  0.67324208  0.50230526  0.50079030  1
  Pb2+  Pb197  1  0.66347235  0.00069117  0.66350813  1
  Pb2+  Pb198  1  0.83230530  0.16203953  0.33047522  1
  Pb2+  Pb199  1  0.49285657  0.66906115  0.50756337  1
  Pb2+  Pb200  1  -0.00385153  0.33289589  0.01562425  1
  Pb2+  Pb201  1  0.00357295  -0.00749600  0.33017088  1
  Pb2+  Pb202  1  0.17405849  0.33401528  0.50062080  1
  Pb2+  Pb203  1  -0.00644506  0.83518934  0.50066856  1
  Pb2+  Pb204  1  0.32585980  0.50229794  0.49059518  1
  Pb2+  Pb205  1  0.33537600  0.17031588  0.16326608  1
  Pb2+  Pb206  1  0.66509933  0.17285852  0.50541324  1
  Pb2+  Pb207  1  0.66799709  0.49792570  0.15976359  1
  Pb2+  Pb208  1  0.83403863  0.83064204  -0.00327779  1
  Pb2+  Pb209  1  0.49689439  0.50288478  0.66640362  1
  Pb2+  Pb210  1  0.16672247  0.50352809  0.00370330  1
  Pb2+  Pb211  1  0.33352504  0.16476718  0.49796315  1
  Pb2+  Pb212  1  0.49943744  0.50248974  0.00315042  1
  Pb2+  Pb213  1  0.82570026  0.33748167  0.50125457  1
  Pb2+  Pb214  1  0.84055043  0.00330859  0.83175603  1
  Pb2+  Pb215  1  0.00278263  0.50062497  0.82871500  1
