# generated using pymatgen
data_In22Ag21Sn22Bi21(Te54Pb11)2
_symmetry_space_group_name_H-M   'P 1'
_cell_length_a   19.12391737
_cell_length_b   19.13495556
_cell_length_c   19.15121571
_cell_angle_alpha   89.98891002
_cell_angle_beta   89.99245871
_cell_angle_gamma   90.00258149
_symmetry_Int_Tables_number   1
_chemical_formula_structural   In22Ag21Sn22Bi21(Te54Pb11)2
_chemical_formula_sum   'In22 Ag21 Sn22 Bi21 Te108 Pb22'
_cell_volume   7008.10583902
_cell_formula_units_Z   1
loop_
 _symmetry_equiv_pos_site_id
 _symmetry_equiv_pos_as_xyz
  1  'x, y, z'
loop_
 _atom_type_symbol
 _atom_type_oxidation_number
  In3+  3.0
  Ag+  1.0
  Sn2+  2.0
  Bi3+  3.0
  Te2-  -2.0
  Pb2+  2.0
loop_
 _atom_site_type_symbol
 _atom_site_label
 _atom_site_symmetry_multiplicity
 _atom_site_fract_x
 _atom_site_fract_y
 _atom_site_fract_z
 _atom_site_occupancy
  In3+  In0  1  0.00722432  0.00293787  0.68712888  1
  In3+  In1  1  0.19712707  0.48949135  0.66729012  1
  In3+  In2  1  0.82178374  0.33160389  0.82572330  1
  In3+  In3  1  0.00166562  0.68030779  0.02081820  1
  In3+  In4  1  0.83365959  0.85230615  0.00606492  1
  In3+  In5  1  0.64419218  0.01571437  0.66029344  1
  In3+  In6  1  -0.00364430  0.83670481  0.50732322  1
  In3+  In7  1  0.18128581  0.00265361  0.83230527  1
  In3+  In8  1  0.17785303  0.16344069  0.01138808  1
  In3+  In9  1  0.66775349  0.49305813  0.51896745  1
  In3+  In10  1  0.48569336  0.49416839  -0.00084519  1
  In3+  In11  1  0.49929373  0.47915169  0.34038746  1
  In3+  In12  1  0.82486771  0.15554898  0.66992564  1
  In3+  In13  1  0.17108731  0.84868812  0.01718375  1
  In3+  In14  1  0.35632252  0.32055244  0.67133687  1
  In3+  In15  1  0.49504391  0.00870250  0.83631924  1
  In3+  In16  1  0.33907515  0.49618488  0.15856772  1
  In3+  In17  1  0.02749236  0.50407191  0.81899960  1
  In3+  In18  1  0.35183801  0.83974255  0.49515677  1
  In3+  In19  1  0.17832212  0.00008660  0.50176853  1
  In3+  In20  1  0.65828113  0.84223383  0.17376717  1
  In3+  In21  1  0.33594887  0.16863165  0.83145753  1
  Ag+  Ag22  1  0.86400547  0.16429833  0.30249396  1
  Ag+  Ag23  1  0.63745537  0.17401433  0.81535638  1
  Ag+  Ag24  1  0.33600511  0.47830124  0.83537980  1
  Ag+  Ag25  1  0.52572112  0.86150855  0.66776352  1
  Ag+  Ag26  1  -0.02555558  0.64207128  0.66223901  1
  Ag+  Ag27  1  0.31428856  0.33504141  -0.02697262  1
  Ag+  Ag28  1  0.47778749  0.17227620  0.64431103  1
  Ag+  Ag29  1  0.14192846  0.19436574  0.68609020  1
  Ag+  Ag30  1  0.02419299  0.15142565  0.17046759  1
  Ag+  Ag31  1  0.67083145  0.31102561  0.64166760  1
  Ag+  Ag32  1  0.35380856  0.00032463  0.36222722  1
  Ag+  Ag33  1  -0.02800103  0.32320545  0.35655615  1
  Ag+  Ag34  1  0.51456369  -0.00189832  0.47680624  1
  Ag+  Ag35  1  0.49784753  0.36256215  0.52620507  1
  Ag+  Ag36  1  0.16961374  0.64699581  0.13771904  1
  Ag+  Ag37  1  0.86056613  -0.01745487  0.19083004  1
  Ag+  Ag38  1  0.52106934  0.82995627  0.30574912  1
  Ag+  Ag39  1  0.35160229  -0.02387384  -0.00325549  1
  Ag+  Ag40  1  -0.01809181  0.85360140  0.16601170  1
  Ag+  Ag41  1  0.49622590  0.46755152  0.63808397  1
  Ag+  Ag42  1  0.48638710  0.35372867  0.14360970  1
  Sn2+  Sn43  1  0.33017687  0.00087651  0.67275669  1
  Sn2+  Sn44  1  0.33643069  0.83071118  0.82405446  1
  Sn2+  Sn45  1  0.49927304  0.17107259  -0.00097604  1
  Sn2+  Sn46  1  0.83393715  0.67141518  0.49879399  1
  Sn2+  Sn47  1  0.50769236  0.33751527  0.82913687  1
  Sn2+  Sn48  1  0.48942553  0.00427569  0.16983175  1
  Sn2+  Sn49  1  0.82325374  0.49915253  0.67258439  1
  Sn2+  Sn50  1  0.83460970  0.48518945  0.33034679  1
  Sn2+  Sn51  1  0.16017368  0.49880201  0.00003194  1
  Sn2+  Sn52  1  0.64824763  0.49325055  0.83193038  1
  Sn2+  Sn53  1  0.65922026  0.16837033  0.50108956  1
  Sn2+  Sn54  1  0.82766017  0.00472987  0.82864633  1
  Sn2+  Sn55  1  0.00107113  0.00592823  0.00754072  1
  Sn2+  Sn56  1  0.66045024  0.83819764  0.50180107  1
  Sn2+  Sn57  1  0.16712000  0.67515770  0.82719554  1
  Sn2+  Sn58  1  0.34066503  0.16955509  0.50019235  1
  Sn2+  Sn59  1  0.83305727  0.00410105  0.49397551  1
  Sn2+  Sn60  1  0.83471812  0.83844537  0.67142491  1
  Sn2+  Sn61  1  0.66458807  0.00459254  0.33091928  1
  Sn2+  Sn62  1  0.00014977  0.66339203  0.34265564  1
  Sn2+  Sn63  1  0.83237045  0.32008323  0.16465970  1
  Sn2+  Sn64  1  0.17350925  -0.00629388  0.16921139  1
  Bi3+  Bi65  1  0.49895349  0.15754316  0.33804470  1
  Bi3+  Bi66  1  0.83657931  0.49743680  -0.00173978  1
  Bi3+  Bi67  1  0.66337554  0.33228821  0.00320860  1
  Bi3+  Bi68  1  0.16573463  0.83353256  0.66648788  1
  Bi3+  Bi69  1  0.49958428  0.66987056  0.83330365  1
  Bi3+  Bi70  1  0.66204667  0.66574952  0.66885104  1
  Bi3+  Bi71  1  0.00252930  0.33635864  0.00057606  1
  Bi3+  Bi72  1  0.16263108  0.83530719  0.33381317  1
  Bi3+  Bi73  1  0.33863020  0.32835912  0.33873981  1
  Bi3+  Bi74  1  0.66516538  0.33022924  0.33330932  1
  Bi3+  Bi75  1  0.17084409  0.16392882  0.33814699  1
  Bi3+  Bi76  1  0.00318895  0.00244727  0.33199304  1
  Bi3+  Bi77  1  0.16311759  0.66981863  0.50253272  1
  Bi3+  Bi78  1  0.83668240  0.16757027  -0.00147003  1
  Bi3+  Bi79  1  0.66979188  0.84124018  0.83292222  1
  Bi3+  Bi80  1  0.66279474  0.00313127  -0.00502498  1
  Bi3+  Bi81  1  -0.00123211  0.49589236  0.16298884  1
  Bi3+  Bi82  1  0.33596886  0.66756115  0.66828444  1
  Bi3+  Bi83  1  0.66466275  0.16360170  0.16490488  1
  Bi3+  Bi84  1  0.66618642  0.49999523  0.16617917  1
  Bi3+  Bi85  1  0.33201647  0.67438494  0.33284911  1
  Te2-  Te86  1  0.17081095  0.16601007  0.16702581  1
  Te2-  Te87  1  0.17105683  0.15710057  0.50112038  1
  Te2-  Te88  1  0.17292111  0.15630914  0.82490876  1
  Te2-  Te89  1  0.16528900  0.50160771  0.16429142  1
  Te2-  Te90  1  0.16400771  0.50349935  0.50753616  1
  Te2-  Te91  1  0.18211673  0.50208698  0.82760524  1
  Te2-  Te92  1  0.16160324  0.83328153  0.16710926  1
  Te2-  Te93  1  0.15816362  0.83585501  0.50014457  1
  Te2-  Te94  1  0.16733171  0.84450540  0.82938438  1
  Te2-  Te95  1  0.50358140  0.16555519  0.16961660  1
  Te2-  Te96  1  0.50110118  0.14807041  0.50046538  1
  Te2-  Te97  1  0.49218400  0.16355440  0.83624388  1
  Te2-  Te98  1  0.50123124  0.49930850  0.16153906  1
  Te2-  Te99  1  0.51102541  0.50872590  0.49472318  1
  Te2-  Te100  1  0.48801850  0.50662321  0.84429306  1
  Te2-  Te101  1  0.50294227  0.83472965  0.15871733  1
  Te2-  Te102  1  0.50268655  0.85223284  0.51681560  1
  Te2-  Te103  1  0.50552282  0.83558528  0.82072080  1
  Te2-  Te104  1  0.82494519  0.15999198  0.15974089  1
  Te2-  Te105  1  0.82667346  0.16438168  0.51439069  1
  Te2-  Te106  1  0.83949360  0.17186799  0.83250320  1
  Te2-  Te107  1  0.83208636  0.49847239  0.16418372  1
  Te2-  Te108  1  0.82279172  0.49995959  0.49888573  1
  Te2-  Te109  1  0.82075959  0.49199978  0.83498235  1
  Te2-  Te110  1  0.83361257  0.84056268  0.16045227  1
  Te2-  Te111  1  0.83678331  0.83558620  0.50223554  1
  Te2-  Te112  1  0.83263013  0.83450458  0.84232321  1
  Te2-  Te113  1  0.16120399  0.00527782  -0.00511548  1
  Te2-  Te114  1  0.16552017  0.00035138  0.33663092  1
  Te2-  Te115  1  0.16208253  -0.00380355  0.66411471  1
  Te2-  Te116  1  0.16759807  0.32891266  -0.00214598  1
  Te2-  Te117  1  0.17738574  0.33137795  0.33505209  1
  Te2-  Te118  1  0.16589061  0.33748281  0.66471138  1
  Te2-  Te119  1  0.15495535  0.66749864  -0.00807549  1
  Te2-  Te120  1  0.16760465  0.67006202  0.34036603  1
  Te2-  Te121  1  0.17365234  0.66678064  0.66427472  1
  Te2-  Te122  1  0.49915698  0.00339368  -0.00626358  1
  Te2-  Te123  1  0.49690654  -0.00924843  0.32880862  1
  Te2-  Te124  1  0.49644872  0.00726200  0.68055920  1
  Te2-  Te125  1  0.50189294  0.33695996  -0.00083171  1
  Te2-  Te126  1  0.49931385  0.32198115  0.33807022  1
  Te2-  Te127  1  0.50959652  0.31995408  0.66858926  1
  Te2-  Te128  1  0.49672442  0.66479316  -0.00080990  1
  Te2-  Te129  1  0.49257538  0.68616359  0.33711692  1
  Te2-  Te130  1  0.49874454  0.66805213  0.67164951  1
  Te2-  Te131  1  0.82840864  0.00558109  -0.00080245  1
  Te2-  Te132  1  0.83584432  0.01462218  0.33305581  1
  Te2-  Te133  1  0.84064068  0.00177599  0.66686732  1
  Te2-  Te134  1  0.83241030  0.33341000  -0.00270812  1
  Te2-  Te135  1  0.82744611  0.31672247  0.33227216  1
  Te2-  Te136  1  0.81628258  0.33530192  0.67144209  1
  Te2-  Te137  1  0.84457789  0.66074309  -0.00012123  1
  Te2-  Te138  1  0.83978168  0.66452217  0.33567113  1
  Te2-  Te139  1  0.82664369  0.66568952  0.66392588  1
  Te2-  Te140  1  0.00078195  0.17368505  0.01481857  1
  Te2-  Te141  1  0.00885203  0.17405713  0.32391890  1
  Te2-  Te142  1  0.00159109  0.15609675  0.66806391  1
  Te2-  Te143  1  -0.00069066  0.50050537  -0.00810364  1
  Te2-  Te144  1  -0.00481411  0.48789476  0.32872398  1
  Te2-  Te145  1  -0.01122540  0.49549743  0.67109118  1
  Te2-  Te146  1  -0.00089646  0.83325331  0.01221070  1
  Te2-  Te147  1  0.00168157  0.83413625  0.31867467  1
  Te2-  Te148  1  0.00173572  0.84327232  0.66753176  1
  Te2-  Te149  1  0.32830011  0.18238056  -0.01207750  1
  Te2-  Te150  1  0.33447258  0.15494834  0.33364002  1
  Te2-  Te151  1  0.33420107  0.16923679  0.67306499  1
  Te2-  Te152  1  0.32991306  0.48619617  0.00030886  1
  Te2-  Te153  1  0.34005696  0.50342970  0.33322475  1
  Te2-  Te154  1  0.34965657  0.49954123  0.67041200  1
  Te2-  Te155  1  0.32148226  0.83062386  -0.00272922  1
  Te2-  Te156  1  0.32593024  0.84416606  0.34139544  1
  Te2-  Te157  1  0.32744339  0.83192030  0.66194679  1
  Te2-  Te158  1  0.66816668  0.16678121  -0.00080319  1
  Te2-  Te159  1  0.66235539  0.16456878  0.33165342  1
  Te2-  Te160  1  0.67117414  0.16650543  0.67225875  1
  Te2-  Te161  1  0.67060706  0.49613554  0.00193132  1
  Te2-  Te162  1  0.66460077  0.49653392  0.32695962  1
  Te2-  Te163  1  0.65067037  0.50212419  0.67171350  1
  Te2-  Te164  1  0.67107058  0.83728893  -0.00174960  1
  Te2-  Te165  1  0.66640853  0.83804495  0.32972396  1
  Te2-  Te166  1  0.67246114  0.83276085  0.67160730  1
  Te2-  Te167  1  0.00482700  0.00402747  0.16837186  1
  Te2-  Te168  1  -0.00291315  -0.00698982  0.49098747  1
  Te2-  Te169  1  -0.00400848  -0.00236111  0.83891199  1
  Te2-  Te170  1  -0.00387172  0.33642254  0.16240669  1
  Te2-  Te171  1  -0.00108392  0.33093275  0.50026890  1
  Te2-  Te172  1  -0.00040745  0.34123292  0.83661075  1
  Te2-  Te173  1  0.01498124  0.65656431  0.17147216  1
  Te2-  Te174  1  0.00050326  0.67381516  0.51269644  1
  Te2-  Te175  1  0.00414887  0.65733967  0.81244185  1
  Te2-  Te176  1  0.33110836  0.00211190  0.14508343  1
  Te2-  Te177  1  0.33177126  -0.00273192  0.50747393  1
  Te2-  Te178  1  0.33555699  -0.00064745  0.84557938  1
  Te2-  Te179  1  0.34277915  0.34254854  0.17773072  1
  Te2-  Te180  1  0.34822038  0.33286864  0.50331069  1
  Te2-  Te181  1  0.33792467  0.33203652  0.82459148  1
  Te2-  Te182  1  0.32050493  0.66158863  0.17044622  1
  Te2-  Te183  1  0.32936366  0.67097997  0.49918012  1
  Te2-  Te184  1  0.33471928  0.67047946  0.83174067  1
  Te2-  Te185  1  0.66094539  -0.00271238  0.15940458  1
  Te2-  Te186  1  0.66202482  -0.00195791  0.50719742  1
  Te2-  Te187  1  0.66448786  0.00584653  0.83154885  1
  Te2-  Te188  1  0.66175463  0.33391463  0.16858723  1
  Te2-  Te189  1  0.65116677  0.33872156  0.49660021  1
  Te2-  Te190  1  0.66718001  0.32043445  0.84220829  1
  Te2-  Te191  1  0.66898985  0.66670977  0.16835958  1
  Te2-  Te192  1  0.66925785  0.67026308  0.50384405  1
  Te2-  Te193  1  0.66526692  0.67066018  0.83377394  1
  Pb2+  Pb194  1  0.82684579  0.33069449  0.50104666  1
  Pb2+  Pb195  1  0.16738725  0.50151407  0.33576797  1
  Pb2+  Pb196  1  0.33623883  0.50109742  0.50227392  1
  Pb2+  Pb197  1  0.17364085  0.32631301  0.50065499  1
  Pb2+  Pb198  1  -0.00272610  0.16234383  0.49447223  1
  Pb2+  Pb199  1  0.33086614  0.83708474  0.17243141  1
  Pb2+  Pb200  1  0.83598311  0.84112473  0.33472934  1
  Pb2+  Pb201  1  0.66472379  0.66500750  0.33599857  1
  Pb2+  Pb202  1  0.00165644  0.82601260  0.83905901  1
  Pb2+  Pb203  1  0.32604322  0.65763718  0.00069106  1
  Pb2+  Pb204  1  0.49724083  0.83479993  -0.01249650  1
  Pb2+  Pb205  1  0.84401393  0.67235791  0.16841712  1
  Pb2+  Pb206  1  0.33847902  0.17140207  0.15982952  1
  Pb2+  Pb207  1  0.50116494  0.68248157  0.50536459  1
  Pb2+  Pb208  1  0.66922188  0.66505750  0.00178242  1
  Pb2+  Pb209  1  -0.01070132  0.32725619  0.66835707  1
  Pb2+  Pb210  1  0.16754940  0.33552298  0.16620135  1
  Pb2+  Pb211  1  -0.00667934  0.50271078  0.49983674  1
  Pb2+  Pb212  1  0.16757067  0.32949262  0.83085146  1
  Pb2+  Pb213  1  0.83792398  0.66111562  0.83172056  1
  Pb2+  Pb214  1  0.00546624  0.16641571  0.84479753  1
  Pb2+  Pb215  1  0.49477529  0.66550980  0.17233906  1
