# generated using pymatgen
data_In22Ag21Sn22Bi21(Te54Pb11)2
_symmetry_space_group_name_H-M   'P 1'
_cell_length_a   19.12397783
_cell_length_b   19.14089672
_cell_length_c   19.12034937
_cell_angle_alpha   89.99586516
_cell_angle_beta   89.98226428
_cell_angle_gamma   89.98962724
_symmetry_Int_Tables_number   1
_chemical_formula_structural   In22Ag21Sn22Bi21(Te54Pb11)2
_chemical_formula_sum   'In22 Ag21 Sn22 Bi21 Te108 Pb22'
_cell_volume   6999.00503373
_cell_formula_units_Z   1
loop_
 _symmetry_equiv_pos_site_id
 _symmetry_equiv_pos_as_xyz
  1  'x, y, z'
loop_
 _atom_type_symbol
 _atom_type_oxidation_number
  In3+  3.0
  Ag+  1.0
  Sn2+  2.0
  Bi3+  3.0
  Te2-  -2.0
  Pb2+  2.0
loop_
 _atom_site_type_symbol
 _atom_site_label
 _atom_site_symmetry_multiplicity
 _atom_site_fract_x
 _atom_site_fract_y
 _atom_site_fract_z
 _atom_site_occupancy
  In3+  In0  1  0.16434741  0.34657938  0.83521468  1
  In3+  In1  1  0.32542882  0.34022629  0.66818837  1
  In3+  In2  1  0.48286398  0.00102798  0.47165821  1
  In3+  In3  1  0.68926175  0.83119652  0.50834315  1
  In3+  In4  1  0.84634326  0.82869705  0.68110826  1
  In3+  In5  1  0.33876883  -0.00250177  0.66888440  1
  In3+  In6  1  0.83650392  0.49089561  0.32583667  1
  In3+  In7  1  0.47511017  -0.01698597  0.84413879  1
  In3+  In8  1  0.16418049  -0.01581275  0.15304720  1
  In3+  In9  1  0.15332621  0.16365944  -0.00030471  1
  In3+  In10  1  0.00003039  0.32385114  -0.00120851  1
  In3+  In11  1  0.49398119  0.32993452  0.16468024  1
  In3+  In12  1  0.50796480  0.32654760  0.51202628  1
  In3+  In13  1  0.49182569  0.50749676  0.66689711  1
  In3+  In14  1  0.15383319  0.81671108  0.67631679  1
  In3+  In15  1  0.64575682  0.50207613  0.82485261  1
  In3+  In16  1  0.01483427  0.66517314  0.00293227  1
  In3+  In17  1  0.65400477  0.82830077  0.84262241  1
  In3+  In18  1  0.31426183  0.17003195  0.49876596  1
  In3+  In19  1  0.00611249  0.15039395  0.82588503  1
  In3+  In20  1  0.15388631  -0.01120138  0.51981725  1
  In3+  In21  1  0.33379274  0.81813452  0.15623008  1
  Ag+  Ag22  1  0.85694602  0.37016994  0.52796917  1
  Ag+  Ag23  1  0.01917097  0.19746583  0.48612899  1
  Ag+  Ag24  1  -0.00204186  0.83377124  0.52024004  1
  Ag+  Ag25  1  -0.02353151  0.49910045  0.15885174  1
  Ag+  Ag26  1  0.50673764  0.66748550  0.82991090  1
  Ag+  Ag27  1  0.84208942  0.16678243  0.02728129  1
  Ag+  Ag28  1  0.14136492  0.64050929  0.16689536  1
  Ag+  Ag29  1  0.00032545  0.81407210  0.84824901  1
  Ag+  Ag30  1  0.64050531  0.14464040  0.14454171  1
  Ag+  Ag31  1  0.33419309  0.52370621  0.83730089  1
  Ag+  Ag32  1  0.52120994  0.02645015  0.16069890  1
  Ag+  Ag33  1  0.33821417  0.47603545  0.19604360  1
  Ag+  Ag34  1  -0.00627766  0.65826126  0.64282641  1
  Ag+  Ag35  1  0.15014581  -0.02635202  0.81594278  1
  Ag+  Ag36  1  0.16757615  0.66283911  0.51689406  1
  Ag+  Ag37  1  0.84659094  0.47163310  0.69173090  1
  Ag+  Ag38  1  -0.00334263  0.01995612  0.00352092  1
  Ag+  Ag39  1  0.00116015  0.30947635  0.64170195  1
  Ag+  Ag40  1  0.16214178  0.67161214  0.82109508  1
  Ag+  Ag41  1  0.81262111  -0.01733164  0.14394872  1
  Ag+  Ag42  1  0.69162789  0.85411955  0.16536191  1
  Sn2+  Sn43  1  0.49715153  0.50451106  0.00009942  1
  Sn2+  Sn44  1  0.84501041  0.66727724  0.50054915  1
  Sn2+  Sn45  1  0.16385209  0.34717256  0.16753641  1
  Sn2+  Sn46  1  0.32656603  -0.00180574  0.33217609  1
  Sn2+  Sn47  1  0.00293255  0.66693397  0.33832898  1
  Sn2+  Sn48  1  0.66962582  0.33191182  0.32882319  1
  Sn2+  Sn49  1  0.32731237  0.50368863  0.50666726  1
  Sn2+  Sn50  1  0.50641892  0.83213948  0.00758313  1
  Sn2+  Sn51  1  0.33042745  0.16395342  0.16605282  1
  Sn2+  Sn52  1  0.83716256  0.67319161  0.16137470  1
  Sn2+  Sn53  1  0.84031372  0.84215124  -0.00085932  1
  Sn2+  Sn54  1  0.84852684  0.66536968  0.83347160  1
  Sn2+  Sn55  1  0.33159831  0.66094217  -0.00539675  1
  Sn2+  Sn56  1  0.16404887  0.83218821  -0.00552810  1
  Sn2+  Sn57  1  0.00470147  -0.00365227  0.32573427  1
  Sn2+  Sn58  1  0.32524333  0.66745924  0.67408341  1
  Sn2+  Sn59  1  0.16038523  0.83148115  0.33993850  1
  Sn2+  Sn60  1  0.83591127  0.49938316  -0.00147177  1
  Sn2+  Sn61  1  0.16204432  0.15935454  0.31957483  1
  Sn2+  Sn62  1  0.67065829  0.67006698  0.33514401  1
  Sn2+  Sn63  1  0.67225826  0.32525784  0.00278659  1
  Sn2+  Sn64  1  0.65729848  0.49808098  0.15961296  1
  Bi3+  Bi65  1  0.83218005  0.33019927  0.16674022  1
  Bi3+  Bi66  1  0.83754716  0.00050714  0.49603511  1
  Bi3+  Bi67  1  0.33188439  0.16485245  0.83071860  1
  Bi3+  Bi68  1  0.16870310  0.17051463  0.67150323  1
  Bi3+  Bi69  1  0.50009439  0.83236637  0.33227472  1
  Bi3+  Bi70  1  0.32693016  0.00260483  0.00204607  1
  Bi3+  Bi71  1  0.16380627  0.50261143  0.33000595  1
  Bi3+  Bi72  1  0.83437241  0.16482841  0.33571103  1
  Bi3+  Bi73  1  0.50279359  0.66508827  0.15731490  1
  Bi3+  Bi74  1  0.15647168  0.50252368  0.66819753  1
  Bi3+  Bi75  1  0.49668269  0.16866120  0.67013316  1
  Bi3+  Bi76  1  0.67075495  -0.00377214  -0.00288352  1
  Bi3+  Bi77  1  0.00636024  0.50450830  0.83658096  1
  Bi3+  Bi78  1  0.83332492  0.83147608  0.33065745  1
  Bi3+  Bi79  1  0.66693444  0.66215375  -0.00144080  1
  Bi3+  Bi80  1  0.66532765  -0.00064519  0.66809890  1
  Bi3+  Bi81  1  0.66657778  0.50123066  0.50344619  1
  Bi3+  Bi82  1  0.66939471  0.16542671  0.49867626  1
  Bi3+  Bi83  1  0.84071631  -0.00135966  0.83892300  1
  Bi3+  Bi84  1  0.83525188  0.16279692  0.66415611  1
  Bi3+  Bi85  1  0.32790581  0.83813993  0.49978119  1
  Te2-  Te86  1  0.16692606  0.17977191  0.16052370  1
  Te2-  Te87  1  0.16077929  0.16253092  0.50637801  1
  Te2-  Te88  1  0.16496818  0.17414836  0.83573830  1
  Te2-  Te89  1  0.18953233  0.50012807  0.17017737  1
  Te2-  Te90  1  0.16592101  0.51230171  0.49949379  1
  Te2-  Te91  1  0.17462927  0.50307882  0.82967717  1
  Te2-  Te92  1  0.17952004  0.83411213  0.16960566  1
  Te2-  Te93  1  0.16475535  0.83707036  0.50376407  1
  Te2-  Te94  1  0.15442616  0.82662259  0.82875746  1
  Te2-  Te95  1  0.49892081  0.17392780  0.16827787  1
  Te2-  Te96  1  0.50401554  0.16219807  0.50732328  1
  Te2-  Te97  1  0.49865942  0.17093789  0.83157020  1
  Te2-  Te98  1  0.48785845  0.50174042  0.16354661  1
  Te2-  Te99  1  0.50323962  0.49779852  0.50876423  1
  Te2-  Te100  1  0.49011215  0.51202703  0.82308797  1
  Te2-  Te101  1  0.48963165  0.82635431  0.16887751  1
  Te2-  Te102  1  0.49402318  0.83914860  0.49681518  1
  Te2-  Te103  1  0.49908457  0.82098132  0.83491747  1
  Te2-  Te104  1  0.83432237  0.16966419  0.17480608  1
  Te2-  Te105  1  0.83195476  0.16329970  0.50135086  1
  Te2-  Te106  1  0.84254133  0.16250412  0.82677604  1
  Te2-  Te107  1  0.82576051  0.49632751  0.16770618  1
  Te2-  Te108  1  0.82698449  0.50697994  0.48480384  1
  Te2-  Te109  1  0.84190067  0.50441160  0.83670220  1
  Te2-  Te110  1  0.83928896  0.83996069  0.16744340  1
  Te2-  Te111  1  0.84564725  0.83569748  0.49335203  1
  Te2-  Te112  1  0.84884571  0.83673747  0.83409948  1
  Te2-  Te113  1  0.16266107  0.00711250  0.00104952  1
  Te2-  Te114  1  0.16593661  0.00104546  0.33104822  1
  Te2-  Te115  1  0.16841171  0.00761923  0.67299498  1
  Te2-  Te116  1  0.16005830  0.33256174  -0.00232135  1
  Te2-  Te117  1  0.16774532  0.33560123  0.33509135  1
  Te2-  Te118  1  0.15363159  0.33549474  0.67132372  1
  Te2-  Te119  1  0.16936402  0.67307174  0.01769348  1
  Te2-  Te120  1  0.16337646  0.66358968  0.31651345  1
  Te2-  Te121  1  0.15653159  0.66574750  0.66664261  1
  Te2-  Te122  1  0.49917617  -0.00465149  0.00710914  1
  Te2-  Te123  1  0.49800221  -0.00472476  0.31130964  1
  Te2-  Te124  1  0.50310228  0.00351958  0.68254878  1
  Te2-  Te125  1  0.50464778  0.33513019  0.00724587  1
  Te2-  Te126  1  0.50293398  0.33484360  0.32176281  1
  Te2-  Te127  1  0.49750439  0.33569523  0.66757443  1
  Te2-  Te128  1  0.50398107  0.66619125  -0.01405912  1
  Te2-  Te129  1  0.50022048  0.66895486  0.33228280  1
  Te2-  Te130  1  0.49740656  0.66173109  0.67645257  1
  Te2-  Te131  1  0.83890725  0.00919682  0.00092659  1
  Te2-  Te132  1  0.83778163  -0.00232792  0.33407845  1
  Te2-  Te133  1  0.82923488  -0.00361136  0.66539494  1
  Te2-  Te134  1  0.83920153  0.32371871  0.00366222  1
  Te2-  Te135  1  0.83287050  0.33155536  0.33226409  1
  Te2-  Te136  1  0.84662481  0.32549258  0.66647419  1
  Te2-  Te137  1  0.82747774  0.67087661  0.00007790  1
  Te2-  Te138  1  0.83305106  0.67162813  0.33102138  1
  Te2-  Te139  1  0.84585924  0.67794133  0.66106486  1
  Te2-  Te140  1  -0.00376479  0.16876350  -0.00422255  1
  Te2-  Te141  1  0.00004964  0.16361566  0.34225367  1
  Te2-  Te142  1  0.00211366  0.16485330  0.66989961  1
  Te2-  Te143  1  -0.00169541  0.51054617  0.00559870  1
  Te2-  Te144  1  -0.00133123  0.50343964  0.32118229  1
  Te2-  Te145  1  -0.00532217  0.50992861  0.67174923  1
  Te2-  Te146  1  0.00306628  0.82279149  -0.00276397  1
  Te2-  Te147  1  -0.00073381  0.83351821  0.32818232  1
  Te2-  Te148  1  0.00227184  0.82738048  0.66901881  1
  Te2-  Te149  1  0.33319184  0.16465390  -0.00520985  1
  Te2-  Te150  1  0.32983767  0.16492750  0.34279413  1
  Te2-  Te151  1  0.33371256  0.16772542  0.66387166  1
  Te2-  Te152  1  0.33719597  0.50044677  -0.01525712  1
  Te2-  Te153  1  0.33376866  0.50211033  0.34342972  1
  Te2-  Te154  1  0.32584357  0.49649479  0.66775000  1
  Te2-  Te155  1  0.33347427  0.84067947  0.00181395  1
  Te2-  Te156  1  0.33363921  0.83760520  0.33704007  1
  Te2-  Te157  1  0.32939256  0.83749822  0.66380123  1
  Te2-  Te158  1  0.67699574  0.16266128  0.00217733  1
  Te2-  Te159  1  0.66831932  0.16533564  0.33672004  1
  Te2-  Te160  1  0.66461573  0.16616441  0.66594119  1
  Te2-  Te161  1  0.66638415  0.49955846  -0.01128700  1
  Te2-  Te162  1  0.67544986  0.50120793  0.33684461  1
  Te2-  Te163  1  0.68899077  0.50158550  0.66867031  1
  Te2-  Te164  1  0.67030982  0.83272532  0.00871737  1
  Te2-  Te165  1  0.66533941  0.83000115  0.31675261  1
  Te2-  Te166  1  0.66983681  0.83716649  0.66747311  1
  Te2-  Te167  1  0.01338490  0.00098641  0.15538962  1
  Te2-  Te168  1  0.00186010  -0.01307094  0.50050478  1
  Te2-  Te169  1  0.00563788  0.00094385  0.84702480  1
  Te2-  Te170  1  -0.00178471  0.34588027  0.15565334  1
  Te2-  Te171  1  -0.00165692  0.34204153  0.49748313  1
  Te2-  Te172  1  0.00717605  0.34287071  0.84420626  1
  Te2-  Te173  1  -0.00597447  0.65507299  0.15971622  1
  Te2-  Te174  1  0.01143164  0.68016098  0.49602825  1
  Te2-  Te175  1  0.01051012  0.66475717  0.84673152  1
  Te2-  Te176  1  0.31890559  0.00741898  0.16349679  1
  Te2-  Te177  1  0.32729321  0.00290649  0.50371840  1
  Te2-  Te178  1  0.31624797  0.00347615  0.83727302  1
  Te2-  Te179  1  0.33669851  0.33101921  0.16423981  1
  Te2-  Te180  1  0.33809009  0.33143062  0.50827738  1
  Te2-  Te181  1  0.32704134  0.32768567  0.82506898  1
  Te2-  Te182  1  0.34362074  0.66652120  0.15869802  1
  Te2-  Te183  1  0.32179296  0.67368853  0.50528954  1
  Te2-  Te184  1  0.31276566  0.66891057  0.83012734  1
  Te2-  Te185  1  0.66688331  0.00024319  0.15959570  1
  Te2-  Te186  1  0.67017404  -0.00251738  0.50480748  1
  Te2-  Te187  1  0.67438197  -0.00762863  0.83496991  1
  Te2-  Te188  1  0.66874729  0.33875263  0.16377621  1
  Te2-  Te189  1  0.66597488  0.33212341  0.49594146  1
  Te2-  Te190  1  0.66701199  0.34018279  0.83433389  1
  Te2-  Te191  1  0.66372874  0.65904829  0.16299861  1
  Te2-  Te192  1  0.66312402  0.66741721  0.50056322  1
  Te2-  Te193  1  0.67177986  0.66554525  0.83557072  1
  Pb2+  Pb194  1  -0.00105275  -0.00569033  0.67209963  1
  Pb2+  Pb195  1  0.50892897  0.50066763  0.33276723  1
  Pb2+  Pb196  1  -0.00358198  0.51137540  0.50031577  1
  Pb2+  Pb197  1  0.32548537  0.83254377  0.83324193  1
  Pb2+  Pb198  1  0.50415297  0.16301465  -0.00066288  1
  Pb2+  Pb199  1  0.67513503  0.66702384  0.66858508  1
  Pb2+  Pb200  1  0.32808551  0.66964430  0.32923114  1
  Pb2+  Pb201  1  0.49055236  0.66930652  0.50558554  1
  Pb2+  Pb202  1  0.50044691  0.83548003  0.66621118  1
  Pb2+  Pb203  1  0.33032615  0.33553655  -0.00363170  1
  Pb2+  Pb204  1  0.00900409  0.82868920  0.16320471  1
  Pb2+  Pb205  1  0.49888338  0.16564005  0.33768676  1
  Pb2+  Pb206  1  0.33470592  0.33322646  0.33537044  1
  Pb2+  Pb207  1  -0.00142767  0.16696515  0.16951103  1
  Pb2+  Pb208  1  0.16767744  0.33896805  0.50418839  1
  Pb2+  Pb209  1  0.67325495  0.33843530  0.66360882  1
  Pb2+  Pb210  1  0.00019787  0.33523848  0.32737503  1
  Pb2+  Pb211  1  0.16883523  0.50489135  0.00109043  1
  Pb2+  Pb212  1  0.83830701  0.33461601  0.83557015  1
  Pb2+  Pb213  1  0.66852468  -0.00391329  0.33328195  1
  Pb2+  Pb214  1  0.49707005  0.34202752  0.83636561  1
  Pb2+  Pb215  1  0.67343135  0.16299127  0.83698985  1
