# generated using pymatgen
data_In22Ag21Sn22Bi21(Te54Pb11)2
_symmetry_space_group_name_H-M   'P 1'
_cell_length_a   19.09708886
_cell_length_b   19.08785134
_cell_length_c   19.09644709
_cell_angle_alpha   90.00313041
_cell_angle_beta   90.00480311
_cell_angle_gamma   89.99869684
_symmetry_Int_Tables_number   1
_chemical_formula_structural   In22Ag21Sn22Bi21(Te54Pb11)2
_chemical_formula_sum   'In22 Ag21 Sn22 Bi21 Te108 Pb22'
_cell_volume   6961.08255914
_cell_formula_units_Z   1
loop_
 _symmetry_equiv_pos_site_id
 _symmetry_equiv_pos_as_xyz
  1  'x, y, z'
loop_
 _atom_type_symbol
 _atom_type_oxidation_number
  In3+  3.0
  Ag+  1.0
  Sn2+  2.0
  Bi3+  3.0
  Te2-  -2.0
  Pb2+  2.0
loop_
 _atom_site_type_symbol
 _atom_site_label
 _atom_site_symmetry_multiplicity
 _atom_site_fract_x
 _atom_site_fract_y
 _atom_site_fract_z
 _atom_site_occupancy
  In3+  In0  1  -0.00384683  0.66719169  0.34236903  1
  In3+  In1  1  0.67374525  0.16879360  0.49501772  1
  In3+  In2  1  0.67664194  0.00257811  0.33110869  1
  In3+  In3  1  0.66673671  -0.00429214  0.65760393  1
  In3+  In4  1  0.33616745  0.66442269  0.34660334  1
  In3+  In5  1  0.50451908  0.50292198  -0.01522725  1
  In3+  In6  1  -0.01820188  0.83188760  0.17715737  1
  In3+  In7  1  0.34490393  0.00859155  0.34556677  1
  In3+  In8  1  0.66541540  0.00323329  -0.00748610  1
  In3+  In9  1  0.34508587  0.15422290  0.51197528  1
  In3+  In10  1  0.82129402  0.83290893  -0.00457885  1
  In3+  In11  1  0.50230394  0.64675042  0.16724591  1
  In3+  In12  1  0.34001112  0.31072656  0.01380240  1
  In3+  In13  1  0.00734320  0.31995865  0.66650805  1
  In3+  In14  1  0.33586069  0.32085200  0.66638564  1
  In3+  In15  1  0.82123029  0.84297554  0.33844405  1
  In3+  In16  1  0.00989564  0.32247825  0.00623264  1
  In3+  In17  1  0.17217884  0.00963405  0.17770508  1
  In3+  In18  1  0.16022388  0.16326987  0.67163531  1
  In3+  In19  1  0.65435149  0.16767784  0.83669622  1
  In3+  In20  1  0.15920363  0.68708693  0.50305169  1
  In3+  In21  1  0.16702056  0.50000396  0.33223318  1
  Ag+  Ag22  1  -0.02480599  0.18385176  0.83144621  1
  Ag+  Ag23  1  0.17237552  0.31215531  0.17384068  1
  Ag+  Ag24  1  0.64510569  0.68149771  -0.01256814  1
  Ag+  Ag25  1  0.50663356  0.18760191  0.00901650  1
  Ag+  Ag26  1  0.14704362  0.01825914  0.51467645  1
  Ag+  Ag27  1  0.82530962  0.01105745  0.81173239  1
  Ag+  Ag28  1  0.51652104  0.00119051  0.49441452  1
  Ag+  Ag29  1  0.51976763  0.50086987  0.33550427  1
  Ag+  Ag30  1  0.65469509  0.63953645  0.69512515  1
  Ag+  Ag31  1  0.01595298  0.66556292  0.64727654  1
  Ag+  Ag32  1  0.81651377  -0.00024008  0.51227482  1
  Ag+  Ag33  1  0.50404412  0.66821997  0.80988292  1
  Ag+  Ag34  1  0.63755791  0.35632067  0.33184830  1
  Ag+  Ag35  1  0.33940625  0.17362460  0.18994809  1
  Ag+  Ag36  1  0.66174288  0.52595672  0.82080668  1
  Ag+  Ag37  1  0.51034931  0.35422898  0.49376576  1
  Ag+  Ag38  1  0.80881678  0.19228888  0.36231879  1
  Ag+  Ag39  1  0.65083818  0.82802391  0.15927504  1
  Ag+  Ag40  1  0.35852991  0.66682768  0.64588762  1
  Ag+  Ag41  1  0.33351202  0.14592241  0.82984800  1
  Ag+  Ag42  1  -0.02186043  0.84130889  0.48254296  1
  Sn2+  Sn43  1  0.66593681  0.66251653  0.33081572  1
  Sn2+  Sn44  1  0.17418737  0.32475580  0.49297912  1
  Sn2+  Sn45  1  0.33733747  -0.00944499  0.66567245  1
  Sn2+  Sn46  1  0.66046724  0.33145428  0.66056341  1
  Sn2+  Sn47  1  0.33783600  0.84078828  0.16692138  1
  Sn2+  Sn48  1  0.33690374  0.33652156  0.33494599  1
  Sn2+  Sn49  1  0.33843582  0.83105740  0.82597912  1
  Sn2+  Sn50  1  0.16806454  0.50152616  0.66323044  1
  Sn2+  Sn51  1  0.16016722  0.83429561  0.66352291  1
  Sn2+  Sn52  1  0.50312808  0.33643526  0.82885449  1
  Sn2+  Sn53  1  0.50501576  0.82576477  0.33307693  1
  Sn2+  Sn54  1  0.16707201  0.83235828  0.33265239  1
  Sn2+  Sn55  1  0.83019856  0.67603786  0.50954943  1
  Sn2+  Sn56  1  -0.01429006  0.49729765  0.82798392  1
  Sn2+  Sn57  1  0.83855626  0.82796446  0.66649859  1
  Sn2+  Sn58  1  0.66313621  0.50368698  0.16112671  1
  Sn2+  Sn59  1  0.49634766  0.50045436  0.66205455  1
  Sn2+  Sn60  1  0.17523452  0.67300305  0.17464437  1
  Sn2+  Sn61  1  0.50487963  0.32664703  0.17253144  1
  Sn2+  Sn62  1  0.17813009  0.16662683  -0.00685931  1
  Sn2+  Sn63  1  0.83077775  0.16172146  -0.00480092  1
  Sn2+  Sn64  1  0.66697594  0.83699200  0.49824350  1
  Bi3+  Bi65  1  0.33672519  0.00079797  0.00150401  1
  Bi3+  Bi66  1  0.16203532  0.83429068  0.00151529  1
  Bi3+  Bi67  1  0.33187114  0.49262909  0.50314924  1
  Bi3+  Bi68  1  0.17118459  0.33493796  0.83232374  1
  Bi3+  Bi69  1  0.34070276  0.50348388  0.83008180  1
  Bi3+  Bi70  1  -0.00100859  0.66681383  0.00271453  1
  Bi3+  Bi71  1  0.50003243  0.83477751  0.66445716  1
  Bi3+  Bi72  1  0.83236834  0.00063349  0.16811717  1
  Bi3+  Bi73  1  0.49839878  0.00224072  0.17069892  1
  Bi3+  Bi74  1  0.00343869  -0.00301056  0.33375769  1
  Bi3+  Bi75  1  0.82975630  0.50097482  -0.00096654  1
  Bi3+  Bi76  1  0.00671327  0.33195930  0.33688428  1
  Bi3+  Bi77  1  0.33520562  0.66396180  0.00036490  1
  Bi3+  Bi78  1  0.00403500  0.50266715  0.16360260  1
  Bi3+  Bi79  1  0.33539949  0.83428842  0.49804179  1
  Bi3+  Bi80  1  0.50109057  0.16869179  0.66775004  1
  Bi3+  Bi81  1  -0.00237217  -0.00022294  -0.00241788  1
  Bi3+  Bi82  1  0.00007438  0.83334998  0.83503239  1
  Bi3+  Bi83  1  0.83196157  0.50404379  0.66964421  1
  Bi3+  Bi84  1  0.83187243  0.67060851  0.83310761  1
  Bi3+  Bi85  1  0.16701049  0.16567050  0.33579231  1
  Te2-  Te86  1  0.17763598  0.16438882  0.16621032  1
  Te2-  Te87  1  0.17371235  0.16442776  0.50247615  1
  Te2-  Te88  1  0.18181640  0.17243104  0.82549550  1
  Te2-  Te89  1  0.16587301  0.50598058  0.17141675  1
  Te2-  Te90  1  0.16974446  0.49311586  0.49594366  1
  Te2-  Te91  1  0.16601426  0.49805453  0.83126579  1
  Te2-  Te92  1  0.17412294  0.83495068  0.16408997  1
  Te2-  Te93  1  0.17377457  0.83783083  0.50312001  1
  Te2-  Te94  1  0.16565773  0.83493191  0.83458504  1
  Te2-  Te95  1  0.49009105  0.16574834  0.16061855  1
  Te2-  Te96  1  0.49579889  0.15117707  0.50296932  1
  Te2-  Te97  1  0.49837403  0.16890965  0.82933150  1
  Te2-  Te98  1  0.50301759  0.49335056  0.18124755  1
  Te2-  Te99  1  0.49395116  0.50250976  0.49164566  1
  Te2-  Te100  1  0.50831639  0.50835126  0.83118881  1
  Te2-  Te101  1  0.50195547  0.84020169  0.17306815  1
  Te2-  Te102  1  0.49708646  0.84753507  0.49999074  1
  Te2-  Te103  1  0.49958915  0.82339053  0.82916970  1
  Te2-  Te104  1  0.83458692  0.16256049  0.15811952  1
  Te2-  Te105  1  0.82992798  0.15311686  0.50201332  1
  Te2-  Te106  1  0.83015697  0.15792009  0.83856457  1
  Te2-  Te107  1  0.83711569  0.49906235  0.16256490  1
  Te2-  Te108  1  0.83428913  0.50325822  0.50417181  1
  Te2-  Te109  1  0.81826988  0.50376709  0.83626673  1
  Te2-  Te110  1  0.82848269  0.83624485  0.17589335  1
  Te2-  Te111  1  0.83143148  0.84396064  0.49568012  1
  Te2-  Te112  1  0.83626373  0.83581092  0.83557194  1
  Te2-  Te113  1  0.16644444  -0.00096335  0.00371186  1
  Te2-  Te114  1  0.17028537  0.00240116  0.33281122  1
  Te2-  Te115  1  0.16940836  0.00653422  0.66201546  1
  Te2-  Te116  1  0.17140807  0.32900037  -0.00357506  1
  Te2-  Te117  1  0.16812922  0.33026273  0.32484628  1
  Te2-  Te118  1  0.16635461  0.33198126  0.66545206  1
  Te2-  Te119  1  0.16721978  0.66887466  0.00010105  1
  Te2-  Te120  1  0.16433400  0.66537737  0.34064417  1
  Te2-  Te121  1  0.16382694  0.66458348  0.65860748  1
  Te2-  Te122  1  0.50205505  -0.00232103  0.00387008  1
  Te2-  Te123  1  0.49585437  -0.00138140  0.33632294  1
  Te2-  Te124  1  0.50454499  0.00005698  0.66263458  1
  Te2-  Te125  1  0.49403317  0.33480659  0.00091982  1
  Te2-  Te126  1  0.49242386  0.33919198  0.34133237  1
  Te2-  Te127  1  0.49915117  0.33256307  0.65319465  1
  Te2-  Te128  1  0.50072589  0.65939690  0.01016995  1
  Te2-  Te129  1  0.49250921  0.65720514  0.32572045  1
  Te2-  Te130  1  0.50794764  0.67056648  0.66294755  1
  Te2-  Te131  1  0.83199091  -0.00604431  0.00642170  1
  Te2-  Te132  1  0.84085586  -0.00265829  0.32955798  1
  Te2-  Te133  1  0.82433852  -0.00584492  0.66311659  1
  Te2-  Te134  1  0.83494316  0.33511434  -0.00067746  1
  Te2-  Te135  1  0.84582085  0.33099043  0.33469376  1
  Te2-  Te136  1  0.83488930  0.33828258  0.66669023  1
  Te2-  Te137  1  0.83569180  0.66767750  -0.00006969  1
  Te2-  Te138  1  0.84122001  0.67400742  0.33772169  1
  Te2-  Te139  1  0.81833516  0.66632774  0.67142095  1
  Te2-  Te140  1  0.00304379  0.16246823  -0.01424229  1
  Te2-  Te141  1  0.00523931  0.16575084  0.32993357  1
  Te2-  Te142  1  0.00226481  0.16447532  0.67792331  1
  Te2-  Te143  1  -0.00325964  0.50037660  -0.00143215  1
  Te2-  Te144  1  0.00494186  0.49991170  0.33065177  1
  Te2-  Te145  1  -0.00434218  0.51515924  0.67074837  1
  Te2-  Te146  1  -0.00087340  0.83361838  0.00383807  1
  Te2-  Te147  1  0.00487242  0.83110801  0.33559773  1
  Te2-  Te148  1  0.00129017  0.81853595  0.67189923  1
  Te2-  Te149  1  0.34294374  0.16266021  -0.01689825  1
  Te2-  Te150  1  0.32978214  0.16529071  0.33847948  1
  Te2-  Te151  1  0.33686419  0.16489792  0.67229445  1
  Te2-  Te152  1  0.34140761  0.49982909  -0.00365705  1
  Te2-  Te153  1  0.32397644  0.50592194  0.33660638  1
  Te2-  Te154  1  0.33639216  0.51538434  0.66645992  1
  Te2-  Te155  1  0.32735552  0.83425790  -0.00202297  1
  Te2-  Te156  1  0.33422896  0.82330631  0.33515710  1
  Te2-  Te157  1  0.33415523  0.82149880  0.66370435  1
  Te2-  Te158  1  0.65511603  0.16340535  -0.00489190  1
  Te2-  Te159  1  0.66955804  0.15739264  0.33682662  1
  Te2-  Te160  1  0.66266960  0.16523409  0.66294477  1
  Te2-  Te161  1  0.66330594  0.50352313  0.00345642  1
  Te2-  Te162  1  0.66799060  0.50107733  0.33085826  1
  Te2-  Te163  1  0.66589016  0.49440069  0.67279695  1
  Te2-  Te164  1  0.66931720  0.82610370  0.01039514  1
  Te2-  Te165  1  0.66735534  0.83612417  0.33345177  1
  Te2-  Te166  1  0.66407126  0.84165756  0.66261100  1
  Te2-  Te167  1  0.00303691  -0.00427671  0.16542280  1
  Te2-  Te168  1  0.00419441  -0.01025143  0.49544518  1
  Te2-  Te169  1  -0.01099009  -0.00494746  0.83539213  1
  Te2-  Te170  1  0.01539660  0.33697035  0.16672132  1
  Te2-  Te171  1  0.00265935  0.33014458  0.50433930  1
  Te2-  Te172  1  0.00636107  0.32974162  0.82722224  1
  Te2-  Te173  1  0.00294580  0.66754999  0.16747274  1
  Te2-  Te174  1  0.00198009  0.67982640  0.49787306  1
  Te2-  Te175  1  -0.00229098  0.66719145  0.84063127  1
  Te2-  Te176  1  0.33358258  0.00868998  0.16432056  1
  Te2-  Te177  1  0.33092690  -0.00182224  0.49950450  1
  Te2-  Te178  1  0.33289217  -0.00357405  0.83481854  1
  Te2-  Te179  1  0.32648188  0.32405147  0.16271632  1
  Te2-  Te180  1  0.33610444  0.33117278  0.50750887  1
  Te2-  Te181  1  0.33597884  0.34408308  0.82010988  1
  Te2-  Te182  1  0.34260902  0.66715565  0.16156416  1
  Te2-  Te183  1  0.32583404  0.66426828  0.50161512  1
  Te2-  Te184  1  0.34583441  0.66436636  0.83904873  1
  Te2-  Te185  1  0.66483809  -0.01063117  0.17310121  1
  Te2-  Te186  1  0.66781580  0.00568736  0.49112156  1
  Te2-  Te187  1  0.67550349  0.00809844  0.83749906  1
  Te2-  Te188  1  0.66338062  0.33111143  0.17960969  1
  Te2-  Te189  1  0.65737466  0.32450097  0.48835581  1
  Te2-  Te190  1  0.66307963  0.32247673  0.83215098  1
  Te2-  Te191  1  0.65703919  0.67382333  0.17295545  1
  Te2-  Te192  1  0.67000772  0.66843481  0.49137111  1
  Te2-  Te193  1  0.66677299  0.67190698  0.83985587  1
  Pb2+  Pb194  1  0.50273650  -0.00040402  0.83126960  1
  Pb2+  Pb195  1  0.17450649  0.66677721  0.82587113  1
  Pb2+  Pb196  1  0.00554786  0.16632503  0.15749158  1
  Pb2+  Pb197  1  0.50106642  0.17098391  0.33483030  1
  Pb2+  Pb198  1  0.50353227  0.67426971  0.49491868  1
  Pb2+  Pb199  1  0.16864232  0.49724522  0.00102072  1
  Pb2+  Pb200  1  0.66218557  0.49816958  0.50498697  1
  Pb2+  Pb201  1  0.66747491  0.83683247  0.83423958  1
  Pb2+  Pb202  1  0.82627823  0.66837230  0.16981353  1
  Pb2+  Pb203  1  0.66339173  0.33693266  0.00522732  1
  Pb2+  Pb204  1  0.82555810  0.32992008  0.50043398  1
  Pb2+  Pb205  1  0.49948955  0.83043169  0.00400845  1
  Pb2+  Pb206  1  0.82968298  0.16524854  0.67002278  1
  Pb2+  Pb207  1  0.83725921  0.32934088  0.16752617  1
  Pb2+  Pb208  1  0.00266309  0.50457291  0.50464590  1
  Pb2+  Pb209  1  0.15831983  0.00514685  0.83222152  1
  Pb2+  Pb210  1  0.00137105  0.15838190  0.49976910  1
  Pb2+  Pb211  1  0.66248217  0.16046284  0.16433707  1
  Pb2+  Pb212  1  0.83424582  0.33019675  0.83344876  1
  Pb2+  Pb213  1  0.33663074  0.49357470  0.16742071  1
  Pb2+  Pb214  1  -0.00328043  -0.01255500  0.66359523  1
  Pb2+  Pb215  1  0.83238269  0.50168986  0.33412580  1
