# generated using pymatgen
data_In22Ag21Sn22Bi21(Te54Pb11)2
_symmetry_space_group_name_H-M   'P 1'
_cell_length_a   19.12861464
_cell_length_b   19.13534322
_cell_length_c   19.15239502
_cell_angle_alpha   90.00122214
_cell_angle_beta   89.99630748
_cell_angle_gamma   89.98311923
_symmetry_Int_Tables_number   1
_chemical_formula_structural   In22Ag21Sn22Bi21(Te54Pb11)2
_chemical_formula_sum   'In22 Ag21 Sn22 Bi21 Te108 Pb22'
_cell_volume   7010.40074955
_cell_formula_units_Z   1
loop_
 _symmetry_equiv_pos_site_id
 _symmetry_equiv_pos_as_xyz
  1  'x, y, z'
loop_
 _atom_type_symbol
 _atom_type_oxidation_number
  In3+  3.0
  Ag+  1.0
  Sn2+  2.0
  Bi3+  3.0
  Te2-  -2.0
  Pb2+  2.0
loop_
 _atom_site_type_symbol
 _atom_site_label
 _atom_site_symmetry_multiplicity
 _atom_site_fract_x
 _atom_site_fract_y
 _atom_site_fract_z
 _atom_site_occupancy
  In3+  In0  1  0.16084649  0.14970335  0.66488531  1
  In3+  In1  1  0.49166013  0.82919793  -0.02212367  1
  In3+  In2  1  0.81596315  0.15178512  0.32952054  1
  In3+  In3  1  0.83454531  0.84846285  0.64985315  1
  In3+  In4  1  -0.01217089  0.51563428  0.17113961  1
  In3+  In5  1  0.50831913  0.51970086  0.67133511  1
  In3+  In6  1  0.34012608  0.32709342  0.34738598  1
  In3+  In7  1  0.16203204  0.33879370  0.17719723  1
  In3+  In8  1  0.17258416  -0.01007510  0.50330798  1
  In3+  In9  1  0.50560403  0.66943854  0.50392866  1
  In3+  In10  1  0.33219070  0.34737357  0.67720426  1
  In3+  In11  1  0.81197600  0.50292805  0.34531750  1
  In3+  In12  1  0.16058017  0.83465205  0.36021583  1
  In3+  In13  1  0.32663138  0.84074637  0.81483843  1
  In3+  In14  1  0.50198361  0.66361855  0.17854955  1
  In3+  In15  1  0.83023835  0.66865311  0.14366537  1
  In3+  In16  1  0.66605762  0.18853958  0.83919015  1
  In3+  In17  1  0.83751794  0.50213760  0.68109914  1
  In3+  In18  1  0.83064525  0.84735364  -0.00810610  1
  In3+  In19  1  0.33102267  0.48353484  0.16637749  1
  In3+  In20  1  0.33162226  0.00766560  -0.00801301  1
  In3+  In21  1  0.17094648  0.00158828  0.14693704  1
  Ag+  Ag22  1  0.33494200  0.01841602  0.63884056  1
  Ag+  Ag23  1  0.68831455  0.66565404  0.64621695  1
  Ag+  Ag24  1  0.69104898  0.66452999  -0.02541766  1
  Ag+  Ag25  1  0.85444143  0.49709584  0.01877447  1
  Ag+  Ag26  1  0.48804686  0.36399599  0.81105690  1
  Ag+  Ag27  1  -0.01598689  0.66768481  0.66088911  1
  Ag+  Ag28  1  0.03095386  0.14325077  0.83607838  1
  Ag+  Ag29  1  -0.00059225  0.82339188  0.52427794  1
  Ag+  Ag30  1  0.31077046  0.49920979  0.81444491  1
  Ag+  Ag31  1  0.33367358  0.49951485  0.52161821  1
  Ag+  Ag32  1  0.67718687  0.51031837  0.81732365  1
  Ag+  Ag33  1  0.81024439  0.66785130  0.50969995  1
  Ag+  Ag34  1  0.48002661  0.50184666  0.36450330  1
  Ag+  Ag35  1  0.15092778  0.03157622  0.84724933  1
  Ag+  Ag36  1  0.14168452  0.49887766  0.65777831  1
  Ag+  Ag37  1  0.18277715  0.84688891  0.66792595  1
  Ag+  Ag38  1  0.32793053  0.18482643  0.19215479  1
  Ag+  Ag39  1  0.46672615  -0.03467806  0.53281558  1
  Ag+  Ag40  1  0.86457247  -0.03591890  0.51497936  1
  Ag+  Ag41  1  0.53350347  0.81832510  0.66195491  1
  Ag+  Ag42  1  0.49585109  0.14279695  0.36151733  1
  Sn2+  Sn43  1  0.50087950  0.16711514  0.00540391  1
  Sn2+  Sn44  1  0.82478079  0.66730012  0.81658404  1
  Sn2+  Sn45  1  -0.00445796  -0.00035213  -0.00698565  1
  Sn2+  Sn46  1  0.16894015  0.33289327  0.82752064  1
  Sn2+  Sn47  1  -0.00459001  0.15621037  0.50610538  1
  Sn2+  Sn48  1  -0.00341427  0.33296988  -0.00593845  1
  Sn2+  Sn49  1  0.32851404  0.81956980  0.50473276  1
  Sn2+  Sn50  1  0.66590326  0.35396684  -0.00338738  1
  Sn2+  Sn51  1  -0.00335277  0.33448825  0.33347987  1
  Sn2+  Sn52  1  -0.00559807  0.66507630  -0.00936851  1
  Sn2+  Sn53  1  0.66233722  0.50143000  0.15464220  1
  Sn2+  Sn54  1  0.67097889  0.66772590  0.33212310  1
  Sn2+  Sn55  1  0.00507650  0.83000243  0.82792975  1
  Sn2+  Sn56  1  0.65481631  0.33833300  0.33097521  1
  Sn2+  Sn57  1  0.50201990  0.33764922  0.49997587  1
  Sn2+  Sn58  1  -0.00505701  0.66646654  0.35167396  1
  Sn2+  Sn59  1  0.34694340  0.16860519  0.82759017  1
  Sn2+  Sn60  1  0.83721931  0.17268828  0.65890816  1
  Sn2+  Sn61  1  0.16871975  0.49610465  -0.01183906  1
  Sn2+  Sn62  1  0.84505592  0.82227046  0.33887534  1
  Sn2+  Sn63  1  0.83845216  -0.00674693  0.18209260  1
  Sn2+  Sn64  1  0.00085812  0.00763258  0.33552107  1
  Bi3+  Bi65  1  0.33490882  0.66716612  0.33405829  1
  Bi3+  Bi66  1  0.49880542  0.50219336  -0.00392573  1
  Bi3+  Bi67  1  0.49827877  0.66736079  0.83789861  1
  Bi3+  Bi68  1  0.33485706  0.66811040  0.00067582  1
  Bi3+  Bi69  1  0.49777463  0.00097311  0.16683603  1
  Bi3+  Bi70  1  0.49742044  0.16477151  0.66720769  1
  Bi3+  Bi71  1  0.49884033  0.33608677  0.16340393  1
  Bi3+  Bi72  1  0.17231823  0.66415280  0.50448405  1
  Bi3+  Bi73  1  0.32997173  0.66433254  0.66986866  1
  Bi3+  Bi74  1  0.16426694  0.66432968  0.82970720  1
  Bi3+  Bi75  1  0.16787182  0.33713970  0.50081131  1
  Bi3+  Bi76  1  0.82992265  0.33312268  0.83414827  1
  Bi3+  Bi77  1  0.33360803  0.00063051  0.32870382  1
  Bi3+  Bi78  1  0.83736203  0.33527118  0.49839456  1
  Bi3+  Bi79  1  0.66562965  0.16654759  0.50297356  1
  Bi3+  Bi80  1  0.66657132  0.82970200  0.16850922  1
  Bi3+  Bi81  1  0.00097120  0.83317747  0.16607241  1
  Bi3+  Bi82  1  0.49531716  -0.00245918  0.83327677  1
  Bi3+  Bi83  1  0.66488059  0.00259944  0.33598123  1
  Bi3+  Bi84  1  0.33532018  0.33475577  -0.00605361  1
  Bi3+  Bi85  1  0.33404326  0.83657642  0.16758715  1
  Te2-  Te86  1  0.17797006  0.16182057  0.16778500  1
  Te2-  Te87  1  0.16286024  0.17522149  0.50757325  1
  Te2-  Te88  1  0.17510940  0.17332409  0.81940972  1
  Te2-  Te89  1  0.17327045  0.49331465  0.16424209  1
  Te2-  Te90  1  0.17641645  0.49881459  0.50666134  1
  Te2-  Te91  1  0.16416987  0.50020142  0.82721196  1
  Te2-  Te92  1  0.16718100  0.83963948  0.15906093  1
  Te2-  Te93  1  0.15609262  0.82939455  0.51570830  1
  Te2-  Te94  1  0.17041554  0.82715935  0.81901216  1
  Te2-  Te95  1  0.48633940  0.16588257  0.16384833  1
  Te2-  Te96  1  0.50086860  0.17337148  0.50455305  1
  Te2-  Te97  1  0.50911646  0.15991672  0.83406249  1
  Te2-  Te98  1  0.49672028  0.49912615  0.16046863  1
  Te2-  Te99  1  0.49260233  0.49579978  0.51059405  1
  Te2-  Te100  1  0.51171966  0.50651445  0.83009434  1
  Te2-  Te101  1  0.50102528  0.83669740  0.16809320  1
  Te2-  Te102  1  0.50028106  0.82516190  0.50966763  1
  Te2-  Te103  1  0.49179747  0.83224909  0.81550167  1
  Te2-  Te104  1  0.83311378  0.16570650  0.17506275  1
  Te2-  Te105  1  0.83070040  0.17307955  0.49264486  1
  Te2-  Te106  1  0.82102300  0.16908830  0.82723853  1
  Te2-  Te107  1  0.83500579  0.50903480  0.16650402  1
  Te2-  Te108  1  0.83493267  0.50000022  0.49575119  1
  Te2-  Te109  1  0.82642828  0.49533944  0.83300316  1
  Te2-  Te110  1  0.83447485  0.82780702  0.17143243  1
  Te2-  Te111  1  0.84688701  0.81845739  0.49922644  1
  Te2-  Te112  1  0.83673876  0.83153786  0.84121606  1
  Te2-  Te113  1  0.16882717  0.00003914  -0.00912781  1
  Te2-  Te114  1  0.17116110  -0.00517617  0.34287307  1
  Te2-  Te115  1  0.18160715  -0.00285716  0.65773229  1
  Te2-  Te116  1  0.17031768  0.33649484  -0.00606879  1
  Te2-  Te117  1  0.17459675  0.33170288  0.33242330  1
  Te2-  Te118  1  0.17676982  0.35020465  0.66384595  1
  Te2-  Te119  1  0.16874823  0.66381785  -0.00270330  1
  Te2-  Te120  1  0.16929510  0.67369183  0.33627003  1
  Te2-  Te121  1  0.17164883  0.64762690  0.66778533  1
  Te2-  Te122  1  0.49454553  -0.00531652  0.00081570  1
  Te2-  Te123  1  0.49862971  -0.00157552  0.32999014  1
  Te2-  Te124  1  0.48543276  0.00297339  0.67171156  1
  Te2-  Te125  1  0.49912920  0.33528575  0.00062462  1
  Te2-  Te126  1  0.49293103  0.34874550  0.32671832  1
  Te2-  Te127  1  0.48916707  0.32647940  0.66890548  1
  Te2-  Te128  1  0.49642211  0.66788616  0.00133357  1
  Te2-  Te129  1  0.49732246  0.65599857  0.34119686  1
  Te2-  Te130  1  0.49411908  0.67434141  0.66718869  1
  Te2-  Te131  1  0.83163511  0.00197883  0.00260645  1
  Te2-  Te132  1  0.82992958  -0.00210026  0.34233644  1
  Te2-  Te133  1  0.83454272  0.00171389  0.65547650  1
  Te2-  Te134  1  0.83240407  0.34513313  -0.00067954  1
  Te2-  Te135  1  0.83185775  0.34692232  0.33555786  1
  Te2-  Te136  1  0.83167088  0.33563206  0.66525546  1
  Te2-  Te137  1  0.83797626  0.64961417  -0.00516953  1
  Te2-  Te138  1  0.83644941  0.65769404  0.34942978  1
  Te2-  Te139  1  0.83426778  0.65547188  0.65995524  1
  Te2-  Te140  1  0.00026061  0.16517428  -0.01262763  1
  Te2-  Te141  1  -0.00067841  0.16754214  0.33473174  1
  Te2-  Te142  1  0.00656921  0.16270688  0.67726425  1
  Te2-  Te143  1  0.00442895  0.49845577  0.01329188  1
  Te2-  Te144  1  0.00772247  0.49834600  0.32307231  1
  Te2-  Te145  1  -0.00854981  0.50709392  0.66506129  1
  Te2-  Te146  1  -0.00966051  0.83270418  0.00420317  1
  Te2-  Te147  1  0.00702554  0.83639924  0.32670209  1
  Te2-  Te148  1  -0.01579117  0.82161761  0.67197413  1
  Te2-  Te149  1  0.33417103  0.16831829  -0.01040332  1
  Te2-  Te150  1  0.34541397  0.16923496  0.33772458  1
  Te2-  Te151  1  0.32969484  0.16456150  0.66949503  1
  Te2-  Te152  1  0.33583599  0.50235038  0.00597323  1
  Te2-  Te153  1  0.33951243  0.50549432  0.31957468  1
  Te2-  Te154  1  0.35051307  0.50083079  0.67210755  1
  Te2-  Te155  1  0.33362148  0.83091439  0.00471053  1
  Te2-  Te156  1  0.32812125  0.83229340  0.33371145  1
  Te2-  Te157  1  0.32930256  0.82577194  0.66259591  1
  Te2-  Te158  1  0.66471932  0.16674279  -0.00443884  1
  Te2-  Te159  1  0.65551625  0.16772877  0.33623914  1
  Te2-  Te160  1  0.66498281  0.16743689  0.66698481  1
  Te2-  Te161  1  0.65999562  0.51400219  -0.00033848  1
  Te2-  Te162  1  0.66185884  0.50134334  0.32826607  1
  Te2-  Te163  1  0.66380150  0.51165624  0.66808613  1
  Te2-  Te164  1  0.68058502  0.81632552  0.00820172  1
  Te2-  Te165  1  0.67023448  0.83552247  0.33160946  1
  Te2-  Te166  1  0.68154472  0.82160390  0.66521496  1
  Te2-  Te167  1  0.00341349  -0.00303301  0.16477171  1
  Te2-  Te168  1  0.00766440  -0.00159801  0.49734262  1
  Te2-  Te169  1  0.00684731  -0.00265343  0.83424881  1
  Te2-  Te170  1  0.00920097  0.33002501  0.16459787  1
  Te2-  Te171  1  0.00160596  0.33276059  0.49989344  1
  Te2-  Te172  1  -0.00571371  0.33222689  0.83501649  1
  Te2-  Te173  1  -0.00273341  0.66912853  0.16856975  1
  Te2-  Te174  1  0.01102868  0.67348528  0.50786759  1
  Te2-  Te175  1  0.00102354  0.66664817  0.82927257  1
  Te2-  Te176  1  0.33249963  -0.00121575  0.16562560  1
  Te2-  Te177  1  0.32896199  -0.00571951  0.49109575  1
  Te2-  Te178  1  0.33154447  -0.00620095  0.83922855  1
  Te2-  Te179  1  0.33150000  0.32780385  0.15708209  1
  Te2-  Te180  1  0.33194067  0.34674193  0.49860318  1
  Te2-  Te181  1  0.34038705  0.34650928  0.83323036  1
  Te2-  Te182  1  0.33665271  0.67461349  0.16720926  1
  Te2-  Te183  1  0.33607995  0.65383825  0.49780951  1
  Te2-  Te184  1  0.33227857  0.65584955  0.83777428  1
  Te2-  Te185  1  0.66663870  -0.00377384  0.16814403  1
  Te2-  Te186  1  0.65822958  0.00583742  0.49749264  1
  Te2-  Te187  1  0.66341576  -0.00982423  0.83140001  1
  Te2-  Te188  1  0.66373798  0.33336981  0.16518508  1
  Te2-  Te189  1  0.67160356  0.33180366  0.49804216  1
  Te2-  Te190  1  0.66462467  0.34227024  0.83541467  1
  Te2-  Te191  1  0.67248345  0.66888024  0.17414729  1
  Te2-  Te192  1  0.66079953  0.66775720  0.50001876  1
  Te2-  Te193  1  0.66242054  0.65975907  0.83085817  1
  Pb2+  Pb194  1  0.67425898  0.84039675  0.49932574  1
  Pb2+  Pb195  1  0.00614526  0.16400592  0.16335060  1
  Pb2+  Pb196  1  0.83515647  0.00043208  0.82631161  1
  Pb2+  Pb197  1  0.16778524  0.66661870  0.16655265  1
  Pb2+  Pb198  1  0.16385964  0.83168340  -0.01175305  1
  Pb2+  Pb199  1  0.17576211  0.50237184  0.33767802  1
  Pb2+  Pb200  1  -0.00448904  0.50001384  0.83680672  1
  Pb2+  Pb201  1  0.65827719  0.34083060  0.66824872  1
  Pb2+  Pb202  1  0.00336062  0.50749823  0.49714096  1
  Pb2+  Pb203  1  0.00565078  0.33461935  0.66860725  1
  Pb2+  Pb204  1  0.49926682  0.82712930  0.33680551  1
  Pb2+  Pb205  1  0.16875615  0.16296293  0.33457656  1
  Pb2+  Pb206  1  0.65624643  -0.00284612  0.66429409  1
  Pb2+  Pb207  1  0.00943470  -0.01042107  0.66637128  1
  Pb2+  Pb208  1  0.83691061  0.33851712  0.16862977  1
  Pb2+  Pb209  1  0.66194882  0.50047250  0.50054591  1
  Pb2+  Pb210  1  0.83339785  0.17422898  -0.00222629  1
  Pb2+  Pb211  1  0.66555361  0.82330364  0.83582557  1
  Pb2+  Pb212  1  0.65669342  0.16662140  0.16645277  1
  Pb2+  Pb213  1  0.66162434  -0.00819292  -0.00317272  1
  Pb2+  Pb214  1  0.33208018  0.17263883  0.50439439  1
  Pb2+  Pb215  1  0.16683565  0.17164846  -0.00122937  1
