# generated using pymatgen
data_In22Ag21Sn22Bi21(Te54Pb11)2
_symmetry_space_group_name_H-M   'P 1'
_cell_length_a   19.19361976
_cell_length_b   19.16388971
_cell_length_c   19.18095887
_cell_angle_alpha   90.01419747
_cell_angle_beta   89.98348890
_cell_angle_gamma   90.01458008
_symmetry_Int_Tables_number   1
_chemical_formula_structural   In22Ag21Sn22Bi21(Te54Pb11)2
_chemical_formula_sum   'In22 Ag21 Sn22 Bi21 Te108 Pb22'
_cell_volume   7055.22418139
_cell_formula_units_Z   1
loop_
 _symmetry_equiv_pos_site_id
 _symmetry_equiv_pos_as_xyz
  1  'x, y, z'
loop_
 _atom_type_symbol
 _atom_type_oxidation_number
  In3+  3.0
  Ag+  1.0
  Sn2+  2.0
  Bi3+  3.0
  Te2-  -2.0
  Pb2+  2.0
loop_
 _atom_site_type_symbol
 _atom_site_label
 _atom_site_symmetry_multiplicity
 _atom_site_fract_x
 _atom_site_fract_y
 _atom_site_fract_z
 _atom_site_occupancy
  In3+  In0  1  0.16536546  0.33661043  0.51921094  1
  In3+  In1  1  0.67251609  0.84494594  0.84811486  1
  In3+  In2  1  0.32576703  -0.00208244  0.32215568  1
  In3+  In3  1  0.34505910  0.50034913  0.51117491  1
  In3+  In4  1  0.00163408  -0.00874431  0.33541886  1
  In3+  In5  1  0.16874781  0.00631876  0.81931508  1
  In3+  In6  1  0.83932665  0.49479486  -0.02274203  1
  In3+  In7  1  0.85366801  0.49611119  0.65435847  1
  In3+  In8  1  0.46636841  0.66816006  0.15688479  1
  In3+  In9  1  0.34916323  0.34874849  0.00202028  1
  In3+  In10  1  0.32795973  0.85457487  0.16853489  1
  In3+  In11  1  0.81941865  0.33577974  0.16419780  1
  In3+  In12  1  0.51208680  0.83873007  0.33418871  1
  In3+  In13  1  0.15061377  0.66953331  0.49148272  1
  In3+  In14  1  0.34723903  0.49770533  0.16900139  1
  In3+  In15  1  0.50070705  0.48987707  0.69213891  1
  In3+  In16  1  0.50394199  0.34147866  0.48105515  1
  In3+  In17  1  0.16601084  0.33954232  0.16903585  1
  In3+  In18  1  0.17113070  0.49556018  0.34556148  1
  In3+  In19  1  0.16164659  0.85210910  0.33010543  1
  In3+  In20  1  0.51448661  0.17114590  0.66990544  1
  In3+  In21  1  -0.00150488  0.48589799  0.18574158  1
  Ag+  Ag22  1  0.15614301  0.14233455  0.63618126  1
  Ag+  Ag23  1  -0.00073217  0.31036826  0.68490413  1
  Ag+  Ag24  1  0.51812882  0.30994931  0.16580409  1
  Ag+  Ag25  1  0.33146765  0.51848915  0.81208891  1
  Ag+  Ag26  1  0.69038895  0.81288884  0.50633142  1
  Ag+  Ag27  1  0.16325637  0.64096675  0.19241517  1
  Ag+  Ag28  1  0.14142106  -0.02331122  0.16958145  1
  Ag+  Ag29  1  0.81535507  0.14235663  0.69297465  1
  Ag+  Ag30  1  0.87675037  -0.02732803  0.53124507  1
  Ag+  Ag31  1  0.52675776  -0.02954254  0.87032582  1
  Ag+  Ag32  1  0.69398193  0.49520843  0.80781004  1
  Ag+  Ag33  1  0.80670284  0.33609542  0.80087256  1
  Ag+  Ag34  1  0.01518905  0.48189864  0.50543785  1
  Ag+  Ag35  1  -0.01644789  0.86436227  0.51427068  1
  Ag+  Ag36  1  0.17495804  -0.03030175  0.51691405  1
  Ag+  Ag37  1  0.63145770  0.02777929  -0.02806339  1
  Ag+  Ag38  1  0.52969541  -0.04209110  0.15161196  1
  Ag+  Ag39  1  0.46965042  0.52923002  0.32912960  1
  Ag+  Ag40  1  0.51797298  0.83878919  -0.02428974  1
  Ag+  Ag41  1  -0.02396153  0.02210267  0.63215461  1
  Ag+  Ag42  1  -0.02491711  -0.01796937  -0.02819375  1
  Sn2+  Sn43  1  0.01126636  0.49693538  0.82546461  1
  Sn2+  Sn44  1  0.00340229  0.32861580  -0.00767675  1
  Sn2+  Sn45  1  0.00735504  0.82612314  0.16601354  1
  Sn2+  Sn46  1  0.84395930  0.00936926  0.83897954  1
  Sn2+  Sn47  1  0.16423960  0.16972514  0.33560224  1
  Sn2+  Sn48  1  0.33288754  0.66647844  -0.00367942  1
  Sn2+  Sn49  1  0.83708957  0.32290650  0.50372791  1
  Sn2+  Sn50  1  0.16711402  0.49773159  0.66603648  1
  Sn2+  Sn51  1  0.84120021  0.66835240  0.49961720  1
  Sn2+  Sn52  1  0.50560997  0.50932670  0.00435269  1
  Sn2+  Sn53  1  0.32783154  0.66919316  0.67105612  1
  Sn2+  Sn54  1  0.00563215  0.16418115  0.16272651  1
  Sn2+  Sn55  1  0.50635889  0.66672023  0.83340287  1
  Sn2+  Sn56  1  0.00000793  0.33386645  0.33638602  1
  Sn2+  Sn57  1  0.33067604  0.83359679  0.50126918  1
  Sn2+  Sn58  1  0.33363995  0.16808001  0.50876370  1
  Sn2+  Sn59  1  0.16619642  0.67134665  0.83566238  1
  Sn2+  Sn60  1  -0.00236694  0.83868530  0.82317483  1
  Sn2+  Sn61  1  0.33606886  0.17080268  0.16715480  1
  Sn2+  Sn62  1  -0.00149717  0.67009144  0.33349963  1
  Sn2+  Sn63  1  0.83573187  0.84454599  0.33476598  1
  Sn2+  Sn64  1  0.66693823  0.50757745  0.16417060  1
  Bi3+  Bi65  1  0.00223223  0.66996104  0.66660027  1
  Bi3+  Bi66  1  0.66623505  0.33623880  0.33485778  1
  Bi3+  Bi67  1  0.00204545  0.16638565  0.82847855  1
  Bi3+  Bi68  1  0.66830618  0.16613433  0.49760500  1
  Bi3+  Bi69  1  0.33245738  0.16456713  0.83250626  1
  Bi3+  Bi70  1  0.66528714  0.66482357  -0.00248600  1
  Bi3+  Bi71  1  0.83718746  0.50278880  0.33899625  1
  Bi3+  Bi72  1  0.49484710  0.16680244  0.33518545  1
  Bi3+  Bi73  1  0.83537260  0.00244658  0.17177117  1
  Bi3+  Bi74  1  0.33158567  0.00124639  0.00082481  1
  Bi3+  Bi75  1  0.83593968  0.16905275  0.33809572  1
  Bi3+  Bi76  1  0.48911022  0.00361437  0.49776977  1
  Bi3+  Bi77  1  0.16638973  0.84037145  0.00337598  1
  Bi3+  Bi78  1  0.49464808  0.66766778  0.49974245  1
  Bi3+  Bi79  1  0.66535689  0.00111463  0.33271388  1
  Bi3+  Bi80  1  0.16581657  0.33527499  0.83576123  1
  Bi3+  Bi81  1  0.00254511  0.66952057  -0.00112687  1
  Bi3+  Bi82  1  -0.00033522  0.17146358  0.50166436  1
  Bi3+  Bi83  1  0.16691657  0.16231069  0.00410348  1
  Bi3+  Bi84  1  0.33305970  0.00322350  0.66444608  1
  Bi3+  Bi85  1  0.66100497  0.66639299  0.66889612  1
  Te2-  Te86  1  0.16740786  0.18144908  0.16701999  1
  Te2-  Te87  1  0.16603029  0.18260526  0.49471528  1
  Te2-  Te88  1  0.16709866  0.16923259  0.83909839  1
  Te2-  Te89  1  0.14930508  0.49540272  0.16705168  1
  Te2-  Te90  1  0.15992472  0.49853295  0.49653222  1
  Te2-  Te91  1  0.17866910  0.50030721  0.83483891  1
  Te2-  Te92  1  0.17214123  0.83097132  0.17362285  1
  Te2-  Te93  1  0.17311361  0.82412659  0.48858973  1
  Te2-  Te94  1  0.16489861  0.83924639  0.83903857  1
  Te2-  Te95  1  0.49635114  0.16483865  0.17147338  1
  Te2-  Te96  1  0.49866224  0.16919847  0.49979522  1
  Te2-  Te97  1  0.49652721  0.16758217  0.82862509  1
  Te2-  Te98  1  0.49786396  0.51684124  0.17664479  1
  Te2-  Te99  1  0.49190792  0.50352127  0.47910831  1
  Te2-  Te100  1  0.48184272  0.50094904  0.84326315  1
  Te2-  Te101  1  0.48689021  0.82190235  0.18004161  1
  Te2-  Te102  1  0.49074161  0.83577838  0.49199600  1
  Te2-  Te103  1  0.50918007  0.83054925  0.82940166  1
  Te2-  Te104  1  0.83716170  0.17116351  0.17249135  1
  Te2-  Te105  1  0.83387180  0.16181182  0.49845948  1
  Te2-  Te106  1  0.83872021  0.18275786  0.83120226  1
  Te2-  Te107  1  0.84192622  0.49367490  0.17662110  1
  Te2-  Te108  1  0.83369181  0.49745391  0.49983935  1
  Te2-  Te109  1  0.83995522  0.48489393  0.82601213  1
  Te2-  Te110  1  0.83917205  0.83606019  0.17292124  1
  Te2-  Te111  1  0.83457062  0.83623186  0.49393538  1
  Te2-  Te112  1  0.82803095  0.83447219  0.83467502  1
  Te2-  Te113  1  0.17211873  0.00041357  0.02283348  1
  Te2-  Te114  1  0.17014290  0.00392955  0.31613010  1
  Te2-  Te115  1  0.17053326  -0.00251741  0.66412203  1
  Te2-  Te116  1  0.16355794  0.33030552  -0.00039194  1
  Te2-  Te117  1  0.16520583  0.34206561  0.32582020  1
  Te2-  Te118  1  0.15427442  0.33859834  0.67218608  1
  Te2-  Te119  1  0.16325301  0.67396940  -0.00509089  1
  Te2-  Te120  1  0.16266004  0.65690482  0.33912705  1
  Te2-  Te121  1  0.16717667  0.66423660  0.66915403  1
  Te2-  Te122  1  0.49454790  -0.01216224  0.01151383  1
  Te2-  Te123  1  0.49732115  0.00062594  0.33553874  1
  Te2-  Te124  1  0.49381248  0.00821727  0.66011253  1
  Te2-  Te125  1  0.49843678  0.33788100  0.01647906  1
  Te2-  Te126  1  0.50181803  0.32898416  0.31980633  1
  Te2-  Te127  1  0.49701941  0.33802535  0.66126476  1
  Te2-  Te128  1  0.50183043  0.67644954  0.00634679  1
  Te2-  Te129  1  0.49689884  0.67445045  0.33787593  1
  Te2-  Te130  1  0.49609070  0.65891244  0.66195629  1
  Te2-  Te131  1  0.83488210  0.00170808  0.00567121  1
  Te2-  Te132  1  0.83065714  0.00703501  0.33756149  1
  Te2-  Te133  1  0.83538686  -0.00141889  0.67262824  1
  Te2-  Te134  1  0.83863512  0.34001866  0.00978524  1
  Te2-  Te135  1  0.83176233  0.33487001  0.33216948  1
  Te2-  Te136  1  0.84883827  0.34292792  0.65951624  1
  Te2-  Te137  1  0.83686342  0.66111287  0.00058826  1
  Te2-  Te138  1  0.83503550  0.66727464  0.33664268  1
  Te2-  Te139  1  0.83018832  0.65381895  0.66531136  1
  Te2-  Te140  1  0.00652599  0.15895480  -0.00478617  1
  Te2-  Te141  1  -0.00255554  0.17016072  0.33484358  1
  Te2-  Te142  1  0.00970137  0.16128682  0.66403146  1
  Te2-  Te143  1  -0.00663806  0.50572370  -0.00801002  1
  Te2-  Te144  1  -0.00116966  0.50302467  0.34095611  1
  Te2-  Te145  1  0.00540158  0.50912155  0.65537277  1
  Te2-  Te146  1  0.00407607  0.83730326  -0.00294921  1
  Te2-  Te147  1  0.00771392  0.83661357  0.33880968  1
  Te2-  Te148  1  0.00079460  0.83124184  0.65743712  1
  Te2-  Te149  1  0.32977509  0.16726504  -0.00154813  1
  Te2-  Te150  1  0.33366007  0.16195941  0.33792944  1
  Te2-  Te151  1  0.31202298  0.16405653  0.66835702  1
  Te2-  Te152  1  0.33383083  0.50154621  0.01314474  1
  Te2-  Te153  1  0.32472402  0.50020892  0.32438550  1
  Te2-  Te154  1  0.33814739  0.49818698  0.66509551  1
  Te2-  Te155  1  0.32843387  0.83500599  0.01121957  1
  Te2-  Te156  1  0.32154867  0.84140382  0.32955330  1
  Te2-  Te157  1  0.33361937  0.83609959  0.67058547  1
  Te2-  Te158  1  0.66596294  0.16782634  -0.00173044  1
  Te2-  Te159  1  0.66531955  0.17074968  0.33414201  1
  Te2-  Te160  1  0.67440055  0.16993357  0.66146844  1
  Te2-  Te161  1  0.67479737  0.50544245  0.00633877  1
  Te2-  Te162  1  0.67198975  0.49725269  0.33164816  1
  Te2-  Te163  1  0.65299647  0.50378936  0.66662274  1
  Te2-  Te164  1  0.66333711  0.82623524  -0.00000928  1
  Te2-  Te165  1  0.66635096  0.83694873  0.34337199  1
  Te2-  Te166  1  0.66707402  0.82690487  0.65538457  1
  Te2-  Te167  1  -0.00500555  -0.00166622  0.17841806  1
  Te2-  Te168  1  0.02252423  0.00534379  0.48957130  1
  Te2-  Te169  1  0.00429851  0.00086890  0.82901304  1
  Te2-  Te170  1  0.00689862  0.33500433  0.16373688  1
  Te2-  Te171  1  0.00857531  0.33334063  0.49825143  1
  Te2-  Te172  1  0.00441188  0.33236997  0.83016984  1
  Te2-  Te173  1  0.01431598  0.66931872  0.16155751  1
  Te2-  Te174  1  0.00018247  0.66928512  0.50479430  1
  Te2-  Te175  1  -0.00053717  0.66873823  0.83145298  1
  Te2-  Te176  1  0.33693450  0.00687454  0.16774994  1
  Te2-  Te177  1  0.32269000  0.00105512  0.49926582  1
  Te2-  Te178  1  0.33228632  0.00250496  0.83513670  1
  Te2-  Te179  1  0.32460778  0.34154880  0.16050341  1
  Te2-  Te180  1  0.32121360  0.34340663  0.49888166  1
  Te2-  Te181  1  0.32935941  0.32846091  0.84288146  1
  Te2-  Te182  1  0.31496921  0.65312027  0.16632807  1
  Te2-  Te183  1  0.33219151  0.65748123  0.50347560  1
  Te2-  Te184  1  0.33578358  0.66331347  0.83689834  1
  Te2-  Te185  1  0.67012714  -0.00302191  0.16993088  1
  Te2-  Te186  1  0.65499327  0.00588630  0.49470227  1
  Te2-  Te187  1  0.66918980  -0.00292695  0.83364465  1
  Te2-  Te188  1  0.66513346  0.33843175  0.17042238  1
  Te2-  Te189  1  0.66462494  0.33123101  0.49775435  1
  Te2-  Te190  1  0.66362537  0.34617071  0.83270730  1
  Te2-  Te191  1  0.67408447  0.66708319  0.16323840  1
  Te2-  Te192  1  0.66216423  0.66956459  0.50334421  1
  Te2-  Te193  1  0.66463644  0.64755768  0.83264507  1
  Pb2+  Pb194  1  0.16547193  0.83181921  0.66437995  1
  Pb2+  Pb195  1  0.32980684  0.67329094  0.33484870  1
  Pb2+  Pb196  1  0.50107730  0.83286573  0.66038765  1
  Pb2+  Pb197  1  0.33593187  0.83392408  0.84203115  1
  Pb2+  Pb198  1  0.66459323  0.66410675  0.33108680  1
  Pb2+  Pb199  1  0.83017715  0.65996594  0.83287379  1
  Pb2+  Pb200  1  0.66477162  0.50354611  0.49963653  1
  Pb2+  Pb201  1  0.84653568  0.66153865  0.16866725  1
  Pb2+  Pb202  1  0.49703582  0.33290285  0.83673550  1
  Pb2+  Pb203  1  0.66524625  -0.00512093  0.66093460  1
  Pb2+  Pb204  1  0.66880898  0.33722192  -0.00156143  1
  Pb2+  Pb205  1  0.67502238  0.33731320  0.66709370  1
  Pb2+  Pb206  1  0.83925016  0.16833176  -0.00223400  1
  Pb2+  Pb207  1  0.83183936  0.83631020  0.00373006  1
  Pb2+  Pb208  1  0.66900209  0.17041632  0.83189139  1
  Pb2+  Pb209  1  0.33400461  0.33061631  0.33044545  1
  Pb2+  Pb210  1  0.66292308  0.83146156  0.17222197  1
  Pb2+  Pb211  1  0.66562572  0.16420345  0.16431641  1
  Pb2+  Pb212  1  0.16318381  0.50033096  0.00084461  1
  Pb2+  Pb213  1  0.49546030  0.15965488  0.00039370  1
  Pb2+  Pb214  1  0.32915133  0.32923612  0.66924007  1
  Pb2+  Pb215  1  0.83443376  0.82820389  0.66560283  1
