# generated using pymatgen
data_In22Ag21Sn22Bi21(Te54Pb11)2
_symmetry_space_group_name_H-M   'P 1'
_cell_length_a   19.13154934
_cell_length_b   19.15342385
_cell_length_c   19.15150415
_cell_angle_alpha   90.00615045
_cell_angle_beta   89.98764759
_cell_angle_gamma   90.00907637
_symmetry_Int_Tables_number   1
_chemical_formula_structural   In22Ag21Sn22Bi21(Te54Pb11)2
_chemical_formula_sum   'In22 Ag21 Sn22 Bi21 Te108 Pb22'
_cell_volume   7017.77487601
_cell_formula_units_Z   1
loop_
 _symmetry_equiv_pos_site_id
 _symmetry_equiv_pos_as_xyz
  1  'x, y, z'
loop_
 _atom_type_symbol
 _atom_type_oxidation_number
  In3+  3.0
  Ag+  1.0
  Sn2+  2.0
  Bi3+  3.0
  Te2-  -2.0
  Pb2+  2.0
loop_
 _atom_site_type_symbol
 _atom_site_label
 _atom_site_symmetry_multiplicity
 _atom_site_fract_x
 _atom_site_fract_y
 _atom_site_fract_z
 _atom_site_occupancy
  In3+  In0  1  0.84676174  0.49204075  0.02644257  1
  In3+  In1  1  0.16824601  0.17112752  0.68281977  1
  In3+  In2  1  0.13546859  0.66417602  0.49965926  1
  In3+  In3  1  0.16118456  0.32840705  0.83887684  1
  In3+  In4  1  0.16718384  0.00974391  0.49806281  1
  In3+  In5  1  0.82367526  0.00209019  0.50098715  1
  In3+  In6  1  0.32999342  0.33681947  0.69441228  1
  In3+  In7  1  0.18154655  0.83177319  0.33423309  1
  In3+  In8  1  0.33833377  0.65115060  -0.00229317  1
  In3+  In9  1  0.83359381  0.33143572  0.47227599  1
  In3+  In10  1  0.81868002  0.82054999  0.66048575  1
  In3+  In11  1  0.67708904  0.64992783  0.34981049  1
  In3+  In12  1  0.82116329  0.17171536  0.66677222  1
  In3+  In13  1  0.68581170  0.83147124  0.18182343  1
  In3+  In14  1  0.68199993  0.00916505  -0.00106932  1
  In3+  In15  1  0.82022882  0.49126419  0.33228310  1
  In3+  In16  1  0.33752371  0.85310279  0.84363104  1
  In3+  In17  1  0.18258454  0.33736365  0.49658353  1
  In3+  In18  1  -0.00739391  0.16943504  0.84591961  1
  In3+  In19  1  0.16558057  0.33543426  0.15185524  1
  In3+  In20  1  0.34155315  0.82745565  0.15600811  1
  In3+  In21  1  0.67347575  0.00769491  0.34235269  1
  Ag+  Ag22  1  -0.02195932  0.31053663  0.00605949  1
  Ag+  Ag23  1  0.30813790  0.17466918  0.84523398  1
  Ag+  Ag24  1  0.69942364  0.34352476  0.63596624  1
  Ag+  Ag25  1  -0.02476006  0.20285741  0.13935242  1
  Ag+  Ag26  1  0.86049826  0.13688162  0.02646420  1
  Ag+  Ag27  1  0.67303137  0.81492684  0.47661089  1
  Ag+  Ag28  1  -0.02881521  0.66321471  -0.02396938  1
  Ag+  Ag29  1  0.65172446  0.47509883  0.51814018  1
  Ag+  Ag30  1  0.81774087  0.64831229  0.17045003  1
  Ag+  Ag31  1  0.64564532  0.35411635  0.34613151  1
  Ag+  Ag32  1  0.80970775  0.31472771  0.16665472  1
  Ag+  Ag33  1  0.52110671  0.47576991  0.68914910  1
  Ag+  Ag34  1  0.47437988  0.67855979  0.80803146  1
  Ag+  Ag35  1  0.30963772  0.29862370  0.00006291  1
  Ag+  Ag36  1  0.52168971  0.47677765  0.35388990  1
  Ag+  Ag37  1  0.33748833  -0.00044697  0.02244948  1
  Ag+  Ag38  1  0.83384453  0.18936649  0.31341015  1
  Ag+  Ag39  1  0.33824631  0.47379413  0.15912324  1
  Ag+  Ag40  1  0.16818599  -0.00912530  0.85536761  1
  Ag+  Ag41  1  0.31071631  0.33766708  0.35092672  1
  Ag+  Ag42  1  0.82609544  0.63781784  0.52113851  1
  Sn2+  Sn43  1  0.50109948  0.00151350  0.16248026  1
  Sn2+  Sn44  1  0.50098318  0.16490715  -0.00447560  1
  Sn2+  Sn45  1  0.50133647  0.82525624  0.33672836  1
  Sn2+  Sn46  1  0.17229812  0.16740970  0.00414280  1
  Sn2+  Sn47  1  0.15930381  0.66194672  0.16615705  1
  Sn2+  Sn48  1  0.16760783  0.83582323  0.00421321  1
  Sn2+  Sn49  1  0.82789402  0.66682534  0.84262822  1
  Sn2+  Sn50  1  0.00049066  0.00583491  0.67222830  1
  Sn2+  Sn51  1  0.16614226  0.84044936  0.66597844  1
  Sn2+  Sn52  1  0.83688421  0.82649975  0.33506532  1
  Sn2+  Sn53  1  0.33792020  0.01900276  0.32936859  1
  Sn2+  Sn54  1  0.66470051  0.83047328  0.83305590  1
  Sn2+  Sn55  1  0.00926019  0.50140492  0.16612564  1
  Sn2+  Sn56  1  0.33515797  0.65869381  0.66690533  1
  Sn2+  Sn57  1  -0.00596663  0.49628072  0.49732595  1
  Sn2+  Sn58  1  0.49860732  -0.01037192  0.49084154  1
  Sn2+  Sn59  1  -0.00004380  0.33031395  0.67255321  1
  Sn2+  Sn60  1  0.65911926  0.65895380  0.66054688  1
  Sn2+  Sn61  1  0.83430089  0.82097438  -0.00784151  1
  Sn2+  Sn62  1  0.50863363  0.66056426  0.49832006  1
  Sn2+  Sn63  1  0.65747077  0.50528462  0.15910453  1
  Sn2+  Sn64  1  0.16777979  0.00468902  0.16454164  1
  Bi3+  Bi65  1  0.33999079  0.50297936  0.49251061  1
  Bi3+  Bi66  1  0.16054726  0.16774692  0.33101168  1
  Bi3+  Bi67  1  0.00420059  0.83852177  0.83236858  1
  Bi3+  Bi68  1  0.00406859  0.83145515  0.16537461  1
  Bi3+  Bi69  1  0.66513194  0.67005505  -0.00086411  1
  Bi3+  Bi70  1  0.49899178  0.83249014  0.66412606  1
  Bi3+  Bi71  1  0.66846078  0.50156871  0.82846528  1
  Bi3+  Bi72  1  0.16750952  0.50062702  0.66429990  1
  Bi3+  Bi73  1  0.16936720  0.50154174  0.33274254  1
  Bi3+  Bi74  1  0.66850823  0.33597950  0.00036553  1
  Bi3+  Bi75  1  -0.00477546  0.83375008  0.50040260  1
  Bi3+  Bi76  1  -0.00397162  0.66785249  0.33060713  1
  Bi3+  Bi77  1  0.16647979  0.50512974  0.00257759  1
  Bi3+  Bi78  1  0.33079995  -0.00230554  0.66274463  1
  Bi3+  Bi79  1  0.33196650  0.16762627  0.16127354  1
  Bi3+  Bi80  1  0.49925687  0.33643534  0.83679509  1
  Bi3+  Bi81  1  0.50312863  0.66721007  0.16655689  1
  Bi3+  Bi82  1  0.66842808  0.17004386  0.83459104  1
  Bi3+  Bi83  1  0.49942817  0.33962931  0.16519301  1
  Bi3+  Bi84  1  0.00159016  0.00169250  0.33663587  1
  Bi3+  Bi85  1  0.66797960  0.16711421  0.49750006  1
  Te2-  Te86  1  0.16893832  0.17443841  0.17023124  1
  Te2-  Te87  1  0.16568913  0.17356018  0.49232421  1
  Te2-  Te88  1  0.16140449  0.17171157  0.83519100  1
  Te2-  Te89  1  0.18260057  0.49564131  0.16809480  1
  Te2-  Te90  1  0.16752348  0.50094966  0.49935206  1
  Te2-  Te91  1  0.16800949  0.49851736  0.83074541  1
  Te2-  Te92  1  0.16687234  0.83290503  0.17216895  1
  Te2-  Te93  1  0.16131806  0.82458841  0.49600151  1
  Te2-  Te94  1  0.16608251  0.84292968  0.83109674  1
  Te2-  Te95  1  0.49764521  0.16825266  0.16424230  1
  Te2-  Te96  1  0.50330983  0.16463841  0.49945505  1
  Te2-  Te97  1  0.50565938  0.17015717  0.83387690  1
  Te2-  Te98  1  0.48899162  0.50456919  0.16738216  1
  Te2-  Te99  1  0.50666690  0.50380020  0.49816908  1
  Te2-  Te100  1  0.50204395  0.50445476  0.83145218  1
  Te2-  Te101  1  0.49512633  0.83361138  0.16985923  1
  Te2-  Te102  1  0.51748012  0.83199986  0.50220847  1
  Te2-  Te103  1  0.49321485  0.82620870  0.82949358  1
  Te2-  Te104  1  0.83527476  0.16783666  0.16699895  1
  Te2-  Te105  1  0.82978644  0.16755960  0.50747840  1
  Te2-  Te106  1  0.83745357  0.16708092  0.82867967  1
  Te2-  Te107  1  0.83311059  0.50240005  0.17645360  1
  Te2-  Te108  1  0.82452429  0.49293223  0.48627955  1
  Te2-  Te109  1  0.83281428  0.50364862  0.82734568  1
  Te2-  Te110  1  0.83790420  0.83526218  0.16375129  1
  Te2-  Te111  1  0.82777571  0.84314214  0.50704637  1
  Te2-  Te112  1  0.84037657  0.83307293  0.82311286  1
  Te2-  Te113  1  0.17544531  0.00199668  0.00361574  1
  Te2-  Te114  1  0.16689289  0.00266846  0.33653890  1
  Te2-  Te115  1  0.16924761  0.00560843  0.65352794  1
  Te2-  Te116  1  0.16681132  0.34219082  -0.00525167  1
  Te2-  Te117  1  0.16383578  0.33476482  0.33445538  1
  Te2-  Te118  1  0.17013342  0.33548119  0.66834257  1
  Te2-  Te119  1  0.17839557  0.66657040  0.00519366  1
  Te2-  Te120  1  0.16569834  0.66750559  0.33601236  1
  Te2-  Te121  1  0.16949809  0.66557960  0.66089023  1
  Te2-  Te122  1  0.48931020  0.00353626  0.00075354  1
  Te2-  Te123  1  0.50170148  -0.00007040  0.33253233  1
  Te2-  Te124  1  0.49643854  -0.00269965  0.66451465  1
  Te2-  Te125  1  0.50586171  0.33261567  -0.00054020  1
  Te2-  Te126  1  0.50265924  0.33388110  0.32563510  1
  Te2-  Te127  1  0.48420633  0.33568219  0.67233975  1
  Te2-  Te128  1  0.49965448  0.67045040  0.00361630  1
  Te2-  Te129  1  0.51445998  0.66809810  0.32766863  1
  Te2-  Te130  1  0.50071544  0.67125728  0.66471869  1
  Te2-  Te131  1  0.83426205  -0.00511930  -0.00137320  1
  Te2-  Te132  1  0.83589004  -0.00505705  0.34456688  1
  Te2-  Te133  1  0.83648331  0.01479435  0.66109630  1
  Te2-  Te134  1  0.83281338  0.34224777  0.01415412  1
  Te2-  Te135  1  0.83121592  0.33692567  0.31774607  1
  Te2-  Te136  1  0.84129097  0.32775046  0.67243391  1
  Te2-  Te137  1  0.82794384  0.66348165  0.01156714  1
  Te2-  Te138  1  0.82930944  0.66771395  0.32112678  1
  Te2-  Te139  1  0.82764472  0.66965493  0.66754487  1
  Te2-  Te140  1  0.00273028  0.16402224  -0.00039867  1
  Te2-  Te141  1  -0.00718122  0.16318666  0.33102482  1
  Te2-  Te142  1  0.01529429  0.17129087  0.66682553  1
  Te2-  Te143  1  0.00056723  0.51717121  0.00375916  1
  Te2-  Te144  1  0.00659841  0.50576346  0.33457259  1
  Te2-  Te145  1  0.00365060  0.50042223  0.66413089  1
  Te2-  Te146  1  0.00234914  0.82109052  -0.00185926  1
  Te2-  Te147  1  0.00464972  0.83411156  0.33600749  1
  Te2-  Te148  1  0.00050917  0.83913676  0.66364591  1
  Te2-  Te149  1  0.33210197  0.15292811  -0.00522876  1
  Te2-  Te150  1  0.32776631  0.18064474  0.32974758  1
  Te2-  Te151  1  0.32205760  0.16760817  0.67453520  1
  Te2-  Te152  1  0.32905805  0.50052687  0.00793337  1
  Te2-  Te153  1  0.32845312  0.49041395  0.33313316  1
  Te2-  Te154  1  0.32860011  0.49780109  0.66049681  1
  Te2-  Te155  1  0.32920744  0.84821930  0.00081441  1
  Te2-  Te156  1  0.33333293  0.83680092  0.33230017  1
  Te2-  Te157  1  0.33326509  0.83106288  0.66675207  1
  Te2-  Te158  1  0.67248402  0.16882680  -0.00422162  1
  Te2-  Te159  1  0.68406054  0.15866886  0.33462083  1
  Te2-  Te160  1  0.66699614  0.18091832  0.66799156  1
  Te2-  Te161  1  0.67767248  0.50403562  -0.00564848  1
  Te2-  Te162  1  0.66526270  0.49928355  0.32481200  1
  Te2-  Te163  1  0.66528188  0.48965824  0.66387980  1
  Te2-  Te164  1  0.67053162  0.83408643  -0.00826478  1
  Te2-  Te165  1  0.66851277  0.84996566  0.33378813  1
  Te2-  Te166  1  0.66537583  0.83607184  0.67281927  1
  Te2-  Te167  1  0.00322913  -0.00613651  0.17298432  1
  Te2-  Te168  1  0.00716074  -0.00443094  0.50026659  1
  Te2-  Te169  1  0.01413702  0.00215888  0.83265802  1
  Te2-  Te170  1  0.01150998  0.34329676  0.15243139  1
  Te2-  Te171  1  -0.01431444  0.33855264  0.49909863  1
  Te2-  Te172  1  0.00494743  0.32579846  0.84860742  1
  Te2-  Te173  1  -0.00053567  0.67100304  0.17166179  1
  Te2-  Te174  1  -0.02602701  0.67032286  0.49375916  1
  Te2-  Te175  1  -0.00009577  0.67304991  0.83219874  1
  Te2-  Te176  1  0.33136740  0.00192087  0.17155825  1
  Te2-  Te177  1  0.33044176  -0.00180710  0.49777532  1
  Te2-  Te178  1  0.31921827  0.00067567  0.82269309  1
  Te2-  Te179  1  0.33588745  0.32579825  0.14919499  1
  Te2-  Te180  1  0.33709156  0.33790085  0.49727336  1
  Te2-  Te181  1  0.33444856  0.32229421  0.84798623  1
  Te2-  Te182  1  0.33624991  0.67687004  0.16291235  1
  Te2-  Te183  1  0.34084053  0.66367077  0.49674967  1
  Te2-  Te184  1  0.33352743  0.66812527  0.84090266  1
  Te2-  Te185  1  0.66324420  -0.00744470  0.15265341  1
  Te2-  Te186  1  0.66722810  0.00460232  0.50141222  1
  Te2-  Te187  1  0.66485703  0.00482566  0.83907459  1
  Te2-  Te188  1  0.66284252  0.34007396  0.16132965  1
  Te2-  Te189  1  0.67786053  0.33135745  0.49023774  1
  Te2-  Te190  1  0.66331117  0.33582472  0.83531005  1
  Te2-  Te191  1  0.66938099  0.67670999  0.16164400  1
  Te2-  Te192  1  0.68083765  0.67025436  0.49714927  1
  Te2-  Te193  1  0.66795869  0.66417625  0.83445202  1
  Pb2+  Pb194  1  0.33559231  0.49751790  0.83743992  1
  Pb2+  Pb195  1  0.50480147  0.33729050  0.49991352  1
  Pb2+  Pb196  1  0.33235208  0.16817761  0.50435798  1
  Pb2+  Pb197  1  0.66802944  0.16720396  0.16520589  1
  Pb2+  Pb198  1  0.50203493  0.83804912  0.00163673  1
  Pb2+  Pb199  1  -0.00232286  0.16867213  0.49704951  1
  Pb2+  Pb200  1  0.33886567  0.82857348  0.49932296  1
  Pb2+  Pb201  1  0.33963329  0.66106053  0.32968634  1
  Pb2+  Pb202  1  -0.00192571  0.33209930  0.32206535  1
  Pb2+  Pb203  1  0.66731109  0.00691015  0.66930866  1
  Pb2+  Pb204  1  0.83844703  -0.00021534  0.83069818  1
  Pb2+  Pb205  1  0.83251329  0.49596375  0.65721007  1
  Pb2+  Pb206  1  0.83268124  0.00197605  0.17554864  1
  Pb2+  Pb207  1  0.16860665  0.67451685  0.83579186  1
  Pb2+  Pb208  1  0.83302222  0.33560160  0.84471519  1
  Pb2+  Pb209  1  0.50739161  0.16995003  0.33216286  1
  Pb2+  Pb210  1  0.48982324  -0.00010042  0.83478749  1
  Pb2+  Pb211  1  0.50551685  0.50098077  0.00121196  1
  Pb2+  Pb212  1  -0.00002862  0.49568349  0.83764885  1
  Pb2+  Pb213  1  0.00863101  -0.00853047  0.00351843  1
  Pb2+  Pb214  1  -0.00063052  0.67129497  0.66531238  1
  Pb2+  Pb215  1  0.49432705  0.16989636  0.66769706  1
