# generated using pymatgen
data_In22Ag21Sn22Bi21(Te54Pb11)2
_symmetry_space_group_name_H-M   'P 1'
_cell_length_a   19.13765914
_cell_length_b   19.11687525
_cell_length_c   19.13359117
_cell_angle_alpha   90.00262552
_cell_angle_beta   90.00122168
_cell_angle_gamma   89.99582495
_symmetry_Int_Tables_number   1
_chemical_formula_structural   In22Ag21Sn22Bi21(Te54Pb11)2
_chemical_formula_sum   'In22 Ag21 Sn22 Bi21 Te108 Pb22'
_cell_volume   7000.06721019
_cell_formula_units_Z   1
loop_
 _symmetry_equiv_pos_site_id
 _symmetry_equiv_pos_as_xyz
  1  'x, y, z'
loop_
 _atom_type_symbol
 _atom_type_oxidation_number
  In3+  3.0
  Ag+  1.0
  Sn2+  2.0
  Bi3+  3.0
  Te2-  -2.0
  Pb2+  2.0
loop_
 _atom_site_type_symbol
 _atom_site_label
 _atom_site_symmetry_multiplicity
 _atom_site_fract_x
 _atom_site_fract_y
 _atom_site_fract_z
 _atom_site_occupancy
  In3+  In0  1  0.34829296  0.66609657  0.31988884  1
  In3+  In1  1  -0.01995637  0.66318113  0.66920050  1
  In3+  In2  1  -0.00602325  0.01499153  0.65667882  1
  In3+  In3  1  0.67723159  0.82440737  0.17925878  1
  In3+  In4  1  0.18702096  0.67759573  0.83078396  1
  In3+  In5  1  0.00493161  0.84183260  0.16747062  1
  In3+  In6  1  0.82709538  0.66292241  0.16965960  1
  In3+  In7  1  0.33240891  0.31549141  0.35333945  1
  In3+  In8  1  0.51112125  0.17052096  0.65529273  1
  In3+  In9  1  0.50450932  0.00641309  0.83384704  1
  In3+  In10  1  -0.01994856  0.82986441  0.83900894  1
  In3+  In11  1  0.66553305  0.19246354  0.17379187  1
  In3+  In12  1  0.84332029  0.67881859  0.84114467  1
  In3+  In13  1  0.66885242  0.32147241  -0.00796072  1
  In3+  In14  1  -0.01351397  0.33480257  0.32972435  1
  In3+  In15  1  0.16732851  0.16769083  0.00071262  1
  In3+  In16  1  0.33042287  0.82158890  0.51372383  1
  In3+  In17  1  0.35692906  0.16614943  0.50967557  1
  In3+  In18  1  0.33686565  -0.00050742  0.32637428  1
  In3+  In19  1  0.00061896  0.52170740  0.16243632  1
  In3+  In20  1  0.65571210  0.50707171  0.17783002  1
  In3+  In21  1  0.34496784  0.50117436  0.16790009  1
  Ag+  Ag22  1  0.81682638  0.66973212  0.52763898  1
  Ag+  Ag23  1  0.82067568  0.83213166  0.02469496  1
  Ag+  Ag24  1  0.50249123  0.51967960  0.66224964  1
  Ag+  Ag25  1  0.67559634  0.15087524  0.46884554  1
  Ag+  Ag26  1  0.65724241  0.18622237  0.80859610  1
  Ag+  Ag27  1  0.02530663  0.18051702  0.18383666  1
  Ag+  Ag28  1  0.86065122  0.83715877  0.64997088  1
  Ag+  Ag29  1  0.68562585  0.30871309  0.33542512  1
  Ag+  Ag30  1  0.68535028  0.32144224  0.63116127  1
  Ag+  Ag31  1  0.33950006  0.80684100  0.81808123  1
  Ag+  Ag32  1  0.00361421  0.67501116  0.01771972  1
  Ag+  Ag33  1  0.68977066  0.67125698  0.35520684  1
  Ag+  Ag34  1  0.30224813  0.68198110  -0.00490803  1
  Ag+  Ag35  1  0.48203809  0.66745043  0.18543929  1
  Ag+  Ag36  1  0.19454782  0.53151108  0.00662023  1
  Ag+  Ag37  1  0.85320335  0.16297770  0.31083166  1
  Ag+  Ag38  1  0.33498163  0.67820765  0.64137072  1
  Ag+  Ag39  1  0.16602634  0.02058820  0.18865525  1
  Ag+  Ag40  1  0.83604818  0.30948791  0.48743907  1
  Ag+  Ag41  1  0.36303123  0.16095421  0.81007099  1
  Ag+  Ag42  1  0.49342427  0.19242155  0.31180448  1
  Sn2+  Sn43  1  -0.00072502  0.82680289  0.50217301  1
  Sn2+  Sn44  1  0.66587780  0.49216407  0.83694163  1
  Sn2+  Sn45  1  0.32999855  -0.00972299  -0.00393765  1
  Sn2+  Sn46  1  0.16983699  0.16527806  0.67014653  1
  Sn2+  Sn47  1  -0.00148399  0.00487263  0.32672997  1
  Sn2+  Sn48  1  0.83073901  0.00230381  0.49615941  1
  Sn2+  Sn49  1  -0.00734639  0.49858232  0.49700336  1
  Sn2+  Sn50  1  0.50453843  0.49650405  0.34359618  1
  Sn2+  Sn51  1  0.83426546  0.83658591  0.34300582  1
  Sn2+  Sn52  1  0.16534605  0.83281507  0.32831093  1
  Sn2+  Sn53  1  0.50609847  0.82772892  0.00120273  1
  Sn2+  Sn54  1  0.16021436  0.82576556  0.66793675  1
  Sn2+  Sn55  1  0.65693639  0.66337176  0.66324126  1
  Sn2+  Sn56  1  0.81576422  0.50229315  0.65989504  1
  Sn2+  Sn57  1  0.82372894  0.16332925  0.66357568  1
  Sn2+  Sn58  1  0.16024143  0.33537387  0.16469809  1
  Sn2+  Sn59  1  0.66317654  0.00936906  0.32858633  1
  Sn2+  Sn60  1  0.15769454  0.32884076  0.49706703  1
  Sn2+  Sn61  1  0.52210635  0.33501556  0.50570512  1
  Sn2+  Sn62  1  -0.00001206  0.34317612  0.00627098  1
  Sn2+  Sn63  1  0.66590882  -0.00194001  0.00605933  1
  Sn2+  Sn64  1  0.32911686  0.49730417  0.50395586  1
  Bi3+  Bi65  1  0.83092082  0.33276056  0.83140780  1
  Bi3+  Bi66  1  0.33304723  0.33452805  0.67017923  1
  Bi3+  Bi67  1  0.49707158  0.83507880  0.66845076  1
  Bi3+  Bi68  1  0.33167365  0.83187007  0.16770986  1
  Bi3+  Bi69  1  -0.00013245  -0.00440347  -0.00260127  1
  Bi3+  Bi70  1  0.83391495  0.50735653  -0.00434397  1
  Bi3+  Bi71  1  0.16979155  0.00008578  0.83468633  1
  Bi3+  Bi72  1  0.66751737  0.50051401  0.50142490  1
  Bi3+  Bi73  1  0.49822579  0.33176612  0.83530074  1
  Bi3+  Bi74  1  0.16525732  0.83637524  -0.00376935  1
  Bi3+  Bi75  1  0.16640807  0.66275186  0.50377797  1
  Bi3+  Bi76  1  0.67261888  0.66604663  -0.00740617  1
  Bi3+  Bi77  1  -0.00084969  0.50159060  0.83609364  1
  Bi3+  Bi78  1  0.65754408  0.83134096  0.83096201  1
  Bi3+  Bi79  1  0.16458969  0.33413717  0.83484222  1
  Bi3+  Bi80  1  0.49767499  0.16457529  0.00262062  1
  Bi3+  Bi81  1  -0.00368918  0.16118576  0.83804223  1
  Bi3+  Bi82  1  0.49894316  0.83117206  0.33021189  1
  Bi3+  Bi83  1  0.49937734  -0.00101342  0.50203065  1
  Bi3+  Bi84  1  0.33211060  0.32929787  0.00157336  1
  Bi3+  Bi85  1  0.50269298  0.66768611  0.83256239  1
  Te2-  Te86  1  0.16883909  0.16524167  0.16210556  1
  Te2-  Te87  1  0.15760113  0.17148173  0.50478427  1
  Te2-  Te88  1  0.15887484  0.16709752  0.83486040  1
  Te2-  Te89  1  0.15273851  0.49994010  0.15029585  1
  Te2-  Te90  1  0.16286387  0.49820635  0.50034144  1
  Te2-  Te91  1  0.16172272  0.49646636  0.84707065  1
  Te2-  Te92  1  0.16452192  0.83273754  0.16158252  1
  Te2-  Te93  1  0.16961416  0.82799014  0.49958911  1
  Te2-  Te94  1  0.18895595  0.83516005  0.83512040  1
  Te2-  Te95  1  0.50625005  0.16314525  0.16599730  1
  Te2-  Te96  1  0.50973879  0.16539631  0.50022762  1
  Te2-  Te97  1  0.51016188  0.16541148  0.83905796  1
  Te2-  Te98  1  0.50111343  0.51445897  0.16916574  1
  Te2-  Te99  1  0.50041906  0.49590772  0.51058750  1
  Te2-  Te100  1  0.50304504  0.49696280  0.82212684  1
  Te2-  Te101  1  0.49750557  0.82029729  0.16816049  1
  Te2-  Te102  1  0.49412307  0.83566862  0.49979095  1
  Te2-  Te103  1  0.49023697  0.83472774  0.83316911  1
  Te2-  Te104  1  0.81743652  0.16434722  0.16817238  1
  Te2-  Te105  1  0.81996240  0.16315958  0.50819236  1
  Te2-  Te106  1  0.83014109  0.16886934  0.83344532  1
  Te2-  Te107  1  0.84409293  0.50367651  0.16134174  1
  Te2-  Te108  1  0.83339601  0.51901055  0.50046847  1
  Te2-  Te109  1  0.83357961  0.49650182  0.83176641  1
  Te2-  Te110  1  0.83520963  0.82755421  0.17104366  1
  Te2-  Te111  1  0.83888664  0.82190992  0.50229375  1
  Te2-  Te112  1  0.82640074  0.83076156  0.81988181  1
  Te2-  Te113  1  0.16347208  0.00041507  -0.00379568  1
  Te2-  Te114  1  0.16970500  -0.00255852  0.33442120  1
  Te2-  Te115  1  0.15747744  -0.00197214  0.67006092  1
  Te2-  Te116  1  0.16580527  0.32699607  -0.00338889  1
  Te2-  Te117  1  0.18022272  0.33384114  0.33314527  1
  Te2-  Te118  1  0.16657808  0.33299748  0.66921744  1
  Te2-  Te119  1  0.15436130  0.67228477  -0.01355367  1
  Te2-  Te120  1  0.16123872  0.66727286  0.33795605  1
  Te2-  Te121  1  0.18737336  0.66607673  0.67201661  1
  Te2-  Te122  1  0.49725145  -0.00059752  -0.00445454  1
  Te2-  Te123  1  0.49423131  -0.00776846  0.33658407  1
  Te2-  Te124  1  0.49806237  0.00285234  0.66818459  1
  Te2-  Te125  1  0.50295009  0.33063615  0.00039722  1
  Te2-  Te126  1  0.48375439  0.33874276  0.33957748  1
  Te2-  Te127  1  0.49494123  0.32251365  0.67389152  1
  Te2-  Te128  1  0.50919114  0.66741641  -0.00632545  1
  Te2-  Te129  1  0.50089964  0.66915645  0.33289889  1
  Te2-  Te130  1  0.48502532  0.66990769  0.66975758  1
  Te2-  Te131  1  0.83754941  -0.01546686  0.00112964  1
  Te2-  Te132  1  0.83136026  0.01066358  0.33845763  1
  Te2-  Te133  1  0.84118450  -0.01302670  0.66220421  1
  Te2-  Te134  1  0.83024827  0.33663896  -0.00262648  1
  Te2-  Te135  1  0.83437460  0.31829404  0.33922272  1
  Te2-  Te136  1  0.82655891  0.33540168  0.67043079  1
  Te2-  Te137  1  0.83882860  0.67472085  -0.00372918  1
  Te2-  Te138  1  0.83346082  0.66825128  0.32200024  1
  Te2-  Te139  1  0.82817599  0.67066980  0.67500587  1
  Te2-  Te140  1  0.00058184  0.16398511  -0.00071981  1
  Te2-  Te141  1  -0.00040345  0.16476124  0.32835914  1
  Te2-  Te142  1  -0.00439072  0.16839525  0.67223582  1
  Te2-  Te143  1  -0.00666064  0.50829764  -0.00032199  1
  Te2-  Te144  1  -0.00096610  0.49152041  0.32627781  1
  Te2-  Te145  1  -0.00313541  0.50674002  0.67048657  1
  Te2-  Te146  1  0.00140506  0.82751833  -0.00918841  1
  Te2-  Te147  1  -0.00087187  0.84089995  0.32932084  1
  Te2-  Te148  1  0.00382866  0.81866979  0.67490987  1
  Te2-  Te149  1  0.33395984  0.16592451  0.00143349  1
  Te2-  Te150  1  0.34455823  0.16305893  0.33690888  1
  Te2-  Te151  1  0.33443218  0.16768912  0.66464187  1
  Te2-  Te152  1  0.33525196  0.49098447  0.01086609  1
  Te2-  Te153  1  0.33636059  0.51059567  0.32712581  1
  Te2-  Te154  1  0.34088285  0.49385678  0.66548317  1
  Te2-  Te155  1  0.33281482  0.82899608  0.00785954  1
  Te2-  Te156  1  0.33294729  0.82814190  0.32944179  1
  Te2-  Te157  1  0.33464389  0.82678072  0.67036307  1
  Te2-  Te158  1  0.66210291  0.16237743  0.01561503  1
  Te2-  Te159  1  0.64619989  0.16511711  0.32565090  1
  Te2-  Te160  1  0.66375840  0.17762485  0.66361046  1
  Te2-  Te161  1  0.67303111  0.50037492  0.00758653  1
  Te2-  Te162  1  0.66463765  0.52286462  0.33123383  1
  Te2-  Te163  1  0.65511404  0.49778526  0.66284087  1
  Te2-  Te164  1  0.67494289  0.83030426  -0.00934931  1
  Te2-  Te165  1  0.66543371  0.82401718  0.33199664  1
  Te2-  Te166  1  0.65728254  0.83391741  0.66848532  1
  Te2-  Te167  1  0.01173625  -0.00389026  0.16127642  1
  Te2-  Te168  1  -0.00197453  -0.00511699  0.50218879  1
  Te2-  Te169  1  0.00368374  -0.00455861  0.83039043  1
  Te2-  Te170  1  -0.00000450  0.32461204  0.17146606  1
  Te2-  Te171  1  -0.01265292  0.33765600  0.49265190  1
  Te2-  Te172  1  -0.00176359  0.33107445  0.83618159  1
  Te2-  Te173  1  -0.00191858  0.67695629  0.16491402  1
  Te2-  Te174  1  0.00664037  0.66497610  0.51018662  1
  Te2-  Te175  1  -0.00269556  0.66490436  0.82569721  1
  Te2-  Te176  1  0.32281290  -0.00412691  0.17043063  1
  Te2-  Te177  1  0.33636821  0.01142977  0.49763383  1
  Te2-  Te178  1  0.33115424  0.01589560  0.83554386  1
  Te2-  Te179  1  0.33032740  0.34316499  0.16425902  1
  Te2-  Te180  1  0.33258243  0.32748898  0.50546380  1
  Te2-  Te181  1  0.33148098  0.31993875  0.83621895  1
  Te2-  Te182  1  0.33452344  0.66209781  0.16123519  1
  Te2-  Te183  1  0.32851580  0.66191908  0.49251126  1
  Te2-  Te184  1  0.33795065  0.66085511  0.85111824  1
  Te2-  Te185  1  0.66587499  -0.02031778  0.16639200  1
  Te2-  Te186  1  0.66169478  0.00596388  0.49903501  1
  Te2-  Te187  1  0.66090308  -0.00503260  0.83566452  1
  Te2-  Te188  1  0.66343042  0.34912549  0.18991244  1
  Te2-  Te189  1  0.67789492  0.34220923  0.48630834  1
  Te2-  Te190  1  0.66403461  0.33097371  0.83442517  1
  Te2-  Te191  1  0.67279267  0.66883166  0.15452379  1
  Te2-  Te192  1  0.66999667  0.66658893  0.50330048  1
  Te2-  Te193  1  0.66539914  0.66299237  0.82836390  1
  Pb2+  Pb194  1  0.50136402  0.66340205  0.50025611  1
  Pb2+  Pb195  1  0.32932069  -0.00540500  0.66977878  1
  Pb2+  Pb196  1  -0.00450463  0.66780812  0.33813605  1
  Pb2+  Pb197  1  0.50412405  0.50218212  -0.00585510  1
  Pb2+  Pb198  1  -0.01308342  0.16531949  0.49633446  1
  Pb2+  Pb199  1  0.49635101  -0.00955212  0.16496625  1
  Pb2+  Pb200  1  0.49785092  0.33977787  0.17174796  1
  Pb2+  Pb201  1  0.16708983  -0.00034390  0.50108024  1
  Pb2+  Pb202  1  0.17060771  0.50051286  0.32477032  1
  Pb2+  Pb203  1  0.33168498  0.49405761  0.83579157  1
  Pb2+  Pb204  1  0.83376774  0.16035472  0.00240461  1
  Pb2+  Pb205  1  -0.00796434  0.33919558  0.66330430  1
  Pb2+  Pb206  1  0.33540032  0.17110610  0.16716394  1
  Pb2+  Pb207  1  0.16833760  0.66594835  0.16439465  1
  Pb2+  Pb208  1  0.83865341  -0.00306376  0.17023104  1
  Pb2+  Pb209  1  0.67047221  0.83966677  0.49992817  1
  Pb2+  Pb210  1  0.67064605  0.00735212  0.66755424  1
  Pb2+  Pb211  1  0.83240234  0.00011732  0.83276320  1
  Pb2+  Pb212  1  0.16904459  0.50198883  0.67375342  1
  Pb2+  Pb213  1  0.17073931  0.16609215  0.33602640  1
  Pb2+  Pb214  1  0.82881058  0.49519692  0.33421144  1
  Pb2+  Pb215  1  0.83198989  0.33260031  0.16887294  1
