# generated using pymatgen
data_In22Ag21Sn22Bi21(Te54Pb11)2
_symmetry_space_group_name_H-M   'P 1'
_cell_length_a   19.12881065
_cell_length_b   19.12188920
_cell_length_c   19.14792949
_cell_angle_alpha   89.99627945
_cell_angle_beta   89.99579557
_cell_angle_gamma   90.01891659
_symmetry_Int_Tables_number   1
_chemical_formula_structural   In22Ag21Sn22Bi21(Te54Pb11)2
_chemical_formula_sum   'In22 Ag21 Sn22 Bi21 Te108 Pb22'
_cell_volume   7003.91004441
_cell_formula_units_Z   1
loop_
 _symmetry_equiv_pos_site_id
 _symmetry_equiv_pos_as_xyz
  1  'x, y, z'
loop_
 _atom_type_symbol
 _atom_type_oxidation_number
  In3+  3.0
  Ag+  1.0
  Sn2+  2.0
  Bi3+  3.0
  Te2-  -2.0
  Pb2+  2.0
loop_
 _atom_site_type_symbol
 _atom_site_label
 _atom_site_symmetry_multiplicity
 _atom_site_fract_x
 _atom_site_fract_y
 _atom_site_fract_z
 _atom_site_occupancy
  In3+  In0  1  0.00669739  0.34018583  0.65675283  1
  In3+  In1  1  0.17467878  0.65089517  0.83330407  1
  In3+  In2  1  0.67036391  0.49855143  0.51356779  1
  In3+  In3  1  0.33365751  0.64673805  0.00954232  1
  In3+  In4  1  0.01080498  0.00721663  0.65168493  1
  In3+  In5  1  0.31623364  0.49624609  0.50511420  1
  In3+  In6  1  0.32144622  0.32873788  0.66533844  1
  In3+  In7  1  0.48656576  0.83484653  0.33225871  1
  In3+  In8  1  0.65629643  0.33934488  0.34777669  1
  In3+  In9  1  0.81853097  0.66938549  0.18487229  1
  In3+  In10  1  0.15253569  0.67224729  0.49516911  1
  In3+  In11  1  0.83437222  0.01792018  0.49869555  1
  In3+  In12  1  0.83364683  0.84307273  0.33504769  1
  In3+  In13  1  0.85899692  0.33198487  0.16906516  1
  In3+  In14  1  0.50057584  0.66400621  0.15566619  1
  In3+  In15  1  0.02780163  0.33091455  -0.01563198  1
  In3+  In16  1  0.81987169  0.16787138  0.66983681  1
  In3+  In17  1  0.00799760  0.17370370  0.51281984  1
  In3+  In18  1  0.32779468  0.48406839  0.14970174  1
  In3+  In19  1  0.49882955  -0.00109356  0.81159058  1
  In3+  In20  1  0.01269331  0.16858262  0.16830852  1
  In3+  In21  1  0.32326727  0.01578456  0.66566378  1
  Ag+  Ag22  1  0.33460123  0.32287717  0.01805930  1
  Ag+  Ag23  1  0.63982044  0.66753421  0.02133809  1
  Ag+  Ag24  1  0.63770793  0.33657548  0.68223423  1
  Ag+  Ag25  1  0.18227171  0.30740057  0.50211555  1
  Ag+  Ag26  1  0.16704916  0.33725271  0.14806912  1
  Ag+  Ag27  1  0.01694558  -0.02041898  0.35331214  1
  Ag+  Ag28  1  0.68994310  0.63346258  0.66528774  1
  Ag+  Ag29  1  0.17599583  0.48175179  -0.02004500  1
  Ag+  Ag30  1  0.16964535  0.30462262  0.85050291  1
  Ag+  Ag31  1  0.84829127  0.66868539  0.49481523  1
  Ag+  Ag32  1  0.52252192  0.48767033  0.00297349  1
  Ag+  Ag33  1  0.18959216  0.18365190  0.00201426  1
  Ag+  Ag34  1  0.64653215  0.83023365  0.19585586  1
  Ag+  Ag35  1  0.47028307  0.02654358  0.51584198  1
  Ag+  Ag36  1  0.16533512  0.85468356  0.65062836  1
  Ag+  Ag37  1  0.18650752  0.83286313  0.35539959  1
  Ag+  Ag38  1  0.81314808  0.31641328  0.52166869  1
  Ag+  Ag39  1  0.16948475  0.19218931  0.64360059  1
  Ag+  Ag40  1  0.31397814  0.18433142  0.16839939  1
  Ag+  Ag41  1  0.29918984  0.36094521  0.31200320  1
  Ag+  Ag42  1  0.50591192  0.48669085  0.64106216  1
  Sn2+  Sn43  1  0.49740960  -0.00189012  0.16946215  1
  Sn2+  Sn44  1  0.49708363  0.33920564  0.50615471  1
  Sn2+  Sn45  1  0.33116746  0.84210605  0.15864322  1
  Sn2+  Sn46  1  0.49490835  0.17839225  0.00070649  1
  Sn2+  Sn47  1  0.83374663  0.49872937  0.00026452  1
  Sn2+  Sn48  1  0.49444260  0.81849676  0.66172397  1
  Sn2+  Sn49  1  0.49846852  0.49937156  0.32628461  1
  Sn2+  Sn50  1  0.16873643  -0.00271905  0.49644547  1
  Sn2+  Sn51  1  0.33329192  0.65744322  0.33039470  1
  Sn2+  Sn52  1  0.00567281  0.83768667  0.82829224  1
  Sn2+  Sn53  1  0.66630729  0.66491168  0.34366974  1
  Sn2+  Sn54  1  0.33144678  0.17285604  0.84760227  1
  Sn2+  Sn55  1  0.66251428  0.16227620  0.16331235  1
  Sn2+  Sn56  1  0.33938182  0.49346555  0.83002248  1
  Sn2+  Sn57  1  0.33719342  0.00925229  -0.00267262  1
  Sn2+  Sn58  1  -0.01043262  0.49039023  0.49833797  1
  Sn2+  Sn59  1  0.16853412  0.00939970  0.17137469  1
  Sn2+  Sn60  1  0.00631065  0.00620790  0.00491204  1
  Sn2+  Sn61  1  0.83249820  0.82817200  0.65942023  1
  Sn2+  Sn62  1  0.65861393  0.50359799  0.83175716  1
  Sn2+  Sn63  1  0.32915925  0.83274803  0.82976339  1
  Sn2+  Sn64  1  0.00350821  0.83854808  0.16412329  1
  Bi3+  Bi65  1  0.00181791  0.33165776  0.33476778  1
  Bi3+  Bi66  1  -0.00021929  0.67454666  0.32837816  1
  Bi3+  Bi67  1  0.17228658  0.50208717  0.66898268  1
  Bi3+  Bi68  1  0.82890299  0.17098617  0.00359257  1
  Bi3+  Bi69  1  0.00244020  0.66278039  0.00101337  1
  Bi3+  Bi70  1  0.50083291  0.66362252  0.49905903  1
  Bi3+  Bi71  1  0.83174525  0.49663438  0.33182316  1
  Bi3+  Bi72  1  0.83422994  -0.00252931  0.16812744  1
  Bi3+  Bi73  1  0.66717438  0.82514685  0.50450906  1
  Bi3+  Bi74  1  0.17187215  -0.00094728  0.83861765  1
  Bi3+  Bi75  1  0.16596444  0.83571043  0.00045163  1
  Bi3+  Bi76  1  0.66458628  0.17095462  0.83246586  1
  Bi3+  Bi77  1  0.33068413  -0.00010619  0.33104828  1
  Bi3+  Bi78  1  0.33341388  0.66459355  0.66979051  1
  Bi3+  Bi79  1  0.83083336  0.66509367  0.82657413  1
  Bi3+  Bi80  1  0.50114488  0.66767931  0.83130443  1
  Bi3+  Bi81  1  0.50170513  0.16265545  0.32963714  1
  Bi3+  Bi82  1  0.00449864  0.49975395  0.16729448  1
  Bi3+  Bi83  1  0.83693198  0.17022639  0.33062928  1
  Bi3+  Bi84  1  0.49838017  0.33505065  0.16836188  1
  Bi3+  Bi85  1  0.66558922  0.82974149  0.83111138  1
  Te2-  Te86  1  0.16669748  0.17634271  0.15455613  1
  Te2-  Te87  1  0.16293372  0.15732398  0.49803394  1
  Te2-  Te88  1  0.17320907  0.15721605  0.85055215  1
  Te2-  Te89  1  0.17302790  0.49404226  0.16714811  1
  Te2-  Te90  1  0.16222065  0.51404261  0.50396693  1
  Te2-  Te91  1  0.17015366  0.49978986  0.83332721  1
  Te2-  Te92  1  0.16409007  0.83671455  0.16131854  1
  Te2-  Te93  1  0.16541956  0.82892716  0.50421582  1
  Te2-  Te94  1  0.16752816  0.83749956  0.83724943  1
  Te2-  Te95  1  0.50420250  0.16722161  0.16896486  1
  Te2-  Te96  1  0.50334902  0.16733171  0.49476607  1
  Te2-  Te97  1  0.50148908  0.16189806  0.83249119  1
  Te2-  Te98  1  0.48756850  0.50521610  0.15682482  1
  Te2-  Te99  1  0.51300496  0.49932738  0.49435514  1
  Te2-  Te100  1  0.49957868  0.50603440  0.85094698  1
  Te2-  Te101  1  0.50128501  0.82771762  0.17451957  1
  Te2-  Te102  1  0.50547209  0.82919392  0.49327133  1
  Te2-  Te103  1  0.49992694  0.83471030  0.82976064  1
  Te2-  Te104  1  0.82594069  0.16487225  0.16713933  1
  Te2-  Te105  1  0.84373309  0.17301367  0.49779418  1
  Te2-  Te106  1  0.83067567  0.16495816  0.83244020  1
  Te2-  Te107  1  0.83781954  0.49933626  0.16824149  1
  Te2-  Te108  1  0.82695206  0.50647328  0.49581434  1
  Te2-  Te109  1  0.83131077  0.49966925  0.83018227  1
  Te2-  Te110  1  0.83537543  0.83403343  0.17456847  1
  Te2-  Te111  1  0.82906736  0.82049773  0.50078455  1
  Te2-  Te112  1  0.83137679  0.83022940  0.82717939  1
  Te2-  Te113  1  0.16748696  -0.00047468  0.00307660  1
  Te2-  Te114  1  0.16438105  -0.01288256  0.33350931  1
  Te2-  Te115  1  0.16842512  -0.00019778  0.67225437  1
  Te2-  Te116  1  0.17687989  0.33334784  -0.00100019  1
  Te2-  Te117  1  0.16196976  0.33206334  0.35127151  1
  Te2-  Te118  1  0.16490835  0.34060192  0.65267223  1
  Te2-  Te119  1  0.16860290  0.67032103  -0.00614728  1
  Te2-  Te120  1  0.16356608  0.68045573  0.33650765  1
  Te2-  Te121  1  0.17030153  0.66503680  0.67403156  1
  Te2-  Te122  1  0.49745804  0.00418262  0.00846232  1
  Te2-  Te123  1  0.49753465  -0.00377497  0.33528557  1
  Te2-  Te124  1  0.49249951  -0.00394281  0.65745109  1
  Te2-  Te125  1  0.48666666  0.34215292  0.00323965  1
  Te2-  Te126  1  0.50175558  0.32802918  0.33308609  1
  Te2-  Te127  1  0.49152376  0.34001382  0.66585459  1
  Te2-  Te128  1  0.49195725  0.66464627  -0.00068970  1
  Te2-  Te129  1  0.50012895  0.66812937  0.33610291  1
  Te2-  Te130  1  0.49477508  0.65864619  0.66850160  1
  Te2-  Te131  1  0.83435618  0.00224604  0.00214643  1
  Te2-  Te132  1  0.84175492  0.00472808  0.33478010  1
  Te2-  Te133  1  0.84424739  0.00717394  0.65920763  1
  Te2-  Te134  1  0.82947692  0.33345552  0.00602514  1
  Te2-  Te135  1  0.83690762  0.33339805  0.33285149  1
  Te2-  Te136  1  0.85114467  0.32281767  0.66342876  1
  Te2-  Te137  1  0.84152457  0.65961543  -0.01151282  1
  Te2-  Te138  1  0.83615432  0.66082357  0.34188946  1
  Te2-  Te139  1  0.83590084  0.66546129  0.66284970  1
  Te2-  Te140  1  -0.01042242  0.17941974  0.00842090  1
  Te2-  Te141  1  -0.00160245  0.16817962  0.32462947  1
  Te2-  Te142  1  0.01985975  0.16261677  0.66441286  1
  Te2-  Te143  1  0.00505529  0.49569526  0.00616300  1
  Te2-  Te144  1  -0.00211704  0.50465645  0.33136143  1
  Te2-  Te145  1  0.00529594  0.49847037  0.66520539  1
  Te2-  Te146  1  -0.00063635  0.82963982  -0.00026429  1
  Te2-  Te147  1  -0.00880667  0.83542653  0.32961164  1
  Te2-  Te148  1  0.00875339  0.84496334  0.66728806  1
  Te2-  Te149  1  0.33777579  0.17356972  0.01246176  1
  Te2-  Te150  1  0.33710261  0.16154504  0.32269370  1
  Te2-  Te151  1  0.31975037  0.16901176  0.66461942  1
  Te2-  Te152  1  0.32140909  0.49746747  -0.00091432  1
  Te2-  Te153  1  0.33744047  0.49888137  0.34460614  1
  Te2-  Te154  1  0.33684783  0.50137340  0.66339633  1
  Te2-  Te155  1  0.33032077  0.83990007  -0.00164017  1
  Te2-  Te156  1  0.33145148  0.83248217  0.33037093  1
  Te2-  Te157  1  0.32385957  0.82767508  0.66971827  1
  Te2-  Te158  1  0.66549808  0.16734513  -0.00523087  1
  Te2-  Te159  1  0.67061205  0.17329451  0.33116854  1
  Te2-  Te160  1  0.66467847  0.18136406  0.66878085  1
  Te2-  Te161  1  0.66883579  0.51524855  -0.00031432  1
  Te2-  Te162  1  0.66871801  0.49696611  0.32873752  1
  Te2-  Te163  1  0.65714258  0.48976317  0.66710342  1
  Te2-  Te164  1  0.66496053  0.81791589  -0.00757424  1
  Te2-  Te165  1  0.68066277  0.82682838  0.33965872  1
  Te2-  Te166  1  0.66303855  0.83901893  0.66617078  1
  Te2-  Te167  1  -0.00408187  0.00828394  0.16454957  1
  Te2-  Te168  1  -0.00332038  0.00586804  0.49675502  1
  Te2-  Te169  1  0.00308747  -0.00113077  0.83917125  1
  Te2-  Te170  1  0.01696268  0.33669441  0.17140517  1
  Te2-  Te171  1  0.00854556  0.33042681  0.49966088  1
  Te2-  Te172  1  0.01579591  0.33119121  0.83327902  1
  Te2-  Te173  1  -0.00076204  0.66466729  0.16493368  1
  Te2-  Te174  1  -0.00237941  0.66374060  0.49463070  1
  Te2-  Te175  1  -0.00073775  0.66974927  0.83653991  1
  Te2-  Te176  1  0.33200799  0.00158970  0.17003739  1
  Te2-  Te177  1  0.32936969  -0.00330047  0.49888888  1
  Te2-  Te178  1  0.33992687  0.00249193  0.82611851  1
  Te2-  Te179  1  0.33212607  0.33289527  0.17167183  1
  Te2-  Te180  1  0.32915837  0.34008101  0.50746282  1
  Te2-  Te181  1  0.31968573  0.32910565  0.82274816  1
  Te2-  Te182  1  0.34039966  0.67127528  0.16491673  1
  Te2-  Te183  1  0.33819227  0.65627268  0.50132789  1
  Te2-  Te184  1  0.33575004  0.66558334  0.83724127  1
  Te2-  Te185  1  0.66943382  -0.01565393  0.16791185  1
  Te2-  Te186  1  0.67999727  -0.00423902  0.49908764  1
  Te2-  Te187  1  0.66067085  0.00195779  0.83132620  1
  Te2-  Te188  1  0.65634667  0.33382575  0.16386286  1
  Te2-  Te189  1  0.67013164  0.34010813  0.50020705  1
  Te2-  Te190  1  0.66612787  0.33264717  0.82756281  1
  Te2-  Te191  1  0.65874396  0.67666922  0.16917717  1
  Te2-  Te192  1  0.66118482  0.66014562  0.51413070  1
  Te2-  Te193  1  0.66548501  0.66784627  0.81454344  1
  Pb2+  Pb194  1  0.66165333  0.34157017  -0.00153894  1
  Pb2+  Pb195  1  0.66452875  -0.00964747  0.00199374  1
  Pb2+  Pb196  1  0.49122805  0.33637079  0.83506719  1
  Pb2+  Pb197  1  -0.00284776  0.83554811  0.49867035  1
  Pb2+  Pb198  1  0.48905380  0.17067497  0.66497146  1
  Pb2+  Pb199  1  0.49856095  0.83386453  0.00292733  1
  Pb2+  Pb200  1  0.66960912  0.00034894  0.33219490  1
  Pb2+  Pb201  1  0.00123147  0.50104360  0.83690571  1
  Pb2+  Pb202  1  0.17049065  0.66540721  0.16376942  1
  Pb2+  Pb203  1  0.16879248  0.50053285  0.33293176  1
  Pb2+  Pb204  1  0.00268395  0.67389399  0.66713614  1
  Pb2+  Pb205  1  0.16852881  0.16603097  0.32422906  1
  Pb2+  Pb206  1  0.33457011  0.17253430  0.49040268  1
  Pb2+  Pb207  1  0.83523583  -0.00374995  0.82863469  1
  Pb2+  Pb208  1  0.33572914  0.82521004  0.50417776  1
  Pb2+  Pb209  1  0.83914740  0.33268160  0.83530022  1
  Pb2+  Pb210  1  0.67103091  0.16950383  0.49963007  1
  Pb2+  Pb211  1  0.00647326  0.16519344  0.83377446  1
  Pb2+  Pb212  1  0.82982100  0.49182387  0.66215880  1
  Pb2+  Pb213  1  0.82872964  0.82492104  0.00508599  1
  Pb2+  Pb214  1  0.66948719  0.00535719  0.66376785  1
  Pb2+  Pb215  1  0.66403840  0.50251069  0.16365409  1
