# generated using pymatgen
data_In22Ag21Sn22Bi21(Te54Pb11)2
_symmetry_space_group_name_H-M   'P 1'
_cell_length_a   19.14571383
_cell_length_b   19.14771439
_cell_length_c   19.15569281
_cell_angle_alpha   89.99099844
_cell_angle_beta   90.00063522
_cell_angle_gamma   90.00772061
_symmetry_Int_Tables_number   1
_chemical_formula_structural   In22Ag21Sn22Bi21(Te54Pb11)2
_chemical_formula_sum   'In22 Ag21 Sn22 Bi21 Te108 Pb22'
_cell_volume   7022.41285540
_cell_formula_units_Z   1
loop_
 _symmetry_equiv_pos_site_id
 _symmetry_equiv_pos_as_xyz
  1  'x, y, z'
loop_
 _atom_type_symbol
 _atom_type_oxidation_number
  In3+  3.0
  Ag+  1.0
  Sn2+  2.0
  Bi3+  3.0
  Te2-  -2.0
  Pb2+  2.0
loop_
 _atom_site_type_symbol
 _atom_site_label
 _atom_site_symmetry_multiplicity
 _atom_site_fract_x
 _atom_site_fract_y
 _atom_site_fract_z
 _atom_site_occupancy
  In3+  In0  1  -0.00813879  0.32909754  -0.00303221  1
  In3+  In1  1  0.50052336  0.34450543  0.49868384  1
  In3+  In2  1  -0.02214772  0.50186113  0.15837577  1
  In3+  In3  1  -0.00192582  0.33530559  0.68627985  1
  In3+  In4  1  0.32400921  0.32970196  0.32769644  1
  In3+  In5  1  0.50800356  0.17035981  0.31484249  1
  In3+  In6  1  0.67307624  0.49154490  0.83303845  1
  In3+  In7  1  0.66834895  0.66824332  0.01704154  1
  In3+  In8  1  0.31809661  0.83330014  0.83947641  1
  In3+  In9  1  0.14990838  0.66195042  0.81357265  1
  In3+  In10  1  0.67045622  0.32963919  0.32317093  1
  In3+  In11  1  0.17575476  0.16231681  -0.01509947  1
  In3+  In12  1  0.50471181  0.66500791  0.84374267  1
  In3+  In13  1  -0.00953281  0.83166404  0.50575706  1
  In3+  In14  1  0.83423336  0.81487547  0.31946191  1
  In3+  In15  1  0.18494958  0.80778137  0.33465210  1
  In3+  In16  1  0.66652266  0.49870863  0.48813122  1
  In3+  In17  1  0.83390743  0.15391831  -0.01117172  1
  In3+  In18  1  0.50376927  0.67340924  0.17803957  1
  In3+  In19  1  0.48988369  0.81624706  0.67577504  1
  In3+  In20  1  -0.01148529  0.33397651  0.33803900  1
  In3+  In21  1  0.66640566  0.84727902  0.15667893  1
  Ag+  Ag22  1  0.52072452  0.46879825  0.69395694  1
  Ag+  Ag23  1  0.82416729  0.85791329  -0.02167103  1
  Ag+  Ag24  1  0.02624480  0.85629585  0.86249966  1
  Ag+  Ag25  1  0.48120000  0.80866799  0.31496731  1
  Ag+  Ag26  1  0.02851805  -0.02325354  -0.00219785  1
  Ag+  Ag27  1  0.18737102  0.50172894  0.33729110  1
  Ag+  Ag28  1  0.85657571  0.68928695  0.15900405  1
  Ag+  Ag29  1  0.13936511  0.85165450  0.69461586  1
  Ag+  Ag30  1  0.36224283  0.13486519  0.84054945  1
  Ag+  Ag31  1  0.14430879  0.66928331  0.52009265  1
  Ag+  Ag32  1  -0.00245600  0.14751648  0.85930058  1
  Ag+  Ag33  1  -0.02391165  0.50271359  0.85202893  1
  Ag+  Ag34  1  0.85747156  0.32974148  0.83514794  1
  Ag+  Ag35  1  0.81428108  0.14926578  0.30581492  1
  Ag+  Ag36  1  0.47721197  0.15973987  -0.02734975  1
  Ag+  Ag37  1  0.66213761  0.02494352  0.01160433  1
  Ag+  Ag38  1  0.30911091  0.82902345  0.13746744  1
  Ag+  Ag39  1  0.51930340  0.32722279  0.86015736  1
  Ag+  Ag40  1  0.66965158  0.69424904  0.31172435  1
  Ag+  Ag41  1  0.65439097  0.51555449  0.18841305  1
  Ag+  Ag42  1  0.49888480  0.02198706  0.14752291  1
  Sn2+  Sn43  1  0.83311780  0.83326000  0.67593076  1
  Sn2+  Sn44  1  0.17515763  0.00259388  0.16691061  1
  Sn2+  Sn45  1  0.50216819  0.48923058  -0.00571440  1
  Sn2+  Sn46  1  0.66399714  0.16628177  0.49534516  1
  Sn2+  Sn47  1  0.83217060  0.00196279  0.16277968  1
  Sn2+  Sn48  1  0.66259313  -0.00226695  0.32770060  1
  Sn2+  Sn49  1  0.00805447  0.49919912  0.49819659  1
  Sn2+  Sn50  1  0.14610170  0.83344343  0.01031454  1
  Sn2+  Sn51  1  0.34996531  -0.00294167  0.00928607  1
  Sn2+  Sn52  1  0.66670305  0.16116911  0.16117432  1
  Sn2+  Sn53  1  0.66631207  0.33580480  0.00040720  1
  Sn2+  Sn54  1  0.15967175  0.50115183  0.01053006  1
  Sn2+  Sn55  1  0.33689976  0.17010491  0.51457319  1
  Sn2+  Sn56  1  0.50111434  0.34124160  0.16121749  1
  Sn2+  Sn57  1  0.66685870  0.83246332  0.49646114  1
  Sn2+  Sn58  1  0.82919085  0.66370124  0.84664226  1
  Sn2+  Sn59  1  0.67085832  0.00070603  0.68035186  1
  Sn2+  Sn60  1  0.67553056  0.16745646  0.83533116  1
  Sn2+  Sn61  1  0.82651212  0.50121879  0.66604452  1
  Sn2+  Sn62  1  0.83282420  0.00006600  0.48734118  1
  Sn2+  Sn63  1  0.33283520  0.33415459  0.67377262  1
  Sn2+  Sn64  1  0.66842950  0.33425716  0.67198991  1
  Bi3+  Bi65  1  0.33745912  0.83170849  0.49935975  1
  Bi3+  Bi66  1  0.66862275  0.82916661  0.83234300  1
  Bi3+  Bi67  1  0.16638829  0.16346520  0.66742232  1
  Bi3+  Bi68  1  0.16439260  0.33686059  0.16506121  1
  Bi3+  Bi69  1  0.16992104  0.33972601  0.83413770  1
  Bi3+  Bi70  1  0.49974416  0.16925772  0.66993349  1
  Bi3+  Bi71  1  -0.00038036  0.16964720  0.16584034  1
  Bi3+  Bi72  1  0.33653596  0.66672961  0.66365497  1
  Bi3+  Bi73  1  0.17059000  0.66681855  0.16409810  1
  Bi3+  Bi74  1  0.83209605  0.33338496  0.16067486  1
  Bi3+  Bi75  1  0.33560304  0.49968742  0.50105610  1
  Bi3+  Bi76  1  0.82832247  0.49783450  0.00073474  1
  Bi3+  Bi77  1  0.33415571  0.00679849  0.32942041  1
  Bi3+  Bi78  1  0.66593595  0.66902068  0.66619231  1
  Bi3+  Bi79  1  0.83564341  0.49713980  0.33197668  1
  Bi3+  Bi80  1  0.33524114  0.50316505  0.83080761  1
  Bi3+  Bi81  1  0.50343946  0.00208711  0.49965726  1
  Bi3+  Bi82  1  0.33178237  0.33360876  -0.00117248  1
  Bi3+  Bi83  1  0.83424408  0.17014325  0.67057883  1
  Bi3+  Bi84  1  0.50284300  0.67200483  0.49982984  1
  Bi3+  Bi85  1  -0.00024561  0.16495846  0.49911038  1
  Te2-  Te86  1  0.16423015  0.17322548  0.16140680  1
  Te2-  Te87  1  0.16722490  0.16639802  0.50504600  1
  Te2-  Te88  1  0.14720827  0.17518836  0.83232339  1
  Te2-  Te89  1  0.16849871  0.49969963  0.16945327  1
  Te2-  Te90  1  0.17200777  0.51172590  0.49139397  1
  Te2-  Te91  1  0.17243809  0.50733530  0.83625865  1
  Te2-  Te92  1  0.16629914  0.83416856  0.17219668  1
  Te2-  Te93  1  0.17389820  0.81912475  0.48647673  1
  Te2-  Te94  1  0.16411873  0.82237477  0.83686660  1
  Te2-  Te95  1  0.49945739  0.16908229  0.16538029  1
  Te2-  Te96  1  0.49589205  0.16734439  0.50877656  1
  Te2-  Te97  1  0.50495573  0.17776094  0.82965474  1
  Te2-  Te98  1  0.50705849  0.49926861  0.16122182  1
  Te2-  Te99  1  0.50188366  0.50175864  0.50068038  1
  Te2-  Te100  1  0.49661192  0.49230602  0.83616549  1
  Te2-  Te101  1  0.51604386  0.82579314  0.17351120  1
  Te2-  Te102  1  0.50058311  0.83684554  0.49829428  1
  Te2-  Te103  1  0.50652316  0.82692799  0.83468080  1
  Te2-  Te104  1  0.83599492  0.17199914  0.16275374  1
  Te2-  Te105  1  0.83556882  0.16695119  0.50754874  1
  Te2-  Te106  1  0.84636842  0.17732877  0.83431621  1
  Te2-  Te107  1  0.82041724  0.49282735  0.16667573  1
  Te2-  Te108  1  0.82866064  0.49853392  0.49754691  1
  Te2-  Te109  1  0.82824474  0.49549523  0.83460207  1
  Te2-  Te110  1  0.82097245  0.83222677  0.16811218  1
  Te2-  Te111  1  0.83640544  0.83744441  0.50850913  1
  Te2-  Te112  1  0.83103399  0.82398314  0.83425142  1
  Te2-  Te113  1  0.17413376  0.00193576  0.00659166  1
  Te2-  Te114  1  0.16905207  0.00424414  0.32689516  1
  Te2-  Te115  1  0.16518083  -0.00548287  0.66819181  1
  Te2-  Te116  1  0.16688823  0.33350914  0.00047839  1
  Te2-  Te117  1  0.17084228  0.34673835  0.32875965  1
  Te2-  Te118  1  0.16470437  0.33031515  0.66900239  1
  Te2-  Te119  1  0.16632091  0.67085310  0.00382599  1
  Te2-  Te120  1  0.17081897  0.65450865  0.32456896  1
  Te2-  Te121  1  0.17181840  0.67461869  0.66213109  1
  Te2-  Te122  1  0.50789688  0.01109299  0.00041122  1
  Te2-  Te123  1  0.49821402  0.01715208  0.33925514  1
  Te2-  Te124  1  0.50426429  0.00599922  0.66404469  1
  Te2-  Te125  1  0.49399390  0.31886611  0.00367225  1
  Te2-  Te126  1  0.50453140  0.32293020  0.33619568  1
  Te2-  Te127  1  0.49782524  0.32981642  0.65675487  1
  Te2-  Te128  1  0.50825285  0.66485326  -0.00308356  1
  Te2-  Te129  1  0.51690780  0.66637732  0.33509983  1
  Te2-  Te130  1  0.50200188  0.66043689  0.66327679  1
  Te2-  Te131  1  0.81586898  0.00175959  0.00735315  1
  Te2-  Te132  1  0.82861552  0.00640596  0.32773252  1
  Te2-  Te133  1  0.83107886  0.00596626  0.66838793  1
  Te2-  Te134  1  0.83465331  0.33648909  -0.00654011  1
  Te2-  Te135  1  0.83055739  0.33181617  0.33085684  1
  Te2-  Te136  1  0.83833358  0.33308455  0.68082056  1
  Te2-  Te137  1  0.82498696  0.65777547  0.01442826  1
  Te2-  Te138  1  0.82246718  0.66168387  0.31812848  1
  Te2-  Te139  1  0.82808484  0.66302267  0.66769213  1
  Te2-  Te140  1  -0.00986622  0.17497155  0.00409902  1
  Te2-  Te141  1  -0.00597547  0.17325454  0.33333706  1
  Te2-  Te142  1  0.00078753  0.17478852  0.66148685  1
  Te2-  Te143  1  -0.00336614  0.49612425  -0.00033029  1
  Te2-  Te144  1  -0.00459611  0.49345415  0.33812941  1
  Te2-  Te145  1  -0.00096720  0.49164386  0.65488508  1
  Te2-  Te146  1  -0.01456597  0.83482202  0.00103568  1
  Te2-  Te147  1  -0.01434507  0.83489760  0.33674793  1
  Te2-  Te148  1  -0.00073606  0.83491924  0.65895595  1
  Te2-  Te149  1  0.33004827  0.16785599  -0.01215379  1
  Te2-  Te150  1  0.33124111  0.17215383  0.33626870  1
  Te2-  Te151  1  0.32818362  0.16604281  0.68458987  1
  Te2-  Te152  1  0.33299435  0.49860089  -0.00296671  1
  Te2-  Te153  1  0.33686238  0.49206564  0.33558931  1
  Te2-  Te154  1  0.33684266  0.50244438  0.66516304  1
  Te2-  Te155  1  0.33833354  0.83568348  -0.00585190  1
  Te2-  Te156  1  0.33766748  0.83991997  0.33564721  1
  Te2-  Te157  1  0.33289561  0.82936347  0.66552795  1
  Te2-  Te158  1  0.67775184  0.17107842  -0.00539319  1
  Te2-  Te159  1  0.67142075  0.17151470  0.33620550  1
  Te2-  Te160  1  0.66919013  0.16823164  0.66801054  1
  Te2-  Te161  1  0.66567840  0.50168786  -0.01064072  1
  Te2-  Te162  1  0.67133073  0.48728889  0.33294288  1
  Te2-  Te163  1  0.66281119  0.50277812  0.67501898  1
  Te2-  Te164  1  0.67714434  0.82213455  -0.00121991  1
  Te2-  Te165  1  0.68258732  0.83767181  0.33950549  1
  Te2-  Te166  1  0.66617281  0.83342981  0.66812304  1
  Te2-  Te167  1  0.00164163  0.00765286  0.15206231  1
  Te2-  Te168  1  0.00034858  0.00046835  0.49683958  1
  Te2-  Te169  1  -0.00093426  -0.00068310  0.84787085  1
  Te2-  Te170  1  -0.00030463  0.33686393  0.16608977  1
  Te2-  Te171  1  -0.00037087  0.32924903  0.49278495  1
  Te2-  Te172  1  0.00598066  0.35049442  0.83912046  1
  Te2-  Te173  1  0.00253484  0.66324324  0.16518283  1
  Te2-  Te174  1  -0.00141259  0.67228308  0.49635468  1
  Te2-  Te175  1  -0.00124176  0.65283620  0.82921045  1
  Te2-  Te176  1  0.34782987  -0.01249165  0.16902288  1
  Te2-  Te177  1  0.33587781  0.00006417  0.49649510  1
  Te2-  Te178  1  0.33318890  -0.01026622  0.83729714  1
  Te2-  Te179  1  0.33046760  0.33205601  0.16508121  1
  Te2-  Te180  1  0.33823473  0.33657254  0.49911547  1
  Te2-  Te181  1  0.33081626  0.33975969  0.83617257  1
  Te2-  Te182  1  0.33771568  0.68050042  0.16587655  1
  Te2-  Te183  1  0.34049305  0.66620365  0.49846296  1
  Te2-  Te184  1  0.34449614  0.67119385  0.82673796  1
  Te2-  Te185  1  0.65448359  0.00016010  0.16148672  1
  Te2-  Te186  1  0.66506744  0.00117759  0.50180958  1
  Te2-  Te187  1  0.66755969  -0.00515554  0.83997345  1
  Te2-  Te188  1  0.66989634  0.32695418  0.16778449  1
  Te2-  Te189  1  0.65919168  0.33847943  0.50340324  1
  Te2-  Te190  1  0.66186327  0.33652186  0.83187741  1
  Te2-  Te191  1  0.65528349  0.66022996  0.16942862  1
  Te2-  Te192  1  0.66410968  0.65948138  0.50289038  1
  Te2-  Te193  1  0.66216371  0.66395943  0.82751428  1
  Pb2+  Pb194  1  0.82974076  0.66902925  0.48992980  1
  Pb2+  Pb195  1  0.16736068  0.34227245  0.49850326  1
  Pb2+  Pb196  1  0.16128225  0.17377055  0.33215586  1
  Pb2+  Pb197  1  0.50385318  0.49260777  0.33077961  1
  Pb2+  Pb198  1  0.33358404  0.15662897  0.16116804  1
  Pb2+  Pb199  1  0.50119572  0.00077859  0.83471324  1
  Pb2+  Pb200  1  0.16632291  -0.01543467  0.49590551  1
  Pb2+  Pb201  1  0.50885082  0.83709576  0.00744414  1
  Pb2+  Pb202  1  -0.00198914  0.00373700  0.67254523  1
  Pb2+  Pb203  1  -0.00527100  0.83947710  0.16730327  1
  Pb2+  Pb204  1  -0.00290117  0.66513572  0.66424533  1
  Pb2+  Pb205  1  0.33513885  0.66779008  -0.00288832  1
  Pb2+  Pb206  1  0.34236390  0.66693030  0.33150928  1
  Pb2+  Pb207  1  0.33548405  0.50468880  0.16525463  1
  Pb2+  Pb208  1  0.83409688  0.00042417  0.83874815  1
  Pb2+  Pb209  1  0.16723219  0.50361017  0.66404559  1
  Pb2+  Pb210  1  -0.00329205  0.00256049  0.32443492  1
  Pb2+  Pb211  1  0.16471365  0.00421204  0.83675579  1
  Pb2+  Pb212  1  0.82782324  0.33189302  0.50676161  1
  Pb2+  Pb213  1  0.33668614  -0.00182517  0.66597089  1
  Pb2+  Pb214  1  -0.00441634  0.66847089  -0.00474981  1
  Pb2+  Pb215  1  -0.00078633  0.66426522  0.33037297  1
