# generated using pymatgen
data_In22Ag21Sn22Bi21(Te54Pb11)2
_symmetry_space_group_name_H-M   'P 1'
_cell_length_a   19.21030394
_cell_length_b   19.19091665
_cell_length_c   19.19472841
_cell_angle_alpha   90.00282101
_cell_angle_beta   89.99762556
_cell_angle_gamma   89.97644316
_symmetry_Int_Tables_number   1
_chemical_formula_structural   In22Ag21Sn22Bi21(Te54Pb11)2
_chemical_formula_sum   'In22 Ag21 Sn22 Bi21 Te108 Pb22'
_cell_volume   7076.39210555
_cell_formula_units_Z   1
loop_
 _symmetry_equiv_pos_site_id
 _symmetry_equiv_pos_as_xyz
  1  'x, y, z'
loop_
 _atom_type_symbol
 _atom_type_oxidation_number
  In3+  3.0
  Ag+  1.0
  Sn2+  2.0
  Bi3+  3.0
  Te2-  -2.0
  Pb2+  2.0
loop_
 _atom_site_type_symbol
 _atom_site_label
 _atom_site_symmetry_multiplicity
 _atom_site_fract_x
 _atom_site_fract_y
 _atom_site_fract_z
 _atom_site_occupancy
  In3+  In0  1  0.83472124  0.84804303  -0.00159997  1
  In3+  In1  1  0.00399518  0.50088008  0.48660135  1
  In3+  In2  1  0.50157178  0.32704484  0.15242500  1
  In3+  In3  1  0.83401979  0.66137110  0.14951580  1
  In3+  In4  1  0.48184597  0.65367381  0.16339178  1
  In3+  In5  1  0.18929372  0.82329270  0.33282668  1
  In3+  In6  1  0.31933455  0.16385782  0.51777693  1
  In3+  In7  1  0.48414196  0.49755954  0.32325849  1
  In3+  In8  1  0.83213110  -0.01627036  0.17650963  1
  In3+  In9  1  0.18428228  0.83603149  0.68118477  1
  In3+  In10  1  0.65381035  0.51422973  0.50418765  1
  In3+  In11  1  0.31770009  0.16987106  0.16499123  1
  In3+  In12  1  0.83439261  -0.01935190  0.50506290  1
  In3+  In13  1  0.83115659  0.81630439  0.66829663  1
  In3+  In14  1  0.00230844  -0.00601166  -0.01857586  1
  In3+  In15  1  0.00827025  0.64675211  0.68285444  1
  In3+  In16  1  0.84737147  0.64485165  0.50222115  1
  In3+  In17  1  0.32448769  0.00168483  0.32975422  1
  In3+  In18  1  0.16895823  0.48330432  0.67584047  1
  In3+  In19  1  0.00735511  0.16775743  0.16770436  1
  In3+  In20  1  0.85332405  0.17360153  0.33116699  1
  In3+  In21  1  0.17338278  0.33601170  0.47671288  1
  Ag+  Ag22  1  0.49282045  0.35955856  0.80445271  1
  Ag+  Ag23  1  0.18845074  0.65830548  0.82836422  1
  Ag+  Ag24  1  0.48393190  0.80274973  0.30395150  1
  Ag+  Ag25  1  0.01726232  0.19390570  0.86563330  1
  Ag+  Ag26  1  0.18863514  0.18941488  0.70473824  1
  Ag+  Ag27  1  0.01933761  0.82952424  0.80537266  1
  Ag+  Ag28  1  0.64653611  0.80591398  0.16487579  1
  Ag+  Ag29  1  0.02954735  0.35482999  0.32057017  1
  Ag+  Ag30  1  0.02352367  0.46304806  0.14467538  1
  Ag+  Ag31  1  0.53038255  0.47348167  -0.02911219  1
  Ag+  Ag32  1  0.13313452  0.85458371  -0.02749053  1
  Ag+  Ag33  1  0.13440477  0.35951555  0.14840521  1
  Ag+  Ag34  1  0.80514697  0.52337749  0.68655740  1
  Ag+  Ag35  1  0.63483286  0.36325502  -0.03465743  1
  Ag+  Ag36  1  0.34644002  0.01015538  0.69382075  1
  Ag+  Ag37  1  0.29874067  0.64184182  0.66627364  1
  Ag+  Ag38  1  0.64249267  0.69233509  0.66667627  1
  Ag+  Ag39  1  0.13720394  0.52528462  0.36198193  1
  Ag+  Ag40  1  0.31378437  0.82720122  0.81053315  1
  Ag+  Ag41  1  0.18860967  0.19217707  0.32932507  1
  Ag+  Ag42  1  0.47639941  0.00106333  0.86048931  1
  Sn2+  Sn43  1  0.83544885  0.49462253  0.33737050  1
  Sn2+  Sn44  1  0.33325287  0.32730037  0.67410437  1
  Sn2+  Sn45  1  0.33711729  0.83566026  0.50902134  1
  Sn2+  Sn46  1  0.66636386  0.66895228  -0.00622947  1
  Sn2+  Sn47  1  0.33271650  -0.01047853  -0.00612004  1
  Sn2+  Sn48  1  0.32955605  0.32956163  0.32929682  1
  Sn2+  Sn49  1  0.01041880  0.66853013  -0.00566282  1
  Sn2+  Sn50  1  0.82575531  0.33166580  0.83396609  1
  Sn2+  Sn51  1  0.50351642  0.33145398  0.50357416  1
  Sn2+  Sn52  1  0.66917740  0.49905426  0.82842920  1
  Sn2+  Sn53  1  0.17339587  0.16142145  0.00557549  1
  Sn2+  Sn54  1  0.82714539  0.34062495  0.16724511  1
  Sn2+  Sn55  1  0.33929266  0.51270011  0.83952881  1
  Sn2+  Sn56  1  0.65851393  0.16845349  0.49495323  1
  Sn2+  Sn57  1  0.33463972  0.83728826  0.16010026  1
  Sn2+  Sn58  1  0.32344417  0.48954848  0.16609757  1
  Sn2+  Sn59  1  0.50689246  0.16584869  -0.00713457  1
  Sn2+  Sn60  1  0.50132064  0.82967797  0.67238127  1
  Sn2+  Sn61  1  0.33138632  0.33636399  -0.00140616  1
  Sn2+  Sn62  1  0.49649538  0.15416904  0.67545903  1
  Sn2+  Sn63  1  0.66093826  0.83226371  0.48485988  1
  Sn2+  Sn64  1  0.66538657  0.33551359  0.33463518  1
  Bi3+  Bi65  1  -0.00165506  0.00205676  0.66225872  1
  Bi3+  Bi66  1  0.84112312  0.16937679  0.66552521  1
  Bi3+  Bi67  1  0.16266650  -0.00209751  0.16791358  1
  Bi3+  Bi68  1  0.49983611  0.00118712  0.49995604  1
  Bi3+  Bi69  1  -0.00231784  0.83555611  0.16935158  1
  Bi3+  Bi70  1  0.50258055  0.83233960  0.00053315  1
  Bi3+  Bi71  1  0.66848877  0.32903496  0.66364176  1
  Bi3+  Bi72  1  0.66894088  0.83137687  0.83623788  1
  Bi3+  Bi73  1  0.49924011  0.67260289  0.50368282  1
  Bi3+  Bi74  1  0.17275472  0.50238358  -0.00143881  1
  Bi3+  Bi75  1  0.33349132  0.66830885  -0.00541254  1
  Bi3+  Bi76  1  0.67221907  0.17158508  0.16953146  1
  Bi3+  Bi77  1  0.00312092  0.16950937  0.50222220  1
  Bi3+  Bi78  1  -0.00199643  0.00057210  0.33084876  1
  Bi3+  Bi79  1  0.66559273  0.00095205  0.33342052  1
  Bi3+  Bi80  1  0.00283334  0.32847117  0.66371434  1
  Bi3+  Bi81  1  0.83699941  0.49620879  -0.00073700  1
  Bi3+  Bi82  1  0.83435910  0.17156620  0.00395757  1
  Bi3+  Bi83  1  0.84060241  0.33214083  0.50078951  1
  Bi3+  Bi84  1  0.16789876  0.00049986  0.49526731  1
  Bi3+  Bi85  1  0.83630674  0.00389745  0.83219683  1
  Te2-  Te86  1  0.16386381  0.16237675  0.17628758  1
  Te2-  Te87  1  0.16846491  0.16520458  0.48679290  1
  Te2-  Te88  1  0.16004586  0.16411402  0.84547132  1
  Te2-  Te89  1  0.16574480  0.50389738  0.16175426  1
  Te2-  Te90  1  0.16331643  0.49183508  0.50229808  1
  Te2-  Te91  1  0.17036349  0.50884607  0.83275558  1
  Te2-  Te92  1  0.16380899  0.83634453  0.17410311  1
  Te2-  Te93  1  0.17031170  0.83611322  0.48692728  1
  Te2-  Te94  1  0.16696779  0.82850762  0.83356985  1
  Te2-  Te95  1  0.50849238  0.17319963  0.16301022  1
  Te2-  Te96  1  0.49256136  0.16403506  0.50504444  1
  Te2-  Te97  1  0.50242060  0.14810770  0.83526994  1
  Te2-  Te98  1  0.49879831  0.50217874  0.17058171  1
  Te2-  Te99  1  0.49985789  0.50397679  0.49804952  1
  Te2-  Te100  1  0.49947247  0.50311829  0.83325299  1
  Te2-  Te101  1  0.50245661  0.82938474  0.16232820  1
  Te2-  Te102  1  0.50329641  0.83549356  0.50289218  1
  Te2-  Te103  1  0.51057075  0.84892634  0.83910893  1
  Te2-  Te104  1  0.83377972  0.17513697  0.16915431  1
  Te2-  Te105  1  0.83575801  0.17141340  0.50041530  1
  Te2-  Te106  1  0.84381473  0.16570482  0.83582410  1
  Te2-  Te107  1  0.83689242  0.50352480  0.16531592  1
  Te2-  Te108  1  0.84688068  0.49318564  0.50768497  1
  Te2-  Te109  1  0.83049607  0.49551113  0.82936111  1
  Te2-  Te110  1  0.83534574  0.82836616  0.16015840  1
  Te2-  Te111  1  0.82591756  0.82884750  0.50384441  1
  Te2-  Te112  1  0.82930851  0.83995607  0.83874754  1
  Te2-  Te113  1  0.16191717  -0.00528933  0.00576713  1
  Te2-  Te114  1  0.16440635  -0.00736853  0.33085902  1
  Te2-  Te115  1  0.15964539  -0.01111590  0.65549463  1
  Te2-  Te116  1  0.17021818  0.33479875  0.00708123  1
  Te2-  Te117  1  0.17388733  0.33810984  0.32715783  1
  Te2-  Te118  1  0.16601983  0.32901266  0.66945478  1
  Te2-  Te119  1  0.17171818  0.66379305  -0.01211804  1
  Te2-  Te120  1  0.16900144  0.66774898  0.33538571  1
  Te2-  Te121  1  0.15903227  0.68227917  0.67604967  1
  Te2-  Te122  1  0.50062747  -0.00256501  0.00687977  1
  Te2-  Te123  1  0.50165662  0.00411162  0.33885280  1
  Te2-  Te124  1  0.48929100  -0.00330743  0.65959830  1
  Te2-  Te125  1  0.49437611  0.33208287  0.00153390  1
  Te2-  Te126  1  0.49923552  0.34470283  0.34550255  1
  Te2-  Te127  1  0.50210590  0.32508157  0.66217884  1
  Te2-  Te128  1  0.49843283  0.66733646  0.00943093  1
  Te2-  Te129  1  0.50253736  0.66051485  0.33611141  1
  Te2-  Te130  1  0.49799062  0.67056283  0.66471991  1
  Te2-  Te131  1  0.84135382  0.00813749  0.00014740  1
  Te2-  Te132  1  0.83195537  0.00957073  0.33809413  1
  Te2-  Te133  1  0.83364686  0.00862137  0.66582404  1
  Te2-  Te134  1  0.83268165  0.33438346  -0.00036414  1
  Te2-  Te135  1  0.83039230  0.32962152  0.33851043  1
  Te2-  Te136  1  0.83853222  0.33102302  0.66676143  1
  Te2-  Te137  1  0.83607928  0.65747349  -0.00380119  1
  Te2-  Te138  1  0.83249586  0.66462967  0.35224563  1
  Te2-  Te139  1  0.84513135  0.66047676  0.65754149  1
  Te2-  Te140  1  -0.00077507  0.16120648  0.00811338  1
  Te2-  Te141  1  0.00361462  0.16208326  0.33710701  1
  Te2-  Te142  1  0.00464355  0.16579162  0.66545718  1
  Te2-  Te143  1  0.00268096  0.49961759  0.00305457  1
  Te2-  Te144  1  -0.00255950  0.49723278  0.33418410  1
  Te2-  Te145  1  0.01255095  0.49436071  0.66697796  1
  Te2-  Te146  1  -0.00690658  0.83539512  0.00760037  1
  Te2-  Te147  1  -0.00858357  0.83746179  0.33335402  1
  Te2-  Te148  1  -0.01765037  0.84052058  0.66330400  1
  Te2-  Te149  1  0.33301893  0.16303280  0.00993945  1
  Te2-  Te150  1  0.33109983  0.16027337  0.31987365  1
  Te2-  Te151  1  0.32675648  0.15756596  0.67076194  1
  Te2-  Te152  1  0.33427155  0.50545634  0.00091315  1
  Te2-  Te153  1  0.33417419  0.49951407  0.33163843  1
  Te2-  Te154  1  0.32296525  0.49763362  0.66923351  1
  Te2-  Te155  1  0.33960180  0.82845478  0.00239212  1
  Te2-  Te156  1  0.34346467  0.83861647  0.33035111  1
  Te2-  Te157  1  0.33422209  0.84461827  0.66650088  1
  Te2-  Te158  1  0.67297253  0.17105362  0.00454769  1
  Te2-  Te159  1  0.66425497  0.16664371  0.33367218  1
  Te2-  Te160  1  0.67207916  0.16732139  0.66383208  1
  Te2-  Te161  1  0.67321004  0.50417693  -0.00188810  1
  Te2-  Te162  1  0.67393713  0.50004114  0.34857799  1
  Te2-  Te163  1  0.66611245  0.49079838  0.65912847  1
  Te2-  Te164  1  0.67161920  0.82827985  0.00825913  1
  Te2-  Te165  1  0.66100340  0.83907483  0.32006169  1
  Te2-  Te166  1  0.67659276  0.83526474  0.66926291  1
  Te2-  Te167  1  -0.00370581  0.00195811  0.16990163  1
  Te2-  Te168  1  -0.00008429  0.00365857  0.49579634  1
  Te2-  Te169  1  -0.00231189  -0.01693264  0.82852051  1
  Te2-  Te170  1  -0.00556268  0.32184035  0.17976860  1
  Te2-  Te171  1  0.00662529  0.33134576  0.49555835  1
  Te2-  Te172  1  0.00139930  0.33470342  0.82868385  1
  Te2-  Te173  1  -0.00929685  0.67220544  0.16256742  1
  Te2-  Te174  1  0.00216918  0.65976489  0.50470012  1
  Te2-  Te175  1  -0.00282531  0.68080054  0.83105539  1
  Te2-  Te176  1  0.32788143  0.00254459  0.16745138  1
  Te2-  Te177  1  0.33129914  0.00451435  0.48798521  1
  Te2-  Te178  1  0.33098909  -0.01169982  0.83791039  1
  Te2-  Te179  1  0.34278671  0.32675459  0.16714929  1
  Te2-  Te180  1  0.32729935  0.32248537  0.50412245  1
  Te2-  Te181  1  0.34553855  0.33344245  0.83114755  1
  Te2-  Te182  1  0.33188330  0.66785025  0.16724940  1
  Te2-  Te183  1  0.33590259  0.66679328  0.51813921  1
  Te2-  Te184  1  0.33443108  0.67521597  0.82671655  1
  Te2-  Te185  1  0.67236396  0.00743629  0.17101522  1
  Te2-  Te186  1  0.66582669  0.00074552  0.49801081  1
  Te2-  Te187  1  0.67466404  -0.00303152  0.83487011  1
  Te2-  Te188  1  0.65864726  0.33421301  0.17004753  1
  Te2-  Te189  1  0.67245303  0.33278878  0.50148269  1
  Te2-  Te190  1  0.65556046  0.33421822  0.82590696  1
  Te2-  Te191  1  0.68195686  0.66532667  0.16743737  1
  Te2-  Te192  1  0.66221627  0.66635492  0.51628408  1
  Te2-  Te193  1  0.66521806  0.66763012  0.81960931  1
  Pb2+  Pb194  1  0.82431034  0.83617089  0.33199497  1
  Pb2+  Pb195  1  0.33610470  0.66806002  0.34440547  1
  Pb2+  Pb196  1  -0.00153041  0.66624982  0.32884018  1
  Pb2+  Pb197  1  0.49678122  0.50121699  0.66658007  1
  Pb2+  Pb198  1  0.00102077  0.50630824  0.83627370  1
  Pb2+  Pb199  1  0.65787439  -0.00137966  0.66868762  1
  Pb2+  Pb200  1  0.49917930  0.00103132  0.17379204  1
  Pb2+  Pb201  1  0.00053267  0.82972929  0.50209248  1
  Pb2+  Pb202  1  0.83031797  0.66918699  0.82846184  1
  Pb2+  Pb203  1  0.67279077  0.16806154  0.83673544  1
  Pb2+  Pb204  1  0.16041802  0.67051661  0.15805344  1
  Pb2+  Pb205  1  0.17584415  0.33631972  0.83903997  1
  Pb2+  Pb206  1  0.66934929  0.50096933  0.17533723  1
  Pb2+  Pb207  1  0.16571347  -0.00298655  0.82524255  1
  Pb2+  Pb208  1  0.00055301  0.32894812  0.00199421  1
  Pb2+  Pb209  1  0.33242262  0.49313221  0.49809638  1
  Pb2+  Pb210  1  0.67061016  -0.00143158  0.00243083  1
  Pb2+  Pb211  1  0.17044845  0.66593328  0.50900252  1
  Pb2+  Pb212  1  0.49577487  0.17359928  0.33329628  1
  Pb2+  Pb213  1  0.49829187  0.67888482  0.83647557  1
  Pb2+  Pb214  1  0.66750910  0.66882478  0.33905022  1
  Pb2+  Pb215  1  0.33587786  0.16276627  0.84286444  1
