# generated using pymatgen
data_In22Ag21Sn22Bi21(Te54Pb11)2
_symmetry_space_group_name_H-M   'P 1'
_cell_length_a   19.13448429
_cell_length_b   19.13077047
_cell_length_c   19.13683771
_cell_angle_alpha   90.00051779
_cell_angle_beta   90.00084721
_cell_angle_gamma   90.01931319
_symmetry_Int_Tables_number   1
_chemical_formula_structural   In22Ag21Sn22Bi21(Te54Pb11)2
_chemical_formula_sum   'In22 Ag21 Sn22 Bi21 Te108 Pb22'
_cell_volume   7005.18117406
_cell_formula_units_Z   1
loop_
 _symmetry_equiv_pos_site_id
 _symmetry_equiv_pos_as_xyz
  1  'x, y, z'
loop_
 _atom_type_symbol
 _atom_type_oxidation_number
  In3+  3.0
  Ag+  1.0
  Sn2+  2.0
  Bi3+  3.0
  Te2-  -2.0
  Pb2+  2.0
loop_
 _atom_site_type_symbol
 _atom_site_label
 _atom_site_symmetry_multiplicity
 _atom_site_fract_x
 _atom_site_fract_y
 _atom_site_fract_z
 _atom_site_occupancy
  In3+  In0  1  0.34351935  0.50385771  0.50477750  1
  In3+  In1  1  -0.00107667  0.83550528  0.52067121  1
  In3+  In2  1  0.34561126  0.15136896  0.50003026  1
  In3+  In3  1  0.49899933  0.67772186  0.17540036  1
  In3+  In4  1  0.65515267  0.69795430  0.00122760  1
  In3+  In5  1  0.81048176  -0.00248023  0.15094416  1
  In3+  In6  1  0.33561834  0.68645031  -0.00340133  1
  In3+  In7  1  0.49379148  0.86179254  -0.00062461  1
  In3+  In8  1  0.17071422  0.67214144  0.83454741  1
  In3+  In9  1  0.82880304  0.83657483  0.36044029  1
  In3+  In10  1  -0.00326961  0.01742495  0.66673870  1
  In3+  In11  1  0.17455422  0.33336808  0.16240035  1
  In3+  In12  1  0.00109602  -0.00603784  0.32905505  1
  In3+  In13  1  0.50294579  0.83498760  0.65405658  1
  In3+  In14  1  0.01411345  0.50373786  0.83123356  1
  In3+  In15  1  0.47955808  0.00814645  0.83681454  1
  In3+  In16  1  0.66381185  0.00280538  0.66412133  1
  In3+  In17  1  0.49158484  0.17109611  0.32414514  1
  In3+  In18  1  0.65319631  0.65883963  0.64558462  1
  In3+  In19  1  0.65847283  0.49180850  0.17823637  1
  In3+  In20  1  0.17484990  0.83795926  0.65450225  1
  In3+  In21  1  0.33430480  0.47955623  0.83367035  1
  Ag+  Ag22  1  0.36000628  0.00247215  0.65896269  1
  Ag+  Ag23  1  0.51202472  0.67260455  0.47578374  1
  Ag+  Ag24  1  0.47922921  0.18986721  0.66292917  1
  Ag+  Ag25  1  0.48229957  0.17305390  -0.03905997  1
  Ag+  Ag26  1  0.63923345  0.47121562  0.50608260  1
  Ag+  Ag27  1  0.80544982  0.84965779  0.66774939  1
  Ag+  Ag28  1  0.66271987  0.31316009  0.36275819  1
  Ag+  Ag29  1  0.33235275  0.64638238  0.35698329  1
  Ag+  Ag30  1  0.65351039  0.30169846  0.65573934  1
  Ag+  Ag31  1  0.51184411  0.00830604  0.19386888  1
  Ag+  Ag32  1  0.64417654  0.83550930  0.52174624  1
  Ag+  Ag33  1  0.64529083  0.00614485  -0.02564138  1
  Ag+  Ag34  1  0.20061986  0.15425810  -0.03323572  1
  Ag+  Ag35  1  0.34867155  -0.00064400  0.01539196  1
  Ag+  Ag36  1  0.17780720  0.31366920  0.52999088  1
  Ag+  Ag37  1  0.14577728  0.85999444  0.00008235  1
  Ag+  Ag38  1  0.18773535  0.13787903  0.67374567  1
  Ag+  Ag39  1  0.03046079  0.67568346  0.01927506  1
  Ag+  Ag40  1  0.81322323  0.14322156  0.67997412  1
  Ag+  Ag41  1  0.19387451  0.47718285  0.66583312  1
  Ag+  Ag42  1  0.33687789  0.17851690  0.85993720  1
  Sn2+  Sn43  1  0.00856990  -0.00224830  -0.00009723  1
  Sn2+  Sn44  1  0.50853132  0.83194122  0.33056319  1
  Sn2+  Sn45  1  0.82722202  0.67009365  0.16386713  1
  Sn2+  Sn46  1  0.84069661  0.33483775  0.50858395  1
  Sn2+  Sn47  1  0.83078695  0.16575947  -0.01197274  1
  Sn2+  Sn48  1  0.16752936  0.82727037  0.31960369  1
  Sn2+  Sn49  1  0.66513308  0.83684434  0.83041036  1
  Sn2+  Sn50  1  0.00405993  0.49917865  0.15624587  1
  Sn2+  Sn51  1  0.49699300  0.49853221  0.34059487  1
  Sn2+  Sn52  1  0.83468625  0.32708336  0.17462090  1
  Sn2+  Sn53  1  -0.00559780  0.33463180  0.66254261  1
  Sn2+  Sn54  1  0.66125025  0.65896201  0.33659061  1
  Sn2+  Sn55  1  0.16540154  0.17734423  0.33787421  1
  Sn2+  Sn56  1  0.16767821  0.49679080  0.35872229  1
  Sn2+  Sn57  1  0.33258045  -0.00367825  0.32899846  1
  Sn2+  Sn58  1  0.66606020  0.16519367  0.50266288  1
  Sn2+  Sn59  1  0.33453111  0.16156123  0.16238310  1
  Sn2+  Sn60  1  0.49711072  0.49349736  0.66537644  1
  Sn2+  Sn61  1  0.50301097  0.00217824  0.49954799  1
  Sn2+  Sn62  1  0.16519159  0.32951656  0.82945769  1
  Sn2+  Sn63  1  0.32852492  0.31513916  0.65875401  1
  Sn2+  Sn64  1  0.00323277  0.83052802  0.83446500  1
  Bi3+  Bi65  1  -0.00050459  0.66702420  0.66935350  1
  Bi3+  Bi66  1  0.00184760  0.17002522  0.50038695  1
  Bi3+  Bi67  1  0.00209421  0.50084783  0.50198087  1
  Bi3+  Bi68  1  0.83364737  0.33442915  0.83036581  1
  Bi3+  Bi69  1  0.33433476  0.83562017  0.16471175  1
  Bi3+  Bi70  1  0.83112452  0.16767936  0.33872115  1
  Bi3+  Bi71  1  0.16737810  0.49412115  -0.00762951  1
  Bi3+  Bi72  1  0.16751086  0.66854484  0.50136686  1
  Bi3+  Bi73  1  0.66736771  0.83058440  0.16589082  1
  Bi3+  Bi74  1  0.00202315  0.16677283  0.16362214  1
  Bi3+  Bi75  1  0.83132716  0.50134605  0.00166160  1
  Bi3+  Bi76  1  0.50154503  0.67106107  0.84016340  1
  Bi3+  Bi77  1  0.16905633  -0.00301339  0.83450319  1
  Bi3+  Bi78  1  0.66777825  0.32334785  -0.00311184  1
  Bi3+  Bi79  1  0.82975750  0.50221985  0.33087671  1
  Bi3+  Bi80  1  0.83242326  0.00311272  0.50062360  1
  Bi3+  Bi81  1  0.83493812  0.50339109  0.66370269  1
  Bi3+  Bi82  1  0.16931531  0.00507763  0.16613482  1
  Bi3+  Bi83  1  -0.00035077  0.83488439  0.16410653  1
  Bi3+  Bi84  1  0.83207235  0.66836032  0.83231423  1
  Bi3+  Bi85  1  0.33302127  0.83800656  0.83224412  1
  Te2-  Te86  1  0.16469126  0.16946409  0.17064619  1
  Te2-  Te87  1  0.16350262  0.17174815  0.49573060  1
  Te2-  Te88  1  0.17677899  0.16222202  0.82402516  1
  Te2-  Te89  1  0.16312223  0.49706278  0.15933467  1
  Te2-  Te90  1  0.16534771  0.50841497  0.51702272  1
  Te2-  Te91  1  0.17317321  0.50291682  0.82558729  1
  Te2-  Te92  1  0.16773974  0.83724638  0.15246560  1
  Te2-  Te93  1  0.16034581  0.83274866  0.49268440  1
  Te2-  Te94  1  0.17043984  0.83067365  0.85215642  1
  Te2-  Te95  1  0.49727322  0.15509611  0.17475164  1
  Te2-  Te96  1  0.49817438  0.16442843  0.51254854  1
  Te2-  Te97  1  0.48514010  0.15775946  0.81385741  1
  Te2-  Te98  1  0.50391891  0.50049752  0.17200049  1
  Te2-  Te99  1  0.49871195  0.51466510  0.49871558  1
  Te2-  Te100  1  0.49508294  0.50499353  0.83411202  1
  Te2-  Te101  1  0.50054142  0.83614806  0.15918901  1
  Te2-  Te102  1  0.49786069  0.82349266  0.50022427  1
  Te2-  Te103  1  0.49763439  0.83311993  0.84560910  1
  Te2-  Te104  1  0.83857125  0.15771659  0.17283424  1
  Te2-  Te105  1  0.83851920  0.16859935  0.50096568  1
  Te2-  Te106  1  0.83647099  0.17087596  0.82228467  1
  Te2-  Te107  1  0.83411413  0.50061690  0.16680794  1
  Te2-  Te108  1  0.83935966  0.50058436  0.49638608  1
  Te2-  Te109  1  0.83356260  0.50190171  0.83320799  1
  Te2-  Te110  1  0.83383725  0.83918431  0.16261815  1
  Te2-  Te111  1  0.84211543  0.83751300  0.51802732  1
  Te2-  Te112  1  0.83431528  0.82992013  0.82043228  1
  Te2-  Te113  1  0.16526012  0.01004347  -0.00011261  1
  Te2-  Te114  1  0.16581260  -0.00011947  0.32878890  1
  Te2-  Te115  1  0.15429808  -0.00535035  0.66961536  1
  Te2-  Te116  1  0.16513411  0.33248910  0.00194548  1
  Te2-  Te117  1  0.16463404  0.34056991  0.32034297  1
  Te2-  Te118  1  0.16392646  0.33482186  0.67441952  1
  Te2-  Te119  1  0.17410211  0.65597129  -0.00829850  1
  Te2-  Te120  1  0.17967575  0.66567713  0.33518363  1
  Te2-  Te121  1  0.16403507  0.67959873  0.66962564  1
  Te2-  Te122  1  0.49762562  0.01366979  -0.01158546  1
  Te2-  Te123  1  0.49789663  0.00418995  0.34078495  1
  Te2-  Te124  1  0.50844338  -0.01306951  0.66650971  1
  Te2-  Te125  1  0.50452343  0.31833605  -0.00100770  1
  Te2-  Te126  1  0.51208882  0.32667918  0.33632288  1
  Te2-  Te127  1  0.50889029  0.33603970  0.66551365  1
  Te2-  Te128  1  0.50127382  0.66454032  0.00177501  1
  Te2-  Te129  1  0.48615512  0.66822748  0.32964579  1
  Te2-  Te130  1  0.50387755  0.66951108  0.67724748  1
  Te2-  Te131  1  0.83956918  0.00265274  0.00128598  1
  Te2-  Te132  1  0.83936012  0.00031872  0.33771120  1
  Te2-  Te133  1  0.83950806  -0.00240655  0.66348061  1
  Te2-  Te134  1  0.83067910  0.33508303  -0.00056898  1
  Te2-  Te135  1  0.81848121  0.33366581  0.33604722  1
  Te2-  Te136  1  0.82826808  0.34272004  0.66821699  1
  Te2-  Te137  1  0.82046343  0.66291498  -0.00308602  1
  Te2-  Te138  1  0.83217787  0.66721708  0.33083272  1
  Te2-  Te139  1  0.83374990  0.66649890  0.66973299  1
  Te2-  Te140  1  -0.00509302  0.16688656  0.00301019  1
  Te2-  Te141  1  -0.00352517  0.16305353  0.33370707  1
  Te2-  Te142  1  0.00311596  0.16949541  0.66102077  1
  Te2-  Te143  1  -0.00193530  0.51317968  -0.00512444  1
  Te2-  Te144  1  -0.00284076  0.50204959  0.33463978  1
  Te2-  Te145  1  -0.00129893  0.50437282  0.66664857  1
  Te2-  Te146  1  0.00280695  0.82360218  0.00212969  1
  Te2-  Te147  1  -0.00024405  0.83759371  0.32558270  1
  Te2-  Te148  1  0.01212214  0.82873131  0.67187186  1
  Te2-  Te149  1  0.33993336  0.15402284  0.00636157  1
  Te2-  Te150  1  0.33676904  0.16557408  0.34459161  1
  Te2-  Te151  1  0.33125643  0.15765480  0.65009968  1
  Te2-  Te152  1  0.33113092  0.49211307  -0.00815198  1
  Te2-  Te153  1  0.33481045  0.50084915  0.33399351  1
  Te2-  Te154  1  0.33857651  0.49848561  0.67533871  1
  Te2-  Te155  1  0.33859623  0.84575934  0.00000792  1
  Te2-  Te156  1  0.33609346  0.83721617  0.32599335  1
  Te2-  Te157  1  0.33342221  0.84632816  0.66926532  1
  Te2-  Te158  1  0.67332695  0.15755793  -0.00067626  1
  Te2-  Te159  1  0.66950060  0.16728531  0.33658645  1
  Te2-  Te160  1  0.66890799  0.15698585  0.66256833  1
  Te2-  Te161  1  0.67060125  0.48864771  0.00210454  1
  Te2-  Te162  1  0.66852011  0.50199650  0.33775810  1
  Te2-  Te163  1  0.66940610  0.50815270  0.65037770  1
  Te2-  Te164  1  0.66472773  0.85309945  0.00345586  1
  Te2-  Te165  1  0.66803289  0.82834687  0.32613583  1
  Te2-  Te166  1  0.65953064  0.82896074  0.66906413  1
  Te2-  Te167  1  0.00484844  0.00021888  0.16780809  1
  Te2-  Te168  1  -0.00303333  -0.00106028  0.50189102  1
  Te2-  Te169  1  0.00385456  -0.00143962  0.83006544  1
  Te2-  Te170  1  -0.00329362  0.33049243  0.16812898  1
  Te2-  Te171  1  0.01518895  0.33710818  0.50113486  1
  Te2-  Te172  1  -0.00278601  0.34011595  0.83068344  1
  Te2-  Te173  1  -0.00117121  0.67032245  0.16322656  1
  Te2-  Te174  1  0.00160173  0.66948660  0.50114968  1
  Te2-  Te175  1  -0.00198423  0.66300939  0.83182364  1
  Te2-  Te176  1  0.33199300  -0.00173105  0.16378836  1
  Te2-  Te177  1  0.33338474  -0.00113476  0.50791408  1
  Te2-  Te178  1  0.33005121  -0.00179301  0.81906573  1
  Te2-  Te179  1  0.33097762  0.33177639  0.16981674  1
  Te2-  Te180  1  0.32124395  0.35045469  0.50495195  1
  Te2-  Te181  1  0.33264585  0.32424078  0.82696456  1
  Te2-  Te182  1  0.34077198  0.67220933  0.15685916  1
  Te2-  Te183  1  0.33125157  0.66001310  0.50414866  1
  Te2-  Te184  1  0.33471591  0.67279819  0.83706479  1
  Te2-  Te185  1  0.65750311  -0.00469573  0.16905505  1
  Te2-  Te186  1  0.67127327  -0.01414369  0.50655593  1
  Te2-  Te187  1  0.66421096  -0.00324103  0.82752863  1
  Te2-  Te188  1  0.66895636  0.33764665  0.16237640  1
  Te2-  Te189  1  0.66980159  0.32837320  0.50890290  1
  Te2-  Te190  1  0.67081040  0.33341654  0.83105756  1
  Te2-  Te191  1  0.65936729  0.66704471  0.16277696  1
  Te2-  Te192  1  0.65795491  0.68434228  0.49658450  1
  Te2-  Te193  1  0.66626117  0.66949258  0.84230623  1
  Pb2+  Pb194  1  0.50490158  0.49605072  0.00295204  1
  Pb2+  Pb195  1  0.83774524  0.83174689  -0.00770673  1
  Pb2+  Pb196  1  0.83095624  0.00015569  0.83215900  1
  Pb2+  Pb197  1  0.00533077  0.66969629  0.33140196  1
  Pb2+  Pb198  1  0.33263317  0.50334834  0.16343408  1
  Pb2+  Pb199  1  0.66725299  0.16781951  0.16639499  1
  Pb2+  Pb200  1  0.50081948  0.32709498  0.16696486  1
  Pb2+  Pb201  1  0.33166556  0.32341374  -0.00111756  1
  Pb2+  Pb202  1  0.65762182  0.16372468  0.83148885  1
  Pb2+  Pb203  1  0.01077985  0.16867223  0.83359771  1
  Pb2+  Pb204  1  0.49681456  0.33554196  0.50138489  1
  Pb2+  Pb205  1  0.17049229  0.66766185  0.16289149  1
  Pb2+  Pb206  1  0.66515214  0.50318954  0.82259654  1
  Pb2+  Pb207  1  0.66859363  -0.00063377  0.33754250  1
  Pb2+  Pb208  1  0.33506998  0.67063784  0.67042928  1
  Pb2+  Pb209  1  0.33436296  0.33393855  0.33908805  1
  Pb2+  Pb210  1  -0.00756402  0.33365502  0.33699389  1
  Pb2+  Pb211  1  0.16613906  0.00587615  0.50044354  1
  Pb2+  Pb212  1  0.33272500  0.83056529  0.49606775  1
  Pb2+  Pb213  1  -0.00132063  0.33969049  -0.00074348  1
  Pb2+  Pb214  1  0.50148095  0.32943215  0.83145740  1
  Pb2+  Pb215  1  0.82453207  0.66848265  0.50044039  1
