# generated using pymatgen
data_In22Ag21Sn22Bi21(Te54Pb11)2
_symmetry_space_group_name_H-M   'P 1'
_cell_length_a   19.18027594
_cell_length_b   19.18022011
_cell_length_c   19.15391260
_cell_angle_alpha   90.00279598
_cell_angle_beta   90.01016719
_cell_angle_gamma   89.99526702
_symmetry_Int_Tables_number   1
_chemical_formula_structural   In22Ag21Sn22Bi21(Te54Pb11)2
_chemical_formula_sum   'In22 Ag21 Sn22 Bi21 Te108 Pb22'
_cell_volume   7046.37789318
_cell_formula_units_Z   1
loop_
 _symmetry_equiv_pos_site_id
 _symmetry_equiv_pos_as_xyz
  1  'x, y, z'
loop_
 _atom_type_symbol
 _atom_type_oxidation_number
  In3+  3.0
  Ag+  1.0
  Sn2+  2.0
  Bi3+  3.0
  Te2-  -2.0
  Pb2+  2.0
loop_
 _atom_site_type_symbol
 _atom_site_label
 _atom_site_symmetry_multiplicity
 _atom_site_fract_x
 _atom_site_fract_y
 _atom_site_fract_z
 _atom_site_occupancy
  In3+  In0  1  0.33474615  0.16360431  0.48820909  1
  In3+  In1  1  0.82706045  0.48664550  0.65028276  1
  In3+  In2  1  0.16748815  0.32264645  0.50408243  1
  In3+  In3  1  0.50929577  0.33224944  0.49875856  1
  In3+  In4  1  0.17933614  0.68640575  0.83056239  1
  In3+  In5  1  0.49586432  0.30920944  0.19195884  1
  In3+  In6  1  0.49793704  0.33669192  0.83197774  1
  In3+  In7  1  0.00070563  0.63986373  -0.00697403  1
  In3+  In8  1  -0.01546972  0.15121809  0.16261232  1
  In3+  In9  1  0.17118600  0.85768070  0.66070975  1
  In3+  In10  1  0.50147226  0.15527251  0.67124075  1
  In3+  In11  1  0.17571356  0.49857931  0.33458577  1
  In3+  In12  1  0.84481432  -0.00841398  0.82464124  1
  In3+  In13  1  0.66757932  -0.00821753  -0.00942380  1
  In3+  In14  1  0.50735527  0.02583265  0.49859994  1
  In3+  In15  1  0.17339856  0.66178490  0.51469019  1
  In3+  In16  1  0.50458422  0.81570285  0.66706926  1
  In3+  In17  1  0.32538962  0.01331554  0.67303952  1
  In3+  In18  1  -0.01048191  0.49969208  0.18107043  1
  In3+  In19  1  -0.00406661  0.67614630  0.33756325  1
  In3+  In20  1  0.49780164  0.48551819  0.66762323  1
  In3+  In21  1  0.33899911  0.02698783  0.33299727  1
  Ag+  Ag22  1  0.14405792  0.15718005  0.65479351  1
  Ag+  Ag23  1  0.47501393  -0.01178234  0.14114626  1
  Ag+  Ag24  1  0.80747786  0.30634046  0.50048923  1
  Ag+  Ag25  1  0.33647329  0.33438880  0.35259044  1
  Ag+  Ag26  1  0.30762557  0.14686099  0.19504524  1
  Ag+  Ag27  1  0.80697437  0.83613226  0.64962901  1
  Ag+  Ag28  1  0.35250091  0.31144850  0.64310997  1
  Ag+  Ag29  1  0.35804519  0.69591675  -0.01583115  1
  Ag+  Ag30  1  0.53654779  0.69810507  0.86149929  1
  Ag+  Ag31  1  0.82997205  -0.01780040  0.13991234  1
  Ag+  Ag32  1  0.81242544  0.14681705  -0.02560892  1
  Ag+  Ag33  1  -0.02645791  0.31789362  0.03468405  1
  Ag+  Ag34  1  0.66355133  0.51906507  0.48060974  1
  Ag+  Ag35  1  0.68970159  0.14467583  0.52122582  1
  Ag+  Ag36  1  0.64703975  0.69222188  0.00221921  1
  Ag+  Ag37  1  0.50783537  0.13864086  0.32037526  1
  Ag+  Ag38  1  0.18688381  -0.01565516  0.85627431  1
  Ag+  Ag39  1  0.02771236  0.50207608  0.47988044  1
  Ag+  Ag40  1  0.82920442  0.85930668  0.35454705  1
  Ag+  Ag41  1  -0.02287916  -0.03321574  0.67924501  1
  Ag+  Ag42  1  0.67050870  0.85716576  0.81140639  1
  Sn2+  Sn43  1  0.32686138  0.66247777  0.32363667  1
  Sn2+  Sn44  1  0.66559212  0.33636784  0.66066495  1
  Sn2+  Sn45  1  0.16822353  0.17203696  -0.01038356  1
  Sn2+  Sn46  1  0.00897656  0.16573264  0.83693320  1
  Sn2+  Sn47  1  0.50315609  0.66155786  0.50762398  1
  Sn2+  Sn48  1  0.82168263  0.16707163  0.33083120  1
  Sn2+  Sn49  1  0.83328295  0.67954575  0.16970960  1
  Sn2+  Sn50  1  0.33598755  0.83401754  0.49792229  1
  Sn2+  Sn51  1  0.67287293  0.32836533  0.00376145  1
  Sn2+  Sn52  1  0.66407575  0.51229932  0.16694202  1
  Sn2+  Sn53  1  0.67079106  0.66710497  0.32933800  1
  Sn2+  Sn54  1  0.67107204  0.84505856  0.16424352  1
  Sn2+  Sn55  1  0.17829905  0.33058818  0.16467948  1
  Sn2+  Sn56  1  0.83555077  0.66214819  0.50535235  1
  Sn2+  Sn57  1  0.34135013  0.49394429  0.50294520  1
  Sn2+  Sn58  1  0.34179945  0.83385018  0.17536475  1
  Sn2+  Sn59  1  0.83932611  -0.00596013  0.49860904  1
  Sn2+  Sn60  1  0.50789828  0.83396969  0.33647271  1
  Sn2+  Sn61  1  0.50614177  0.17359597  0.01544959  1
  Sn2+  Sn62  1  0.16835646  0.66579317  0.16475168  1
  Sn2+  Sn63  1  0.16494508  0.49057072  0.66592221  1
  Sn2+  Sn64  1  0.83331438  0.82991260  -0.00222368  1
  Bi3+  Bi65  1  0.82897106  0.49942034  0.33789025  1
  Bi3+  Bi66  1  0.33570300  0.33272710  -0.00419063  1
  Bi3+  Bi67  1  0.16839992  0.33166552  0.82882928  1
  Bi3+  Bi68  1  0.00114743  0.82683558  0.16632700  1
  Bi3+  Bi69  1  0.00574726  0.33401120  0.33669577  1
  Bi3+  Bi70  1  0.33176166  0.17196798  0.83295821  1
  Bi3+  Bi71  1  0.83532382  0.67069412  0.83581419  1
  Bi3+  Bi72  1  -0.00057860  0.49563730  0.82975102  1
  Bi3+  Bi73  1  0.66693009  -0.00089161  0.32923708  1
  Bi3+  Bi74  1  0.17152312  -0.00257782  0.49601270  1
  Bi3+  Bi75  1  0.50215055  0.49674068  -0.00250954  1
  Bi3+  Bi76  1  0.83029527  0.49546798  -0.00253662  1
  Bi3+  Bi77  1  0.33297433  0.49897803  0.16501709  1
  Bi3+  Bi78  1  0.33155578  0.49896303  0.83134632  1
  Bi3+  Bi79  1  0.66482644  0.49953169  0.83666495  1
  Bi3+  Bi80  1  0.00353280  0.33606966  0.66550072  1
  Bi3+  Bi81  1  -0.00279226  0.66382276  0.66319478  1
  Bi3+  Bi82  1  0.16372361  0.83259245  0.00030652  1
  Bi3+  Bi83  1  0.49694497  0.50776773  0.33385041  1
  Bi3+  Bi84  1  0.66732503  0.16758489  0.17364032  1
  Bi3+  Bi85  1  0.00017689  0.00246319  0.33914757  1
  Te2-  Te86  1  0.16810943  0.17335848  0.16313026  1
  Te2-  Te87  1  0.17597026  0.16420894  0.50641444  1
  Te2-  Te88  1  0.17022285  0.16950797  0.82394480  1
  Te2-  Te89  1  0.16938748  0.49898155  0.17280917  1
  Te2-  Te90  1  0.17409456  0.50986689  0.49538115  1
  Te2-  Te91  1  0.16483129  0.49577572  0.83323367  1
  Te2-  Te92  1  0.16499642  0.83395772  0.16517332  1
  Te2-  Te93  1  0.16790734  0.83112343  0.50188430  1
  Te2-  Te94  1  0.16501357  0.84152862  0.83376385  1
  Te2-  Te95  1  0.50314837  0.15778498  0.17346416  1
  Te2-  Te96  1  0.48888928  0.17694089  0.49745931  1
  Te2-  Te97  1  0.49781538  0.17307402  0.82763846  1
  Te2-  Te98  1  0.49860959  0.50336014  0.16684953  1
  Te2-  Te99  1  0.50801469  0.49802615  0.49965128  1
  Te2-  Te100  1  0.49828668  0.49870516  0.83196377  1
  Te2-  Te101  1  0.49995505  0.84449999  0.16935866  1
  Te2-  Te102  1  0.49317880  0.82527979  0.50814842  1
  Te2-  Te103  1  0.50795793  0.83503820  0.82263325  1
  Te2-  Te104  1  0.83312501  0.17269487  0.17078469  1
  Te2-  Te105  1  0.83270806  0.16182911  0.49904235  1
  Te2-  Te106  1  0.83767840  0.16640843  0.83285404  1
  Te2-  Te107  1  0.83289051  0.50287360  0.16661848  1
  Te2-  Te108  1  0.81601061  0.50614225  0.49984565  1
  Te2-  Te109  1  0.83408628  0.50223121  0.83218599  1
  Te2-  Te110  1  0.84047530  0.83705506  0.16088962  1
  Te2-  Te111  1  0.83218818  0.83202983  0.50013469  1
  Te2-  Te112  1  0.82067115  0.83719531  0.83815439  1
  Te2-  Te113  1  0.16426769  0.00228050  -0.00102184  1
  Te2-  Te114  1  0.16586727  -0.00037100  0.33411549  1
  Te2-  Te115  1  0.17326396  0.01146133  0.65751536  1
  Te2-  Te116  1  0.17225232  0.33250530  -0.00504261  1
  Te2-  Te117  1  0.17092643  0.33998445  0.33655743  1
  Te2-  Te118  1  0.16648919  0.33153862  0.66294202  1
  Te2-  Te119  1  0.15423662  0.67115359  -0.00439064  1
  Te2-  Te120  1  0.15920216  0.65863302  0.33083215  1
  Te2-  Te121  1  0.16203286  0.65757384  0.66893830  1
  Te2-  Te122  1  0.50954131  0.00399547  0.00021702  1
  Te2-  Te123  1  0.49816472  -0.00607768  0.34544078  1
  Te2-  Te124  1  0.48913598  0.00236306  0.65401090  1
  Te2-  Te125  1  0.50179381  0.33498391  -0.00791535  1
  Te2-  Te126  1  0.48845800  0.34538514  0.34245000  1
  Te2-  Te127  1  0.49615444  0.33501822  0.66062436  1
  Te2-  Te128  1  0.50037708  0.66184627  -0.00097065  1
  Te2-  Te129  1  0.50278362  0.66849244  0.33582205  1
  Te2-  Te130  1  0.49970686  0.66435766  0.67019401  1
  Te2-  Te131  1  0.82676400  0.00248138  -0.00642310  1
  Te2-  Te132  1  0.83598031  0.00535486  0.33964205  1
  Te2-  Te133  1  0.83246288  -0.01529710  0.66875714  1
  Te2-  Te134  1  0.83182669  0.33479286  0.00209606  1
  Te2-  Te135  1  0.83921909  0.33711467  0.34908387  1
  Te2-  Te136  1  0.83701507  0.33330156  0.65119622  1
  Te2-  Te137  1  0.84586010  0.65824208  0.00052937  1
  Te2-  Te138  1  0.83718086  0.65946027  0.33561038  1
  Te2-  Te139  1  0.83769595  0.68770246  0.67189122  1
  Te2-  Te140  1  0.00273799  0.17564944  0.01125532  1
  Te2-  Te141  1  -0.00097095  0.16859520  0.32724663  1
  Te2-  Te142  1  -0.00089692  0.17482623  0.66532366  1
  Te2-  Te143  1  -0.00404080  0.48640346  -0.00456560  1
  Te2-  Te144  1  -0.00522322  0.49865529  0.33577828  1
  Te2-  Te145  1  -0.00839326  0.50158884  0.66738183  1
  Te2-  Te146  1  0.00186828  0.84078121  0.00397375  1
  Te2-  Te147  1  -0.01134088  0.83659472  0.33070124  1
  Te2-  Te148  1  0.01844742  0.82652050  0.66852104  1
  Te2-  Te149  1  0.33878799  0.17041231  -0.00430252  1
  Te2-  Te150  1  0.34090754  0.18166817  0.33394763  1
  Te2-  Te151  1  0.34514789  0.16724232  0.66896484  1
  Te2-  Te152  1  0.33743837  0.49783665  -0.00122138  1
  Te2-  Te153  1  0.33452481  0.49379034  0.32940957  1
  Te2-  Te154  1  0.33815670  0.49883776  0.67026888  1
  Te2-  Te155  1  0.32818697  0.83694022  0.00316302  1
  Te2-  Te156  1  0.33388868  0.82334139  0.33092187  1
  Te2-  Te157  1  0.32307227  0.83466997  0.66623949  1
  Te2-  Te158  1  0.67033884  0.16776828  0.00777876  1
  Te2-  Te159  1  0.65516731  0.16220487  0.33724879  1
  Te2-  Te160  1  0.65558613  0.16769281  0.66156134  1
  Te2-  Te161  1  0.66586891  0.49554793  0.00089482  1
  Te2-  Te162  1  0.66293108  0.50143743  0.33264273  1
  Te2-  Te163  1  0.66320787  0.49800026  0.67453176  1
  Te2-  Te164  1  0.66704429  0.83759145  0.00562589  1
  Te2-  Te165  1  0.67940712  0.83467226  0.32818318  1
  Te2-  Te166  1  0.65878432  0.83205745  0.66672208  1
  Te2-  Te167  1  -0.01332600  -0.00283385  0.17310425  1
  Te2-  Te168  1  0.00593562  0.00103907  0.50054108  1
  Te2-  Te169  1  -0.00288863  0.00365064  0.82081244  1
  Te2-  Te170  1  0.00625039  0.34622180  0.17512890  1
  Te2-  Te171  1  0.01462384  0.34875383  0.49909520  1
  Te2-  Te172  1  0.00474269  0.33335268  0.83107527  1
  Te2-  Te173  1  0.00131045  0.66330622  0.17305635  1
  Te2-  Te174  1  0.00510928  0.65441843  0.49844420  1
  Te2-  Te175  1  -0.00105424  0.66127964  0.83195053  1
  Te2-  Te176  1  0.33418018  0.00358235  0.17840407  1
  Te2-  Te177  1  0.33477583  0.00463262  0.48865168  1
  Te2-  Te178  1  0.33034776  0.00460557  0.82943295  1
  Te2-  Te179  1  0.34642928  0.33759882  0.15743198  1
  Te2-  Te180  1  0.32034545  0.33579521  0.50272841  1
  Te2-  Te181  1  0.33359601  0.33633439  0.82960914  1
  Te2-  Te182  1  0.32864503  0.66274388  0.16151399  1
  Te2-  Te183  1  0.32772214  0.66336557  0.49546774  1
  Te2-  Te184  1  0.33186845  0.66133125  0.84185047  1
  Te2-  Te185  1  0.68143631  0.00583580  0.17144797  1
  Te2-  Te186  1  0.66117976  0.00233397  0.49451123  1
  Te2-  Te187  1  0.66597828  0.00182133  0.83745607  1
  Te2-  Te188  1  0.65488837  0.33241401  0.17104953  1
  Te2-  Te189  1  0.66252743  0.33269099  0.50395006  1
  Te2-  Te190  1  0.66533434  0.33675694  0.83073136  1
  Te2-  Te191  1  0.67022106  0.67049875  0.15688254  1
  Te2-  Te192  1  0.66586024  0.66474163  0.50088889  1
  Te2-  Te193  1  0.67595318  0.66132204  0.84807950  1
  Pb2+  Pb194  1  -0.00296102  0.82806078  0.50301044  1
  Pb2+  Pb195  1  0.66919779  0.16953219  0.83627262  1
  Pb2+  Pb196  1  0.50055811  0.67297697  0.16770398  1
  Pb2+  Pb197  1  0.33944747  0.82872734  0.83200736  1
  Pb2+  Pb198  1  0.83515308  0.33304936  0.82735646  1
  Pb2+  Pb199  1  0.49666379  0.00245693  0.82915044  1
  Pb2+  Pb200  1  0.67040691  0.66329316  0.67506726  1
  Pb2+  Pb201  1  0.83058375  0.33620004  0.17582462  1
  Pb2+  Pb202  1  0.33353918  0.66601331  0.66648383  1
  Pb2+  Pb203  1  0.33543460  0.00534445  0.00620464  1
  Pb2+  Pb204  1  -0.00745792  0.83259202  0.83616595  1
  Pb2+  Pb205  1  -0.00539266  0.01054761  -0.00814092  1
  Pb2+  Pb206  1  0.66511847  0.32864993  0.33961246  1
  Pb2+  Pb207  1  0.16406905  0.82623779  0.33377843  1
  Pb2+  Pb208  1  0.83377343  0.15888712  0.66618060  1
  Pb2+  Pb209  1  0.16837030  0.50085457  0.00389527  1
  Pb2+  Pb210  1  0.66272811  0.00039362  0.66630896  1
  Pb2+  Pb211  1  0.49972222  0.83505245  -0.00127554  1
  Pb2+  Pb212  1  0.15723675  0.00513227  0.16480254  1
  Pb2+  Pb213  1  0.66159638  0.83018702  0.49468879  1
  Pb2+  Pb214  1  0.16828522  0.17195008  0.33284723  1
  Pb2+  Pb215  1  0.00029581  0.17346620  0.49983475  1
