# generated using pymatgen
data_In22Ag21Sn22Bi21(Te54Pb11)2
_symmetry_space_group_name_H-M   'P 1'
_cell_length_a   19.14217885
_cell_length_b   19.15199014
_cell_length_c   19.13928111
_cell_angle_alpha   90.00367306
_cell_angle_beta   89.97243904
_cell_angle_gamma   90.00011381
_symmetry_Int_Tables_number   1
_chemical_formula_structural   In22Ag21Sn22Bi21(Te54Pb11)2
_chemical_formula_sum   'In22 Ag21 Sn22 Bi21 Te108 Pb22'
_cell_volume   7016.66672523
_cell_formula_units_Z   1
loop_
 _symmetry_equiv_pos_site_id
 _symmetry_equiv_pos_as_xyz
  1  'x, y, z'
loop_
 _atom_type_symbol
 _atom_type_oxidation_number
  In3+  3.0
  Ag+  1.0
  Sn2+  2.0
  Bi3+  3.0
  Te2-  -2.0
  Pb2+  2.0
loop_
 _atom_site_type_symbol
 _atom_site_label
 _atom_site_symmetry_multiplicity
 _atom_site_fract_x
 _atom_site_fract_y
 _atom_site_fract_z
 _atom_site_occupancy
  In3+  In0  1  0.66044719  0.67170109  0.34604618  1
  In3+  In1  1  0.17967036  0.67269625  0.50927364  1
  In3+  In2  1  0.16925842  0.48985931  0.34620171  1
  In3+  In3  1  0.00876792  0.50113479  0.82783836  1
  In3+  In4  1  0.50349670  0.17984274  0.32541160  1
  In3+  In5  1  0.66567220  0.18137212  0.50331084  1
  In3+  In6  1  0.35048431  0.83806843  0.50634718  1
  In3+  In7  1  0.83071745  0.49893944  0.31872501  1
  In3+  In8  1  0.66865477  0.15962801  0.15757265  1
  In3+  In9  1  0.81914873  0.82918161  0.66351457  1
  In3+  In10  1  0.66090422  0.33153785  0.00101518  1
  In3+  In11  1  0.18152069  0.00658040  0.16536230  1
  In3+  In12  1  -0.00271864  0.66614361  0.66916809  1
  In3+  In13  1  0.50353282  0.01096332  0.48034388  1
  In3+  In14  1  0.83188739  0.49128552  0.00393156  1
  In3+  In15  1  0.16332032  0.32960600  0.51535447  1
  In3+  In16  1  0.65614786  0.66534605  0.01259553  1
  In3+  In17  1  0.83696809  0.01667734  0.82091122  1
  In3+  In18  1  0.83119941  0.67001304  0.83978932  1
  In3+  In19  1  0.00993785  0.33061705  0.00688589  1
  In3+  In20  1  0.16846241  0.83126887  0.65771870  1
  In3+  In21  1  0.33237070  0.51704237  0.82734302  1
  Ag+  Ag22  1  0.35304923  0.81305581  0.80522188  1
  Ag+  Ag23  1  0.81120326  0.33612068  0.15186501  1
  Ag+  Ag24  1  0.17057953  0.48303706  0.64686303  1
  Ag+  Ag25  1  0.34169217  0.65608672  0.64679738  1
  Ag+  Ag26  1  0.65018817  0.14198040  0.86104346  1
  Ag+  Ag27  1  0.30397250  0.18628419  0.52567036  1
  Ag+  Ag28  1  0.66674573  0.84642267  0.48021205  1
  Ag+  Ag29  1  0.80710419  0.69317949  0.13861938  1
  Ag+  Ag30  1  0.53443568  -0.02682917  0.18634531  1
  Ag+  Ag31  1  0.37688150  0.85643980  0.19737348  1
  Ag+  Ag32  1  0.52389326  0.52424146  0.33647205  1
  Ag+  Ag33  1  0.48318406  0.67244746  0.49802648  1
  Ag+  Ag34  1  0.52396105  0.16450031  -0.02460127  1
  Ag+  Ag35  1  0.36070813  0.16787857  0.86507537  1
  Ag+  Ag36  1  0.82875964  0.19615107  0.64271902  1
  Ag+  Ag37  1  0.19203249  0.30248442  0.17793013  1
  Ag+  Ag38  1  0.18347479  0.14742022  -0.00085413  1
  Ag+  Ag39  1  0.84159855  -0.01617805  0.15310013  1
  Ag+  Ag40  1  0.67383484  0.81120945  0.14444834  1
  Ag+  Ag41  1  0.52404821  0.31154843  0.49988045  1
  Ag+  Ag42  1  -0.02241648  0.02325122  0.66497858  1
  Sn2+  Sn43  1  -0.00681601  0.66290559  0.00546135  1
  Sn2+  Sn44  1  0.82909386  0.32852942  0.84148620  1
  Sn2+  Sn45  1  0.17118035  0.00060423  0.83280077  1
  Sn2+  Sn46  1  0.66043774  0.32499845  0.67701994  1
  Sn2+  Sn47  1  0.33350381  0.50686635  0.16673720  1
  Sn2+  Sn48  1  0.83630421  0.16157603  0.00308140  1
  Sn2+  Sn49  1  0.49780294  0.83063235  0.66178262  1
  Sn2+  Sn50  1  0.84170544  0.49925593  0.67273622  1
  Sn2+  Sn51  1  -0.00103215  0.33133738  0.32040591  1
  Sn2+  Sn52  1  0.83854664  0.32684472  0.49175832  1
  Sn2+  Sn53  1  -0.00028345  0.16242705  0.50674985  1
  Sn2+  Sn54  1  0.00446242  0.83628689  0.83069796  1
  Sn2+  Sn55  1  0.65868296  0.66325181  0.66358339  1
  Sn2+  Sn56  1  0.49884641  0.83043156  0.33978200  1
  Sn2+  Sn57  1  0.82911868  0.16259290  0.32611693  1
  Sn2+  Sn58  1  0.34042526  0.16214262  0.16774132  1
  Sn2+  Sn59  1  -0.00964241  0.16307024  0.17004735  1
  Sn2+  Sn60  1  0.34493721  0.49260579  0.50478929  1
  Sn2+  Sn61  1  0.49258424  0.33052895  0.82666020  1
  Sn2+  Sn62  1  0.66394771  0.83479728  0.83099538  1
  Sn2+  Sn63  1  0.49731086  0.67233211  0.17129460  1
  Sn2+  Sn64  1  0.82624166  0.82747763  0.32990296  1
  Bi3+  Bi65  1  0.00330918  0.49716544  0.16531792  1
  Bi3+  Bi66  1  0.33433850  0.33212648  0.33316536  1
  Bi3+  Bi67  1  0.83553285  0.66223065  0.49966365  1
  Bi3+  Bi68  1  0.33204420  0.66929649  0.00156372  1
  Bi3+  Bi69  1  0.33225496  0.00082034  0.66845742  1
  Bi3+  Bi70  1  0.49510430  0.50103089  0.65989161  1
  Bi3+  Bi71  1  -0.00343432  0.66485003  0.33517531  1
  Bi3+  Bi72  1  -0.00511840  0.17052903  0.83379758  1
  Bi3+  Bi73  1  0.16546421  0.33118695  0.84225298  1
  Bi3+  Bi74  1  0.00013713  0.49980995  0.50052062  1
  Bi3+  Bi75  1  0.16417122  0.83073550  0.32959757  1
  Bi3+  Bi76  1  0.16967394  -0.00149730  0.50111882  1
  Bi3+  Bi77  1  0.16430523  0.50245340  -0.00010010  1
  Bi3+  Bi78  1  0.66504289  0.50329830  0.50284110  1
  Bi3+  Bi79  1  0.16444251  0.66943332  0.16735021  1
  Bi3+  Bi80  1  0.16526579  0.83642689  -0.00002235  1
  Bi3+  Bi81  1  0.33421218  -0.00105745  -0.00178706  1
  Bi3+  Bi82  1  0.49782098  0.33469052  0.17186748  1
  Bi3+  Bi83  1  0.49868481  0.00155650  0.83563683  1
  Bi3+  Bi84  1  0.67114132  0.49938523  0.82962214  1
  Bi3+  Bi85  1  0.33088637  0.00084455  0.33271825  1
  Te2-  Te86  1  0.16329346  0.16083687  0.15450057  1
  Te2-  Te87  1  0.16147061  0.16265526  0.50013764  1
  Te2-  Te88  1  0.15604341  0.16932941  0.84552259  1
  Te2-  Te89  1  0.16585458  0.50706076  0.16269397  1
  Te2-  Te90  1  0.16618755  0.50387577  0.50074025  1
  Te2-  Te91  1  0.16881197  0.49708439  0.83683418  1
  Te2-  Te92  1  0.16400318  0.83386663  0.16685157  1
  Te2-  Te93  1  0.16624051  0.83418700  0.49506204  1
  Te2-  Te94  1  0.16520778  0.83941377  0.83747583  1
  Te2-  Te95  1  0.51034480  0.17402894  0.17282378  1
  Te2-  Te96  1  0.50846427  0.16457353  0.49553289  1
  Te2-  Te97  1  0.50817394  0.16893663  0.82800853  1
  Te2-  Te98  1  0.49630030  0.49977558  0.18196207  1
  Te2-  Te99  1  0.50224143  0.51455972  0.49580866  1
  Te2-  Te100  1  0.49882127  0.49498142  0.82876256  1
  Te2-  Te101  1  0.51677641  0.82925021  0.16761400  1
  Te2-  Te102  1  0.50487924  0.82515458  0.50165329  1
  Te2-  Te103  1  0.49585254  0.83813788  0.83238276  1
  Te2-  Te104  1  0.82335108  0.18585099  0.17174151  1
  Te2-  Te105  1  0.83144657  0.16800088  0.49847734  1
  Te2-  Te106  1  0.83183009  0.16670385  0.83367889  1
  Te2-  Te107  1  0.83920549  0.48837755  0.16324253  1
  Te2-  Te108  1  0.83679864  0.49963053  0.50509219  1
  Te2-  Te109  1  0.83447676  0.49976961  0.83483392  1
  Te2-  Te110  1  0.82256285  0.83429836  0.17014637  1
  Te2-  Te111  1  0.81990298  0.82693349  0.50497008  1
  Te2-  Te112  1  0.83413401  0.82292153  0.82598678  1
  Te2-  Te113  1  0.16495336  -0.00101885  0.00328373  1
  Te2-  Te114  1  0.16729632  -0.00295759  0.33366527  1
  Te2-  Te115  1  0.16989489  -0.00768282  0.66337976  1
  Te2-  Te116  1  0.16364917  0.34067944  0.00389680  1
  Te2-  Te117  1  0.16964191  0.33679657  0.32008308  1
  Te2-  Te118  1  0.16563835  0.33650345  0.67238099  1
  Te2-  Te119  1  0.16448599  0.66794374  0.00153184  1
  Te2-  Te120  1  0.16213011  0.66852544  0.33273486  1
  Te2-  Te121  1  0.17359594  0.67579816  0.66217957  1
  Te2-  Te122  1  0.49638945  0.01495761  -0.00326979  1
  Te2-  Te123  1  0.49305527  -0.00047402  0.32605051  1
  Te2-  Te124  1  0.49483463  -0.00430913  0.67226670  1
  Te2-  Te125  1  0.50364460  0.32340585  0.00232662  1
  Te2-  Te126  1  0.49538385  0.33263004  0.34548292  1
  Te2-  Te127  1  0.49840251  0.33912782  0.65110201  1
  Te2-  Te128  1  0.49850991  0.66192106  0.00097138  1
  Te2-  Te129  1  0.50392922  0.66946430  0.34230809  1
  Te2-  Te130  1  0.49125649  0.66304453  0.66024910  1
  Te2-  Te131  1  0.83080556  0.00144060  0.00614077  1
  Te2-  Te132  1  0.83325793  0.00087461  0.33543546  1
  Te2-  Te133  1  0.83498360  -0.01533310  0.66958554  1
  Te2-  Te134  1  0.82276578  0.33821702  0.00336466  1
  Te2-  Te135  1  0.83335053  0.33912422  0.33625065  1
  Te2-  Te136  1  0.82963593  0.34041515  0.66855252  1
  Te2-  Te137  1  0.83330766  0.65843006  -0.00155485  1
  Te2-  Te138  1  0.83490151  0.65947052  0.33593808  1
  Te2-  Te139  1  0.83758317  0.66577318  0.66509623  1
  Te2-  Te140  1  -0.00540847  0.17521091  -0.00172640  1
  Te2-  Te141  1  -0.00168405  0.17117972  0.33591731  1
  Te2-  Te142  1  -0.01166855  0.17001246  0.66815073  1
  Te2-  Te143  1  -0.00244092  0.49736765  -0.00156067  1
  Te2-  Te144  1  0.00377659  0.50147370  0.33475305  1
  Te2-  Te145  1  0.01812342  0.50847322  0.66512165  1
  Te2-  Te146  1  -0.00063543  0.83247047  -0.00136291  1
  Te2-  Te147  1  -0.00157974  0.83038588  0.33698776  1
  Te2-  Te148  1  0.01012188  0.82005188  0.67183621  1
  Te2-  Te149  1  0.32897967  0.16072222  0.00903397  1
  Te2-  Te150  1  0.33728110  0.16387752  0.33148503  1
  Te2-  Te151  1  0.33100546  0.16260607  0.66556824  1
  Te2-  Te152  1  0.33147676  0.50332201  -0.00632658  1
  Te2-  Te153  1  0.32509746  0.49740374  0.33712952  1
  Te2-  Te154  1  0.32695759  0.50964575  0.66900887  1
  Te2-  Te155  1  0.32706711  0.83458140  0.00024494  1
  Te2-  Te156  1  0.32932452  0.83573906  0.33589448  1
  Te2-  Te157  1  0.32771080  0.83572908  0.66314915  1
  Te2-  Te158  1  0.66987901  0.17410820  0.00218143  1
  Te2-  Te159  1  0.66215599  0.16599607  0.34658839  1
  Te2-  Te160  1  0.67956351  0.16907160  0.65650977  1
  Te2-  Te161  1  0.66773125  0.50792468  -0.00594017  1
  Te2-  Te162  1  0.67021636  0.50407538  0.33926578  1
  Te2-  Te163  1  0.66239350  0.49770185  0.66738366  1
  Te2-  Te164  1  0.66409783  0.82041020  -0.00381266  1
  Te2-  Te165  1  0.66756862  0.82465892  0.33465300  1
  Te2-  Te166  1  0.66549012  0.82748798  0.67204585  1
  Te2-  Te167  1  -0.01245394  0.00685558  0.16680539  1
  Te2-  Te168  1  0.00434671  -0.00021673  0.51394330  1
  Te2-  Te169  1  -0.00512556  0.00450498  0.82031994  1
  Te2-  Te170  1  0.00190481  0.33603680  0.16167906  1
  Te2-  Te171  1  0.01121965  0.33788985  0.49610402  1
  Te2-  Te172  1  -0.00074281  0.33893038  0.83876811  1
  Te2-  Te173  1  -0.00208808  0.66200208  0.17126986  1
  Te2-  Te174  1  0.00145916  0.66249677  0.50140361  1
  Te2-  Te175  1  -0.00651623  0.65940123  0.83275082  1
  Te2-  Te176  1  0.33672564  -0.00521575  0.16618632  1
  Te2-  Te177  1  0.33680630  -0.00442739  0.49837064  1
  Te2-  Te178  1  0.33354823  0.01698772  0.83460085  1
  Te2-  Te179  1  0.33609299  0.33527682  0.16952879  1
  Te2-  Te180  1  0.31635376  0.32963867  0.49517554  1
  Te2-  Te181  1  0.33158904  0.31536155  0.83450795  1
  Te2-  Te182  1  0.33039276  0.67111526  0.16325346  1
  Te2-  Te183  1  0.33301678  0.67236390  0.50068396  1
  Te2-  Te184  1  0.33280304  0.67207807  0.83792306  1
  Te2-  Te185  1  0.67462760  0.00979997  0.16772107  1
  Te2-  Te186  1  0.65434814  -0.00937448  0.50046716  1
  Te2-  Te187  1  0.67090288  -0.00137810  0.83466280  1
  Te2-  Te188  1  0.66103970  0.33634535  0.16132544  1
  Te2-  Te189  1  0.66982973  0.33905867  0.50225543  1
  Te2-  Te190  1  0.66314903  0.33932979  0.84152161  1
  Te2-  Te191  1  0.66561947  0.66565584  0.16844147  1
  Te2-  Te192  1  0.67335718  0.66464352  0.50057841  1
  Te2-  Te193  1  0.67379027  0.66191206  0.82979234  1
  Pb2+  Pb194  1  -0.00547198  0.33706968  0.66678194  1
  Pb2+  Pb195  1  0.16733038  0.17001453  0.32244114  1
  Pb2+  Pb196  1  0.83129837  0.83285842  -0.00392263  1
  Pb2+  Pb197  1  0.66430804  0.33197977  0.33101590  1
  Pb2+  Pb198  1  0.16356560  0.67043223  0.82905353  1
  Pb2+  Pb199  1  0.66741721  0.50187977  0.16769327  1
  Pb2+  Pb200  1  0.66637466  -0.00364454  0.33190620  1
  Pb2+  Pb201  1  0.33385019  0.33566141  0.66850283  1
  Pb2+  Pb202  1  -0.00215233  0.00398802  0.33632315  1
  Pb2+  Pb203  1  0.33252540  0.32965590  -0.00096502  1
  Pb2+  Pb204  1  0.16324958  0.16331391  0.67669224  1
  Pb2+  Pb205  1  0.49915803  0.49108301  0.00571403  1
  Pb2+  Pb206  1  -0.00618512  0.83657884  0.16781657  1
  Pb2+  Pb207  1  0.50117675  0.16556229  0.66208285  1
  Pb2+  Pb208  1  0.50409948  0.66601185  0.82668037  1
  Pb2+  Pb209  1  0.82816580  -0.00085151  0.50082128  1
  Pb2+  Pb210  1  -0.00818607  0.83239812  0.50735249  1
  Pb2+  Pb211  1  0.33350269  0.66488590  0.33249226  1
  Pb2+  Pb212  1  0.49216444  0.83855062  0.00158904  1
  Pb2+  Pb213  1  -0.00376987  0.00565579  -0.00652127  1
  Pb2+  Pb214  1  0.66456525  0.00174028  0.66676765  1
  Pb2+  Pb215  1  0.66303659  -0.00359571  0.00336553  1
