# generated using pymatgen
data_In22Ag21Sn22Bi21(Te54Pb11)2
_symmetry_space_group_name_H-M   'P 1'
_cell_length_a   19.09923097
_cell_length_b   19.12156170
_cell_length_c   19.12950750
_cell_angle_alpha   90.00113550
_cell_angle_beta   90.02022184
_cell_angle_gamma   89.98826176
_symmetry_Int_Tables_number   1
_chemical_formula_structural   In22Ag21Sn22Bi21(Te54Pb11)2
_chemical_formula_sum   'In22 Ag21 Sn22 Bi21 Te108 Pb22'
_cell_volume   6986.23182231
_cell_formula_units_Z   1
loop_
 _symmetry_equiv_pos_site_id
 _symmetry_equiv_pos_as_xyz
  1  'x, y, z'
loop_
 _atom_type_symbol
 _atom_type_oxidation_number
  In3+  3.0
  Ag+  1.0
  Sn2+  2.0
  Bi3+  3.0
  Te2-  -2.0
  Pb2+  2.0
loop_
 _atom_site_type_symbol
 _atom_site_label
 _atom_site_symmetry_multiplicity
 _atom_site_fract_x
 _atom_site_fract_y
 _atom_site_fract_z
 _atom_site_occupancy
  In3+  In0  1  0.19352922  0.33185539  0.85960883  1
  In3+  In1  1  0.16389267  0.64108072  0.17294944  1
  In3+  In2  1  -0.00116104  0.15062976  0.16780089  1
  In3+  In3  1  0.51333992  0.16350558  0.00335031  1
  In3+  In4  1  0.18061951  0.49220787  0.33574559  1
  In3+  In5  1  0.66746828  0.83722863  0.50846074  1
  In3+  In6  1  0.16899165  0.67509231  0.49825155  1
  In3+  In7  1  0.18638608  0.17041693  0.33033675  1
  In3+  In8  1  0.65338879  0.50042937  0.83922095  1
  In3+  In9  1  0.65093979  0.15920600  0.83791572  1
  In3+  In10  1  0.18389615  0.16588564  -0.00144286  1
  In3+  In11  1  0.33594551  0.18392608  0.50329444  1
  In3+  In12  1  0.51151360  0.83486371  0.32779316  1
  In3+  In13  1  0.16261646  0.85200754  0.33062131  1
  In3+  In14  1  0.16861600  0.33744575  0.51034925  1
  In3+  In15  1  0.81342936  0.83577143  -0.00864525  1
  In3+  In16  1  0.82271444  0.66817177  0.17744934  1
  In3+  In17  1  -0.02198358  0.00077703  0.69811372  1
  In3+  In18  1  0.50920393  0.00166184  0.48600432  1
  In3+  In19  1  -0.01935856  0.83700636  0.49578772  1
  In3+  In20  1  0.51232506  0.67043720  0.15993074  1
  In3+  In21  1  0.50253383  0.47957808  0.33356748  1
  Ag+  Ag22  1  0.81148091  0.66669855  0.47768997  1
  Ag+  Ag23  1  0.33135789  0.49672917  0.81354673  1
  Ag+  Ag24  1  0.02118712  0.02481178  0.00095907  1
  Ag+  Ag25  1  0.82968808  0.02739059  0.86461769  1
  Ag+  Ag26  1  0.33483695  0.85667216  0.81321499  1
  Ag+  Ag27  1  0.14955471  0.32494259  0.16766657  1
  Ag+  Ag28  1  0.49168662  0.17545179  0.30867340  1
  Ag+  Ag29  1  0.66705378  -0.01812873  0.32387313  1
  Ag+  Ag30  1  0.33212261  0.51467913  0.51552748  1
  Ag+  Ag31  1  0.66179104  0.64587834  0.66070069  1
  Ag+  Ag32  1  0.50435697  0.02022971  0.15404159  1
  Ag+  Ag33  1  0.66042450  -0.02342561  -0.01563253  1
  Ag+  Ag34  1  0.52326558  0.49364511  0.02716170  1
  Ag+  Ag35  1  0.66687250  0.50698104  0.14326160  1
  Ag+  Ag36  1  0.67707627  -0.00179215  0.68606979  1
  Ag+  Ag37  1  0.30987630  0.32918036  0.66617683  1
  Ag+  Ag38  1  0.80869447  0.85285476  0.30530084  1
  Ag+  Ag39  1  0.51486931  0.86356933  -0.02242038  1
  Ag+  Ag40  1  0.33002825  0.15210064  0.85599227  1
  Ag+  Ag41  1  0.67297959  0.35414791  0.69377044  1
  Ag+  Ag42  1  0.66628666  0.34726854  -0.00836980  1
  Sn2+  Sn43  1  0.33994429  0.83224496  0.50688262  1
  Sn2+  Sn44  1  0.82839188  0.50212146  0.33669436  1
  Sn2+  Sn45  1  0.83458660  0.50423707  0.66632036  1
  Sn2+  Sn46  1  0.34362450  0.34070605  -0.00671288  1
  Sn2+  Sn47  1  0.34995010  -0.00309358  0.33111336  1
  Sn2+  Sn48  1  0.83139759  0.33716026  0.16422531  1
  Sn2+  Sn49  1  -0.00924648  0.33510203  0.67109107  1
  Sn2+  Sn50  1  0.17676588  0.49854056  0.66479896  1
  Sn2+  Sn51  1  0.00740295  0.83688823  0.83907576  1
  Sn2+  Sn52  1  -0.01189339  0.32558209  0.00264025  1
  Sn2+  Sn53  1  0.82275615  0.16010705  0.00080338  1
  Sn2+  Sn54  1  0.67213989  0.17059272  0.16689668  1
  Sn2+  Sn55  1  0.83005009  0.50303348  0.00322716  1
  Sn2+  Sn56  1  -0.00925248  0.49630902  0.16697751  1
  Sn2+  Sn57  1  0.66425391  0.84682277  0.16949352  1
  Sn2+  Sn58  1  0.17254776  -0.00258498  0.49804891  1
  Sn2+  Sn59  1  0.66277729  0.66467898  -0.00763776  1
  Sn2+  Sn60  1  0.50428501  0.83627222  0.67021043  1
  Sn2+  Sn61  1  0.81794508  0.15537352  0.33059088  1
  Sn2+  Sn62  1  0.33543895  0.67206881  0.33668701  1
  Sn2+  Sn63  1  0.81599768  0.00051058  0.16054033  1
  Sn2+  Sn64  1  -0.01586793  0.67081583  0.66017439  1
  Bi3+  Bi65  1  0.33753615  0.66463092  0.00440408  1
  Bi3+  Bi66  1  0.00276505  0.66494095  0.33260761  1
  Bi3+  Bi67  1  0.83333687  0.83093286  0.66900864  1
  Bi3+  Bi68  1  0.50095740  0.49853377  0.66182438  1
  Bi3+  Bi69  1  0.33787847  0.49839775  0.16532173  1
  Bi3+  Bi70  1  0.49937068  0.66506041  0.83639884  1
  Bi3+  Bi71  1  -0.00057431  0.33307776  0.33037458  1
  Bi3+  Bi72  1  0.50420992  0.33661119  0.16172026  1
  Bi3+  Bi73  1  0.16697705  0.83108473  0.66540666  1
  Bi3+  Bi74  1  0.33746679  0.00606971  0.66115760  1
  Bi3+  Bi75  1  0.16576462  0.49399911  0.00311915  1
  Bi3+  Bi76  1  -0.00170987  0.66550347  -0.00053088  1
  Bi3+  Bi77  1  0.66458032  0.50229750  0.49827703  1
  Bi3+  Bi78  1  -0.00197970  0.83119775  0.16415908  1
  Bi3+  Bi79  1  0.50228900  0.16673830  0.66729788  1
  Bi3+  Bi80  1  0.83181655  0.33384840  0.83648159  1
  Bi3+  Bi81  1  0.50199182  0.33338796  0.83291655  1
  Bi3+  Bi82  1  0.66639714  0.16315547  0.50067730  1
  Bi3+  Bi83  1  0.33485962  0.83043496  0.17065389  1
  Bi3+  Bi84  1  0.83302411  0.66494270  0.83672708  1
  Bi3+  Bi85  1  0.66997938  0.32983085  0.33059256  1
  Te2-  Te86  1  0.16081520  0.17220089  0.16902375  1
  Te2-  Te87  1  0.17428419  0.17088737  0.49019666  1
  Te2-  Te88  1  0.17932015  0.17607112  0.83955063  1
  Te2-  Te89  1  0.16939332  0.48429901  0.16849921  1
  Te2-  Te90  1  0.18022542  0.49357745  0.49482515  1
  Te2-  Te91  1  0.17355376  0.48687625  0.83663021  1
  Te2-  Te92  1  0.16498799  0.83764997  0.17334765  1
  Te2-  Te93  1  0.17083315  0.83076297  0.50083228  1
  Te2-  Te94  1  0.18048302  0.83181053  0.83007235  1
  Te2-  Te95  1  0.50358792  0.16983800  0.16096540  1
  Te2-  Te96  1  0.50005795  0.15968117  0.50253808  1
  Te2-  Te97  1  0.48990659  0.17062498  0.83533320  1
  Te2-  Te98  1  0.50360559  0.50302023  0.17455304  1
  Te2-  Te99  1  0.49399963  0.50012571  0.49646601  1
  Te2-  Te100  1  0.49884114  0.49946783  0.82481013  1
  Te2-  Te101  1  0.49693103  0.82315742  0.17322440  1
  Te2-  Te102  1  0.50279198  0.83926320  0.49802505  1
  Te2-  Te103  1  0.48808177  0.82813517  0.83700942  1
  Te2-  Te104  1  0.83756524  0.16697766  0.16643259  1
  Te2-  Te105  1  0.83223622  0.16690660  0.49913046  1
  Te2-  Te106  1  0.83261089  0.17154461  0.83635807  1
  Te2-  Te107  1  0.82154741  0.50806474  0.16733800  1
  Te2-  Te108  1  0.83153781  0.51447768  0.49982327  1
  Te2-  Te109  1  0.82768638  0.49991878  0.83355446  1
  Te2-  Te110  1  0.83463446  0.82612182  0.16414123  1
  Te2-  Te111  1  0.82759859  0.81867887  0.50591886  1
  Te2-  Te112  1  0.83313577  0.82859689  0.83563624  1
  Te2-  Te113  1  0.16912671  0.00875749  -0.00253689  1
  Te2-  Te114  1  0.16712433  0.01017159  0.33348031  1
  Te2-  Te115  1  0.17279103  -0.00341818  0.66264695  1
  Te2-  Te116  1  0.16581385  0.32848827  0.00945662  1
  Te2-  Te117  1  0.16208430  0.32771927  0.32162009  1
  Te2-  Te118  1  0.15979625  0.33512190  0.66259552  1
  Te2-  Te119  1  0.16446025  0.65997570  0.00270180  1
  Te2-  Te120  1  0.16397603  0.65159773  0.33688556  1
  Te2-  Te121  1  0.16276966  0.66728648  0.66005937  1
  Te2-  Te122  1  0.51180926  0.00796771  0.00521815  1
  Te2-  Te123  1  0.50861591  -0.00973759  0.33320304  1
  Te2-  Te124  1  0.49644094  0.00029206  0.66448545  1
  Te2-  Te125  1  0.50951227  0.34264717  -0.00176425  1
  Te2-  Te126  1  0.50263995  0.32232139  0.33163106  1
  Te2-  Te127  1  0.52136693  0.33276774  0.67081700  1
  Te2-  Te128  1  0.49992253  0.64834847  0.00255718  1
  Te2-  Te129  1  0.49916704  0.67988033  0.32803316  1
  Te2-  Te130  1  0.50784192  0.66534135  0.67120094  1
  Te2-  Te131  1  0.81382678  -0.01116741  0.00504425  1
  Te2-  Te132  1  0.82376461  -0.00407935  0.32932393  1
  Te2-  Te133  1  0.82799657  -0.00696198  0.66731142  1
  Te2-  Te134  1  0.82315470  0.33594398  -0.00027109  1
  Te2-  Te135  1  0.83584448  0.33335994  0.33130676  1
  Te2-  Te136  1  0.82552751  0.33596492  0.67056406  1
  Te2-  Te137  1  0.83454189  0.67055442  -0.00120248  1
  Te2-  Te138  1  0.84002559  0.67076410  0.33197069  1
  Te2-  Te139  1  0.82545223  0.66956485  0.67444889  1
  Te2-  Te140  1  -0.00571392  0.16911408  0.01066864  1
  Te2-  Te141  1  -0.00988959  0.16891300  0.32405347  1
  Te2-  Te142  1  0.00187706  0.15666612  0.66733794  1
  Te2-  Te143  1  0.00171996  0.50051693  0.00236391  1
  Te2-  Te144  1  -0.00211878  0.49977706  0.33104636  1
  Te2-  Te145  1  0.00033235  0.50102330  0.66360808  1
  Te2-  Te146  1  0.00426724  0.82656628  0.00192773  1
  Te2-  Te147  1  0.00755241  0.82885290  0.33219115  1
  Te2-  Te148  1  0.00213328  0.84118779  0.66882172  1
  Te2-  Te149  1  0.33573208  0.17211818  0.00110274  1
  Te2-  Te150  1  0.34465754  0.16380537  0.34070384  1
  Te2-  Te151  1  0.33816480  0.17548462  0.65874453  1
  Te2-  Te152  1  0.32699612  0.50009408  0.00408561  1
  Te2-  Te153  1  0.33615384  0.50268587  0.32761772  1
  Te2-  Te154  1  0.33558586  0.48943959  0.66280799  1
  Te2-  Te155  1  0.33905540  0.82695941  0.00923041  1
  Te2-  Te156  1  0.31811635  0.83340247  0.33410842  1
  Te2-  Te157  1  0.33310679  0.83348344  0.66680946  1
  Te2-  Te158  1  0.66479549  0.17138584  -0.00227085  1
  Te2-  Te159  1  0.65908148  0.16897891  0.33744970  1
  Te2-  Te160  1  0.66225017  0.15077729  0.66503493  1
  Te2-  Te161  1  0.66760403  0.49683784  -0.00408669  1
  Te2-  Te162  1  0.66423722  0.49765283  0.33821553  1
  Te2-  Te163  1  0.66565945  0.49762577  0.66046417  1
  Te2-  Te164  1  0.65685381  0.82772316  0.00488042  1
  Te2-  Te165  1  0.66689112  0.83307538  0.33650886  1
  Te2-  Te166  1  0.66541252  0.84846557  0.66191353  1
  Te2-  Te167  1  -0.00317508  -0.00417112  0.15172107  1
  Te2-  Te168  1  0.00174170  -0.00965643  0.49194758  1
  Te2-  Te169  1  -0.01536895  -0.00192006  0.85234295  1
  Te2-  Te170  1  0.00074120  0.33802130  0.16803554  1
  Te2-  Te171  1  0.00762943  0.33224662  0.49655948  1
  Te2-  Te172  1  -0.00437974  0.33239726  0.83089233  1
  Te2-  Te173  1  0.00089356  0.66704314  0.16601882  1
  Te2-  Te174  1  0.00914841  0.67546932  0.49818366  1
  Te2-  Te175  1  -0.00104166  0.66888914  0.83325122  1
  Te2-  Te176  1  0.34904855  -0.00420976  0.16838574  1
  Te2-  Te177  1  0.33698574  -0.00499827  0.49981400  1
  Te2-  Te178  1  0.33279434  0.00455947  0.82786064  1
  Te2-  Te179  1  0.34265254  0.33574832  0.16604397  1
  Te2-  Te180  1  0.32701448  0.33576825  0.50715608  1
  Te2-  Te181  1  0.33774382  0.34422422  0.82126669  1
  Te2-  Te182  1  0.32543079  0.66389821  0.16789273  1
  Te2-  Te183  1  0.32826757  0.66131284  0.50056774  1
  Te2-  Te184  1  0.33634438  0.65115875  0.83836029  1
  Te2-  Te185  1  0.65662731  0.00297255  0.17486744  1
  Te2-  Te186  1  0.66299949  -0.00273860  0.48828014  1
  Te2-  Te187  1  0.67539931  0.00588475  0.83744436  1
  Te2-  Te188  1  0.66498132  0.34183556  0.16948825  1
  Te2-  Te189  1  0.66968595  0.33431739  0.49405415  1
  Te2-  Te190  1  0.66778567  0.33015631  0.83959025  1
  Te2-  Te191  1  0.66691108  0.65785492  0.16501417  1
  Te2-  Te192  1  0.66631517  0.66738030  0.50881050  1
  Te2-  Te193  1  0.66639615  0.66346817  0.82699687  1
  Pb2+  Pb194  1  0.17067923  0.66068556  0.83170848  1
  Pb2+  Pb195  1  0.83062760  -0.00517807  0.49920119  1
  Pb2+  Pb196  1  0.66211538  0.83369894  0.83058388  1
  Pb2+  Pb197  1  0.50202721  0.33116394  0.50580574  1
  Pb2+  Pb198  1  0.33234828  0.16736799  0.17029878  1
  Pb2+  Pb199  1  0.50051454  0.66912975  0.49824386  1
  Pb2+  Pb200  1  -0.00047535  0.49938219  0.83220048  1
  Pb2+  Pb201  1  -0.00869679  -0.00075431  0.32308948  1
  Pb2+  Pb202  1  0.00369986  0.16715058  0.83949587  1
  Pb2+  Pb203  1  0.82851546  0.16588981  0.66962981  1
  Pb2+  Pb204  1  0.17242264  0.83110915  0.00325874  1
  Pb2+  Pb205  1  0.33709088  0.65938707  0.67032051  1
  Pb2+  Pb206  1  0.34220276  -0.00505451  -0.00197327  1
  Pb2+  Pb207  1  0.16161614  -0.00125361  0.82951289  1
  Pb2+  Pb208  1  0.50461157  -0.00009929  0.83157227  1
  Pb2+  Pb209  1  0.66750593  0.66714142  0.33551927  1
  Pb2+  Pb210  1  0.17226546  0.00519747  0.16664846  1
  Pb2+  Pb211  1  0.17070892  0.16717747  0.66437052  1
  Pb2+  Pb212  1  0.33029222  0.33579445  0.33695004  1
  Pb2+  Pb213  1  0.00449157  0.16033751  0.49512333  1
  Pb2+  Pb214  1  0.83547550  0.34229479  0.50053511  1
  Pb2+  Pb215  1  0.00895877  0.50446118  0.49767194  1
