# generated using pymatgen
data_In22Ag21Sn22Bi21(Te54Pb11)2
_symmetry_space_group_name_H-M   'P 1'
_cell_length_a   19.15490405
_cell_length_b   19.16553113
_cell_length_c   19.13410743
_cell_angle_alpha   90.00965738
_cell_angle_beta   90.01100152
_cell_angle_gamma   89.99660862
_symmetry_Int_Tables_number   1
_chemical_formula_structural   In22Ag21Sn22Bi21(Te54Pb11)2
_chemical_formula_sum   'In22 Ag21 Sn22 Bi21 Te108 Pb22'
_cell_volume   7024.39674848
_cell_formula_units_Z   1
loop_
 _symmetry_equiv_pos_site_id
 _symmetry_equiv_pos_as_xyz
  1  'x, y, z'
loop_
 _atom_type_symbol
 _atom_type_oxidation_number
  In3+  3.0
  Ag+  1.0
  Sn2+  2.0
  Bi3+  3.0
  Te2-  -2.0
  Pb2+  2.0
loop_
 _atom_site_type_symbol
 _atom_site_label
 _atom_site_symmetry_multiplicity
 _atom_site_fract_x
 _atom_site_fract_y
 _atom_site_fract_z
 _atom_site_occupancy
  In3+  In0  1  0.32554165  0.01953876  0.33763190  1
  In3+  In1  1  0.84192167  0.01121557  0.15599259  1
  In3+  In2  1  0.66885133  0.48719357  0.18476670  1
  In3+  In3  1  0.16984297  0.49379864  0.02498921  1
  In3+  In4  1  0.33333640  0.33516593  0.68425894  1
  In3+  In5  1  0.83143147  0.64707513  0.49550137  1
  In3+  In6  1  -0.01133008  0.16744464  0.50089251  1
  In3+  In7  1  0.50605030  0.66514388  0.16805209  1
  In3+  In8  1  0.64677473  0.00903317  0.33929213  1
  In3+  In9  1  0.17816528  0.65492125  0.83904384  1
  In3+  In10  1  0.33828097  0.84613307  0.83646196  1
  In3+  In11  1  0.49651399  0.47943638  -0.00065892  1
  In3+  In12  1  0.32517204  0.49260877  0.82938437  1
  In3+  In13  1  -0.00342974  0.00491225  0.32145764  1
  In3+  In14  1  -0.00075397  0.64488228  0.33665750  1
  In3+  In15  1  0.33544646  0.66208455  -0.00061300  1
  In3+  In16  1  0.32973457  0.83390450  0.47867554  1
  In3+  In17  1  0.16197284  0.85473508  -0.00151334  1
  In3+  In18  1  0.83401390  -0.00537313  0.48940211  1
  In3+  In19  1  -0.00463464  0.01119351  0.66874715  1
  In3+  In20  1  0.17036320  0.17239380  0.33381377  1
  In3+  In21  1  0.35214499  0.18611781  0.16909394  1
  Ag+  Ag22  1  0.00073357  0.18986239  0.14003493  1
  Ag+  Ag23  1  0.51300494  0.31928376  0.82567056  1
  Ag+  Ag24  1  0.86269677  0.31189050  0.84979913  1
  Ag+  Ag25  1  0.14277631  -0.00087820  0.47771613  1
  Ag+  Ag26  1  0.82840530  0.19290810  0.02479814  1
  Ag+  Ag27  1  -0.02845267  0.00312009  -0.02563607  1
  Ag+  Ag28  1  0.69614032  0.86743437  0.47299712  1
  Ag+  Ag29  1  0.85996579  0.49353742  0.68935595  1
  Ag+  Ag30  1  0.68519016  0.35609142  0.66713487  1
  Ag+  Ag31  1  0.47574879  0.02211647  0.17085726  1
  Ag+  Ag32  1  0.33439563  0.31042393  -0.00338780  1
  Ag+  Ag33  1  -0.02614013  0.31048092  0.66475678  1
  Ag+  Ag34  1  0.86142732  0.86028743  -0.00456671  1
  Ag+  Ag35  1  0.68915434  0.16100192  0.47699820  1
  Ag+  Ag36  1  0.51393920  0.18514959  0.34028355  1
  Ag+  Ag37  1  0.31719649  0.34699947  0.35607414  1
  Ag+  Ag38  1  0.49652309  0.47104849  0.69951131  1
  Ag+  Ag39  1  0.85196580  0.47037738  0.32921124  1
  Ag+  Ag40  1  0.49893494  0.47837713  0.33692666  1
  Ag+  Ag41  1  0.47558275  0.02647066  0.80540975  1
  Ag+  Ag42  1  0.20195806  0.53224874  0.34086023  1
  Sn2+  Sn43  1  0.83186977  0.49498091  0.00565006  1
  Sn2+  Sn44  1  0.16547110  0.00534101  0.16657914  1
  Sn2+  Sn45  1  0.34179444  -0.00047887  0.01177515  1
  Sn2+  Sn46  1  0.00016933  0.84365784  0.49645555  1
  Sn2+  Sn47  1  0.00114668  0.83457882  0.82920060  1
  Sn2+  Sn48  1  0.67175165  0.00369527  0.67153076  1
  Sn2+  Sn49  1  0.50073653  0.33535583  0.50530844  1
  Sn2+  Sn50  1  -0.00376839  0.49827636  0.83041798  1
  Sn2+  Sn51  1  0.83465605  0.83866364  0.31854915  1
  Sn2+  Sn52  1  0.16792788  0.00128551  0.83257098  1
  Sn2+  Sn53  1  0.15433936  0.16610137  0.00727467  1
  Sn2+  Sn54  1  0.66090829  0.33069510  -0.01792123  1
  Sn2+  Sn55  1  0.66911016  0.83586403  0.16552968  1
  Sn2+  Sn56  1  0.82945240  0.16758821  0.32745790  1
  Sn2+  Sn57  1  0.65171897  0.33331450  0.34620509  1
  Sn2+  Sn58  1  0.17288632  0.49851080  0.65327060  1
  Sn2+  Sn59  1  -0.00732804  0.16856267  0.83985141  1
  Sn2+  Sn60  1  0.67354502  0.16415355  0.16716364  1
  Sn2+  Sn61  1  -0.00227359  0.49649013  0.50172381  1
  Sn2+  Sn62  1  0.33302421  0.64983983  0.33279048  1
  Sn2+  Sn63  1  0.16418406  0.83673208  0.33507383  1
  Sn2+  Sn64  1  0.50224281  0.66645146  0.83022531  1
  Bi3+  Bi65  1  0.66137933  0.49767641  0.50128671  1
  Bi3+  Bi66  1  0.16744041  0.33291687  0.83336945  1
  Bi3+  Bi67  1  0.50190272  0.83049495  0.67018067  1
  Bi3+  Bi68  1  0.49995406  0.83543730  0.00341309  1
  Bi3+  Bi69  1  0.66502227  0.16755657  0.83403022  1
  Bi3+  Bi70  1  0.83056505  0.66903620  0.16784143  1
  Bi3+  Bi71  1  0.49953201  0.66657018  0.49597730  1
  Bi3+  Bi72  1  0.66638836  0.00009851  0.00797131  1
  Bi3+  Bi73  1  0.33329163  0.16623294  0.49765382  1
  Bi3+  Bi74  1  0.50179705  0.83206437  0.33601289  1
  Bi3+  Bi75  1  0.66197761  0.49533586  0.83146941  1
  Bi3+  Bi76  1  0.33300323  0.50200440  0.16175083  1
  Bi3+  Bi77  1  -0.00268467  0.49942818  0.16528981  1
  Bi3+  Bi78  1  0.82925671  0.33466034  0.50297996  1
  Bi3+  Bi79  1  0.66614449  0.83572581  0.83337649  1
  Bi3+  Bi80  1  0.00158795  0.83226452  0.16782999  1
  Bi3+  Bi81  1  0.66725138  0.66033383  0.66535245  1
  Bi3+  Bi82  1  0.49845585  0.16655731  0.65831806  1
  Bi3+  Bi83  1  0.83739606  0.66250347  0.83291680  1
  Bi3+  Bi84  1  -0.00290197  0.66284774  0.66444130  1
  Bi3+  Bi85  1  0.33308799  0.83294014  0.16313108  1
  Te2-  Te86  1  0.14522473  0.16110842  0.17532414  1
  Te2-  Te87  1  0.17334359  0.15072438  0.49060187  1
  Te2-  Te88  1  0.16310801  0.17021702  0.83646048  1
  Te2-  Te89  1  0.16613203  0.49890626  0.18452342  1
  Te2-  Te90  1  0.16767491  0.50175900  0.48677455  1
  Te2-  Te91  1  0.16991833  0.49949502  0.82670494  1
  Te2-  Te92  1  0.16728530  0.83182967  0.15810454  1
  Te2-  Te93  1  0.17225230  0.84573886  0.50098885  1
  Te2-  Te94  1  0.17004765  0.83038090  0.84475028  1
  Te2-  Te95  1  0.50298269  0.16645447  0.17823477  1
  Te2-  Te96  1  0.49411869  0.16768863  0.49271471  1
  Te2-  Te97  1  0.50066644  0.16767782  0.83260296  1
  Te2-  Te98  1  0.50038222  0.50957951  0.15946301  1
  Te2-  Te99  1  0.50082163  0.50497503  0.48708458  1
  Te2-  Te100  1  0.49686428  0.50707274  0.84394403  1
  Te2-  Te101  1  0.49939448  0.82542770  0.16798668  1
  Te2-  Te102  1  0.49065347  0.82992632  0.50229493  1
  Te2-  Te103  1  0.49997403  0.83481164  0.83658745  1
  Te2-  Te104  1  0.84978806  0.16465046  0.16819652  1
  Te2-  Te105  1  0.83304443  0.16655084  0.49937902  1
  Te2-  Te106  1  0.83068750  0.17064277  0.82973511  1
  Te2-  Te107  1  0.83126412  0.50614078  0.17953427  1
  Te2-  Te108  1  0.82723062  0.49705546  0.47906956  1
  Te2-  Te109  1  0.82696420  0.50205134  0.83575230  1
  Te2-  Te110  1  0.83803285  0.82823332  0.15019930  1
  Te2-  Te111  1  0.83603948  0.84292622  0.49953669  1
  Te2-  Te112  1  0.83129975  0.82757111  0.84479227  1
  Te2-  Te113  1  0.17283918  0.00654646  -0.00033260  1
  Te2-  Te114  1  0.16986486  -0.00488962  0.33414475  1
  Te2-  Te115  1  0.15965312  0.00042109  0.67374315  1
  Te2-  Te116  1  0.17451773  0.33454907  -0.00539420  1
  Te2-  Te117  1  0.17299431  0.32412192  0.33424973  1
  Te2-  Te118  1  0.17604746  0.33916518  0.66888626  1
  Te2-  Te119  1  0.16929822  0.65539713  -0.00748174  1
  Te2-  Te120  1  0.15884227  0.67357913  0.33578929  1
  Te2-  Te121  1  0.16308702  0.66377203  0.67376009  1
  Te2-  Te122  1  0.50496452  -0.00261544  0.01991001  1
  Te2-  Te123  1  0.49670594  -0.00769202  0.32000118  1
  Te2-  Te124  1  0.50153692  -0.00442665  0.66388192  1
  Te2-  Te125  1  0.49022749  0.32975299  -0.01001370  1
  Te2-  Te126  1  0.49765055  0.33117673  0.33551039  1
  Te2-  Te127  1  0.48732556  0.32610887  0.67734370  1
  Te2-  Te128  1  0.49382686  0.67437637  0.00041186  1
  Te2-  Te129  1  0.49989900  0.67073240  0.33125651  1
  Te2-  Te130  1  0.50323809  0.66879654  0.66169200  1
  Te2-  Te131  1  0.82847168  0.00343292  0.00476577  1
  Te2-  Te132  1  0.84113623  0.00243863  0.33729824  1
  Te2-  Te133  1  0.83989211  -0.00117732  0.66371397  1
  Te2-  Te134  1  0.83482357  0.33567294  -0.00709857  1
  Te2-  Te135  1  0.82575834  0.32481913  0.33773243  1
  Te2-  Te136  1  0.83202264  0.34888676  0.66132896  1
  Te2-  Te137  1  0.83361746  0.65725549  0.00034925  1
  Te2-  Te138  1  0.83910547  0.67811879  0.33410594  1
  Te2-  Te139  1  0.83224793  0.64867311  0.66485299  1
  Te2-  Te140  1  -0.00541099  0.15556337  -0.00445753  1
  Te2-  Te141  1  0.00213808  0.15745216  0.34666439  1
  Te2-  Te142  1  -0.00077718  0.16581633  0.66568363  1
  Te2-  Te143  1  0.00608319  0.49967763  0.00359280  1
  Te2-  Te144  1  -0.00239721  0.49397451  0.33122220  1
  Te2-  Te145  1  0.00550235  0.50417066  0.65887630  1
  Te2-  Te146  1  0.00733880  0.84517928  0.00170422  1
  Te2-  Te147  1  0.00011576  0.84509517  0.32996853  1
  Te2-  Te148  1  -0.00266797  0.82443066  0.66699035  1
  Te2-  Te149  1  0.33126219  0.16170033  0.01636907  1
  Te2-  Te150  1  0.32995333  0.17167139  0.32380874  1
  Te2-  Te151  1  0.33514068  0.16584008  0.66618364  1
  Te2-  Te152  1  0.33339438  0.50795325  0.00067748  1
  Te2-  Te153  1  0.34239441  0.49088298  0.32507867  1
  Te2-  Te154  1  0.34546468  0.49403966  0.67293628  1
  Te2-  Te155  1  0.33231533  0.82996070  0.00035035  1
  Te2-  Te156  1  0.33554288  0.82306916  0.32544815  1
  Te2-  Te157  1  0.33689934  0.83194247  0.68062633  1
  Te2-  Te158  1  0.67974862  0.16756805  0.00060278  1
  Te2-  Te159  1  0.65945641  0.16339195  0.33371693  1
  Te2-  Te160  1  0.65769938  0.16066293  0.67173622  1
  Te2-  Te161  1  0.65921823  0.49320978  -0.00561169  1
  Te2-  Te162  1  0.65111004  0.49800414  0.33440674  1
  Te2-  Te163  1  0.64613571  0.49897600  0.66634661  1
  Te2-  Te164  1  0.66253765  0.83412112  -0.00096798  1
  Te2-  Te165  1  0.66567943  0.84167470  0.33259023  1
  Te2-  Te166  1  0.66477008  0.83132981  0.67064164  1
  Te2-  Te167  1  -0.00508117  -0.00776287  0.17007620  1
  Te2-  Te168  1  -0.00050234  0.00390940  0.51205676  1
  Te2-  Te169  1  0.00047360  -0.00446237  0.82916376  1
  Te2-  Te170  1  -0.00009514  0.33759918  0.16473166  1
  Te2-  Te171  1  -0.00352893  0.32614366  0.51015189  1
  Te2-  Te172  1  0.00342706  0.33822578  0.81762161  1
  Te2-  Te173  1  -0.00381954  0.66520915  0.17100121  1
  Te2-  Te174  1  -0.00848763  0.66759739  0.49754789  1
  Te2-  Te175  1  -0.00042258  0.66544029  0.83050613  1
  Te2-  Te176  1  0.32985904  -0.00638006  0.17795384  1
  Te2-  Te177  1  0.33383574  -0.00242106  0.49163049  1
  Te2-  Te178  1  0.33577332  -0.00053942  0.83966382  1
  Te2-  Te179  1  0.33574992  0.33762125  0.14935455  1
  Te2-  Te180  1  0.33492010  0.32787280  0.50095055  1
  Te2-  Te181  1  0.33156306  0.33835414  0.84388394  1
  Te2-  Te182  1  0.33459732  0.66655169  0.16519539  1
  Te2-  Te183  1  0.33307527  0.67075652  0.49867648  1
  Te2-  Te184  1  0.33179930  0.66160549  0.83881924  1
  Te2-  Te185  1  0.68421045  0.00308730  0.17191181  1
  Te2-  Te186  1  0.67351032  0.01025544  0.49670572  1
  Te2-  Te187  1  0.66176581  -0.00107991  0.84047828  1
  Te2-  Te188  1  0.66713157  0.33573097  0.16247729  1
  Te2-  Te189  1  0.66510046  0.33482147  0.51173133  1
  Te2-  Te190  1  0.66076123  0.33368850  0.82282596  1
  Te2-  Te191  1  0.66749521  0.66335188  0.16743991  1
  Te2-  Te192  1  0.67021643  0.66700984  0.50342611  1
  Te2-  Te193  1  0.67045232  0.66711250  0.82991566  1
  Pb2+  Pb194  1  0.50227636  0.00173030  0.49124196  1
  Pb2+  Pb195  1  0.50707524  0.16481893  0.00472532  1
  Pb2+  Pb196  1  0.83101164  0.82483926  0.67146674  1
  Pb2+  Pb197  1  0.16073211  0.67249924  0.50251320  1
  Pb2+  Pb198  1  0.33485491  0.49690636  0.49901521  1
  Pb2+  Pb199  1  0.16608527  0.16847045  0.66227973  1
  Pb2+  Pb200  1  0.82517843  0.17824414  0.66505314  1
  Pb2+  Pb201  1  0.17003717  0.32565935  0.16607782  1
  Pb2+  Pb202  1  0.16662919  0.66400504  0.16326154  1
  Pb2+  Pb203  1  0.83248939  0.33585301  0.16380772  1
  Pb2+  Pb204  1  0.32971434  -0.00287751  0.66212034  1
  Pb2+  Pb205  1  0.66310246  0.66090697  -0.00041266  1
  Pb2+  Pb206  1  0.16490492  0.83476335  0.67220567  1
  Pb2+  Pb207  1  0.66997288  0.66779089  0.33604202  1
  Pb2+  Pb208  1  0.00435540  0.32935577  -0.01056234  1
  Pb2+  Pb209  1  0.00090262  0.67414624  -0.00156803  1
  Pb2+  Pb210  1  0.00003730  0.32385939  0.33901398  1
  Pb2+  Pb211  1  0.33479033  0.66326843  0.66939073  1
  Pb2+  Pb212  1  0.50158668  0.33833433  0.16751032  1
  Pb2+  Pb213  1  0.16695912  0.32741804  0.49956060  1
  Pb2+  Pb214  1  0.33129930  0.16956695  0.84165328  1
  Pb2+  Pb215  1  0.82881726  0.00305824  0.83136090  1
