# generated using pymatgen
data_In22Ag21Sn22Bi21(Te54Pb11)2
_symmetry_space_group_name_H-M   'P 1'
_cell_length_a   19.15747692
_cell_length_b   19.15056014
_cell_length_c   19.15626279
_cell_angle_alpha   89.96424470
_cell_angle_beta   90.00879501
_cell_angle_gamma   89.99696801
_symmetry_Int_Tables_number   1
_chemical_formula_structural   In22Ag21Sn22Bi21(Te54Pb11)2
_chemical_formula_sum   'In22 Ag21 Sn22 Bi21 Te108 Pb22'
_cell_volume   7027.97953512
_cell_formula_units_Z   1
loop_
 _symmetry_equiv_pos_site_id
 _symmetry_equiv_pos_as_xyz
  1  'x, y, z'
loop_
 _atom_type_symbol
 _atom_type_oxidation_number
  In3+  3.0
  Ag+  1.0
  Sn2+  2.0
  Bi3+  3.0
  Te2-  -2.0
  Pb2+  2.0
loop_
 _atom_site_type_symbol
 _atom_site_label
 _atom_site_symmetry_multiplicity
 _atom_site_fract_x
 _atom_site_fract_y
 _atom_site_fract_z
 _atom_site_occupancy
  In3+  In0  1  0.50168688  0.84852911  0.67815576  1
  In3+  In1  1  0.66206062  0.83200006  0.14217135  1
  In3+  In2  1  0.83612454  0.15609654  -0.02964851  1
  In3+  In3  1  0.65115154  0.00725796  0.35423728  1
  In3+  In4  1  0.33255067  0.50204766  0.15466516  1
  In3+  In5  1  0.83712783  0.31653804  0.15348020  1
  In3+  In6  1  0.00063958  0.16551928  0.80530440  1
  In3+  In7  1  0.66788067  0.68991568  0.33365237  1
  In3+  In8  1  0.33734475  0.48834037  0.80707002  1
  In3+  In9  1  0.49932221  0.01501839  0.15241498  1
  In3+  In10  1  0.00013701  0.16702867  0.15586667  1
  In3+  In11  1  0.49312758  0.51190012  0.00522638  1
  In3+  In12  1  0.16802899  0.81709551  -0.00982716  1
  In3+  In13  1  0.64494129  0.33653599  -0.00727976  1
  In3+  In14  1  0.18021149  0.32668818  0.16645545  1
  In3+  In15  1  0.48867475  0.66914117  0.50191878  1
  In3+  In16  1  0.17547985  0.16050322  -0.01831008  1
  In3+  In17  1  -0.00319077  0.00904792  0.67024980  1
  In3+  In18  1  0.17342310  0.17036918  0.67411768  1
  In3+  In19  1  0.33525763  0.64854570  0.67291635  1
  In3+  In20  1  0.16101198  0.65195806  0.50718826  1
  In3+  In21  1  -0.01635107  0.49328135  0.50425573  1
  Ag+  Ag22  1  0.80743233  0.83230508  -0.02301585  1
  Ag+  Ag23  1  0.80787468  0.65803865  0.52867036  1
  Ag+  Ag24  1  0.01836086  0.31013632  0.66097914  1
  Ag+  Ag25  1  0.33241557  0.51748514  0.49972119  1
  Ag+  Ag26  1  0.50739961  0.02728848  0.84463794  1
  Ag+  Ag27  1  0.35885900  0.30876782  0.66881778  1
  Ag+  Ag28  1  0.67876008  0.80487105  0.82910826  1
  Ag+  Ag29  1  -0.02630447  0.80600918  0.84999051  1
  Ag+  Ag30  1  0.80839633  0.19030171  0.66653166  1
  Ag+  Ag31  1  -0.02936448  0.70799343  -0.03377155  1
  Ag+  Ag32  1  0.63177156  0.14790442  0.85847835  1
  Ag+  Ag33  1  0.51688037  0.49793531  0.64384966  1
  Ag+  Ag34  1  0.35188437  0.66077288  -0.02313901  1
  Ag+  Ag35  1  -0.02730077  0.19219067  0.50352873  1
  Ag+  Ag36  1  0.50100751  0.01997446  0.53064819  1
  Ag+  Ag37  1  0.34194652  0.13831634  0.84604008  1
  Ag+  Ag38  1  0.48443573  0.66723346  0.14736244  1
  Ag+  Ag39  1  0.48301667  0.17422909  0.30750926  1
  Ag+  Ag40  1  0.53377178  0.16612846  -0.03101833  1
  Ag+  Ag41  1  0.14722057  -0.00465106  0.83680572  1
  Ag+  Ag42  1  0.35730406  0.02785498  -0.01057130  1
  Sn2+  Sn43  1  0.49622403  0.49657741  0.33346203  1
  Sn2+  Sn44  1  0.83279787  0.17046891  0.35191346  1
  Sn2+  Sn45  1  0.17481851  0.66577779  0.16130873  1
  Sn2+  Sn46  1  0.33474354  0.33040294  0.34916960  1
  Sn2+  Sn47  1  0.82927959  0.50398740  0.33236076  1
  Sn2+  Sn48  1  0.83149013  0.49583488  0.66707959  1
  Sn2+  Sn49  1  0.16557295  0.68016517  0.83998561  1
  Sn2+  Sn50  1  0.16752484  0.49915321  -0.00279049  1
  Sn2+  Sn51  1  0.65273888  0.50336990  0.49603560  1
  Sn2+  Sn52  1  0.16875539  0.16287638  0.34111709  1
  Sn2+  Sn53  1  0.33339680  0.33770040  -0.00988189  1
  Sn2+  Sn54  1  0.17960926  0.00016605  0.51189300  1
  Sn2+  Sn55  1  0.33906071  0.00571250  0.32407849  1
  Sn2+  Sn56  1  0.00105812  0.00624058  0.34703305  1
  Sn2+  Sn57  1  0.66080265  0.49585156  0.82999498  1
  Sn2+  Sn58  1  0.00273679  0.67322108  0.66318402  1
  Sn2+  Sn59  1  0.66795488  0.50180228  0.17233521  1
  Sn2+  Sn60  1  0.67053427  0.00268598  0.67859102  1
  Sn2+  Sn61  1  0.49836091  0.17396271  0.66492587  1
  Sn2+  Sn62  1  0.16991456  0.33762595  0.83468169  1
  Sn2+  Sn63  1  0.49920793  0.33107802  0.83020510  1
  Sn2+  Sn64  1  0.83778193  0.66917483  0.83506111  1
  Bi3+  Bi65  1  0.50008869  0.83536512  0.33337323  1
  Bi3+  Bi66  1  0.83314858  0.82753337  0.66727505  1
  Bi3+  Bi67  1  0.33643763  0.83470736  0.83570944  1
  Bi3+  Bi68  1  0.33666589  0.16256409  0.50613009  1
  Bi3+  Bi69  1  -0.00000354  0.66840688  0.33049736  1
  Bi3+  Bi70  1  0.00362792  0.33395309  -0.00516741  1
  Bi3+  Bi71  1  0.33431826  0.00157969  0.67811729  1
  Bi3+  Bi72  1  0.83290863  0.66707584  0.16908345  1
  Bi3+  Bi73  1  0.33883347  0.66257204  0.33678646  1
  Bi3+  Bi74  1  0.49731894  0.65925711  0.82847747  1
  Bi3+  Bi75  1  0.83707770  0.33622762  0.83353066  1
  Bi3+  Bi76  1  -0.00010047  0.00612894  0.00009654  1
  Bi3+  Bi77  1  0.00026687  0.83027208  0.50948104  1
  Bi3+  Bi78  1  0.83469011  0.83464574  0.33409846  1
  Bi3+  Bi79  1  0.16619969  0.83514986  0.33314943  1
  Bi3+  Bi80  1  0.33762784  0.82999717  0.16513599  1
  Bi3+  Bi81  1  0.66352600  0.33343216  0.67293483  1
  Bi3+  Bi82  1  0.66456421  0.16807214  0.50691476  1
  Bi3+  Bi83  1  0.66982521  0.00261164  -0.00352673  1
  Bi3+  Bi84  1  0.16409611  0.49868885  0.66787862  1
  Bi3+  Bi85  1  0.66717552  0.32854205  0.33085044  1
  Te2-  Te86  1  0.16081236  0.17243110  0.17511882  1
  Te2-  Te87  1  0.17504172  0.15910987  0.50146823  1
  Te2-  Te88  1  0.15787179  0.16902992  0.83128951  1
  Te2-  Te89  1  0.17477280  0.49518371  0.16520858  1
  Te2-  Te90  1  0.17878301  0.50013429  0.50353128  1
  Te2-  Te91  1  0.17927777  0.50547501  0.83191704  1
  Te2-  Te92  1  0.17037709  0.83535765  0.16980822  1
  Te2-  Te93  1  0.16351681  0.83430639  0.49902658  1
  Te2-  Te94  1  0.17428717  0.84633390  0.83830410  1
  Te2-  Te95  1  0.49892763  0.16704688  0.16354980  1
  Te2-  Te96  1  0.50143243  0.16406512  0.50281770  1
  Te2-  Te97  1  0.48744057  0.17427785  0.82500880  1
  Te2-  Te98  1  0.49772942  0.51270330  0.16125233  1
  Te2-  Te99  1  0.49229748  0.50418157  0.49798493  1
  Te2-  Te100  1  0.49163000  0.49981331  0.84736575  1
  Te2-  Te101  1  0.50293552  0.81783367  0.17023349  1
  Te2-  Te102  1  0.50240818  0.82377383  0.49849494  1
  Te2-  Te103  1  0.49965143  0.82020802  0.82936577  1
  Te2-  Te104  1  0.84068318  0.16746746  0.18003193  1
  Te2-  Te105  1  0.82732333  0.16116989  0.51497777  1
  Te2-  Te106  1  0.84285564  0.17200964  0.81344319  1
  Te2-  Te107  1  0.83346449  0.50408167  0.16767809  1
  Te2-  Te108  1  0.83177580  0.51152558  0.50231815  1
  Te2-  Te109  1  0.83307977  0.50004076  0.83476124  1
  Te2-  Te110  1  0.82682040  0.83106590  0.17277178  1
  Te2-  Te111  1  0.83703046  0.81836936  0.50111816  1
  Te2-  Te112  1  0.82954530  0.82937986  0.83093051  1
  Te2-  Te113  1  0.16071006  0.01177856  -0.01019042  1
  Te2-  Te114  1  0.17315109  -0.00322728  0.33580773  1
  Te2-  Te115  1  0.17173427  0.00778505  0.67990433  1
  Te2-  Te116  1  0.16467837  0.33070145  0.00646371  1
  Te2-  Te117  1  0.16993618  0.33136572  0.32915037  1
  Te2-  Te118  1  0.16288223  0.33330754  0.67351122  1
  Te2-  Te119  1  0.15973420  0.66434214  0.00351784  1
  Te2-  Te120  1  0.17034112  0.67161481  0.33286658  1
  Te2-  Te121  1  0.17422232  0.66619041  0.66575096  1
  Te2-  Te122  1  0.50518164  0.01499971  -0.00311990  1
  Te2-  Te123  1  0.50082151  -0.00303289  0.32276898  1
  Te2-  Te124  1  0.49981258  -0.00005984  0.67681235  1
  Te2-  Te125  1  0.49707640  0.31472242  -0.00152081  1
  Te2-  Te126  1  0.50387379  0.32267918  0.32922315  1
  Te2-  Te127  1  0.50176261  0.34705440  0.66991374  1
  Te2-  Te128  1  0.49991194  0.66611729  -0.00127204  1
  Te2-  Te129  1  0.50184089  0.66936848  0.34357279  1
  Te2-  Te130  1  0.49076236  0.64776785  0.66340636  1
  Te2-  Te131  1  0.83476528  -0.01444450  -0.00081606  1
  Te2-  Te132  1  0.83127344  -0.00284163  0.33544675  1
  Te2-  Te133  1  0.83884315  -0.00999396  0.66565042  1
  Te2-  Te134  1  0.84136867  0.32846800  -0.00059256  1
  Te2-  Te135  1  0.83114803  0.33434250  0.33342908  1
  Te2-  Te136  1  0.83023948  0.33734416  0.67024169  1
  Te2-  Te137  1  0.83391432  0.67850772  0.00412028  1
  Te2-  Te138  1  0.83410424  0.67010264  0.33279219  1
  Te2-  Te139  1  0.83205172  0.66602005  0.67315365  1
  Te2-  Te140  1  -0.00481332  0.17033908  0.00388118  1
  Te2-  Te141  1  -0.00155910  0.16217264  0.35784882  1
  Te2-  Te142  1  0.01025709  0.16350650  0.65063064  1
  Te2-  Te143  1  0.00108912  0.49545488  -0.00039116  1
  Te2-  Te144  1  0.00019467  0.50275937  0.34312634  1
  Te2-  Te145  1  0.00275436  0.50824093  0.65875737  1
  Te2-  Te146  1  0.01479643  0.84525665  -0.00989992  1
  Te2-  Te147  1  0.00061996  0.83448027  0.33508288  1
  Te2-  Te148  1  -0.00088563  0.83337325  0.67459037  1
  Te2-  Te149  1  0.32442992  0.17206430  -0.01011987  1
  Te2-  Te150  1  0.33839662  0.16554292  0.33331303  1
  Te2-  Te151  1  0.32892710  0.16463429  0.67720082  1
  Te2-  Te152  1  0.33588953  0.50804358  0.00369990  1
  Te2-  Te153  1  0.33896762  0.49825194  0.34816181  1
  Te2-  Te154  1  0.32623951  0.49719262  0.65577051  1
  Te2-  Te155  1  0.32587549  0.81229430  0.00500962  1
  Te2-  Te156  1  0.33373820  0.83294095  0.32856834  1
  Te2-  Te157  1  0.34055874  0.83807268  0.66919175  1
  Te2-  Te158  1  0.68205021  0.16930002  -0.00112938  1
  Te2-  Te159  1  0.66795517  0.16356749  0.33913152  1
  Te2-  Te160  1  0.66121668  0.17169416  0.66871036  1
  Te2-  Te161  1  0.66003253  0.48906514  0.00209869  1
  Te2-  Te162  1  0.66341488  0.49046686  0.33204875  1
  Te2-  Te163  1  0.66395193  0.49534653  0.66542201  1
  Te2-  Te164  1  0.66047068  0.83617071  -0.01378765  1
  Te2-  Te165  1  0.66719200  0.84523552  0.33797467  1
  Te2-  Te166  1  0.66594891  0.83275733  0.67863884  1
  Te2-  Te167  1  0.00164673  0.00614944  0.16761111  1
  Te2-  Te168  1  0.00734356  -0.01004414  0.51205780  1
  Te2-  Te169  1  0.00051062  0.01213814  0.82971308  1
  Te2-  Te170  1  -0.00564945  0.32898651  0.16479974  1
  Te2-  Te171  1  0.00101066  0.33872610  0.51113305  1
  Te2-  Te172  1  -0.00062575  0.32595664  0.82735351  1
  Te2-  Te173  1  0.00227746  0.66734756  0.16945843  1
  Te2-  Te174  1  0.00708162  0.66731740  0.49385498  1
  Te2-  Te175  1  0.00686780  0.66284123  0.83155977  1
  Te2-  Te176  1  0.34147947  -0.00587484  0.14961198  1
  Te2-  Te177  1  0.34868956  0.00278940  0.50445222  1
  Te2-  Te178  1  0.35048173  -0.00706710  0.84183017  1
  Te2-  Te179  1  0.33297392  0.33972691  0.16729711  1
  Te2-  Te180  1  0.33441681  0.32116056  0.51380046  1
  Te2-  Te181  1  0.32855462  0.33830997  0.82376703  1
  Te2-  Te182  1  0.33826114  0.66148709  0.17608651  1
  Te2-  Te183  1  0.33108715  0.66789681  0.49980425  1
  Te2-  Te184  1  0.33256490  0.66858919  0.83033371  1
  Te2-  Te185  1  0.65849814  -0.00638360  0.15822633  1
  Te2-  Te186  1  0.65378837  0.00271637  0.50933736  1
  Te2-  Te187  1  0.65966327  0.00669471  0.83458362  1
  Te2-  Te188  1  0.67740501  0.33283814  0.16635407  1
  Te2-  Te189  1  0.66722871  0.33368577  0.50039637  1
  Te2-  Te190  1  0.67383945  0.33018339  0.83771842  1
  Te2-  Te191  1  0.67042199  0.66965637  0.17663018  1
  Te2-  Te192  1  0.66538477  0.66088891  0.49155377  1
  Te2-  Te193  1  0.66314792  0.65795159  0.83529949  1
  Pb2+  Pb194  1  -0.00172659  0.83324834  0.15717015  1
  Pb2+  Pb195  1  0.83000983  0.00053709  0.16617839  1
  Pb2+  Pb196  1  0.83405582  -0.00671468  0.49989093  1
  Pb2+  Pb197  1  0.17007753  0.00386043  0.15722671  1
  Pb2+  Pb198  1  0.00422144  0.50066607  0.16817829  1
  Pb2+  Pb199  1  0.00721900  0.49462145  0.83140753  1
  Pb2+  Pb200  1  0.65870915  0.66614566  0.66535612  1
  Pb2+  Pb201  1  0.66885533  0.66297919  0.00535887  1
  Pb2+  Pb202  1  0.00110058  0.32678032  0.33488257  1
  Pb2+  Pb203  1  0.83302039  0.50081178  0.00090562  1
  Pb2+  Pb204  1  0.33241616  0.16725932  0.15764403  1
  Pb2+  Pb205  1  0.66703139  0.16371058  0.16640395  1
  Pb2+  Pb206  1  0.33461039  0.83733289  0.50004464  1
  Pb2+  Pb207  1  0.49134251  0.84252179  0.00007483  1
  Pb2+  Pb208  1  0.66691025  0.83281891  0.50834565  1
  Pb2+  Pb209  1  0.49918617  0.33372581  0.49885000  1
  Pb2+  Pb210  1  0.17202716  0.50230820  0.33403750  1
  Pb2+  Pb211  1  0.82912747  0.00276332  0.83193478  1
  Pb2+  Pb212  1  0.50329308  0.34365264  0.16383689  1
  Pb2+  Pb213  1  0.83331120  0.33808899  0.50089163  1
  Pb2+  Pb214  1  0.16892005  0.32941819  0.50405773  1
  Pb2+  Pb215  1  0.16724194  0.83815198  0.67138491  1
