# generated using pymatgen
data_In22Ag21Sn22Bi21(Te54Pb11)2
_symmetry_space_group_name_H-M   'P 1'
_cell_length_a   19.10782896
_cell_length_b   19.11668388
_cell_length_c   19.11532916
_cell_angle_alpha   89.99044906
_cell_angle_beta   89.99834021
_cell_angle_gamma   89.98521825
_symmetry_Int_Tables_number   1
_chemical_formula_structural   In22Ag21Sn22Bi21(Te54Pb11)2
_chemical_formula_sum   'In22 Ag21 Sn22 Bi21 Te108 Pb22'
_cell_volume   6982.41510456
_cell_formula_units_Z   1
loop_
 _symmetry_equiv_pos_site_id
 _symmetry_equiv_pos_as_xyz
  1  'x, y, z'
loop_
 _atom_type_symbol
 _atom_type_oxidation_number
  In3+  3.0
  Ag+  1.0
  Sn2+  2.0
  Bi3+  3.0
  Te2-  -2.0
  Pb2+  2.0
loop_
 _atom_site_type_symbol
 _atom_site_label
 _atom_site_symmetry_multiplicity
 _atom_site_fract_x
 _atom_site_fract_y
 _atom_site_fract_z
 _atom_site_occupancy
  In3+  In0  1  0.16595609  0.00560017  0.82642843  1
  In3+  In1  1  0.33808898  0.34268965  0.67128128  1
  In3+  In2  1  0.16897340  0.66377984  0.17317142  1
  In3+  In3  1  0.82804113  0.67187368  0.49356858  1
  In3+  In4  1  0.65478626  0.34613357  0.67170356  1
  In3+  In5  1  0.19631265  0.50999305  -0.00251172  1
  In3+  In6  1  0.14720743  0.16129693  0.33035831  1
  In3+  In7  1  0.17506981  0.83408994  0.33571501  1
  In3+  In8  1  0.66529296  0.82536895  0.15927242  1
  In3+  In9  1  0.83619036  0.84091066  0.33122166  1
  In3+  In10  1  0.51135263  0.35157574  0.83326336  1
  In3+  In11  1  0.84172406  0.00017036  0.49684908  1
  In3+  In12  1  0.35111241  0.66852466  -0.00072054  1
  In3+  In13  1  0.67030847  0.35248682  0.00035249  1
  In3+  In14  1  0.66505147  -0.00114233  0.33426360  1
  In3+  In15  1  0.34029523  0.82677797  0.82199357  1
  In3+  In16  1  -0.01405478  0.66651469  0.65533568  1
  In3+  In17  1  0.67636429  0.66169611  -0.00837994  1
  In3+  In18  1  0.50128927  0.16226796  0.67886845  1
  In3+  In19  1  0.66058113  0.83300665  0.49943307  1
  In3+  In20  1  0.33201800  -0.01822185  -0.00002891  1
  In3+  In21  1  0.50466800  0.33217631  0.50253639  1
  Ag+  Ag22  1  0.36023219  0.67241723  0.30991092  1
  Ag+  Ag23  1  0.51738276  0.68882515  0.50693516  1
  Ag+  Ag24  1  0.50030503  0.51866358  0.67354094  1
  Ag+  Ag25  1  0.80946895  0.18602592  0.33522176  1
  Ag+  Ag26  1  0.82444589  0.69217667  0.19159186  1
  Ag+  Ag27  1  0.81872087  0.83544825  -0.02518098  1
  Ag+  Ag28  1  0.33370173  0.48337066  0.81141851  1
  Ag+  Ag29  1  0.64111728  0.83810923  0.85837631  1
  Ag+  Ag30  1  0.86051480  0.30486455  0.80413906  1
  Ag+  Ag31  1  0.68368115  0.47785927  0.83349223  1
  Ag+  Ag32  1  -0.02059673  0.83490471  0.47984371  1
  Ag+  Ag33  1  0.50128852  0.52568168  -0.02962475  1
  Ag+  Ag34  1  0.33398435  0.68467924  0.64475568  1
  Ag+  Ag35  1  0.33513646  0.02451120  0.69574742  1
  Ag+  Ag36  1  -0.02699247  0.00272556  -0.02346783  1
  Ag+  Ag37  1  -0.02926168  0.19268322  0.80307374  1
  Ag+  Ag38  1  0.52151237  -0.02126880  0.16762482  1
  Ag+  Ag39  1  0.00717603  -0.00222417  0.33625854  1
  Ag+  Ag40  1  0.52995190  0.81221702  0.33265128  1
  Ag+  Ag41  1  0.34973786  0.13239469  0.19836571  1
  Ag+  Ag42  1  0.66374681  0.36068412  0.36404447  1
  Sn2+  Sn43  1  0.67071715  0.16056873  0.83225545  1
  Sn2+  Sn44  1  0.15423048  0.83424227  0.00222556  1
  Sn2+  Sn45  1  0.65976658  0.66528966  0.33335450  1
  Sn2+  Sn46  1  0.49862662  -0.00185762  0.49120666  1
  Sn2+  Sn47  1  0.17651027  0.33241640  0.49702445  1
  Sn2+  Sn48  1  0.66607015  -0.00277216  0.00032425  1
  Sn2+  Sn49  1  0.17582315  0.66851328  0.50402183  1
  Sn2+  Sn50  1  0.17225093  0.82756782  0.66634600  1
  Sn2+  Sn51  1  0.83574867  0.32952662  0.49922833  1
  Sn2+  Sn52  1  0.33163177  0.16740686  0.83430825  1
  Sn2+  Sn53  1  0.65580594  0.66536885  0.67675845  1
  Sn2+  Sn54  1  0.83761778  0.00071911  0.16899398  1
  Sn2+  Sn55  1  0.34034248  0.83580737  0.17420899  1
  Sn2+  Sn56  1  0.83227258  0.49256688  0.33558792  1
  Sn2+  Sn57  1  0.49760076  0.50430218  0.34035621  1
  Sn2+  Sn58  1  0.33607571  0.15888221  0.49829622  1
  Sn2+  Sn59  1  0.34324822  -0.00494132  0.33374072  1
  Sn2+  Sn60  1  0.34589628  0.33969865  0.33405732  1
  Sn2+  Sn61  1  0.49930833  0.65638058  0.81749836  1
  Sn2+  Sn62  1  0.82841285  0.17009295  0.65842471  1
  Sn2+  Sn63  1  0.17087679  0.33061983  0.83342640  1
  Sn2+  Sn64  1  0.65464871  -0.00359226  0.66931022  1
  Bi3+  Bi65  1  0.33673849  0.33421318  -0.00138410  1
  Bi3+  Bi66  1  0.33461947  0.49991562  0.50102655  1
  Bi3+  Bi67  1  0.49965206  0.16542110  0.33420883  1
  Bi3+  Bi68  1  0.00227149  0.16186113  0.16669156  1
  Bi3+  Bi69  1  0.83699709  0.83655447  0.66316398  1
  Bi3+  Bi70  1  -0.00521652  0.67264738  0.00044246  1
  Bi3+  Bi71  1  -0.00217159  0.16139979  0.49831909  1
  Bi3+  Bi72  1  0.33442987  0.82794770  0.49781471  1
  Bi3+  Bi73  1  0.16926154  0.32973553  0.16726187  1
  Bi3+  Bi74  1  0.49629109  0.16809999  0.00063130  1
  Bi3+  Bi75  1  0.16679020  0.16583785  0.00198701  1
  Bi3+  Bi76  1  -0.00385599  0.67280032  0.33150381  1
  Bi3+  Bi77  1  0.16596041  -0.00346951  0.16629968  1
  Bi3+  Bi78  1  0.66004424  0.15910987  0.16475592  1
  Bi3+  Bi79  1  0.00406230  0.83417647  0.83539715  1
  Bi3+  Bi80  1  0.33562191  0.50098843  0.17014551  1
  Bi3+  Bi81  1  0.82876915  0.32911354  0.16543534  1
  Bi3+  Bi82  1  0.49893042  0.33048614  0.16806371  1
  Bi3+  Bi83  1  0.16995025  0.67113744  0.83886828  1
  Bi3+  Bi84  1  -0.00299790  0.83643937  0.16757208  1
  Bi3+  Bi85  1  0.82916095  0.66850231  0.82804015  1
  Te2-  Te86  1  0.16899107  0.16641834  0.16797297  1
  Te2-  Te87  1  0.16275617  0.16752174  0.49320902  1
  Te2-  Te88  1  0.16581481  0.16389882  0.83891703  1
  Te2-  Te89  1  0.16987708  0.49587919  0.15962781  1
  Te2-  Te90  1  0.16789902  0.49850450  0.50028084  1
  Te2-  Te91  1  0.18229398  0.50463338  0.84136611  1
  Te2-  Te92  1  0.16230457  0.83113960  0.17138845  1
  Te2-  Te93  1  0.17223099  0.83038503  0.49672763  1
  Te2-  Te94  1  0.16916911  0.83429439  0.83674700  1
  Te2-  Te95  1  0.49192968  0.16786199  0.16627861  1
  Te2-  Te96  1  0.49844731  0.16848037  0.49731298  1
  Te2-  Te97  1  0.50065840  0.16957200  0.83606068  1
  Te2-  Te98  1  0.49877385  0.49562347  0.17172721  1
  Te2-  Te99  1  0.49596366  0.48652968  0.50434381  1
  Te2-  Te100  1  0.48474683  0.49859965  0.82596620  1
  Te2-  Te101  1  0.51043030  0.83192390  0.18145187  1
  Te2-  Te102  1  0.49969871  0.83508594  0.48431154  1
  Te2-  Te103  1  0.49486204  0.83046919  0.83371957  1
  Te2-  Te104  1  0.83177067  0.16686877  0.18018062  1
  Te2-  Te105  1  0.83506885  0.16333409  0.48777591  1
  Te2-  Te106  1  0.83020573  0.16467247  0.83418360  1
  Te2-  Te107  1  0.82895307  0.49025784  0.16818251  1
  Te2-  Te108  1  0.82948472  0.50225429  0.50070414  1
  Te2-  Te109  1  0.82930215  0.50665359  0.83287217  1
  Te2-  Te110  1  0.83021835  0.83894162  0.17545171  1
  Te2-  Te111  1  0.83327537  0.83161792  0.50170916  1
  Te2-  Te112  1  0.83868675  0.83146710  0.82564952  1
  Te2-  Te113  1  0.17514056  0.00262798  0.00354903  1
  Te2-  Te114  1  0.17170618  -0.00021797  0.32884487  1
  Te2-  Te115  1  0.18363794  -0.00053996  0.67208956  1
  Te2-  Te116  1  0.16981957  0.33348683  0.00178448  1
  Te2-  Te117  1  0.16912976  0.32832038  0.32979191  1
  Te2-  Te118  1  0.17342301  0.33385930  0.66833699  1
  Te2-  Te119  1  0.15602961  0.66559124  0.00453204  1
  Te2-  Te120  1  0.15648020  0.67240053  0.33275585  1
  Te2-  Te121  1  0.18567469  0.66909791  0.67542986  1
  Te2-  Te122  1  0.49153719  0.00263087  0.01554834  1
  Te2-  Te123  1  0.50263128  0.00308993  0.32161010  1
  Te2-  Te124  1  0.48664638  0.00743284  0.66617686  1
  Te2-  Te125  1  0.50210292  0.33118118  0.00095188  1
  Te2-  Te126  1  0.51343937  0.33179018  0.33358509  1
  Te2-  Te127  1  0.50039078  0.32063595  0.66702300  1
  Te2-  Te128  1  0.50402021  0.66993592  0.00226237  1
  Te2-  Te129  1  0.50197821  0.66571185  0.34559051  1
  Te2-  Te130  1  0.49598144  0.66802318  0.65722703  1
  Te2-  Te131  1  0.82788358  -0.00977508  -0.00022693  1
  Te2-  Te132  1  0.82344763  -0.00742722  0.34211390  1
  Te2-  Te133  1  0.83152296  0.00105833  0.65669266  1
  Te2-  Te134  1  0.82524697  0.33160888  0.00131067  1
  Te2-  Te135  1  0.81698147  0.33380892  0.33310515  1
  Te2-  Te136  1  0.82358821  0.32908048  0.66455383  1
  Te2-  Te137  1  0.83111764  0.68060352  -0.00769293  1
  Te2-  Te138  1  0.83398654  0.66444726  0.33897531  1
  Te2-  Te139  1  0.82609055  0.66973226  0.66208458  1
  Te2-  Te140  1  0.00166802  0.15138136  0.00534852  1
  Te2-  Te141  1  -0.00554352  0.15213912  0.33295844  1
  Te2-  Te142  1  -0.00087342  0.16191648  0.66116396  1
  Te2-  Te143  1  -0.00395271  0.50374091  0.00070784  1
  Te2-  Te144  1  -0.00086871  0.50217603  0.33281746  1
  Te2-  Te145  1  0.00173467  0.50355479  0.66623463  1
  Te2-  Te146  1  -0.00672031  0.84102731  0.00259904  1
  Te2-  Te147  1  -0.00607130  0.83907324  0.33225828  1
  Te2-  Te148  1  0.00335059  0.82789522  0.67007418  1
  Te2-  Te149  1  0.33227686  0.17251816  -0.00256229  1
  Te2-  Te150  1  0.33795778  0.17038427  0.33866386  1
  Te2-  Te151  1  0.34258593  0.16977194  0.66704835  1
  Te2-  Te152  1  0.35071088  0.50031184  0.00592289  1
  Te2-  Te153  1  0.33428768  0.51272674  0.33349880  1
  Te2-  Te154  1  0.34804427  0.49363499  0.66305246  1
  Te2-  Te155  1  0.32791637  0.82650143  0.00552653  1
  Te2-  Te156  1  0.32934261  0.81986456  0.33281991  1
  Te2-  Te157  1  0.33565302  0.83036779  0.66681255  1
  Te2-  Te158  1  0.66058548  0.15949221  0.00240884  1
  Te2-  Te159  1  0.66423651  0.15684185  0.32885655  1
  Te2-  Te160  1  0.66079044  0.16132148  0.66945230  1
  Te2-  Te161  1  0.65289145  0.50608571  -0.01575663  1
  Te2-  Te162  1  0.66556800  0.50451458  0.33418658  1
  Te2-  Te163  1  0.65085642  0.49698212  0.68237180  1
  Te2-  Te164  1  0.67166854  0.83626119  0.00503398  1
  Te2-  Te165  1  0.67594141  0.83297488  0.34147357  1
  Te2-  Te166  1  0.67158758  0.83368939  0.65696703  1
  Te2-  Te167  1  0.00323251  0.00009513  0.18213793  1
  Te2-  Te168  1  -0.00314045  -0.00765883  0.49050343  1
  Te2-  Te169  1  0.01158611  -0.00306118  0.83358457  1
  Te2-  Te170  1  0.00055773  0.32780781  0.16877648  1
  Te2-  Te171  1  -0.00112137  0.32965206  0.49861342  1
  Te2-  Te172  1  0.00141741  0.33289548  0.83453384  1
  Te2-  Te173  1  -0.02337095  0.67546460  0.16559093  1
  Te2-  Te174  1  0.00049655  0.68248062  0.49626958  1
  Te2-  Te175  1  0.00304641  0.67119488  0.83451903  1
  Te2-  Te176  1  0.32812234  -0.00663785  0.16366145  1
  Te2-  Te177  1  0.33622075  -0.00809613  0.49474233  1
  Te2-  Te178  1  0.32919094  -0.00627476  0.84197989  1
  Te2-  Te179  1  0.33298932  0.33564770  0.16640359  1
  Te2-  Te180  1  0.33559283  0.33332370  0.49914860  1
  Te2-  Te181  1  0.33383061  0.33510995  0.83466710  1
  Te2-  Te182  1  0.33036182  0.66485646  0.16195808  1
  Te2-  Te183  1  0.33244197  0.66341746  0.49840697  1
  Te2-  Te184  1  0.33186588  0.67369513  0.84659077  1
  Te2-  Te185  1  0.66874465  -0.00231220  0.17099796  1
  Te2-  Te186  1  0.66250847  -0.00778134  0.49941696  1
  Te2-  Te187  1  0.66417444  -0.01245098  0.82984020  1
  Te2-  Te188  1  0.66386002  0.32461195  0.16053904  1
  Te2-  Te189  1  0.66372061  0.33200457  0.50911598  1
  Te2-  Te190  1  0.66023149  0.33166236  0.83420826  1
  Te2-  Te191  1  0.67816934  0.67126260  0.16236504  1
  Te2-  Te192  1  0.66415203  0.67326988  0.50300896  1
  Te2-  Te193  1  0.66609900  0.68586462  0.83719006  1
  Pb2+  Pb194  1  0.16729095  -0.00157523  0.49902932  1
  Pb2+  Pb195  1  -0.00235698  0.50845987  0.16520517  1
  Pb2+  Pb196  1  0.66072607  0.50610648  0.50749221  1
  Pb2+  Pb197  1  0.82485024  0.49946666  0.66950686  1
  Pb2+  Pb198  1  0.83161385  0.15979485  0.00936194  1
  Pb2+  Pb199  1  0.00369809  0.50331258  0.83586528  1
  Pb2+  Pb200  1  -0.00969192  0.32446533  0.33470797  1
  Pb2+  Pb201  1  0.66446052  0.49912752  0.16225301  1
  Pb2+  Pb202  1  -0.00247962  0.32386855  0.00073789  1
  Pb2+  Pb203  1  0.66565633  0.16146169  0.50019491  1
  Pb2+  Pb204  1  0.82967517  0.50696487  -0.00064958  1
  Pb2+  Pb205  1  0.49960840  0.83594688  0.00515140  1
  Pb2+  Pb206  1  0.50334310  0.83664602  0.66050874  1
  Pb2+  Pb207  1  0.83622252  -0.00206329  0.83088307  1
  Pb2+  Pb208  1  0.17630529  0.50431197  0.66959791  1
  Pb2+  Pb209  1  0.00518343  -0.00671845  0.66323352  1
  Pb2+  Pb210  1  0.49840172  0.00231468  0.84032433  1
  Pb2+  Pb211  1  -0.00103859  0.33324496  0.66549890  1
  Pb2+  Pb212  1  -0.00306703  0.51234775  0.49985106  1
  Pb2+  Pb213  1  0.17304019  0.16659113  0.66682095  1
  Pb2+  Pb214  1  0.16898306  0.50133166  0.33112015  1
  Pb2+  Pb215  1  0.50484772  0.66427234  0.17257700  1
