# generated using pymatgen
data_In22Ag21Sn22Bi21(Te54Pb11)2
_symmetry_space_group_name_H-M   'P 1'
_cell_length_a   19.16266036
_cell_length_b   19.14543550
_cell_length_c   19.14219275
_cell_angle_alpha   90.00344266
_cell_angle_beta   90.01583556
_cell_angle_gamma   89.99269580
_symmetry_Int_Tables_number   1
_chemical_formula_structural   In22Ag21Sn22Bi21(Te54Pb11)2
_chemical_formula_sum   'In22 Ag21 Sn22 Bi21 Te108 Pb22'
_cell_volume   7022.83906156
_cell_formula_units_Z   1
loop_
 _symmetry_equiv_pos_site_id
 _symmetry_equiv_pos_as_xyz
  1  'x, y, z'
loop_
 _atom_type_symbol
 _atom_type_oxidation_number
  In3+  3.0
  Ag+  1.0
  Sn2+  2.0
  Bi3+  3.0
  Te2-  -2.0
  Pb2+  2.0
loop_
 _atom_site_type_symbol
 _atom_site_label
 _atom_site_symmetry_multiplicity
 _atom_site_fract_x
 _atom_site_fract_y
 _atom_site_fract_z
 _atom_site_occupancy
  In3+  In0  1  0.34451892  0.83548948  0.49961129  1
  In3+  In1  1  0.33196331  0.14030936  0.81576532  1
  In3+  In2  1  0.17022097  0.49711725  0.00057106  1
  In3+  In3  1  0.00186117  0.85608216  0.16878381  1
  In3+  In4  1  0.85910606  0.49929354  0.66501711  1
  In3+  In5  1  0.16202819  0.66704430  0.17080544  1
  In3+  In6  1  0.66924225  0.85257905  0.17029653  1
  In3+  In7  1  0.85450071  0.16761236  0.00386968  1
  In3+  In8  1  0.66282622  0.65431508  0.34002814  1
  In3+  In9  1  0.33887581  0.32476268  0.00087127  1
  In3+  In10  1  0.17073766  0.01620057  0.18883125  1
  In3+  In11  1  0.83557482  0.30509636  0.49456250  1
  In3+  In12  1  -0.00201035  0.16767434  0.17705276  1
  In3+  In13  1  0.83733436  0.85612248  0.00115142  1
  In3+  In14  1  0.18155539  0.66681254  0.83164830  1
  In3+  In15  1  0.00878946  0.84203553  0.50084130  1
  In3+  In16  1  0.33650822  0.48536009  0.83285340  1
  In3+  In17  1  0.49769454  0.15327572  -0.00526141  1
  In3+  In18  1  0.82796809  0.15104429  0.34881907  1
  In3+  In19  1  0.83402845  0.67442793  0.49019517  1
  In3+  In20  1  0.63906736  0.49755532  0.16181508  1
  In3+  In21  1  0.48825521  0.82866274  -0.00504674  1
  Ag+  Ag22  1  0.18587575  0.67089972  0.47516305  1
  Ag+  Ag23  1  0.33709806  0.52766424  0.13935214  1
  Ag+  Ag24  1  0.17263876  0.46986920  0.63544045  1
  Ag+  Ag25  1  0.31152511  0.69285453  0.32013594  1
  Ag+  Ag26  1  0.18819264  0.16049568  0.35282350  1
  Ag+  Ag27  1  0.82817568  0.30496240  0.85192031  1
  Ag+  Ag28  1  -0.02900665  0.33232754  0.03000678  1
  Ag+  Ag29  1  0.35311861  -0.01476007  0.35862295  1
  Ag+  Ag30  1  0.47696470  0.66822973  0.47350154  1
  Ag+  Ag31  1  0.02162866  0.02980955  0.68884303  1
  Ag+  Ag32  1  0.64651145  0.00135543  0.32022033  1
  Ag+  Ag33  1  -0.02998388  0.31440808  0.31476670  1
  Ag+  Ag34  1  0.32254517  0.83328020  0.80161270  1
  Ag+  Ag35  1  0.00289843  0.02051802  0.35535311  1
  Ag+  Ag36  1  0.68160139  0.35483719  0.31569924  1
  Ag+  Ag37  1  0.47234988  0.48197728  -0.01249019  1
  Ag+  Ag38  1  0.85951100  -0.00670051  0.49487982  1
  Ag+  Ag39  1  0.69589328  0.19286958  0.86361226  1
  Ag+  Ag40  1  0.33194535  0.13541020  0.47461216  1
  Ag+  Ag41  1  0.47705720  0.00731572  0.84776711  1
  Ag+  Ag42  1  0.35464517  0.00692992  0.67756000  1
  Sn2+  Sn43  1  0.49530152  0.33223262  0.16371838  1
  Sn2+  Sn44  1  0.66615673  0.17477080  0.17027795  1
  Sn2+  Sn45  1  0.83468682  0.00054984  0.18007784  1
  Sn2+  Sn46  1  0.83789605  0.66174702  0.16542721  1
  Sn2+  Sn47  1  0.66960218  0.49876308  0.50663913  1
  Sn2+  Sn48  1  0.49688552  0.67243205  0.83237219  1
  Sn2+  Sn49  1  0.66541641  0.32841518  -0.00059340  1
  Sn2+  Sn50  1  0.00258117  0.66150601  0.33919848  1
  Sn2+  Sn51  1  0.16339488  0.83650486  0.66632146  1
  Sn2+  Sn52  1  0.33226739  0.83015476  0.17064202  1
  Sn2+  Sn53  1  0.33176267  0.16893411  0.17518353  1
  Sn2+  Sn54  1  0.50043105  0.16269038  0.66292532  1
  Sn2+  Sn55  1  0.32892939  0.00240493  -0.00659223  1
  Sn2+  Sn56  1  0.48947544  0.49652472  0.32980732  1
  Sn2+  Sn57  1  0.01931535  0.16037963  0.49095634  1
  Sn2+  Sn58  1  0.16992918  -0.00806330  0.50139944  1
  Sn2+  Sn59  1  0.49930291  -0.00392741  0.50194510  1
  Sn2+  Sn60  1  0.16905075  0.15820096  0.65722871  1
  Sn2+  Sn61  1  0.83565199  0.49953895  -0.00433771  1
  Sn2+  Sn62  1  0.48721669  0.50313070  0.66766780  1
  Sn2+  Sn63  1  0.83090744  0.16766767  0.67076720  1
  Sn2+  Sn64  1  0.82471752  -0.00290790  0.81481983  1
  Bi3+  Bi65  1  0.66531558  0.83514013  0.83777941  1
  Bi3+  Bi66  1  0.66652023  0.00239440  0.66292089  1
  Bi3+  Bi67  1  0.16602011  -0.00254810  0.83078974  1
  Bi3+  Bi68  1  0.67122934  0.66540231  0.00957968  1
  Bi3+  Bi69  1  0.65682949  0.16444627  0.50093283  1
  Bi3+  Bi70  1  0.33404180  0.33506390  0.33426429  1
  Bi3+  Bi71  1  0.83647483  0.83756714  0.33028635  1
  Bi3+  Bi72  1  0.00055377  0.49657617  0.83581459  1
  Bi3+  Bi73  1  0.66627553  0.66251737  0.66692803  1
  Bi3+  Bi74  1  0.83197589  0.83315311  0.66441177  1
  Bi3+  Bi75  1  -0.00354152  0.33418015  0.65986810  1
  Bi3+  Bi76  1  0.66793783  0.33251322  0.66185955  1
  Bi3+  Bi77  1  0.50228495  0.66697795  0.16643177  1
  Bi3+  Bi78  1  0.83127503  0.66312090  0.83386277  1
  Bi3+  Bi79  1  0.17134946  0.33518612  0.17145877  1
  Bi3+  Bi80  1  0.16483700  0.83044948  0.00274274  1
  Bi3+  Bi81  1  0.16805730  0.49423200  0.33265067  1
  Bi3+  Bi82  1  0.33014409  0.67029893  0.66642812  1
  Bi3+  Bi83  1  0.00121110  0.66968210  0.66634961  1
  Bi3+  Bi84  1  0.33659152  0.50507507  0.50402847  1
  Bi3+  Bi85  1  0.00821079  0.49617953  0.16766788  1
  Te2-  Te86  1  0.15816412  0.16975493  0.17101422  1
  Te2-  Te87  1  0.17960642  0.16379292  0.49965456  1
  Te2-  Te88  1  0.17651332  0.16332351  0.83266979  1
  Te2-  Te89  1  0.17547407  0.50130553  0.16513542  1
  Te2-  Te90  1  0.16967150  0.51460819  0.49481233  1
  Te2-  Te91  1  0.16632196  0.50714854  0.84309163  1
  Te2-  Te92  1  0.16143242  0.82725514  0.16429730  1
  Te2-  Te93  1  0.15731360  0.81843049  0.49715999  1
  Te2-  Te94  1  0.17466907  0.83168046  0.83885176  1
  Te2-  Te95  1  0.50103789  0.16616581  0.15735228  1
  Te2-  Te96  1  0.49135063  0.16566484  0.50188482  1
  Te2-  Te97  1  0.48551287  0.15671054  0.83789850  1
  Te2-  Te98  1  0.48659942  0.50481470  0.15927264  1
  Te2-  Te99  1  0.49736047  0.51547125  0.50031399  1
  Te2-  Te100  1  0.48980691  0.50057720  0.84035724  1
  Te2-  Te101  1  0.50759754  0.83124162  0.15766661  1
  Te2-  Te102  1  0.49737368  0.82028555  0.49793866  1
  Te2-  Te103  1  0.50500294  0.84093804  0.84151432  1
  Te2-  Te104  1  0.83376751  0.16502882  0.15693500  1
  Te2-  Te105  1  0.82911320  0.15038413  0.50157758  1
  Te2-  Te106  1  0.83492962  0.15867343  0.83720937  1
  Te2-  Te107  1  0.84535924  0.50015750  0.16577568  1
  Te2-  Te108  1  0.82924921  0.51463710  0.50313359  1
  Te2-  Te109  1  0.83678165  0.50218561  0.82841686  1
  Te2-  Te110  1  0.83779474  0.83341592  0.16413916  1
  Te2-  Te111  1  0.83818388  0.83934841  0.49781388  1
  Te2-  Te112  1  0.83304188  0.82939749  0.83466424  1
  Te2-  Te113  1  0.16667274  -0.00563364  -0.00532898  1
  Te2-  Te114  1  0.15318210  0.01475618  0.33609606  1
  Te2-  Te115  1  0.16306307  -0.00214307  0.66994861  1
  Te2-  Te116  1  0.18100373  0.33745860  0.00523469  1
  Te2-  Te117  1  0.16934741  0.32710518  0.33296491  1
  Te2-  Te118  1  0.16304793  0.32682080  0.66931423  1
  Te2-  Te119  1  0.16855720  0.66791216  0.00340735  1
  Te2-  Te120  1  0.16774936  0.66452570  0.32783958  1
  Te2-  Te121  1  0.16424390  0.67571726  0.67702850  1
  Te2-  Te122  1  0.49651684  -0.00352164  -0.00555520  1
  Te2-  Te123  1  0.49602158  0.00086260  0.33237248  1
  Te2-  Te124  1  0.50280039  0.00171980  0.66544646  1
  Te2-  Te125  1  0.49761113  0.33916062  0.00331556  1
  Te2-  Te126  1  0.49816253  0.33509406  0.33223364  1
  Te2-  Te127  1  0.50209282  0.33583725  0.67020345  1
  Te2-  Te128  1  0.50807931  0.67061121  0.00243734  1
  Te2-  Te129  1  0.51016997  0.66585533  0.32953953  1
  Te2-  Te130  1  0.50206851  0.66481759  0.67176805  1
  Te2-  Te131  1  0.83326366  0.00888863  0.00376598  1
  Te2-  Te132  1  0.85229140  -0.00170707  0.33943366  1
  Te2-  Te133  1  0.83037386  -0.00511425  0.65531766  1
  Te2-  Te134  1  0.82601298  0.32864673  -0.00210431  1
  Te2-  Te135  1  0.82535430  0.33105142  0.34219183  1
  Te2-  Te136  1  0.83082576  0.33748564  0.65180750  1
  Te2-  Te137  1  0.83284912  0.66533679  -0.00105274  1
  Te2-  Te138  1  0.82689063  0.67269772  0.33360454  1
  Te2-  Te139  1  0.83068028  0.66699395  0.67083954  1
  Te2-  Te140  1  0.00387275  0.18461233  -0.00136216  1
  Te2-  Te141  1  -0.01659917  0.17008346  0.33072306  1
  Te2-  Te142  1  -0.00361524  0.16987137  0.65667946  1
  Te2-  Te143  1  0.00308193  0.48291264  0.00155038  1
  Te2-  Te144  1  0.00461814  0.49688491  0.33209492  1
  Te2-  Te145  1  0.02241813  0.50410402  0.67106847  1
  Te2-  Te146  1  -0.00160215  0.83152689  0.00553973  1
  Te2-  Te147  1  -0.00274500  0.82604785  0.32476722  1
  Te2-  Te148  1  -0.00654196  0.83194254  0.66183500  1
  Te2-  Te149  1  0.34075974  0.16925335  0.00395531  1
  Te2-  Te150  1  0.33369583  0.17020107  0.33127412  1
  Te2-  Te151  1  0.33363635  0.15470205  0.66527584  1
  Te2-  Te152  1  0.32732985  0.50534116  -0.00623182  1
  Te2-  Te153  1  0.32902938  0.49791424  0.34099108  1
  Te2-  Te154  1  0.31907907  0.50476289  0.67446376  1
  Te2-  Te155  1  0.33161252  0.83681784  0.00748166  1
  Te2-  Te156  1  0.33042166  0.83790580  0.33652391  1
  Te2-  Te157  1  0.33038277  0.83548904  0.65457065  1
  Te2-  Te158  1  0.65310309  0.16968325  0.00090404  1
  Te2-  Te159  1  0.67475066  0.15117098  0.33716456  1
  Te2-  Te160  1  0.66595869  0.16738054  0.66589792  1
  Te2-  Te161  1  0.67049927  0.50251678  0.00867402  1
  Te2-  Te162  1  0.66240051  0.50037926  0.33406086  1
  Te2-  Te163  1  0.65675731  0.50131476  0.66931942  1
  Te2-  Te164  1  0.67888842  0.83021201  0.00454255  1
  Te2-  Te165  1  0.67465361  0.85193878  0.32547741  1
  Te2-  Te166  1  0.66905712  0.82904876  0.67006932  1
  Te2-  Te167  1  0.00505831  0.00849956  0.16509775  1
  Te2-  Te168  1  0.00758856  -0.00346502  0.50160808  1
  Te2-  Te169  1  -0.00003135  -0.00089703  0.83072618  1
  Te2-  Te170  1  0.00583294  0.33105489  0.17242415  1
  Te2-  Te171  1  -0.00772372  0.32995566  0.49906650  1
  Te2-  Te172  1  -0.01614200  0.33711542  0.82085072  1
  Te2-  Te173  1  0.00605019  0.65833919  0.16912703  1
  Te2-  Te174  1  -0.00994540  0.66926086  0.50520769  1
  Te2-  Te175  1  -0.00431234  0.66222319  0.83222508  1
  Te2-  Te176  1  0.31861220  0.00071795  0.16584241  1
  Te2-  Te177  1  0.33263708  -0.00935277  0.50162308  1
  Te2-  Te178  1  0.33135342  -0.01420555  0.82492241  1
  Te2-  Te179  1  0.33219563  0.33220734  0.16734219  1
  Te2-  Te180  1  0.33357211  0.34117262  0.50296449  1
  Te2-  Te181  1  0.33185450  0.33323944  0.83987478  1
  Te2-  Te182  1  0.33734947  0.67043004  0.17665832  1
  Te2-  Te183  1  0.33198989  0.67088238  0.50707393  1
  Te2-  Te184  1  0.33579426  0.68483686  0.82965274  1
  Te2-  Te185  1  0.66621008  0.00451132  0.17000464  1
  Te2-  Te186  1  0.65848505  0.00317752  0.50223681  1
  Te2-  Te187  1  0.66667732  -0.00348254  0.82680251  1
  Te2-  Te188  1  0.66265880  0.34075501  0.17128904  1
  Te2-  Te189  1  0.66984626  0.32692390  0.50174025  1
  Te2-  Te190  1  0.67713073  0.33223747  0.82664793  1
  Te2-  Te191  1  0.66809927  0.65655147  0.17257586  1
  Te2-  Te192  1  0.67353596  0.66809008  0.50322924  1
  Te2-  Te193  1  0.66646254  0.66862390  0.83759809  1
  Pb2+  Pb194  1  0.82981707  0.33221648  0.16842898  1
  Pb2+  Pb195  1  0.33333864  0.32539734  0.66925811  1
  Pb2+  Pb196  1  0.00144319  0.65534950  0.00220253  1
  Pb2+  Pb197  1  0.48686476  -0.00061862  0.16473092  1
  Pb2+  Pb198  1  0.33651199  0.67114624  0.00223972  1
  Pb2+  Pb199  1  0.00639935  0.83252002  0.83073221  1
  Pb2+  Pb200  1  0.50530179  0.32311805  0.83814652  1
  Pb2+  Pb201  1  0.00090540  0.00819791  -0.00160614  1
  Pb2+  Pb202  1  0.50386309  0.16832483  0.33011828  1
  Pb2+  Pb203  1  0.00417586  0.17118428  0.82638610  1
  Pb2+  Pb204  1  0.50143330  0.34346275  0.49958688  1
  Pb2+  Pb205  1  0.50190344  0.83373410  0.33016404  1
  Pb2+  Pb206  1  0.49752678  0.83569560  0.66961370  1
  Pb2+  Pb207  1  0.16421703  0.84628012  0.33379381  1
  Pb2+  Pb208  1  0.17299661  0.16527350  0.00399719  1
  Pb2+  Pb209  1  0.66873698  0.83592668  0.49530959  1
  Pb2+  Pb210  1  -0.00238383  0.49960452  0.50277601  1
  Pb2+  Pb211  1  0.16490806  0.33747811  0.49761507  1
  Pb2+  Pb212  1  0.66489687  0.00109115  -0.00436980  1
  Pb2+  Pb213  1  0.83297887  0.50014979  0.33472255  1
  Pb2+  Pb214  1  0.15994678  0.33792647  0.83727265  1
  Pb2+  Pb215  1  0.66420685  0.49680155  0.83914459  1
