# generated using pymatgen
data_In22Ag21Sn22Bi21(Te54Pb11)2
_symmetry_space_group_name_H-M   'P 1'
_cell_length_a   19.15812074
_cell_length_b   19.15034207
_cell_length_c   19.14018749
_cell_angle_alpha   90.00011535
_cell_angle_beta   90.00692137
_cell_angle_gamma   89.99679853
_symmetry_Int_Tables_number   1
_chemical_formula_structural   In22Ag21Sn22Bi21(Te54Pb11)2
_chemical_formula_sum   'In22 Ag21 Sn22 Bi21 Te108 Pb22'
_cell_volume   7022.23930901
_cell_formula_units_Z   1
loop_
 _symmetry_equiv_pos_site_id
 _symmetry_equiv_pos_as_xyz
  1  'x, y, z'
loop_
 _atom_type_symbol
 _atom_type_oxidation_number
  In3+  3.0
  Ag+  1.0
  Sn2+  2.0
  Bi3+  3.0
  Te2-  -2.0
  Pb2+  2.0
loop_
 _atom_site_type_symbol
 _atom_site_label
 _atom_site_symmetry_multiplicity
 _atom_site_fract_x
 _atom_site_fract_y
 _atom_site_fract_z
 _atom_site_occupancy
  In3+  In0  1  0.65208158  0.83491431  0.17150218  1
  In3+  In1  1  0.83543184  0.81944654  0.00665702  1
  In3+  In2  1  0.65440210  0.17131555  0.50846889  1
  In3+  In3  1  -0.00039265  0.82912425  0.83525360  1
  In3+  In4  1  0.17915957  0.52134713  -0.01762321  1
  In3+  In5  1  0.51895631  -0.00265976  0.50337853  1
  In3+  In6  1  0.49108062  0.82936381  -0.01423917  1
  In3+  In7  1  0.82837708  0.83042047  0.68326848  1
  In3+  In8  1  0.35115871  -0.00709710  0.33847609  1
  In3+  In9  1  0.83456510  0.51579899  0.32454692  1
  In3+  In10  1  0.64998440  0.17549256  0.83419888  1
  In3+  In11  1  0.16017502  0.35535885  0.83975475  1
  In3+  In12  1  0.17054631  0.18025221  -0.01975496  1
  In3+  In13  1  0.18694045  -0.00288314  0.16008881  1
  In3+  In14  1  -0.00557604  0.16184933  0.14600453  1
  In3+  In15  1  0.65170610  0.83407392  0.85115110  1
  In3+  In16  1  0.33800995  0.34914161  -0.00992303  1
  In3+  In17  1  0.82016319  0.33140155  0.15947152  1
  In3+  In18  1  0.15649952  0.83620153  0.34884423  1
  In3+  In19  1  -0.00391170  0.32409456  0.33056629  1
  In3+  In20  1  0.83599112  0.83994554  0.34034241  1
  In3+  In21  1  -0.00071893  0.66737123  0.68555028  1
  Ag+  Ag22  1  0.50358869  -0.00489803  0.14814909  1
  Ag+  Ag23  1  0.18412121  0.32538748  0.52569638  1
  Ag+  Ag24  1  0.53014576  0.19605356  0.70715340  1
  Ag+  Ag25  1  0.80767191  0.69405420  0.16557119  1
  Ag+  Ag26  1  -0.00013304  0.13816430  0.84811784  1
  Ag+  Ag27  1  0.31077063  0.68550011  -0.02927226  1
  Ag+  Ag28  1  0.80876251  0.18406903  -0.00011484  1
  Ag+  Ag29  1  0.68222879  0.47640956  0.15222424  1
  Ag+  Ag30  1  0.19972485  0.69078921  0.84128721  1
  Ag+  Ag31  1  0.48834575  0.63751271  0.86634811  1
  Ag+  Ag32  1  0.48828865  -0.00230077  0.85356176  1
  Ag+  Ag33  1  0.64970842  0.02126852  0.33117423  1
  Ag+  Ag34  1  0.35851113  0.51788865  0.83323372  1
  Ag+  Ag35  1  0.53015196  0.84598287  0.68702101  1
  Ag+  Ag36  1  0.30644111  0.69149448  0.33585192  1
  Ag+  Ag37  1  0.51719784  0.19698753  -0.00922068  1
  Ag+  Ag38  1  0.18658679  0.84261491  0.00617067  1
  Ag+  Ag39  1  0.69153548  0.29925029  -0.00565994  1
  Ag+  Ag40  1  -0.00727008  0.52350082  0.85967635  1
  Ag+  Ag41  1  0.68914626  0.65293404  -0.01499099  1
  Ag+  Ag42  1  -0.01207196  0.83786171  0.52286425  1
  Sn2+  Sn43  1  0.83473741  0.16230825  0.68993145  1
  Sn2+  Sn44  1  0.33128242  0.32995352  0.66838055  1
  Sn2+  Sn45  1  0.00212226  0.83712561  0.16073070  1
  Sn2+  Sn46  1  0.83073004  0.16047291  0.33245300  1
  Sn2+  Sn47  1  0.82803619  0.49962828  -0.00241705  1
  Sn2+  Sn48  1  0.84410720  0.32790336  0.83105199  1
  Sn2+  Sn49  1  0.82548697  0.00713640  0.84061336  1
  Sn2+  Sn50  1  -0.00177793  -0.00479056  -0.00417601  1
  Sn2+  Sn51  1  0.66187604  0.66280754  0.68633919  1
  Sn2+  Sn52  1  0.51030840  0.51574910  0.00248683  1
  Sn2+  Sn53  1  0.84131588  0.32747161  0.49600111  1
  Sn2+  Sn54  1  0.17058454  -0.00449003  0.84185116  1
  Sn2+  Sn55  1  0.00084495  0.66397664  0.00630452  1
  Sn2+  Sn56  1  0.50357412  0.82684968  0.33420663  1
  Sn2+  Sn57  1  -0.00166166  0.66668429  0.33393087  1
  Sn2+  Sn58  1  -0.00721019  0.16294471  0.50627139  1
  Sn2+  Sn59  1  0.33173491  0.16356095  0.50274001  1
  Sn2+  Sn60  1  0.34417481  -0.00144723  0.66906922  1
  Sn2+  Sn61  1  0.82552838  0.00003839  0.15935599  1
  Sn2+  Sn62  1  0.83498900  0.66680315  0.49188958  1
  Sn2+  Sn63  1  0.17038645  0.49946474  0.32473624  1
  Sn2+  Sn64  1  0.66690470  0.49984684  0.48834845  1
  Bi3+  Bi65  1  0.83672529  0.00049013  0.49787543  1
  Bi3+  Bi66  1  0.32884816  0.32956148  0.32929070  1
  Bi3+  Bi67  1  0.50406036  0.49725090  0.33080292  1
  Bi3+  Bi68  1  0.50187157  0.66930621  0.49891488  1
  Bi3+  Bi69  1  0.16599829  0.33111909  0.16744732  1
  Bi3+  Bi70  1  -0.00067170  -0.00024315  0.32834741  1
  Bi3+  Bi71  1  0.16772871  0.66888471  0.16187684  1
  Bi3+  Bi72  1  0.32985869  0.16518349  0.16542115  1
  Bi3+  Bi73  1  -0.00090933  0.33535662  0.66356758  1
  Bi3+  Bi74  1  -0.00332028  0.50343413  0.49473427  1
  Bi3+  Bi75  1  0.16282733  0.83301401  0.67128126  1
  Bi3+  Bi76  1  -0.00102820  0.49750626  0.16685097  1
  Bi3+  Bi77  1  0.49989149  0.32915424  0.16395620  1
  Bi3+  Bi78  1  0.33091097  0.83282706  0.16800370  1
  Bi3+  Bi79  1  0.32852171  0.83380702  0.49900795  1
  Bi3+  Bi80  1  0.16509839  0.50063701  0.66896158  1
  Bi3+  Bi81  1  0.16358418  0.16509987  0.33017542  1
  Bi3+  Bi82  1  0.66961263  -0.00886105  0.00426945  1
  Bi3+  Bi83  1  0.66731128  0.66725883  0.33204135  1
  Bi3+  Bi84  1  0.49798093  0.67037426  0.16857227  1
  Bi3+  Bi85  1  0.16550130  0.16492541  0.66327187  1
  Te2-  Te86  1  0.16299587  0.16498616  0.16844853  1
  Te2-  Te87  1  0.16225637  0.17755557  0.49778643  1
  Te2-  Te88  1  0.15540701  0.15597336  0.82874079  1
  Te2-  Te89  1  0.16563589  0.49888660  0.15831949  1
  Te2-  Te90  1  0.16061839  0.49737015  0.49903004  1
  Te2-  Te91  1  0.14543755  0.50586817  0.83437385  1
  Te2-  Te92  1  0.16963855  0.83153195  0.15479645  1
  Te2-  Te93  1  0.16173267  0.83206762  0.50616045  1
  Te2-  Te94  1  0.15790250  0.83206120  0.83359615  1
  Te2-  Te95  1  0.49474028  0.16601060  0.15591416  1
  Te2-  Te96  1  0.50223479  0.15559140  0.49915768  1
  Te2-  Te97  1  0.49921625  0.15370470  0.84364142  1
  Te2-  Te98  1  0.50488289  0.49898363  0.16889689  1
  Te2-  Te99  1  0.50118864  0.50079880  0.49678566  1
  Te2-  Te100  1  0.50533184  0.49552605  0.83399209  1
  Te2-  Te101  1  0.49413806  0.83876654  0.17320913  1
  Te2-  Te102  1  0.49413169  0.83337523  0.49523729  1
  Te2-  Te103  1  0.50140497  0.84375777  0.83137084  1
  Te2-  Te104  1  0.83980645  0.17434518  0.15471862  1
  Te2-  Te105  1  0.83404361  0.16210895  0.50403430  1
  Te2-  Te106  1  0.84860742  0.16864755  0.84536023  1
  Te2-  Te107  1  0.83247056  0.48706337  0.17149284  1
  Te2-  Te108  1  0.83305169  0.49867463  0.48819223  1
  Te2-  Te109  1  0.84187178  0.50002034  0.83503858  1
  Te2-  Te110  1  0.84065560  0.83809585  0.15713576  1
  Te2-  Te111  1  0.84298693  0.83467683  0.49270117  1
  Te2-  Te112  1  0.83810223  0.83625889  0.83421998  1
  Te2-  Te113  1  0.16525841  -0.01078423  0.00276154  1
  Te2-  Te114  1  0.16191048  -0.00048258  0.32290079  1
  Te2-  Te115  1  0.16835200  0.00078523  0.66657815  1
  Te2-  Te116  1  0.17032213  0.33290287  0.00263437  1
  Te2-  Te117  1  0.16530294  0.33134174  0.32950998  1
  Te2-  Te118  1  0.16416901  0.33157470  0.67143197  1
  Te2-  Te119  1  0.16692998  0.67206332  -0.00635423  1
  Te2-  Te120  1  0.16265761  0.66424979  0.32731231  1
  Te2-  Te121  1  0.15937751  0.66593272  0.67935888  1
  Te2-  Te122  1  0.50784225  -0.01813870  0.00155638  1
  Te2-  Te123  1  0.50514891  -0.00517388  0.34302210  1
  Te2-  Te124  1  0.49913151  -0.01182278  0.65404376  1
  Te2-  Te125  1  0.49103754  0.34089826  0.00350176  1
  Te2-  Te126  1  0.49802800  0.33234519  0.32946202  1
  Te2-  Te127  1  0.49491285  0.33215034  0.66678829  1
  Te2-  Te128  1  0.49526333  0.67530071  0.00848522  1
  Te2-  Te129  1  0.50338426  0.66033204  0.33347704  1
  Te2-  Te130  1  0.50494251  0.67609866  0.65884375  1
  Te2-  Te131  1  0.82954901  0.01087905  0.00098898  1
  Te2-  Te132  1  0.83632309  -0.00222391  0.33057061  1
  Te2-  Te133  1  0.83376193  -0.00485420  0.66348557  1
  Te2-  Te134  1  0.83445867  0.33087093  0.00354435  1
  Te2-  Te135  1  0.84005192  0.32270154  0.32841439  1
  Te2-  Te136  1  0.83642800  0.33069603  0.66558433  1
  Te2-  Te137  1  0.83188743  0.66680791  0.01582135  1
  Te2-  Te138  1  0.83048789  0.66944500  0.31617992  1
  Te2-  Te139  1  0.83619447  0.67440451  0.66389862  1
  Te2-  Te140  1  0.01491332  0.16488600  -0.00649142  1
  Te2-  Te141  1  0.00177717  0.16483564  0.33819384  1
  Te2-  Te142  1  0.00122812  0.17143475  0.66676631  1
  Te2-  Te143  1  -0.00459493  0.49943083  0.00600651  1
  Te2-  Te144  1  -0.00345898  0.49525147  0.33055580  1
  Te2-  Te145  1  0.00263118  0.50234393  0.65816821  1
  Te2-  Te146  1  -0.00997710  0.83212007  -0.00490782  1
  Te2-  Te147  1  -0.00336315  0.83643145  0.32364264  1
  Te2-  Te148  1  -0.00117040  0.82621087  0.66827267  1
  Te2-  Te149  1  0.32093510  0.16331375  0.00407408  1
  Te2-  Te150  1  0.32751277  0.16433823  0.33131147  1
  Te2-  Te151  1  0.32789794  0.16725774  0.66189183  1
  Te2-  Te152  1  0.33014992  0.50215053  -0.01511970  1
  Te2-  Te153  1  0.33712951  0.49060776  0.33115740  1
  Te2-  Te154  1  0.32569406  0.49624424  0.67752871  1
  Te2-  Te155  1  0.33483171  0.82877147  0.00365101  1
  Te2-  Te156  1  0.32662051  0.83842593  0.33313925  1
  Te2-  Te157  1  0.32527070  0.83284523  0.65988739  1
  Te2-  Te158  1  0.65907774  0.15515586  -0.01122399  1
  Te2-  Te159  1  0.67008204  0.16685319  0.33292858  1
  Te2-  Te160  1  0.66795865  0.16357416  0.66856899  1
  Te2-  Te161  1  0.66898957  0.50910586  0.00886766  1
  Te2-  Te162  1  0.67007058  0.50120745  0.32282646  1
  Te2-  Te163  1  0.66993768  0.50164727  0.66637130  1
  Te2-  Te164  1  0.67905774  0.83024332  0.00384822  1
  Te2-  Te165  1  0.67636436  0.82975787  0.32770985  1
  Te2-  Te166  1  0.67455477  0.82796641  0.66345060  1
  Te2-  Te167  1  -0.00533898  0.00778700  0.16670196  1
  Te2-  Te168  1  -0.00180297  -0.01215632  0.49425354  1
  Te2-  Te169  1  -0.00139764  -0.00917693  0.83429416  1
  Te2-  Te170  1  0.00537080  0.33097571  0.17033490  1
  Te2-  Te171  1  -0.00046748  0.33729964  0.49737306  1
  Te2-  Te172  1  0.00629384  0.33673191  0.82617731  1
  Te2-  Te173  1  0.00703886  0.66009012  0.16824474  1
  Te2-  Te174  1  -0.00496686  0.66814292  0.49402922  1
  Te2-  Te175  1  -0.00671312  0.67047191  0.83799157  1
  Te2-  Te176  1  0.34810853  0.00017630  0.17368128  1
  Te2-  Te177  1  0.33012062  -0.00292466  0.49358490  1
  Te2-  Te178  1  0.34008965  -0.00196965  0.83150192  1
  Te2-  Te179  1  0.33117698  0.33087602  0.16410490  1
  Te2-  Te180  1  0.32788981  0.33218037  0.49482114  1
  Te2-  Te181  1  0.32060241  0.33152895  0.83745564  1
  Te2-  Te182  1  0.33145788  0.66950279  0.18186571  1
  Te2-  Te183  1  0.33385426  0.66974970  0.48637657  1
  Te2-  Te184  1  0.34346701  0.66376312  0.82908272  1
  Te2-  Te185  1  0.65628351  -0.00837118  0.17603535  1
  Te2-  Te186  1  0.67331800  0.00195569  0.48590190  1
  Te2-  Te187  1  0.66666163  -0.01353793  0.83584173  1
  Te2-  Te188  1  0.66447481  0.32914056  0.15203760  1
  Te2-  Te189  1  0.66848883  0.32717390  0.50059912  1
  Te2-  Te190  1  0.67149808  0.32651587  0.84514323  1
  Te2-  Te191  1  0.65911719  0.68070098  0.16954486  1
  Te2-  Te192  1  0.66792995  0.66352304  0.49619569  1
  Te2-  Te193  1  0.65674408  0.67754934  0.84216712  1
  Pb2+  Pb194  1  0.33917252  0.50389428  0.15731522  1
  Pb2+  Pb195  1  0.82697440  0.66887434  0.84010804  1
  Pb2+  Pb196  1  0.49955223  0.50964356  0.66802269  1
  Pb2+  Pb197  1  0.33688780  -0.00102436  0.00120259  1
  Pb2+  Pb198  1  0.32860187  0.49949076  0.50199570  1
  Pb2+  Pb199  1  0.32652372  0.16573727  0.83188263  1
  Pb2+  Pb200  1  0.67257022  0.49984233  0.84252669  1
  Pb2+  Pb201  1  0.66841890  0.83236800  0.49739393  1
  Pb2+  Pb202  1  0.33011650  0.82992210  0.82947057  1
  Pb2+  Pb203  1  0.49895987  0.16053809  0.32478646  1
  Pb2+  Pb204  1  0.16465898  0.00728665  0.49511756  1
  Pb2+  Pb205  1  0.00044822  -0.00072856  0.66762193  1
  Pb2+  Pb206  1  -0.00027898  0.33323552  -0.00429616  1
  Pb2+  Pb207  1  0.83601867  0.50420629  0.66413988  1
  Pb2+  Pb208  1  0.66798927  0.33336297  0.67392211  1
  Pb2+  Pb209  1  0.66415911  -0.00416110  0.66603472  1
  Pb2+  Pb210  1  0.16172356  0.66409175  0.50597253  1
  Pb2+  Pb211  1  0.67321956  0.33360839  0.32827670  1
  Pb2+  Pb212  1  0.33501755  0.66623570  0.66127544  1
  Pb2+  Pb213  1  0.49703585  0.32515469  0.50101800  1
  Pb2+  Pb214  1  0.66679686  0.15875042  0.16194153  1
  Pb2+  Pb215  1  0.49584997  0.32766931  0.83610376  1
