# generated using pymatgen
data_In22Ag21Sn22Bi21(Te54Pb11)2
_symmetry_space_group_name_H-M   'P 1'
_cell_length_a   19.20745962
_cell_length_b   19.25066468
_cell_length_c   19.22161742
_cell_angle_alpha   89.99121830
_cell_angle_beta   90.02049924
_cell_angle_gamma   90.00633543
_symmetry_Int_Tables_number   1
_chemical_formula_structural   In22Ag21Sn22Bi21(Te54Pb11)2
_chemical_formula_sum   'In22 Ag21 Sn22 Bi21 Te108 Pb22'
_cell_volume   7107.31479380
_cell_formula_units_Z   1
loop_
 _symmetry_equiv_pos_site_id
 _symmetry_equiv_pos_as_xyz
  1  'x, y, z'
loop_
 _atom_type_symbol
 _atom_type_oxidation_number
  In3+  3.0
  Ag+  1.0
  Sn2+  2.0
  Bi3+  3.0
  Te2-  -2.0
  Pb2+  2.0
loop_
 _atom_site_type_symbol
 _atom_site_label
 _atom_site_symmetry_multiplicity
 _atom_site_fract_x
 _atom_site_fract_y
 _atom_site_fract_z
 _atom_site_occupancy
  In3+  In0  1  0.65541203  0.31795567  0.66805216  1
  In3+  In1  1  -0.00275464  -0.02311130  0.33177820  1
  In3+  In2  1  0.34661259  0.52114013  0.83315631  1
  In3+  In3  1  0.67239088  0.68229408  0.66517102  1
  In3+  In4  1  0.32728135  0.00224146  -0.02292965  1
  In3+  In5  1  -0.00758335  0.17638468  0.82797577  1
  In3+  In6  1  0.35839754  0.00207088  0.66098254  1
  In3+  In7  1  0.50518472  -0.00026333  0.82329894  1
  In3+  In8  1  0.82788216  0.83893580  0.31884349  1
  In3+  In9  1  0.16527148  0.00011611  0.81069715  1
  In3+  In10  1  0.83520568  0.68754780  0.49458318  1
  In3+  In11  1  0.83196384  0.33138869  0.51538207  1
  In3+  In12  1  0.52860008  0.52284962  0.66654517  1
  In3+  In13  1  0.83158841  0.35590627  0.16839311  1
  In3+  In14  1  0.15738389  0.20234185  0.33458713  1
  In3+  In15  1  0.34776222  0.66279261  0.31423426  1
  In3+  In16  1  -0.00983600  -0.00690737  0.69131725  1
  In3+  In17  1  0.33895049  0.82568817  0.84080806  1
  In3+  In18  1  0.00416837  0.50378888  0.84816456  1
  In3+  In19  1  0.16643961  0.50830661  0.69324439  1
  In3+  In20  1  0.66989958  0.15581113  0.17622973  1
  In3+  In21  1  0.48966119  0.16771047  0.34169533  1
  Ag+  Ag22  1  0.53369554  0.35254242  0.15922684  1
  Ag+  Ag23  1  -0.01670164  0.86564767  0.50044163  1
  Ag+  Ag24  1  0.69381872  0.13848110  0.82860330  1
  Ag+  Ag25  1  0.65673454  -0.01910541  0.64757733  1
  Ag+  Ag26  1  0.50055774  0.53397044  0.02491514  1
  Ag+  Ag27  1  0.46790412  0.81399885  0.63307646  1
  Ag+  Ag28  1  0.80826433  -0.00716079  0.19226753  1
  Ag+  Ag29  1  0.14632643  0.51055875  0.35925312  1
  Ag+  Ag30  1  0.36466450  0.36545312  0.68784695  1
  Ag+  Ag31  1  0.63570898  0.45920559  0.13412831  1
  Ag+  Ag32  1  0.20394573  0.52206569  -0.00253399  1
  Ag+  Ag33  1  0.49388242  -0.01857934  0.52576078  1
  Ag+  Ag34  1  0.66484388  0.14324712  0.47515026  1
  Ag+  Ag35  1  0.64308847  0.03948481  0.36113795  1
  Ag+  Ag36  1  0.46867843  0.63528769  0.48239471  1
  Ag+  Ag37  1  0.52214427  0.64222080  0.13558439  1
  Ag+  Ag38  1  0.81220189  0.47094690  0.33069777  1
  Ag+  Ag39  1  0.80344046  -0.02280254  0.83405421  1
  Ag+  Ag40  1  0.16023009  0.64423028  0.84388872  1
  Ag+  Ag41  1  0.30601280  0.63439080  0.02511697  1
  Ag+  Ag42  1  -0.02238398  0.33849000  0.31966703  1
  Sn2+  Sn43  1  0.00363825  0.83035873  0.82547471  1
  Sn2+  Sn44  1  0.66790623  0.34014814  0.33716614  1
  Sn2+  Sn45  1  0.84269525  0.16326226  0.32858601  1
  Sn2+  Sn46  1  0.33070911  0.49930810  0.50140230  1
  Sn2+  Sn47  1  0.83095570  0.84575038  -0.00381687  1
  Sn2+  Sn48  1  0.50371562  0.16868442  0.66492883  1
  Sn2+  Sn49  1  0.16129124  0.66656974  0.49961895  1
  Sn2+  Sn50  1  0.50655579  0.32916308  0.48908274  1
  Sn2+  Sn51  1  -0.01433545  0.16587721  0.49572194  1
  Sn2+  Sn52  1  0.82337910  0.00605303  0.50773051  1
  Sn2+  Sn53  1  0.66388342  0.66169827  0.00804344  1
  Sn2+  Sn54  1  0.50600799  0.84009709  0.33992832  1
  Sn2+  Sn55  1  0.00881561  0.49805256  0.17562888  1
  Sn2+  Sn56  1  0.50200212  0.83945839  0.00719031  1
  Sn2+  Sn57  1  0.66477047  0.00521717  0.00266726  1
  Sn2+  Sn58  1  0.16961805  0.83145218  0.67021917  1
  Sn2+  Sn59  1  -0.00329257  -0.00073354  0.00729206  1
  Sn2+  Sn60  1  0.66696022  0.83372398  0.50038980  1
  Sn2+  Sn61  1  0.65889151  0.32819857  -0.00311812  1
  Sn2+  Sn62  1  0.17186463  0.32864496  0.82834965  1
  Sn2+  Sn63  1  0.00197265  0.33457012  0.00452989  1
  Sn2+  Sn64  1  0.16593852  0.83053446  -0.00306093  1
  Bi3+  Bi65  1  0.16660129  0.82111786  0.33716538  1
  Bi3+  Bi66  1  0.00526661  0.33051383  0.66557053  1
  Bi3+  Bi67  1  0.50367195  0.16438832  -0.00096826  1
  Bi3+  Bi68  1  0.66829096  0.50173863  0.83823219  1
  Bi3+  Bi69  1  -0.00050244  0.49375624  0.49730450  1
  Bi3+  Bi70  1  0.16660384  0.33686789  0.16354261  1
  Bi3+  Bi71  1  0.83003564  0.16509071  0.66420781  1
  Bi3+  Bi72  1  0.66292904  0.67186494  0.33927143  1
  Bi3+  Bi73  1  0.33066551  0.66827827  0.66857052  1
  Bi3+  Bi74  1  0.50061352  0.00090985  0.16529600  1
  Bi3+  Bi75  1  0.34108029  0.17138932  0.50068862  1
  Bi3+  Bi76  1  0.82955290  0.16265874  0.00053301  1
  Bi3+  Bi77  1  0.82506700  0.66933897  0.17026152  1
  Bi3+  Bi78  1  0.83595738  0.83781625  0.66704227  1
  Bi3+  Bi79  1  0.33240007  0.83455934  0.16082820  1
  Bi3+  Bi80  1  0.16525725  0.16700395  0.66364683  1
  Bi3+  Bi81  1  0.32805644  0.16529896  0.82801185  1
  Bi3+  Bi82  1  0.16336674  0.16339146  0.00432751  1
  Bi3+  Bi83  1  0.16713423  0.00029929  0.16990504  1
  Bi3+  Bi84  1  0.33893791  0.33936702  0.33427459  1
  Bi3+  Bi85  1  0.66971306  0.49831997  0.50017096  1
  Te2-  Te86  1  0.16624537  0.16704654  0.16952980  1
  Te2-  Te87  1  0.17394200  0.16742575  0.49810906  1
  Te2-  Te88  1  0.16509134  0.15825182  0.83426206  1
  Te2-  Te89  1  0.16777555  0.49727920  0.14310530  1
  Te2-  Te90  1  0.16369775  0.50200630  0.50505300  1
  Te2-  Te91  1  0.16352463  0.49685027  0.84463659  1
  Te2-  Te92  1  0.16974450  0.83132545  0.16964979  1
  Te2-  Te93  1  0.17005192  0.82826541  0.49812614  1
  Te2-  Te94  1  0.16419594  0.84738159  0.83004302  1
  Te2-  Te95  1  0.51147598  0.16191296  0.15950906  1
  Te2-  Te96  1  0.51189103  0.16979908  0.49490428  1
  Te2-  Te97  1  0.48932082  0.15808433  0.83583884  1
  Te2-  Te98  1  0.49877604  0.50058765  0.16928576  1
  Te2-  Te99  1  0.50411060  0.49674715  0.51473215  1
  Te2-  Te100  1  0.50228532  0.50003758  0.81771667  1
  Te2-  Te101  1  0.49286202  0.83881585  0.17400474  1
  Te2-  Te102  1  0.50328610  0.83991854  0.49522074  1
  Te2-  Te103  1  0.49070597  0.84454468  0.83379092  1
  Te2-  Te104  1  0.82622606  0.14166219  0.15897037  1
  Te2-  Te105  1  0.81670341  0.17077129  0.50298870  1
  Te2-  Te106  1  0.83873995  0.17064598  0.83408206  1
  Te2-  Te107  1  0.83711081  0.50771278  0.17965228  1
  Te2-  Te108  1  0.83343422  0.48339292  0.48577148  1
  Te2-  Te109  1  0.83485604  0.50329858  0.83536818  1
  Te2-  Te110  1  0.83395162  0.84022018  0.16537904  1
  Te2-  Te111  1  0.83933358  0.83789449  0.50614809  1
  Te2-  Te112  1  0.83965440  0.83417130  0.82926581  1
  Te2-  Te113  1  0.16597650  0.00302948  0.00914051  1
  Te2-  Te114  1  0.16642472  -0.01152719  0.33084630  1
  Te2-  Te115  1  0.15216208  0.00496629  0.65852983  1
  Te2-  Te116  1  0.16304421  0.32352698  -0.00095544  1
  Te2-  Te117  1  0.17775887  0.35619505  0.32721028  1
  Te2-  Te118  1  0.16621713  0.32663645  0.66578969  1
  Te2-  Te119  1  0.16929381  0.66983950  -0.00989037  1
  Te2-  Te120  1  0.17335947  0.65794534  0.33287626  1
  Te2-  Te121  1  0.16932432  0.66564459  0.67455152  1
  Te2-  Te122  1  0.49455135  0.00314566  0.00300328  1
  Te2-  Te123  1  0.50481060  0.01184682  0.32756854  1
  Te2-  Te124  1  0.51308250  0.00291027  0.66892688  1
  Te2-  Te125  1  0.50265972  0.32451025  0.01202669  1
  Te2-  Te126  1  0.49983001  0.32511592  0.31900100  1
  Te2-  Te127  1  0.50133398  0.32660172  0.66305217  1
  Te2-  Te128  1  0.50819933  0.67978007  -0.00513753  1
  Te2-  Te129  1  0.49883658  0.66999500  0.34447632  1
  Te2-  Te130  1  0.49606599  0.67321087  0.66184758  1
  Te2-  Te131  1  0.83250926  0.00270337  -0.01711584  1
  Te2-  Te132  1  0.84158278  -0.00666347  0.33534429  1
  Te2-  Te133  1  0.83725159  0.00283845  0.68177385  1
  Te2-  Te134  1  0.83278501  0.32847895  0.01298762  1
  Te2-  Te135  1  0.83088040  0.32625176  0.31751491  1
  Te2-  Te136  1  0.84128147  0.32983137  0.67082741  1
  Te2-  Te137  1  0.82823995  0.67019439  0.00664807  1
  Te2-  Te138  1  0.82757454  0.67959806  0.33365641  1
  Te2-  Te139  1  0.83131895  0.67124345  0.66300837  1
  Te2-  Te140  1  -0.00117563  0.16692594  -0.00370224  1
  Te2-  Te141  1  0.00267678  0.18969416  0.33720867  1
  Te2-  Te142  1  0.00010085  0.16487122  0.66554088  1
  Te2-  Te143  1  -0.00656607  0.49478903  -0.00057181  1
  Te2-  Te144  1  0.00323866  0.48810410  0.33562669  1
  Te2-  Te145  1  0.00729405  0.49466688  0.66736804  1
  Te2-  Te146  1  -0.00069248  0.83560116  -0.00328896  1
  Te2-  Te147  1  0.00374097  0.82580857  0.34734244  1
  Te2-  Te148  1  -0.00058644  0.84183737  0.65285216  1
  Te2-  Te149  1  0.32921681  0.16414882  -0.00398134  1
  Te2-  Te150  1  0.33439560  0.16844257  0.33866511  1
  Te2-  Te151  1  0.32853408  0.15989513  0.66276212  1
  Te2-  Te152  1  0.35191766  0.50210539  -0.01550429  1
  Te2-  Te153  1  0.33867572  0.50526218  0.33847683  1
  Te2-  Te154  1  0.32198246  0.50302310  0.67562648  1
  Te2-  Te155  1  0.33208038  0.83951523  -0.00387670  1
  Te2-  Te156  1  0.33157048  0.82304721  0.33027394  1
  Te2-  Te157  1  0.32972265  0.84141448  0.67232918  1
  Te2-  Te158  1  0.66777732  0.16728019  -0.02106774  1
  Te2-  Te159  1  0.67675552  0.17646807  0.32845038  1
  Te2-  Te160  1  0.67194602  0.16918784  0.68243093  1
  Te2-  Te161  1  0.65432365  0.50066697  -0.00408918  1
  Te2-  Te162  1  0.66957356  0.50600193  0.33873788  1
  Te2-  Te163  1  0.67691168  0.49671681  0.66633934  1
  Te2-  Te164  1  0.66953128  0.83630732  0.00029613  1
  Te2-  Te165  1  0.67338070  0.83407880  0.33627884  1
  Te2-  Te166  1  0.67232282  0.83616239  0.66752952  1
  Te2-  Te167  1  0.00579821  0.00213198  0.17764563  1
  Te2-  Te168  1  -0.00535987  0.01043443  0.48418008  1
  Te2-  Te169  1  0.01009970  0.00008142  0.83877877  1
  Te2-  Te170  1  0.00306074  0.33607413  0.17065341  1
  Te2-  Te171  1  -0.00507026  0.33179687  0.50406358  1
  Te2-  Te172  1  0.00434188  0.33290832  0.83029004  1
  Te2-  Te173  1  -0.00403410  0.66718192  0.16782567  1
  Te2-  Te174  1  -0.00817673  0.65574654  0.50068040  1
  Te2-  Te175  1  0.00915744  0.66105805  0.83136247  1
  Te2-  Te176  1  0.33171870  -0.00178184  0.17209177  1
  Te2-  Te177  1  0.34690009  0.00663829  0.50607395  1
  Te2-  Te178  1  0.32841679  0.00340998  0.81913447  1
  Te2-  Te179  1  0.32901103  0.33049946  0.16864631  1
  Te2-  Te180  1  0.33980998  0.33188606  0.49506428  1
  Te2-  Te181  1  0.33361757  0.32653996  0.82598675  1
  Te2-  Te182  1  0.34284909  0.67187301  0.16068457  1
  Te2-  Te183  1  0.32862300  0.66224741  0.51002289  1
  Te2-  Te184  1  0.32459915  0.67332429  0.83150648  1
  Te2-  Te185  1  0.66448196  0.00155860  0.16578490  1
  Te2-  Te186  1  0.66839966  -0.00129911  0.50184436  1
  Te2-  Te187  1  0.65773667  -0.00286093  0.83885232  1
  Te2-  Te188  1  0.68081441  0.32315810  0.16522707  1
  Te2-  Te189  1  0.67040535  0.33780137  0.50846320  1
  Te2-  Te190  1  0.66531476  0.34148316  0.82846365  1
  Te2-  Te191  1  0.66393518  0.66391548  0.17409333  1
  Te2-  Te192  1  0.67562919  0.66156359  0.50380951  1
  Te2-  Te193  1  0.66724471  0.66303215  0.82537961  1
  Pb2+  Pb194  1  0.33382932  0.49674741  0.16442661  1
  Pb2+  Pb195  1  0.33594231  0.82983278  0.49997212  1
  Pb2+  Pb196  1  0.50148900  0.32781973  0.83699326  1
  Pb2+  Pb197  1  0.49764649  0.67111487  0.82918872  1
  Pb2+  Pb198  1  0.00106291  0.83467941  0.16807096  1
  Pb2+  Pb199  1  -0.00767537  0.16975262  0.16743973  1
  Pb2+  Pb200  1  0.83312129  0.33717402  0.84392372  1
  Pb2+  Pb201  1  0.84122321  0.50035338  0.65615886  1
  Pb2+  Pb202  1  -0.00119914  0.65425047  0.33454629  1
  Pb2+  Pb203  1  0.00308469  0.66903936  0.66483488  1
  Pb2+  Pb204  1  0.82532985  0.50184280  0.01028251  1
  Pb2+  Pb205  1  0.65998312  0.82958904  0.16791121  1
  Pb2+  Pb206  1  0.16564383  0.00015508  0.49398108  1
  Pb2+  Pb207  1  0.00130493  0.66411430  0.00117361  1
  Pb2+  Pb208  1  0.33866707  -0.00557834  0.33851042  1
  Pb2+  Pb209  1  0.16989561  0.66028613  0.16541257  1
  Pb2+  Pb210  1  0.33237262  0.33429816  -0.00425904  1
  Pb2+  Pb211  1  0.34043718  0.16578410  0.16718486  1
  Pb2+  Pb212  1  0.66148066  0.83192547  0.83403948  1
  Pb2+  Pb213  1  0.16792834  0.33675197  0.49778574  1
  Pb2+  Pb214  1  0.83824757  0.66846391  0.83582170  1
  Pb2+  Pb215  1  0.50528063  0.49765658  0.33698176  1
