# generated using pymatgen
data_In22Ag21Sn22Bi21(Te54Pb11)2
_symmetry_space_group_name_H-M   'P 1'
_cell_length_a   19.10566325
_cell_length_b   19.12550949
_cell_length_c   19.12171176
_cell_angle_alpha   90.00926237
_cell_angle_beta   89.97723681
_cell_angle_gamma   89.98771555
_symmetry_Int_Tables_number   1
_chemical_formula_structural   In22Ag21Sn22Bi21(Te54Pb11)2
_chemical_formula_sum   'In22 Ag21 Sn22 Bi21 Te108 Pb22'
_cell_volume   6987.17867822
_cell_formula_units_Z   1
loop_
 _symmetry_equiv_pos_site_id
 _symmetry_equiv_pos_as_xyz
  1  'x, y, z'
loop_
 _atom_type_symbol
 _atom_type_oxidation_number
  In3+  3.0
  Ag+  1.0
  Sn2+  2.0
  Bi3+  3.0
  Te2-  -2.0
  Pb2+  2.0
loop_
 _atom_site_type_symbol
 _atom_site_label
 _atom_site_symmetry_multiplicity
 _atom_site_fract_x
 _atom_site_fract_y
 _atom_site_fract_z
 _atom_site_occupancy
  In3+  In0  1  -0.00563672  0.67150266  0.31933389  1
  In3+  In1  1  0.51516438  0.83441624  0.02204539  1
  In3+  In2  1  0.82961384  0.16667233  0.34853254  1
  In3+  In3  1  0.34449734  0.00258036  0.33873028  1
  In3+  In4  1  0.33543779  0.49674059  0.47437109  1
  In3+  In5  1  0.81788948  0.33968129  0.16532780  1
  In3+  In6  1  0.83640239  0.82921150  0.00701422  1
  In3+  In7  1  0.00284735  0.48864118  0.84470796  1
  In3+  In8  1  0.15870983  0.66924704  0.85157906  1
  In3+  In9  1  0.01049504  0.01038869  0.66908298  1
  In3+  In10  1  0.82641125  0.00491440  0.82339300  1
  In3+  In11  1  0.66891827  0.64900334  0.63282130  1
  In3+  In12  1  0.67133285  0.17387163  0.50126681  1
  In3+  In13  1  0.17560008  0.83203872  0.33356707  1
  In3+  In14  1  0.82604421  0.00288827  0.15782488  1
  In3+  In15  1  0.33427651  0.17443121  0.49972271  1
  In3+  In16  1  0.33153359  0.17444007  0.15351780  1
  In3+  In17  1  0.17235293  0.00121941  0.16410966  1
  In3+  In18  1  0.66922829  0.00100524  0.33211827  1
  In3+  In19  1  0.82816335  0.83560149  0.33674766  1
  In3+  In20  1  0.82863671  0.16507453  0.01762353  1
  In3+  In21  1  0.66116870  0.47918614  0.48801653  1
  Ag+  Ag22  1  0.81115280  0.15786816  0.66588171  1
  Ag+  Ag23  1  0.49070090  0.31265627  0.50027615  1
  Ag+  Ag24  1  0.16605887  0.64065389  0.18366110  1
  Ag+  Ag25  1  0.16728400  0.81547339  0.63639694  1
  Ag+  Ag26  1  0.67993953  -0.00049368  -0.02343653  1
  Ag+  Ag27  1  -0.00348561  0.64768815  0.01970411  1
  Ag+  Ag28  1  0.66970412  0.52983188  0.14643963  1
  Ag+  Ag29  1  0.35628737  0.19432316  0.85589262  1
  Ag+  Ag30  1  0.16613007  0.48269628  -0.00415986  1
  Ag+  Ag31  1  0.67507937  0.31526863  0.69098145  1
  Ag+  Ag32  1  0.68518251  0.16153703  0.14633272  1
  Ag+  Ag33  1  0.02732242  0.16534899  0.48408682  1
  Ag+  Ag34  1  0.47474869  0.00720768  0.86367033  1
  Ag+  Ag35  1  -0.00380880  0.31134903  0.01988522  1
  Ag+  Ag36  1  0.68904566  0.64521312  0.32750166  1
  Ag+  Ag37  1  0.52803411  0.81286710  0.33840645  1
  Ag+  Ag38  1  0.64615538  0.30460777  0.32987856  1
  Ag+  Ag39  1  0.34060051  0.83371522  0.47729482  1
  Ag+  Ag40  1  0.35801562  0.31416983  0.02494939  1
  Ag+  Ag41  1  0.30704320  0.47426495  0.15821317  1
  Ag+  Ag42  1  0.18027150  0.18968354  0.02080295  1
  Sn2+  Sn43  1  0.16481264  0.32928427  0.84398752  1
  Sn2+  Sn44  1  -0.00174503  0.49514748  0.15699267  1
  Sn2+  Sn45  1  0.16839307  0.66651539  0.50087216  1
  Sn2+  Sn46  1  0.17061145  0.00199413  0.83763377  1
  Sn2+  Sn47  1  0.66272286  0.83954796  0.16467357  1
  Sn2+  Sn48  1  0.51141798  0.34003248  0.17259782  1
  Sn2+  Sn49  1  0.49069208  0.83661071  0.66165092  1
  Sn2+  Sn50  1  0.83460883  0.32089632  0.83313790  1
  Sn2+  Sn51  1  0.16184718  0.16721633  0.33078459  1
  Sn2+  Sn52  1  0.16579944  0.83221752  0.00352487  1
  Sn2+  Sn53  1  0.16100743  0.33737886  0.15492275  1
  Sn2+  Sn54  1  0.83533942  0.67443285  0.83383449  1
  Sn2+  Sn55  1  0.50093916  0.16772810  0.32987874  1
  Sn2+  Sn56  1  0.83714021  0.00831368  0.50063951  1
  Sn2+  Sn57  1  0.32842899  0.49344102  0.84895264  1
  Sn2+  Sn58  1  -0.00218009  0.00527088  -0.00120985  1
  Sn2+  Sn59  1  0.67051049  -0.00065421  0.66352786  1
  Sn2+  Sn60  1  0.84007926  0.83615098  0.66746914  1
  Sn2+  Sn61  1  0.83454683  0.48301542  0.67326674  1
  Sn2+  Sn62  1  0.34628276  0.32896806  0.32761254  1
  Sn2+  Sn63  1  0.33456166  -0.00239969  0.66716901  1
  Sn2+  Sn64  1  0.49472798  0.66884541  0.49842594  1
  Bi3+  Bi65  1  -0.00500866  0.00185389  0.33541745  1
  Bi3+  Bi66  1  0.00406825  0.16667975  0.83239893  1
  Bi3+  Bi67  1  0.49970090  0.67363065  0.83340444  1
  Bi3+  Bi68  1  -0.00190686  0.67090647  0.66770927  1
  Bi3+  Bi69  1  0.83306871  0.33428400  0.49781749  1
  Bi3+  Bi70  1  0.16918227  0.16651426  0.67100988  1
  Bi3+  Bi71  1  0.33523861  0.66894675  0.66622697  1
  Bi3+  Bi72  1  0.32393473  0.66617149  0.00236572  1
  Bi3+  Bi73  1  0.50245305  0.00431770  0.16795424  1
  Bi3+  Bi74  1  0.32758421  0.66741650  0.33315472  1
  Bi3+  Bi75  1  0.50128290  0.50434848  0.33209538  1
  Bi3+  Bi76  1  0.00188655  0.33528343  0.33127943  1
  Bi3+  Bi77  1  0.49878630  0.50149774  0.66453236  1
  Bi3+  Bi78  1  0.33280402  0.83072930  0.83347889  1
  Bi3+  Bi79  1  0.49912807  0.00005463  0.50138304  1
  Bi3+  Bi80  1  0.33235262  0.83570019  0.16360565  1
  Bi3+  Bi81  1  0.49685428  0.16634690  0.66623688  1
  Bi3+  Bi82  1  0.00248484  0.83526339  0.83103223  1
  Bi3+  Bi83  1  0.83099866  0.49336993  0.33556574  1
  Bi3+  Bi84  1  0.66044186  0.83767559  0.50099673  1
  Bi3+  Bi85  1  0.33753881  0.33611639  0.66437897  1
  Te2-  Te86  1  0.17307886  0.16302414  0.16588542  1
  Te2-  Te87  1  0.17382306  0.16737432  0.50203621  1
  Te2-  Te88  1  0.16421647  0.16323055  0.83202622  1
  Te2-  Te89  1  0.16021033  0.49580862  0.15493049  1
  Te2-  Te90  1  0.17273940  0.50336098  0.49697776  1
  Te2-  Te91  1  0.15957894  0.50360727  0.84301652  1
  Te2-  Te92  1  0.16852902  0.84409167  0.17329629  1
  Te2-  Te93  1  0.16938895  0.83294767  0.48998806  1
  Te2-  Te94  1  0.16667127  0.83114326  0.83972793  1
  Te2-  Te95  1  0.48778924  0.16691029  0.17103849  1
  Te2-  Te96  1  0.49618423  0.16361969  0.49947765  1
  Te2-  Te97  1  0.49482676  0.15389633  0.83025873  1
  Te2-  Te98  1  0.52091256  0.49803627  0.17099098  1
  Te2-  Te99  1  0.49992864  0.50791030  0.49872842  1
  Te2-  Te100  1  0.49956171  0.50459911  0.83067404  1
  Te2-  Te101  1  0.49662898  0.83990478  0.18425996  1
  Te2-  Te102  1  0.49507581  0.83751309  0.49067550  1
  Te2-  Te103  1  0.49490513  0.83650741  0.82678578  1
  Te2-  Te104  1  0.83147568  0.16147094  0.17180355  1
  Te2-  Te105  1  0.82703298  0.17054037  0.51034062  1
  Te2-  Te106  1  0.83955677  0.16222954  0.81634047  1
  Te2-  Te107  1  0.81942831  0.49645002  0.17248619  1
  Te2-  Te108  1  0.82669516  0.49919291  0.50161239  1
  Te2-  Te109  1  0.84343663  0.49806995  0.83183837  1
  Te2-  Te110  1  0.82996354  0.84010542  0.16807046  1
  Te2-  Te111  1  0.82827720  0.83956524  0.49876110  1
  Te2-  Te112  1  0.83757040  0.84490335  0.83313841  1
  Te2-  Te113  1  0.16313502  0.00059603  0.00836401  1
  Te2-  Te114  1  0.15585529  -0.00090723  0.32447013  1
  Te2-  Te115  1  0.16555872  0.00310799  0.66619691  1
  Te2-  Te116  1  0.14913414  0.33079135  -0.00016271  1
  Te2-  Te117  1  0.16501213  0.33076539  0.32878642  1
  Te2-  Te118  1  0.17170737  0.33393679  0.66849912  1
  Te2-  Te119  1  0.15958613  0.67405670  0.00203983  1
  Te2-  Te120  1  0.16224507  0.67208798  0.33012785  1
  Te2-  Te121  1  0.16888964  0.67152374  0.66650875  1
  Te2-  Te122  1  0.50734155  -0.00485637  0.00631723  1
  Te2-  Te123  1  0.49909663  0.00200954  0.33325911  1
  Te2-  Te124  1  0.50044430  0.00161152  0.66342233  1
  Te2-  Te125  1  0.49990084  0.33404128  -0.00055874  1
  Te2-  Te126  1  0.50100836  0.33948010  0.34588287  1
  Te2-  Te127  1  0.50194258  0.33543736  0.65459271  1
  Te2-  Te128  1  0.49640388  0.67080260  -0.00252815  1
  Te2-  Te129  1  0.48986469  0.66929547  0.33404101  1
  Te2-  Te130  1  0.50205365  0.66853066  0.66908488  1
  Te2-  Te131  1  0.82717480  0.00710811  0.00271751  1
  Te2-  Te132  1  0.83297578  0.00387746  0.33271593  1
  Te2-  Te133  1  0.83428977  0.00663983  0.66730138  1
  Te2-  Te134  1  0.84173502  0.32301557  0.00571776  1
  Te2-  Te135  1  0.83871175  0.33000061  0.33162959  1
  Te2-  Te136  1  0.82130073  0.32794620  0.66229027  1
  Te2-  Te137  1  0.84627604  0.67295116  -0.00131235  1
  Te2-  Te138  1  0.83761967  0.66456116  0.33402133  1
  Te2-  Te139  1  0.83050766  0.66888329  0.67318227  1
  Te2-  Te140  1  -0.00819396  0.16455524  -0.00538611  1
  Te2-  Te141  1  -0.00595211  0.16874899  0.33792192  1
  Te2-  Te142  1  0.00699100  0.16465910  0.66759295  1
  Te2-  Te143  1  0.00763379  0.50301503  -0.00328402  1
  Te2-  Te144  1  -0.00418471  0.50151850  0.33139690  1
  Te2-  Te145  1  -0.00039417  0.50505571  0.66793599  1
  Te2-  Te146  1  -0.00763387  0.84013647  -0.00545321  1
  Te2-  Te147  1  -0.01298655  0.83384119  0.33349884  1
  Te2-  Te148  1  0.00982481  0.83654401  0.66743045  1
  Te2-  Te149  1  0.32591393  0.17182903  -0.00113149  1
  Te2-  Te150  1  0.32874606  0.16092630  0.34414241  1
  Te2-  Te151  1  0.33453773  0.16932054  0.66047747  1
  Te2-  Te152  1  0.32014474  0.50480941  0.00840492  1
  Te2-  Te153  1  0.33592267  0.50341231  0.31162229  1
  Te2-  Te154  1  0.33715708  0.50327215  0.67074546  1
  Te2-  Te155  1  0.33377752  0.83154004  0.00085851  1
  Te2-  Te156  1  0.32918731  0.83454553  0.32814956  1
  Te2-  Te157  1  0.32059243  0.82943610  0.67080279  1
  Te2-  Te158  1  0.67451410  0.15633019  -0.00178610  1
  Te2-  Te159  1  0.67025907  0.15941436  0.34384169  1
  Te2-  Te160  1  0.66069860  0.17115337  0.65825774  1
  Te2-  Te161  1  0.67055994  0.50275809  0.00100992  1
  Te2-  Te162  1  0.66711853  0.50067715  0.33654123  1
  Te2-  Te163  1  0.66243957  0.50032921  0.65703747  1
  Te2-  Te164  1  0.67774841  0.84710682  0.00316096  1
  Te2-  Te165  1  0.67239250  0.84324107  0.33541477  1
  Te2-  Te166  1  0.66855254  0.83522344  0.66116172  1
  Te2-  Te167  1  -0.01378992  0.00185420  0.17027172  1
  Te2-  Te168  1  -0.00174817  0.01447684  0.49883087  1
  Te2-  Te169  1  -0.00029049  -0.00038604  0.82877312  1
  Te2-  Te170  1  -0.00791271  0.33481811  0.16706409  1
  Te2-  Te171  1  -0.00151641  0.32405560  0.49658085  1
  Te2-  Te172  1  -0.00411734  0.33430390  0.83348337  1
  Te2-  Te173  1  0.01190558  0.66561284  0.16605175  1
  Te2-  Te174  1  0.00187885  0.66772360  0.50594044  1
  Te2-  Te175  1  0.00261793  0.67289268  0.82859812  1
  Te2-  Te176  1  0.33363601  0.00309199  0.17396881  1
  Te2-  Te177  1  0.33709029  -0.01496495  0.49535388  1
  Te2-  Te178  1  0.33162414  -0.00656172  0.83285281  1
  Te2-  Te179  1  0.33531257  0.32975242  0.16832357  1
  Te2-  Te180  1  0.34214961  0.33561740  0.49937025  1
  Te2-  Te181  1  0.33176148  0.33566280  0.82751001  1
  Te2-  Te182  1  0.31858428  0.67361924  0.16674459  1
  Te2-  Te183  1  0.33120473  0.68026789  0.50028580  1
  Te2-  Te184  1  0.33369582  0.66454738  0.83384123  1
  Te2-  Te185  1  0.66717970  0.01049237  0.17625475  1
  Te2-  Te186  1  0.66483759  0.00236322  0.49476911  1
  Te2-  Te187  1  0.67289446  0.00051822  0.82894784  1
  Te2-  Te188  1  0.66734111  0.31128401  0.17862941  1
  Te2-  Te189  1  0.66982139  0.32787842  0.48245907  1
  Te2-  Te190  1  0.67056997  0.33557018  0.83584656  1
  Te2-  Te191  1  0.66588069  0.67682125  0.17672287  1
  Te2-  Te192  1  0.66390870  0.67629347  0.48209360  1
  Te2-  Te193  1  0.66527219  0.67004966  0.84021234  1
  Pb2+  Pb194  1  -0.00478520  0.33199095  0.66674612  1
  Pb2+  Pb195  1  0.17170407  0.33577616  0.49920172  1
  Pb2+  Pb196  1  -0.00266625  0.49682117  0.49982095  1
  Pb2+  Pb197  1  0.66662259  0.16733353  0.83075008  1
  Pb2+  Pb198  1  0.16687786  0.49898583  0.32358908  1
  Pb2+  Pb199  1  0.67010182  0.33252479  0.01057365  1
  Pb2+  Pb200  1  0.00202340  0.16752863  0.16600683  1
  Pb2+  Pb201  1  0.00103658  0.83509603  0.16215843  1
  Pb2+  Pb202  1  0.50410702  0.16522990  0.00163879  1
  Pb2+  Pb203  1  0.16894125  0.50581108  0.67353794  1
  Pb2+  Pb204  1  0.49154236  0.66639188  0.16772228  1
  Pb2+  Pb205  1  0.67035453  0.67194718  0.00942477  1
  Pb2+  Pb206  1  0.00043656  0.83993327  0.50086240  1
  Pb2+  Pb207  1  0.83269481  0.67057517  0.50424778  1
  Pb2+  Pb208  1  0.83731077  0.66675810  0.16625961  1
  Pb2+  Pb209  1  0.48989439  0.49968910  0.00418597  1
  Pb2+  Pb210  1  0.49949631  0.33116260  0.82487058  1
  Pb2+  Pb211  1  0.83942662  0.49521761  0.00117910  1
  Pb2+  Pb212  1  0.16931767  -0.00010062  0.49661228  1
  Pb2+  Pb213  1  0.33352187  0.00224585  0.00161147  1
  Pb2+  Pb214  1  0.67186547  0.50429273  0.83003671  1
  Pb2+  Pb215  1  0.66379091  0.83467880  0.83054068  1
