# generated using pymatgen
data_In22Ag21Sn22Bi21(Te54Pb11)2
_symmetry_space_group_name_H-M   'P 1'
_cell_length_a   19.22571030
_cell_length_b   19.21323233
_cell_length_c   19.22139073
_cell_angle_alpha   90.01280346
_cell_angle_beta   89.99666124
_cell_angle_gamma   90.00558796
_symmetry_Int_Tables_number   1
_chemical_formula_structural   In22Ag21Sn22Bi21(Te54Pb11)2
_chemical_formula_sum   'In22 Ag21 Sn22 Bi21 Te108 Pb22'
_cell_volume   7100.15160234
_cell_formula_units_Z   1
loop_
 _symmetry_equiv_pos_site_id
 _symmetry_equiv_pos_as_xyz
  1  'x, y, z'
loop_
 _atom_type_symbol
 _atom_type_oxidation_number
  In3+  3.0
  Ag+  1.0
  Sn2+  2.0
  Bi3+  3.0
  Te2-  -2.0
  Pb2+  2.0
loop_
 _atom_site_type_symbol
 _atom_site_label
 _atom_site_symmetry_multiplicity
 _atom_site_fract_x
 _atom_site_fract_y
 _atom_site_fract_z
 _atom_site_occupancy
  In3+  In0  1  0.18268885  0.00718047  0.16401477  1
  In3+  In1  1  0.82913553  0.84847535  0.64852708  1
  In3+  In2  1  0.51766167  0.34233198  0.81314995  1
  In3+  In3  1  0.66282841  0.49288997  0.86031365  1
  In3+  In4  1  -0.00218794  0.65598295  0.65331942  1
  In3+  In5  1  0.35627886  0.17797857  0.17097800  1
  In3+  In6  1  0.15212921  -0.00355642  0.52100482  1
  In3+  In7  1  0.68530281  0.33606427  0.64450572  1
  In3+  In8  1  0.66628190  0.66272078  0.34749535  1
  In3+  In9  1  0.33153129  0.17868048  0.81394899  1
  In3+  In10  1  0.83131789  0.00588069  0.15399200  1
  In3+  In11  1  0.69592653  0.83204018  0.16711109  1
  In3+  In12  1  0.51775344  0.80315345  0.00178765  1
  In3+  In13  1  0.00362895  0.68642607  0.00220489  1
  In3+  In14  1  0.17142216  0.53550059  0.66395834  1
  In3+  In15  1  0.49630448  -0.00501253  0.48108238  1
  In3+  In16  1  0.50571566  -0.01503812  0.15800282  1
  In3+  In17  1  0.01279901  0.13708162  0.17600993  1
  In3+  In18  1  0.48538127  0.83311017  0.65981352  1
  In3+  In19  1  0.35207090  0.33208108  0.00645183  1
  In3+  In20  1  0.16262429  0.30282293  0.50788369  1
  In3+  In21  1  0.50059462  0.31277127  0.48393073  1
  Ag+  Ag22  1  0.67364640  0.13576230  0.52755507  1
  Ag+  Ag23  1  0.02464492  0.29528552  0.63524426  1
  Ag+  Ag24  1  -0.03242290  0.19435989  0.52629840  1
  Ag+  Ag25  1  0.30508375  0.52750540  0.13077961  1
  Ag+  Ag26  1  0.86257850  0.20255531  0.63352145  1
  Ag+  Ag27  1  0.64024377  0.53235593  0.16249078  1
  Ag+  Ag28  1  0.85666232  0.02126300  0.50491723  1
  Ag+  Ag29  1  0.36009301  0.66777057  0.64624489  1
  Ag+  Ag30  1  0.68743358  0.83573787  0.80552638  1
  Ag+  Ag31  1  0.50360476  0.13996456  0.35148329  1
  Ag+  Ag32  1  0.69201538  0.29849795  0.36092304  1
  Ag+  Ag33  1  0.86250437  0.30633344  0.51293778  1
  Ag+  Ag34  1  0.47100449  0.49950044  0.02710632  1
  Ag+  Ag35  1  0.12264895  0.83630773  0.62883231  1
  Ag+  Ag36  1  0.50049606  0.64815627  0.47441525  1
  Ag+  Ag37  1  0.19123681  0.18637356  0.00671709  1
  Ag+  Ag38  1  0.84525650  0.83560506  -0.02243444  1
  Ag+  Ag39  1  0.30808309  0.69407978  0.00211774  1
  Ag+  Ag40  1  -0.00000779  0.83184557  0.18846459  1
  Ag+  Ag41  1  -0.00049001  0.83407298  0.52268809  1
  Ag+  Ag42  1  0.00202107  0.66787039  0.35546096  1
  Sn2+  Sn43  1  0.33607318  0.50535289  0.83610612  1
  Sn2+  Sn44  1  0.83074465  0.67483157  0.83514899  1
  Sn2+  Sn45  1  0.83608896  0.16316420  -0.01028094  1
  Sn2+  Sn46  1  0.16118961  0.83630515  0.00122834  1
  Sn2+  Sn47  1  0.83240998  -0.00380090  0.82558111  1
  Sn2+  Sn48  1  0.50353724  0.16191269  0.66569990  1
  Sn2+  Sn49  1  0.67491869  0.00628360  0.33715266  1
  Sn2+  Sn50  1  -0.00244378  0.50720572  0.17410866  1
  Sn2+  Sn51  1  0.32800036  -0.00218417  0.33890511  1
  Sn2+  Sn52  1  0.67165294  0.83847636  0.49475901  1
  Sn2+  Sn53  1  0.15720060  0.33248833  0.16268688  1
  Sn2+  Sn54  1  0.82811963  0.66437088  0.49691133  1
  Sn2+  Sn55  1  0.66376056  0.49965784  0.48706975  1
  Sn2+  Sn56  1  0.66994925  0.33616327  0.01307021  1
  Sn2+  Sn57  1  0.50320068  0.83574169  0.33338486  1
  Sn2+  Sn58  1  0.32332602  0.83585968  0.16607118  1
  Sn2+  Sn59  1  -0.00426327  -0.01295945  0.33830611  1
  Sn2+  Sn60  1  0.82895053  0.32912655  0.17877226  1
  Sn2+  Sn61  1  0.83625978  0.50817297  0.00119978  1
  Sn2+  Sn62  1  0.33658108  0.82780521  0.50632767  1
  Sn2+  Sn63  1  -0.00926508  -0.00338169  0.65885946  1
  Sn2+  Sn64  1  0.66628935  0.00621857  0.66731920  1
  Bi3+  Bi65  1  0.83240566  0.50437109  0.66666026  1
  Bi3+  Bi66  1  0.33328251  0.50498715  0.50114270  1
  Bi3+  Bi67  1  -0.00731389  0.33144821  -0.00024042  1
  Bi3+  Bi68  1  0.16664264  -0.00221988  0.84079386  1
  Bi3+  Bi69  1  0.16474721  0.83482285  0.32562863  1
  Bi3+  Bi70  1  0.49989452  -0.00160901  0.83904212  1
  Bi3+  Bi71  1  0.83083971  0.50179443  0.33286101  1
  Bi3+  Bi72  1  0.67165080  0.66621101  -0.00348386  1
  Bi3+  Bi73  1  0.16332698  0.32982792  0.83196299  1
  Bi3+  Bi74  1  0.66577336  -0.00261635  0.00056729  1
  Bi3+  Bi75  1  -0.00385220  0.00189737  0.00037584  1
  Bi3+  Bi76  1  0.50210864  0.50093860  0.33337496  1
  Bi3+  Bi77  1  0.83768338  0.66329983  0.16721419  1
  Bi3+  Bi78  1  0.50406961  0.33529977  0.16994992  1
  Bi3+  Bi79  1  0.67085917  0.16589278  0.16968811  1
  Bi3+  Bi80  1  0.33371356  0.33499982  0.33366747  1
  Bi3+  Bi81  1  0.50320809  0.66484771  0.83772008  1
  Bi3+  Bi82  1  0.33655658  0.83046208  0.84104134  1
  Bi3+  Bi83  1  0.16405416  0.66734835  0.16739536  1
  Bi3+  Bi84  1  0.83508961  0.83273689  0.33777089  1
  Bi3+  Bi85  1  -0.00504197  0.49864864  0.83661022  1
  Te2-  Te86  1  0.16085593  0.16359154  0.15493425  1
  Te2-  Te87  1  0.16270135  0.14876061  0.49562910  1
  Te2-  Te88  1  0.17462737  0.16193516  0.84509183  1
  Te2-  Te89  1  0.16602246  0.50132046  0.16844109  1
  Te2-  Te90  1  0.16936824  0.51112787  0.51049906  1
  Te2-  Te91  1  0.16234220  0.49494683  0.82203869  1
  Te2-  Te92  1  0.15528818  0.83256311  0.16386586  1
  Te2-  Te93  1  0.17208294  0.84636458  0.48990243  1
  Te2-  Te94  1  0.17213677  0.83570738  0.83978979  1
  Te2-  Te95  1  0.50875972  0.17016127  0.16671165  1
  Te2-  Te96  1  0.50477150  0.16199482  0.49740586  1
  Te2-  Te97  1  0.49055181  0.16355911  0.83359062  1
  Te2-  Te98  1  0.49840992  0.49712377  0.17284705  1
  Te2-  Te99  1  0.49598977  0.50231909  0.49726101  1
  Te2-  Te100  1  0.50299620  0.49675523  0.82971443  1
  Te2-  Te101  1  0.49090400  0.83581602  0.16175992  1
  Te2-  Te102  1  0.49886979  0.84131858  0.50496510  1
  Te2-  Te103  1  0.49447207  0.83569502  0.84849016  1
  Te2-  Te104  1  0.83119299  0.16165153  0.16755450  1
  Te2-  Te105  1  0.81829951  0.16412340  0.49954303  1
  Te2-  Te106  1  0.82891379  0.16232809  0.83291803  1
  Te2-  Te107  1  0.83685913  0.49988135  0.17038684  1
  Te2-  Te108  1  0.82975433  0.50664190  0.49828746  1
  Te2-  Te109  1  0.82854687  0.50280984  0.83188663  1
  Te2-  Te110  1  0.84674352  0.83242214  0.17665303  1
  Te2-  Te111  1  0.83972989  0.82308861  0.49809980  1
  Te2-  Te112  1  0.83306971  0.83621350  0.82905654  1
  Te2-  Te113  1  0.15849366  0.00137444  0.00392388  1
  Te2-  Te114  1  0.16457690  -0.00288375  0.31676329  1
  Te2-  Te115  1  0.16458329  -0.01926400  0.67270595  1
  Te2-  Te116  1  0.15445995  0.32826805  -0.00395086  1
  Te2-  Te117  1  0.16977524  0.33085940  0.33410854  1
  Te2-  Te118  1  0.16532149  0.32376568  0.66551194  1
  Te2-  Te119  1  0.16137300  0.66648729  0.00292478  1
  Te2-  Te120  1  0.15794485  0.67065724  0.32872016  1
  Te2-  Te121  1  0.15069821  0.68808160  0.66704966  1
  Te2-  Te122  1  0.50241115  0.00521728  0.00388032  1
  Te2-  Te123  1  0.49826246  -0.00483499  0.32455760  1
  Te2-  Te124  1  0.50327265  -0.00737901  0.67923835  1
  Te2-  Te125  1  0.50391478  0.34964559  0.00740910  1
  Te2-  Te126  1  0.49605872  0.33772837  0.33082071  1
  Te2-  Te127  1  0.49086228  0.33370150  0.66873531  1
  Te2-  Te128  1  0.50831804  0.64256617  -0.00381974  1
  Te2-  Te129  1  0.50483768  0.66899874  0.32939483  1
  Te2-  Te130  1  0.50357365  0.67817336  0.67732598  1
  Te2-  Te131  1  0.83029224  -0.01064356  -0.00006234  1
  Te2-  Te132  1  0.83099463  -0.00703319  0.35496835  1
  Te2-  Te133  1  0.82322209  0.00066873  0.65648129  1
  Te2-  Te134  1  0.83169524  0.33271703  0.00074613  1
  Te2-  Te135  1  0.83032088  0.33970214  0.34191093  1
  Te2-  Te136  1  0.83600231  0.34341837  0.65574863  1
  Te2-  Te137  1  0.83420159  0.67944442  0.00454190  1
  Te2-  Te138  1  0.84236247  0.66598001  0.32908156  1
  Te2-  Te139  1  0.83880072  0.66333403  0.66805811  1
  Te2-  Te140  1  -0.00716667  0.16408060  0.01281163  1
  Te2-  Te141  1  0.00078638  0.15998929  0.32462330  1
  Te2-  Te142  1  -0.00057640  0.15508490  0.67023184  1
  Te2-  Te143  1  -0.00503849  0.49594477  -0.00020970  1
  Te2-  Te144  1  -0.00325012  0.51024230  0.33592350  1
  Te2-  Te145  1  -0.00056785  0.50340790  0.67286715  1
  Te2-  Te146  1  -0.00945702  0.83914783  -0.00127537  1
  Te2-  Te147  1  0.00247988  0.82649921  0.33597266  1
  Te2-  Te148  1  -0.01841188  0.83287059  0.66875232  1
  Te2-  Te149  1  0.33617560  0.17642565  0.01545933  1
  Te2-  Te150  1  0.34572781  0.16862478  0.32802416  1
  Te2-  Te151  1  0.33395169  0.16367694  0.66150721  1
  Te2-  Te152  1  0.32852382  0.48319788  -0.00478100  1
  Te2-  Te153  1  0.33603902  0.50048733  0.33704058  1
  Te2-  Te154  1  0.32780157  0.51957692  0.66625935  1
  Te2-  Te155  1  0.32733347  0.83969017  0.00491074  1
  Te2-  Te156  1  0.33085796  0.83395189  0.33099458  1
  Te2-  Te157  1  0.33541544  0.81747248  0.67592000  1
  Te2-  Te158  1  0.67241717  0.16071257  0.00163177  1
  Te2-  Te159  1  0.65419368  0.16080153  0.32951302  1
  Te2-  Te160  1  0.65889910  0.18398153  0.66467692  1
  Te2-  Te161  1  0.67673672  0.50471419  0.01406816  1
  Te2-  Te162  1  0.66623670  0.51039534  0.32024547  1
  Te2-  Te163  1  0.67069199  0.49116975  0.65868698  1
  Te2-  Te164  1  0.66951209  0.83541746  0.01345037  1
  Te2-  Te165  1  0.66841110  0.82964843  0.32642781  1
  Te2-  Te166  1  0.67872387  0.83425760  0.65943103  1
  Te2-  Te167  1  -0.01263730  -0.01206921  0.16452837  1
  Te2-  Te168  1  0.00046480  -0.01266898  0.50073362  1
  Te2-  Te169  1  0.00230446  0.00059220  0.83649145  1
  Te2-  Te170  1  -0.00290136  0.33788989  0.16185156  1
  Te2-  Te171  1  0.01022974  0.33238642  0.49482743  1
  Te2-  Te172  1  -0.00069007  0.33509033  0.83356400  1
  Te2-  Te173  1  0.00033978  0.67184616  0.15656580  1
  Te2-  Te174  1  0.00001235  0.67958243  0.50232123  1
  Te2-  Te175  1  -0.00138752  0.65962265  0.84672985  1
  Te2-  Te176  1  0.33384988  0.00837452  0.16898594  1
  Te2-  Te177  1  0.34299826  -0.00275955  0.49886018  1
  Te2-  Te178  1  0.33180928  0.00075896  0.83398499  1
  Te2-  Te179  1  0.32994946  0.33019831  0.16977214  1
  Te2-  Te180  1  0.33033454  0.33963645  0.49870630  1
  Te2-  Te181  1  0.32488711  0.33077764  0.83913151  1
  Te2-  Te182  1  0.32818530  0.66925703  0.15319100  1
  Te2-  Te183  1  0.34752539  0.66890100  0.49795586  1
  Te2-  Te184  1  0.33931336  0.66641834  0.85473409  1
  Te2-  Te185  1  0.66662750  -0.00421319  0.16559856  1
  Te2-  Te186  1  0.64826534  -0.00467843  0.50111368  1
  Te2-  Te187  1  0.66404308  -0.01382365  0.83813461  1
  Te2-  Te188  1  0.66806333  0.32765560  0.17108576  1
  Te2-  Te189  1  0.64984456  0.33971931  0.49476856  1
  Te2-  Te190  1  0.66302570  0.33160821  0.84187251  1
  Te2-  Te191  1  0.67355528  0.67579072  0.16080569  1
  Te2-  Te192  1  0.65359782  0.66932720  0.49776834  1
  Te2-  Te193  1  0.66587142  0.68575902  0.83715125  1
  Pb2+  Pb194  1  0.66207210  0.15727847  0.82935630  1
  Pb2+  Pb195  1  0.16689378  0.49781048  0.33831206  1
  Pb2+  Pb196  1  0.32698500  0.34652285  0.66904453  1
  Pb2+  Pb197  1  0.50572590  0.17969470  -0.00044701  1
  Pb2+  Pb198  1  0.33400633  0.16846102  0.49368080  1
  Pb2+  Pb199  1  0.83006888  0.33267501  0.82864107  1
  Pb2+  Pb200  1  0.67059536  0.66385491  0.66731443  1
  Pb2+  Pb201  1  0.17135995  0.16511397  0.32516116  1
  Pb2+  Pb202  1  0.33483210  -0.01319741  0.66678184  1
  Pb2+  Pb203  1  -0.00364789  0.33021172  0.32738448  1
  Pb2+  Pb204  1  0.50249237  0.50468071  0.66331051  1
  Pb2+  Pb205  1  0.82974391  0.16418119  0.33650380  1
  Pb2+  Pb206  1  0.17517802  0.67869103  0.49925318  1
  Pb2+  Pb207  1  0.16625070  0.15428405  0.67352927  1
  Pb2+  Pb208  1  0.50106574  0.66669611  0.16162119  1
  Pb2+  Pb209  1  0.00230124  0.82994746  0.83254698  1
  Pb2+  Pb210  1  0.00018442  0.16758970  0.84345187  1
  Pb2+  Pb211  1  0.33133463  0.66751174  0.32497553  1
  Pb2+  Pb212  1  -0.00207065  0.50786590  0.50270292  1
  Pb2+  Pb213  1  0.16102277  0.49487918  -0.00431973  1
  Pb2+  Pb214  1  0.17177969  0.66701523  0.83309836  1
  Pb2+  Pb215  1  0.33150156  0.00584146  0.00069292  1
