# generated using pymatgen
data_In22Ag21Sn22Bi21(Te54Pb11)2
_symmetry_space_group_name_H-M   'P 1'
_cell_length_a   19.15411114
_cell_length_b   19.17557057
_cell_length_c   19.15855826
_cell_angle_alpha   90.00962376
_cell_angle_beta   89.99908522
_cell_angle_gamma   89.98375316
_symmetry_Int_Tables_number   1
_chemical_formula_structural   In22Ag21Sn22Bi21(Te54Pb11)2
_chemical_formula_sum   'In22 Ag21 Sn22 Bi21 Te108 Pb22'
_cell_volume   7036.76582935
_cell_formula_units_Z   1
loop_
 _symmetry_equiv_pos_site_id
 _symmetry_equiv_pos_as_xyz
  1  'x, y, z'
loop_
 _atom_type_symbol
 _atom_type_oxidation_number
  In3+  3.0
  Ag+  1.0
  Sn2+  2.0
  Bi3+  3.0
  Te2-  -2.0
  Pb2+  2.0
loop_
 _atom_site_type_symbol
 _atom_site_label
 _atom_site_symmetry_multiplicity
 _atom_site_fract_x
 _atom_site_fract_y
 _atom_site_fract_z
 _atom_site_occupancy
  In3+  In0  1  0.32570778  -0.01423077  0.65404222  1
  In3+  In1  1  -0.00669259  0.82323092  0.81933474  1
  In3+  In2  1  0.00787391  0.81364203  0.16064093  1
  In3+  In3  1  0.15860108  0.34534624  0.18153456  1
  In3+  In4  1  0.48050859  0.35090565  0.83718315  1
  In3+  In5  1  0.32697759  0.32676324  0.01342074  1
  In3+  In6  1  0.00624349  0.67920895  -0.01469025  1
  In3+  In7  1  0.33142846  0.16643844  0.82173051  1
  In3+  In8  1  0.16104693  0.33496629  0.84677241  1
  In3+  In9  1  0.68378783  0.34402003  -0.00450249  1
  In3+  In10  1  0.49078943  0.15868009  0.34736609  1
  In3+  In11  1  0.02441366  0.15957738  0.48048224  1
  In3+  In12  1  0.50351660  0.69120259  0.50111421  1
  In3+  In13  1  0.83421541  0.18052678  0.00282872  1
  In3+  In14  1  0.00965855  0.82521336  0.48085687  1
  In3+  In15  1  0.48526138  0.83537342  0.33462127  1
  In3+  In16  1  0.16836169  0.67522326  0.20544083  1
  In3+  In17  1  0.84967814  0.52174570  -0.00321625  1
  In3+  In18  1  0.49972806  0.82001008  0.65013214  1
  In3+  In19  1  0.48103171  -0.00604371  0.81040323  1
  In3+  In20  1  0.48827040  0.30969827  0.48449226  1
  In3+  In21  1  0.00522859  -0.01467861  0.32848108  1
  Ag+  Ag22  1  0.29940036  -0.02985065  -0.03126116  1
  Ag+  Ag23  1  0.47736547  0.00209110  0.51004373  1
  Ag+  Ag24  1  0.17730240  -0.02217511  0.49976387  1
  Ag+  Ag25  1  0.02255888  0.32780940  0.02331718  1
  Ag+  Ag26  1  0.64299981  0.63938202  -0.02196389  1
  Ag+  Ag27  1  0.86299617  0.52609309  0.30181591  1
  Ag+  Ag28  1  0.32684841  0.13395298  0.52151927  1
  Ag+  Ag29  1  0.30824742  0.32302459  0.31615556  1
  Ag+  Ag30  1  0.18314008  0.85799086  0.33400362  1
  Ag+  Ag31  1  -0.01634901  0.68491549  0.33163094  1
  Ag+  Ag32  1  0.83767544  0.81487276  0.35353965  1
  Ag+  Ag33  1  0.83306417  0.65061928  0.80841251  1
  Ag+  Ag34  1  0.19275998  0.51785424  0.33337812  1
  Ag+  Ag35  1  0.68963573  0.16519936  0.48846498  1
  Ag+  Ag36  1  0.02841171  0.14601546  0.18749992  1
  Ag+  Ag37  1  0.81121548  0.52827253  0.63732917  1
  Ag+  Ag38  1  0.31048291  0.83101912  0.48295833  1
  Ag+  Ag39  1  0.31533916  0.80665656  0.80991593  1
  Ag+  Ag40  1  -0.00395366  0.69226266  0.63157052  1
  Ag+  Ag41  1  0.14065612  0.68034233  0.50241135  1
  Ag+  Ag42  1  0.14894015  0.83111253  -0.02502289  1
  Sn2+  Sn43  1  0.50418531  0.16158533  0.00158217  1
  Sn2+  Sn44  1  0.82553156  0.16874312  0.33321625  1
  Sn2+  Sn45  1  0.00287673  0.00221312  0.65252162  1
  Sn2+  Sn46  1  0.33624343  0.50545308  0.83937231  1
  Sn2+  Sn47  1  0.66425484  -0.00408791  -0.00357783  1
  Sn2+  Sn48  1  0.67325621  0.50569965  0.83088441  1
  Sn2+  Sn49  1  0.49944841  0.50092477  0.34020234  1
  Sn2+  Sn50  1  0.00255497  0.15720468  0.84689101  1
  Sn2+  Sn51  1  0.83008391  -0.00426723  0.50041261  1
  Sn2+  Sn52  1  0.16392403  -0.00717034  0.82852470  1
  Sn2+  Sn53  1  0.66554907  0.49135050  0.49811404  1
  Sn2+  Sn54  1  0.50871231  0.67753573  0.83762753  1
  Sn2+  Sn55  1  0.67173834  0.67066630  0.33124563  1
  Sn2+  Sn56  1  0.50220946  0.50020683  0.66203440  1
  Sn2+  Sn57  1  0.31837761  0.66618028  0.65794033  1
  Sn2+  Sn58  1  0.17000194  0.16268214  0.32952114  1
  Sn2+  Sn59  1  0.83682760  0.67027972  0.17461022  1
  Sn2+  Sn60  1  0.67914608  0.82835563  0.17029529  1
  Sn2+  Sn61  1  0.66621117  0.33395486  0.66698473  1
  Sn2+  Sn62  1  0.50159656  0.49533180  -0.00403770  1
  Sn2+  Sn63  1  0.82653365  0.66304411  0.50325435  1
  Sn2+  Sn64  1  0.00179192  0.01054196  0.00040835  1
  Bi3+  Bi65  1  0.82585651  0.33049289  0.50264673  1
  Bi3+  Bi66  1  0.16873461  0.33307778  0.50255067  1
  Bi3+  Bi67  1  0.00183616  0.33198575  0.66686829  1
  Bi3+  Bi68  1  0.50051674  0.16897067  0.66812323  1
  Bi3+  Bi69  1  0.33342182  0.83555004  0.16893030  1
  Bi3+  Bi70  1  0.49946098  0.00067897  0.17198784  1
  Bi3+  Bi71  1  0.50030120  0.83809377  0.00317819  1
  Bi3+  Bi72  1  0.33637621  0.33598856  0.66469825  1
  Bi3+  Bi73  1  0.00057028  0.49948755  0.17100716  1
  Bi3+  Bi74  1  0.83099407  0.16694314  0.66980340  1
  Bi3+  Bi75  1  0.83666989  -0.00183410  0.83749158  1
  Bi3+  Bi76  1  0.16356992  0.49863947  0.66021111  1
  Bi3+  Bi77  1  0.00303190  0.49691754  0.83440798  1
  Bi3+  Bi78  1  0.66663387  0.16647196  0.16935790  1
  Bi3+  Bi79  1  0.66604618  0.00215995  0.66339260  1
  Bi3+  Bi80  1  0.33355975  0.16506510  0.16536171  1
  Bi3+  Bi81  1  0.33856002  0.66287000  0.34052270  1
  Bi3+  Bi82  1  0.67224706  0.00105327  0.33590233  1
  Bi3+  Bi83  1  -0.00225720  0.33497440  0.33724254  1
  Bi3+  Bi84  1  0.66597812  0.33358121  0.33592240  1
  Bi3+  Bi85  1  0.83825150  0.83475943  0.00522133  1
  Te2-  Te86  1  0.17050567  0.17034109  0.16570077  1
  Te2-  Te87  1  0.17892943  0.17101308  0.49721634  1
  Te2-  Te88  1  0.17152083  0.16547058  0.83365596  1
  Te2-  Te89  1  0.16429468  0.50136831  0.17986618  1
  Te2-  Te90  1  0.16712834  0.49415411  0.49685436  1
  Te2-  Te91  1  0.16488138  0.49693428  0.83207400  1
  Te2-  Te92  1  0.16362006  0.82958471  0.18587079  1
  Te2-  Te93  1  0.16043037  0.83106950  0.48827114  1
  Te2-  Te94  1  0.17180099  0.83629340  0.82918093  1
  Te2-  Te95  1  0.50048693  0.16461886  0.16890118  1
  Te2-  Te96  1  0.47953048  0.15647152  0.50378591  1
  Te2-  Te97  1  0.49316604  0.15471437  0.83213897  1
  Te2-  Te98  1  0.49968155  0.50169833  0.16419689  1
  Te2-  Te99  1  0.50373317  0.49363849  0.50635743  1
  Te2-  Te100  1  0.50356253  0.50382838  0.83262297  1
  Te2-  Te101  1  0.50222782  0.83696688  0.17145788  1
  Te2-  Te102  1  0.50159774  0.84738705  0.49906387  1
  Te2-  Te103  1  0.49530657  0.84328893  0.84223788  1
  Te2-  Te104  1  0.82838438  0.16744460  0.16146595  1
  Te2-  Te105  1  0.83878830  0.16762522  0.50589302  1
  Te2-  Te106  1  0.83313314  0.16384277  0.83709496  1
  Te2-  Te107  1  0.83750293  0.50238019  0.15916571  1
  Te2-  Te108  1  0.82909401  0.49353046  0.49732970  1
  Te2-  Te109  1  0.84107061  0.50772331  0.84314909  1
  Te2-  Te110  1  0.84906006  0.83182977  0.16568364  1
  Te2-  Te111  1  0.83921750  0.83558367  0.50029122  1
  Te2-  Te112  1  0.84053811  0.83484346  0.84035690  1
  Te2-  Te113  1  0.15859416  -0.01178246  -0.00051107  1
  Te2-  Te114  1  0.15783044  0.00376622  0.34669035  1
  Te2-  Te115  1  0.17154894  -0.00220378  0.65418698  1
  Te2-  Te116  1  0.16910120  0.33416726  0.00088141  1
  Te2-  Te117  1  0.16318160  0.33103059  0.33742776  1
  Te2-  Te118  1  0.16936397  0.33427403  0.66723203  1
  Te2-  Te119  1  0.15923125  0.67755909  -0.00469050  1
  Te2-  Te120  1  0.18005630  0.66172109  0.35378596  1
  Te2-  Te121  1  0.15435385  0.66044418  0.65337782  1
  Te2-  Te122  1  0.50397745  0.00021153  0.00779868  1
  Te2-  Te123  1  0.50564222  -0.00102449  0.33645422  1
  Te2-  Te124  1  0.50098021  0.00482469  0.65852799  1
  Te2-  Te125  1  0.48909807  0.33345089  -0.00914757  1
  Te2-  Te126  1  0.50493671  0.33267225  0.33525923  1
  Te2-  Te127  1  0.49970085  0.33070554  0.68066771  1
  Te2-  Te128  1  0.50046721  0.66916575  -0.00298415  1
  Te2-  Te129  1  0.50284368  0.67143638  0.34167633  1
  Te2-  Te130  1  0.49962864  0.66926751  0.66930363  1
  Te2-  Te131  1  0.83537072  -0.00349146  -0.00089657  1
  Te2-  Te132  1  0.83567866  0.00871859  0.33741154  1
  Te2-  Te133  1  0.83165282  0.00322741  0.67139604  1
  Te2-  Te134  1  0.83449453  0.33368786  -0.00008047  1
  Te2-  Te135  1  0.82808200  0.33607620  0.34088134  1
  Te2-  Te136  1  0.83408439  0.32995581  0.66524039  1
  Te2-  Te137  1  0.85042081  0.67369240  0.00902714  1
  Te2-  Te138  1  0.82987967  0.66448123  0.33748638  1
  Te2-  Te139  1  0.84414736  0.66712909  0.66201166  1
  Te2-  Te140  1  -0.00667186  0.17825225  0.00195400  1
  Te2-  Te141  1  -0.00390693  0.17327922  0.32892675  1
  Te2-  Te142  1  -0.00628905  0.16720741  0.67455978  1
  Te2-  Te143  1  -0.00116258  0.48311340  0.00158691  1
  Te2-  Te144  1  0.00115383  0.49381878  0.33257304  1
  Te2-  Te145  1  0.00189990  0.49325802  0.67181601  1
  Te2-  Te146  1  0.00607622  0.83537620  0.00888015  1
  Te2-  Te147  1  -0.01201366  0.83307699  0.33197421  1
  Te2-  Te148  1  0.00301619  0.83460102  0.66816201  1
  Te2-  Te149  1  0.33618168  0.17385845  0.00421860  1
  Te2-  Te150  1  0.33815789  0.17805599  0.32770422  1
  Te2-  Te151  1  0.33608350  0.16941427  0.66623974  1
  Te2-  Te152  1  0.33109543  0.49566228  -0.00214067  1
  Te2-  Te153  1  0.33952412  0.49690284  0.33645991  1
  Te2-  Te154  1  0.33048199  0.50027541  0.67073592  1
  Te2-  Te155  1  0.33847038  0.83605981  0.00937890  1
  Te2-  Te156  1  0.32944465  0.83278509  0.33394796  1
  Te2-  Te157  1  0.34598407  0.83623805  0.67104629  1
  Te2-  Te158  1  0.67163034  0.16620911  0.00507192  1
  Te2-  Te159  1  0.65936721  0.16716378  0.33774583  1
  Te2-  Te160  1  0.66423068  0.16560707  0.66397285  1
  Te2-  Te161  1  0.66811187  0.49756383  0.00108387  1
  Te2-  Te162  1  0.66062755  0.49677590  0.33743921  1
  Te2-  Te163  1  0.67076695  0.49687068  0.67013209  1
  Te2-  Te164  1  0.67106764  0.83373340  0.00705582  1
  Te2-  Te165  1  0.68805055  0.83879443  0.32956727  1
  Te2-  Te166  1  0.65755841  0.83770452  0.66810811  1
  Te2-  Te167  1  0.00171694  0.00403936  0.17456635  1
  Te2-  Te168  1  -0.00007392  0.00625339  0.49646970  1
  Te2-  Te169  1  -0.00091915  -0.00652805  0.83185439  1
  Te2-  Te170  1  0.00522404  0.33393166  0.17051123  1
  Te2-  Te171  1  -0.00133958  0.32374217  0.50282776  1
  Te2-  Te172  1  0.00626483  0.33032210  0.83006405  1
  Te2-  Te173  1  0.01060158  0.66202234  0.18463521  1
  Te2-  Te174  1  -0.00658982  0.67360045  0.48621454  1
  Te2-  Te175  1  -0.00875612  0.66659350  0.83381450  1
  Te2-  Te176  1  0.33616565  0.00038939  0.16843580  1
  Te2-  Te177  1  0.32839963  -0.01356416  0.50241395  1
  Te2-  Te178  1  0.33125069  0.01071819  0.83388433  1
  Te2-  Te179  1  0.32662255  0.33154524  0.17004998  1
  Te2-  Te180  1  0.33710270  0.33604071  0.50425066  1
  Te2-  Te181  1  0.32757874  0.33153049  0.82874294  1
  Te2-  Te182  1  0.33035070  0.67247800  0.17259611  1
  Te2-  Te183  1  0.34801057  0.68509422  0.50379400  1
  Te2-  Te184  1  0.33595035  0.66514865  0.82846905  1
  Te2-  Te185  1  0.66376053  0.00226024  0.17079979  1
  Te2-  Te186  1  0.66849223  0.01208350  0.49894010  1
  Te2-  Te187  1  0.67162532  -0.00049620  0.82887362  1
  Te2-  Te188  1  0.66488151  0.32901673  0.16352831  1
  Te2-  Te189  1  0.66075345  0.31856268  0.49933688  1
  Te2-  Te190  1  0.66753122  0.33482503  0.84191432  1
  Te2-  Te191  1  0.66987989  0.66956545  0.16793242  1
  Te2-  Te192  1  0.65791395  0.66780409  0.50171478  1
  Te2-  Te193  1  0.68102806  0.66537700  0.83978302  1
  Pb2+  Pb194  1  0.16200192  0.66718812  0.82473755  1
  Pb2+  Pb195  1  0.16195746  0.50905608  0.00692619  1
  Pb2+  Pb196  1  0.33166707  0.00788542  0.33604234  1
  Pb2+  Pb197  1  0.66192448  0.16788747  0.83397241  1
  Pb2+  Pb198  1  0.16742679  -0.00279534  0.16927342  1
  Pb2+  Pb199  1  0.83635015  0.33397571  0.17150871  1
  Pb2+  Pb200  1  0.66903646  0.50206508  0.17083563  1
  Pb2+  Pb201  1  0.66291708  0.83149607  0.84026659  1
  Pb2+  Pb202  1  0.33553627  0.50800882  0.50282269  1
  Pb2+  Pb203  1  0.32822264  0.67220271  -0.00327667  1
  Pb2+  Pb204  1  0.16148177  0.16431740  0.66467652  1
  Pb2+  Pb205  1  -0.00248018  0.50146017  0.49988107  1
  Pb2+  Pb206  1  0.83282696  0.83338767  0.66585458  1
  Pb2+  Pb207  1  0.16702148  0.15839181  -0.00095449  1
  Pb2+  Pb208  1  0.50264867  0.66924852  0.17086067  1
  Pb2+  Pb209  1  0.83463245  0.00000248  0.16978630  1
  Pb2+  Pb210  1  0.67031659  0.66493690  0.67033004  1
  Pb2+  Pb211  1  0.49640461  0.33363538  0.16257082  1
  Pb2+  Pb212  1  0.17166945  0.82817927  0.65782437  1
  Pb2+  Pb213  1  0.33185350  0.50242814  0.16893635  1
  Pb2+  Pb214  1  0.83557997  0.34015581  0.83237326  1
  Pb2+  Pb215  1  0.66931104  0.83942750  0.49502734  1
