# generated using pymatgen
data_In22Ag21Sn22Bi21(Te54Pb11)2
_symmetry_space_group_name_H-M   'P 1'
_cell_length_a   19.16078328
_cell_length_b   19.16044759
_cell_length_c   19.16159748
_cell_angle_alpha   89.99813942
_cell_angle_beta   90.00389649
_cell_angle_gamma   90.01456687
_symmetry_Int_Tables_number   1
_chemical_formula_structural   In22Ag21Sn22Bi21(Te54Pb11)2
_chemical_formula_sum   'In22 Ag21 Sn22 Bi21 Te108 Pb22'
_cell_volume   7034.78139769
_cell_formula_units_Z   1
loop_
 _symmetry_equiv_pos_site_id
 _symmetry_equiv_pos_as_xyz
  1  'x, y, z'
loop_
 _atom_type_symbol
 _atom_type_oxidation_number
  In3+  3.0
  Ag+  1.0
  Sn2+  2.0
  Bi3+  3.0
  Te2-  -2.0
  Pb2+  2.0
loop_
 _atom_site_type_symbol
 _atom_site_label
 _atom_site_symmetry_multiplicity
 _atom_site_fract_x
 _atom_site_fract_y
 _atom_site_fract_z
 _atom_site_occupancy
  In3+  In0  1  0.17147346  -0.00050295  0.14412308  1
  In3+  In1  1  0.66482217  0.68288677  0.67118755  1
  In3+  In2  1  0.00716823  0.66386607  0.32744926  1
  In3+  In3  1  0.17182479  0.83265895  0.67697355  1
  In3+  In4  1  0.66557253  0.18417903  0.50825923  1
  In3+  In5  1  0.83937780  0.83189656  -0.01087274  1
  In3+  In6  1  0.49920378  0.65537724  0.15129573  1
  In3+  In7  1  0.65445184  0.83864033  0.81856688  1
  In3+  In8  1  0.16172351  0.52309007  0.67802793  1
  In3+  In9  1  0.33083671  0.14604126  0.84213769  1
  In3+  In10  1  0.84460488  0.65785375  0.49905354  1
  In3+  In11  1  0.01197696  0.82861255  0.14707169  1
  In3+  In12  1  0.16890398  0.82656230  0.34028477  1
  In3+  In13  1  0.31887349  -0.00117595  0.33672462  1
  In3+  In14  1  0.85267138  0.00347504  0.16117722  1
  In3+  In15  1  -0.00849395  -0.00078651  0.68979047  1
  In3+  In16  1  0.32723722  0.52910633  0.51041628  1
  In3+  In17  1  0.17930936  0.49257093  0.33413702  1
  In3+  In18  1  0.15171654  0.82928920  -0.01553505  1
  In3+  In19  1  -0.02024082  0.35165093  0.33571131  1
  In3+  In20  1  0.84518694  0.65982906  0.84957734  1
  In3+  In21  1  0.64996167  0.66441457  0.33791664  1
  Ag+  Ag22  1  -0.02295895  -0.00040948  -0.00640032  1
  Ag+  Ag23  1  0.02943879  0.46218606  0.86561438  1
  Ag+  Ag24  1  0.31338891  0.65572309  0.67891368  1
  Ag+  Ag25  1  0.52807627  0.35554576  0.16044367  1
  Ag+  Ag26  1  0.00363757  0.66261693  -0.01782950  1
  Ag+  Ag27  1  0.18093042  0.35648809  0.80687999  1
  Ag+  Ag28  1  -0.00199245  0.36370104  -0.02227869  1
  Ag+  Ag29  1  0.63942434  0.31166771  -0.00980360  1
  Ag+  Ag30  1  0.86790460  0.47210424  -0.00019121  1
  Ag+  Ag31  1  0.50970023  0.02220216  0.80162917  1
  Ag+  Ag32  1  0.47555838  0.36385979  0.53293874  1
  Ag+  Ag33  1  0.63140645  0.02293907  0.69509378  1
  Ag+  Ag34  1  0.48111140  0.47885585  0.35541983  1
  Ag+  Ag35  1  0.31072967  0.82846840  0.52600284  1
  Ag+  Ag36  1  -0.03426307  0.46491798  0.13054614  1
  Ag+  Ag37  1  0.34011242  0.19172039  0.15077640  1
  Ag+  Ag38  1  0.47288246  0.82758646  0.69272630  1
  Ag+  Ag39  1  0.14885002  0.65419974  0.49795620  1
  Ag+  Ag40  1  0.14511918  -0.00022731  0.82316460  1
  Ag+  Ag41  1  -0.00473363  0.81192601  0.81322412  1
  Ag+  Ag42  1  0.85463976  0.35823764  0.50765598  1
  Sn2+  Sn43  1  0.33757510  -0.00344013  0.66374016  1
  Sn2+  Sn44  1  0.50222760  0.83209714  0.33814440  1
  Sn2+  Sn45  1  0.49948363  0.83264968  0.00386005  1
  Sn2+  Sn46  1  0.66117424  0.17230599  0.83888328  1
  Sn2+  Sn47  1  0.85057577  0.83214996  0.32759752  1
  Sn2+  Sn48  1  0.32907458  0.49660611  0.83567581  1
  Sn2+  Sn49  1  0.65612414  0.33626565  0.32965459  1
  Sn2+  Sn50  1  0.50388484  0.66830314  0.82970205  1
  Sn2+  Sn51  1  0.00099227  0.83246074  0.50304106  1
  Sn2+  Sn52  1  0.50852167  0.49488199  -0.00268208  1
  Sn2+  Sn53  1  0.83103357  0.33426038  0.16402583  1
  Sn2+  Sn54  1  0.16908005  -0.00737643  0.51159224  1
  Sn2+  Sn55  1  0.84340652  0.17172124  -0.00358987  1
  Sn2+  Sn56  1  0.32745322  0.66541318  -0.01657178  1
  Sn2+  Sn57  1  0.67757863  0.66613888  -0.00296808  1
  Sn2+  Sn58  1  0.16292449  0.49422775  0.00862344  1
  Sn2+  Sn59  1  0.66718113  -0.00275626  0.00286672  1
  Sn2+  Sn60  1  0.83312646  0.17318210  0.66712812  1
  Sn2+  Sn61  1  0.00189832  -0.00258946  0.33034919  1
  Sn2+  Sn62  1  0.50120078  0.16717520  0.00499794  1
  Sn2+  Sn63  1  0.33087756  0.83766750  0.83171582  1
  Sn2+  Sn64  1  0.00330966  0.49800152  0.50028979  1
  Bi3+  Bi65  1  0.66441566  -0.00266380  0.33635828  1
  Bi3+  Bi66  1  0.33303221  0.83282843  0.16572245  1
  Bi3+  Bi67  1  -0.00348951  0.16107014  0.49829540  1
  Bi3+  Bi68  1  0.00487416  0.16318098  0.83672222  1
  Bi3+  Bi69  1  0.66770639  0.83305160  0.16168940  1
  Bi3+  Bi70  1  0.32762365  0.50074335  0.16561168  1
  Bi3+  Bi71  1  0.33890607  -0.00707088  0.00115075  1
  Bi3+  Bi72  1  0.66474806  0.49679858  0.49575858  1
  Bi3+  Bi73  1  0.16970064  0.15693480  0.66911148  1
  Bi3+  Bi74  1  0.66826814  0.83077591  0.49552506  1
  Bi3+  Bi75  1  0.83806939  0.83488061  0.66854327  1
  Bi3+  Bi76  1  0.66755930  0.50142065  0.16206069  1
  Bi3+  Bi77  1  0.49741044  -0.00428134  0.16534278  1
  Bi3+  Bi78  1  0.16730601  0.16348890  0.33263476  1
  Bi3+  Bi79  1  0.83445918  -0.00439307  0.49517110  1
  Bi3+  Bi80  1  0.50236567  -0.00431783  0.49738095  1
  Bi3+  Bi81  1  0.33638547  0.33204323  0.33368529  1
  Bi3+  Bi82  1  0.16317688  0.33358576  0.16787397  1
  Bi3+  Bi83  1  0.16812094  0.16486877  -0.00009704  1
  Bi3+  Bi84  1  0.66698351  0.50542083  0.83565092  1
  Bi3+  Bi85  1  0.50444669  0.66984906  0.49903397  1
  Te2-  Te86  1  0.17687019  0.16266432  0.16698600  1
  Te2-  Te87  1  0.16259588  0.16223826  0.50095170  1
  Te2-  Te88  1  0.17374188  0.15314379  0.83466545  1
  Te2-  Te89  1  0.16522233  0.50020784  0.17505949  1
  Te2-  Te90  1  0.17529889  0.50776093  0.49572144  1
  Te2-  Te91  1  0.16632751  0.50158949  0.82953562  1
  Te2-  Te92  1  0.16851542  0.83979721  0.17715065  1
  Te2-  Te93  1  0.16718516  0.83681486  0.49516561  1
  Te2-  Te94  1  0.15773938  0.84489400  0.83137561  1
  Te2-  Te95  1  0.48784328  0.15841589  0.16314123  1
  Te2-  Te96  1  0.50730890  0.15815833  0.50025596  1
  Te2-  Te97  1  0.49705413  0.16584606  0.83695636  1
  Te2-  Te98  1  0.49944024  0.50182730  0.16055768  1
  Te2-  Te99  1  0.50146337  0.50439779  0.49876276  1
  Te2-  Te100  1  0.50167155  0.50197869  0.83477503  1
  Te2-  Te101  1  0.50127160  0.82914320  0.17045815  1
  Te2-  Te102  1  0.50772082  0.83167487  0.49670820  1
  Te2-  Te103  1  0.50476382  0.82675620  0.83699471  1
  Te2-  Te104  1  0.83519390  0.15854444  0.16467466  1
  Te2-  Te105  1  0.83074038  0.15888785  0.50363739  1
  Te2-  Te106  1  0.83563144  0.16519715  0.82945259  1
  Te2-  Te107  1  0.82813115  0.50385433  0.15537600  1
  Te2-  Te108  1  0.82953719  0.50278815  0.50073309  1
  Te2-  Te109  1  0.82940977  0.50692628  0.84615271  1
  Te2-  Te110  1  0.83018111  0.84413615  0.16149231  1
  Te2-  Te111  1  0.83132153  0.83134352  0.50136129  1
  Te2-  Te112  1  0.84645947  0.82907978  0.83329127  1
  Te2-  Te113  1  0.17804696  -0.00280717  -0.00709247  1
  Te2-  Te114  1  0.16653989  0.00220482  0.33876201  1
  Te2-  Te115  1  0.17096448  -0.00565515  0.67462918  1
  Te2-  Te116  1  0.14936773  0.32867114  0.00754654  1
  Te2-  Te117  1  0.17066663  0.33013637  0.33197519  1
  Te2-  Te118  1  0.16771005  0.32213108  0.66487780  1
  Te2-  Te119  1  0.15642002  0.67752815  0.00137114  1
  Te2-  Te120  1  0.16341176  0.67018360  0.34692509  1
  Te2-  Te121  1  0.16903420  0.67547635  0.65372460  1
  Te2-  Te122  1  0.50076777  -0.00294169  0.00360318  1
  Te2-  Te123  1  0.50176214  -0.00054361  0.33118431  1
  Te2-  Te124  1  0.49572044  -0.02039936  0.66029754  1
  Te2-  Te125  1  0.49542314  0.32842368  0.01297878  1
  Te2-  Te126  1  0.49970273  0.33985061  0.31504964  1
  Te2-  Te127  1  0.49930061  0.33270945  0.67278951  1
  Te2-  Te128  1  0.49966193  0.66690625  -0.00161332  1
  Te2-  Te129  1  0.49928202  0.66352767  0.33320026  1
  Te2-  Te130  1  0.51032738  0.68215266  0.66381731  1
  Te2-  Te131  1  0.82801505  -0.00069680  0.00429848  1
  Te2-  Te132  1  0.83019275  -0.00294913  0.33027559  1
  Te2-  Te133  1  0.83754493  -0.00257798  0.66149881  1
  Te2-  Te134  1  0.85204280  0.32681990  0.00592262  1
  Te2-  Te135  1  0.82784522  0.33471539  0.34096328  1
  Te2-  Te136  1  0.83288424  0.33466907  0.65508619  1
  Te2-  Te137  1  0.85030722  0.67944895  0.00130207  1
  Te2-  Te138  1  0.84855392  0.66980920  0.33920012  1
  Te2-  Te139  1  0.82678507  0.67160283  0.65818667  1
  Te2-  Te140  1  0.00684652  0.14997839  -0.00194595  1
  Te2-  Te141  1  0.00454784  0.16336827  0.33466308  1
  Te2-  Te142  1  0.00406702  0.15822139  0.66448232  1
  Te2-  Te143  1  0.00872972  0.51588137  0.00056492  1
  Te2-  Te144  1  0.00523368  0.50562810  0.33934360  1
  Te2-  Te145  1  0.00920102  0.50011252  0.66060530  1
  Te2-  Te146  1  0.00093899  0.85059277  -0.00011178  1
  Te2-  Te147  1  0.00880057  0.83300822  0.33682315  1
  Te2-  Te148  1  0.00353502  0.84121357  0.66848192  1
  Te2-  Te149  1  0.33060347  0.16163981  0.00369998  1
  Te2-  Te150  1  0.32891504  0.16168198  0.33172578  1
  Te2-  Te151  1  0.33122215  0.16263687  0.67136883  1
  Te2-  Te152  1  0.32829677  0.50530457  0.00328530  1
  Te2-  Te153  1  0.33648543  0.49957847  0.33051105  1
  Te2-  Te154  1  0.32609622  0.50851518  0.66226879  1
  Te2-  Te155  1  0.32868363  0.82970786  0.00316374  1
  Te2-  Te156  1  0.32909573  0.83820200  0.32693109  1
  Te2-  Te157  1  0.32681271  0.83151793  0.67184483  1
  Te2-  Te158  1  0.67043056  0.16795144  -0.00549743  1
  Te2-  Te159  1  0.66639507  0.16321149  0.33161148  1
  Te2-  Te160  1  0.66914949  0.16169751  0.66780176  1
  Te2-  Te161  1  0.66744683  0.50782749  -0.00000594  1
  Te2-  Te162  1  0.66649737  0.50429274  0.32858444  1
  Te2-  Te163  1  0.66761474  0.50091367  0.66661746  1
  Te2-  Te164  1  0.67261520  0.82877170  0.00067617  1
  Te2-  Te165  1  0.67359741  0.82924269  0.32868020  1
  Te2-  Te166  1  0.67550196  0.83757917  0.66612035  1
  Te2-  Te167  1  0.00619556  -0.00779486  0.16442869  1
  Te2-  Te168  1  -0.00344764  0.00023956  0.49673357  1
  Te2-  Te169  1  -0.00268212  0.00241056  0.84182414  1
  Te2-  Te170  1  -0.00040530  0.33399421  0.18428477  1
  Te2-  Te171  1  -0.00272561  0.32630792  0.48995301  1
  Te2-  Te172  1  0.00283247  0.32331665  0.83163996  1
  Te2-  Te173  1  0.00256466  0.68011867  0.17585794  1
  Te2-  Te174  1  0.00044404  0.66610157  0.49911836  1
  Te2-  Te175  1  -0.00337424  0.66685603  0.83355119  1
  Te2-  Te176  1  0.33237760  -0.00604797  0.16824204  1
  Te2-  Te177  1  0.33840379  -0.01575478  0.49519397  1
  Te2-  Te178  1  0.35390743  -0.00418534  0.83706340  1
  Te2-  Te179  1  0.32587869  0.33798407  0.16969069  1
  Te2-  Te180  1  0.33978169  0.32610489  0.49359119  1
  Te2-  Te181  1  0.32420280  0.34076398  0.83585460  1
  Te2-  Te182  1  0.33784066  0.66672011  0.16483342  1
  Te2-  Te183  1  0.34336827  0.67982820  0.50777075  1
  Te2-  Te184  1  0.33264361  0.66662008  0.82586073  1
  Te2-  Te185  1  0.66088086  -0.00493057  0.17100988  1
  Te2-  Te186  1  0.66979137  -0.00665989  0.49748319  1
  Te2-  Te187  1  0.65709331  -0.00633320  0.83596421  1
  Te2-  Te188  1  0.67410427  0.33643408  0.15901517  1
  Te2-  Te189  1  0.65558600  0.33557580  0.49451034  1
  Te2-  Te190  1  0.66865943  0.33959977  0.84658351  1
  Te2-  Te191  1  0.66185004  0.66933037  0.16811712  1
  Te2-  Te192  1  0.67141545  0.66409423  0.49749079  1
  Te2-  Te193  1  0.67421040  0.66985701  0.83092092  1
  Pb2+  Pb194  1  0.49996968  0.51341266  0.66703922  1
  Pb2+  Pb195  1  0.83366756  0.16791481  0.33483326  1
  Pb2+  Pb196  1  0.83413963  0.50189639  0.32498511  1
  Pb2+  Pb197  1  0.33305978  0.67037415  0.34128607  1
  Pb2+  Pb198  1  -0.00342577  0.66898130  0.66788460  1
  Pb2+  Pb199  1  0.83307231  0.67312010  0.16874367  1
  Pb2+  Pb200  1  0.32005152  0.33495903  0.00040466  1
  Pb2+  Pb201  1  0.83582885  0.50346892  0.67676777  1
  Pb2+  Pb202  1  0.33380177  0.15400848  0.49917374  1
  Pb2+  Pb203  1  0.83628807  0.33656214  0.83682711  1
  Pb2+  Pb204  1  0.00660756  0.16629476  0.16426232  1
  Pb2+  Pb205  1  0.49889849  0.17582265  0.33146339  1
  Pb2+  Pb206  1  0.33358936  0.33582101  0.66507645  1
  Pb2+  Pb207  1  0.82456110  -0.00369767  0.83315084  1
  Pb2+  Pb208  1  0.17180002  0.33928628  0.50029641  1
  Pb2+  Pb209  1  0.49962276  0.15941118  0.66610137  1
  Pb2+  Pb210  1  0.49572155  0.33193714  0.84453864  1
  Pb2+  Pb211  1  0.16456416  0.67407208  0.83246529  1
  Pb2+  Pb212  1  0.65886421  0.16658726  0.16298795  1
  Pb2+  Pb213  1  0.16963898  0.66967768  0.17043365  1
  Pb2+  Pb214  1  0.00075787  0.33040533  0.66510263  1
  Pb2+  Pb215  1  0.66534308  0.33298735  0.66988213  1
