# generated using pymatgen
data_In22Ag21Sn22Bi21(Te54Pb11)2
_symmetry_space_group_name_H-M   'P 1'
_cell_length_a   19.16175347
_cell_length_b   19.11496363
_cell_length_c   19.16062758
_cell_angle_alpha   90.02102204
_cell_angle_beta   89.97751844
_cell_angle_gamma   90.00090144
_symmetry_Int_Tables_number   1
_chemical_formula_structural   In22Ag21Sn22Bi21(Te54Pb11)2
_chemical_formula_sum   'In22 Ag21 Sn22 Bi21 Te108 Pb22'
_cell_volume   7018.08124073
_cell_formula_units_Z   1
loop_
 _symmetry_equiv_pos_site_id
 _symmetry_equiv_pos_as_xyz
  1  'x, y, z'
loop_
 _atom_type_symbol
 _atom_type_oxidation_number
  In3+  3.0
  Ag+  1.0
  Sn2+  2.0
  Bi3+  3.0
  Te2-  -2.0
  Pb2+  2.0
loop_
 _atom_site_type_symbol
 _atom_site_label
 _atom_site_symmetry_multiplicity
 _atom_site_fract_x
 _atom_site_fract_y
 _atom_site_fract_z
 _atom_site_occupancy
  In3+  In0  1  0.17232508  0.33825020  0.49939633  1
  In3+  In1  1  0.00466314  0.66445074  -0.01790247  1
  In3+  In2  1  -0.01025139  0.66259230  0.31554914  1
  In3+  In3  1  0.32888878  0.15942016  0.50056413  1
  In3+  In4  1  0.83278224  0.51855993  0.67008706  1
  In3+  In5  1  0.32647995  0.64707961  0.33101597  1
  In3+  In6  1  0.33693888  0.33218344  0.67605609  1
  In3+  In7  1  0.66194649  0.82999820  0.83212054  1
  In3+  In8  1  -0.01154603  0.50711462  0.51065693  1
  In3+  In9  1  0.64706763  0.35497195  0.65974560  1
  In3+  In10  1  0.82312452  -0.00047140  0.15774677  1
  In3+  In11  1  0.01252590  0.01268736  -0.00239091  1
  In3+  In12  1  0.66475433  0.81609456  0.48391116  1
  In3+  In13  1  0.83703794  0.50818213  0.02194152  1
  In3+  In14  1  0.65544701  0.33890321  0.31530207  1
  In3+  In15  1  0.16565163  0.65780166  0.15612944  1
  In3+  In16  1  0.17297879  0.50267121  0.67094967  1
  In3+  In17  1  0.16405981  0.85118685  -0.01208225  1
  In3+  In18  1  0.67004857  0.66577534  0.66703132  1
  In3+  In19  1  0.84977151  -0.00308563  0.83701497  1
  In3+  In20  1  0.48120219  0.65818441  0.83060420  1
  In3+  In21  1  0.49900870  0.83876309  0.68375817  1
  Ag+  Ag22  1  0.52497367  0.17688033  0.68334152  1
  Ag+  Ag23  1  0.17000064  0.15035413  0.02335034  1
  Ag+  Ag24  1  0.86218770  0.82904538  0.30799566  1
  Ag+  Ag25  1  0.69459832  0.80528677  0.18936339  1
  Ag+  Ag26  1  -0.00165000  0.14294025  0.15173220  1
  Ag+  Ag27  1  0.33478097  -0.02414419  0.69290021  1
  Ag+  Ag28  1  0.68757576  0.50191604  0.48402415  1
  Ag+  Ag29  1  0.34019906  0.85476391  0.81086856  1
  Ag+  Ag30  1  0.18915861  0.01134075  0.83516960  1
  Ag+  Ag31  1  0.19713726  0.50185633  -0.02690419  1
  Ag+  Ag32  1  0.47301503  0.52900800  0.66647906  1
  Ag+  Ag33  1  0.63721913  0.48333740  0.13968990  1
  Ag+  Ag34  1  0.35894735  0.16916631  0.13764543  1
  Ag+  Ag35  1  0.30471892  0.49927156  0.86220650  1
  Ag+  Ag36  1  0.35624028  0.31853906  0.35713928  1
  Ag+  Ag37  1  0.81397453  0.65165106  0.16779999  1
  Ag+  Ag38  1  -0.01786403  0.83582199  0.85852649  1
  Ag+  Ag39  1  0.31355445  -0.01677656  -0.01553751  1
  Ag+  Ag40  1  0.00259146  0.68784025  0.67132045  1
  Ag+  Ag41  1  -0.01683960  0.50651937  0.14171788  1
  Ag+  Ag42  1  0.52260960  0.82822011  -0.01751311  1
  Sn2+  Sn43  1  0.66757900  0.67179175  0.00392273  1
  Sn2+  Sn44  1  0.01404869  -0.00622133  0.67448747  1
  Sn2+  Sn45  1  0.83020359  0.32806980  0.50524076  1
  Sn2+  Sn46  1  0.50490955  0.50540043  0.34923634  1
  Sn2+  Sn47  1  0.82862243  0.16326009  0.66234231  1
  Sn2+  Sn48  1  0.66004192  0.17720402  0.50413804  1
  Sn2+  Sn49  1  0.83631198  0.67102137  0.48516393  1
  Sn2+  Sn50  1  -0.00490402  0.82452221  0.16309977  1
  Sn2+  Sn51  1  0.66476385  0.66172549  0.33058180  1
  Sn2+  Sn52  1  0.00622176  0.16091073  0.83221277  1
  Sn2+  Sn53  1  0.16723480  0.83056276  0.67745071  1
  Sn2+  Sn54  1  0.16899530  0.00208144  0.16681000  1
  Sn2+  Sn55  1  -0.00392754  0.51197343  0.82626321  1
  Sn2+  Sn56  1  0.83510869  0.82938728  0.00214820  1
  Sn2+  Sn57  1  0.49757918  0.33812414  0.50306979  1
  Sn2+  Sn58  1  0.16841140  0.83503880  0.32347156  1
  Sn2+  Sn59  1  0.50764892  0.66985021  0.16070363  1
  Sn2+  Sn60  1  0.83733804  0.33047035  0.82894364  1
  Sn2+  Sn61  1  0.15818150  0.66791717  0.49964981  1
  Sn2+  Sn62  1  0.16394801  -0.00132377  0.51836842  1
  Sn2+  Sn63  1  0.83291676  0.83384901  0.66808878  1
  Sn2+  Sn64  1  0.17008397  0.16788827  0.32180069  1
  Bi3+  Bi65  1  0.66772692  0.50419778  0.83095477  1
  Bi3+  Bi66  1  0.16595863  0.50168880  0.34013579  1
  Bi3+  Bi67  1  0.83629127  0.16275472  0.33155820  1
  Bi3+  Bi68  1  0.16456912  0.33467552  0.16732079  1
  Bi3+  Bi69  1  0.00056695  0.33742095  0.33548176  1
  Bi3+  Bi70  1  0.32749638  0.33351042  0.00055294  1
  Bi3+  Bi71  1  0.50208631  0.33715634  0.83288163  1
  Bi3+  Bi72  1  0.66390756  -0.00143104  -0.00030564  1
  Bi3+  Bi73  1  0.66877157  0.33463326  -0.00795394  1
  Bi3+  Bi74  1  0.16673812  0.67039089  0.83462259  1
  Bi3+  Bi75  1  0.49738079  0.82975303  0.32719523  1
  Bi3+  Bi76  1  0.49979495  -0.00367725  0.83656022  1
  Bi3+  Bi77  1  -0.00139772  0.32638923  0.66692280  1
  Bi3+  Bi78  1  -0.00210716  0.83156430  0.50291952  1
  Bi3+  Bi79  1  0.83252997  -0.00559092  0.50312711  1
  Bi3+  Bi80  1  0.50140210  0.16739887  0.34093817  1
  Bi3+  Bi81  1  0.33081007  0.00725398  0.32917199  1
  Bi3+  Bi82  1  0.49502161  -0.00258645  0.16638427  1
  Bi3+  Bi83  1  0.32964644  0.84284760  0.16895753  1
  Bi3+  Bi84  1  0.16399505  0.16559794  0.66224574  1
  Bi3+  Bi85  1  0.33492507  0.49978466  0.50011427  1
  Te2-  Te86  1  0.14914924  0.17131551  0.16748867  1
  Te2-  Te87  1  0.16971875  0.16889151  0.49793477  1
  Te2-  Te88  1  0.16253906  0.15793675  0.82488621  1
  Te2-  Te89  1  0.16353347  0.50431303  0.17888989  1
  Te2-  Te90  1  0.16933269  0.50021963  0.50510263  1
  Te2-  Te91  1  0.15766404  0.50152166  0.82643295  1
  Te2-  Te92  1  0.16629175  0.83258859  0.16575391  1
  Te2-  Te93  1  0.16140801  0.83355756  0.50390365  1
  Te2-  Te94  1  0.18110042  0.82921035  0.83708452  1
  Te2-  Te95  1  0.50347868  0.16477218  0.17284242  1
  Te2-  Te96  1  0.49885732  0.17015960  0.50137372  1
  Te2-  Te97  1  0.49905804  0.16739015  0.82815787  1
  Te2-  Te98  1  0.49872493  0.50837051  0.17062129  1
  Te2-  Te99  1  0.49575558  0.49791344  0.51765907  1
  Te2-  Te100  1  0.50668331  0.50206631  0.81686153  1
  Te2-  Te101  1  0.49236441  0.83502309  0.16640691  1
  Te2-  Te102  1  0.50898418  0.83092828  0.49277852  1
  Te2-  Te103  1  0.48905392  0.83026315  0.83781237  1
  Te2-  Te104  1  0.84714258  0.15843004  0.16931156  1
  Te2-  Te105  1  0.83112345  0.15956669  0.49374201  1
  Te2-  Te106  1  0.83943840  0.15641984  0.83182711  1
  Te2-  Te107  1  0.83721624  0.50520768  0.17296223  1
  Te2-  Te108  1  0.83267685  0.50144011  0.50919741  1
  Te2-  Te109  1  0.82973320  0.50007680  0.82539925  1
  Te2-  Te110  1  0.83268705  0.84556605  0.16623172  1
  Te2-  Te111  1  0.82683831  0.83287572  0.50145905  1
  Te2-  Te112  1  0.83435264  0.83947498  0.83194690  1
  Te2-  Te113  1  0.16713888  0.00632285  -0.00736608  1
  Te2-  Te114  1  0.16819669  0.00234297  0.33593050  1
  Te2-  Te115  1  0.18025588  0.00104037  0.67722241  1
  Te2-  Te116  1  0.16743406  0.35644664  0.00238777  1
  Te2-  Te117  1  0.16205521  0.33651821  0.33654079  1
  Te2-  Te118  1  0.16193072  0.33456029  0.66236817  1
  Te2-  Te119  1  0.16033417  0.64749929  -0.00066070  1
  Te2-  Te120  1  0.16992589  0.66505985  0.33625002  1
  Te2-  Te121  1  0.15486928  0.66032423  0.67095137  1
  Te2-  Te122  1  0.50161141  -0.00765152  0.00171643  1
  Te2-  Te123  1  0.49907842  0.00191373  0.33185833  1
  Te2-  Te124  1  0.48721804  -0.00754855  0.67285046  1
  Te2-  Te125  1  0.50343486  0.33196748  -0.00441321  1
  Te2-  Te126  1  0.50064654  0.33232289  0.33447601  1
  Te2-  Te127  1  0.49736840  0.32167892  0.67159252  1
  Te2-  Te128  1  0.50054008  0.67769363  -0.00954866  1
  Te2-  Te129  1  0.49817967  0.66643858  0.33126609  1
  Te2-  Te130  1  0.50261068  0.67448246  0.67515200  1
  Te2-  Te131  1  0.82970354  -0.00216895  -0.00369107  1
  Te2-  Te132  1  0.83643795  -0.00492909  0.33467187  1
  Te2-  Te133  1  0.83828096  -0.00161387  0.66816192  1
  Te2-  Te134  1  0.83059788  0.33573474  -0.00138680  1
  Te2-  Te135  1  0.83659471  0.33025008  0.33893521  1
  Te2-  Te136  1  0.83715354  0.32472965  0.66723105  1
  Te2-  Te137  1  0.83747501  0.66597635  0.01510514  1
  Te2-  Te138  1  0.83623263  0.67830269  0.32078801  1
  Te2-  Te139  1  0.83595514  0.67023356  0.66813351  1
  Te2-  Te140  1  0.01202942  0.16526708  0.00293301  1
  Te2-  Te141  1  -0.00188426  0.17071903  0.33052859  1
  Te2-  Te142  1  0.00041649  0.16204308  0.66519776  1
  Te2-  Te143  1  -0.01145547  0.50861478  -0.00638874  1
  Te2-  Te144  1  0.00281416  0.50648690  0.35082177  1
  Te2-  Te145  1  -0.00706290  0.48965073  0.66532986  1
  Te2-  Te146  1  0.00849369  0.82061762  0.00238227  1
  Te2-  Te147  1  0.00427794  0.82249135  0.33944407  1
  Te2-  Te148  1  0.00407426  0.83707512  0.66404034  1
  Te2-  Te149  1  0.31998123  0.17391051  -0.00437346  1
  Te2-  Te150  1  0.33810150  0.17147365  0.34221992  1
  Te2-  Te151  1  0.32475311  0.17780710  0.65609232  1
  Te2-  Te152  1  0.34421183  0.50054400  0.00638221  1
  Te2-  Te153  1  0.33436714  0.48967687  0.33750980  1
  Te2-  Te154  1  0.32933380  0.49095725  0.66361393  1
  Te2-  Te155  1  0.31519786  0.83881842  0.01042057  1
  Te2-  Te156  1  0.33402841  0.84211822  0.33344866  1
  Te2-  Te157  1  0.33617930  0.82880853  0.66577540  1
  Te2-  Te158  1  0.66611969  0.16864746  0.00011268  1
  Te2-  Te159  1  0.66942826  0.17652737  0.33645904  1
  Te2-  Te160  1  0.66928167  0.16401924  0.66336617  1
  Te2-  Te161  1  0.67538813  0.49996810  -0.00251524  1
  Te2-  Te162  1  0.66315416  0.49382044  0.33852231  1
  Te2-  Te163  1  0.67375574  0.50571558  0.66854837  1
  Te2-  Te164  1  0.66960987  0.83491685  -0.00847798  1
  Te2-  Te165  1  0.66058371  0.82802812  0.33026478  1
  Te2-  Te166  1  0.66184971  0.82523369  0.67497459  1
  Te2-  Te167  1  0.00285709  -0.00696487  0.15227123  1
  Te2-  Te168  1  -0.00200275  -0.00595861  0.49890786  1
  Te2-  Te169  1  0.00116703  -0.01361507  0.84386817  1
  Te2-  Te170  1  0.00205345  0.35228025  0.17237430  1
  Te2-  Te171  1  0.00070506  0.33962658  0.50130070  1
  Te2-  Te172  1  -0.00219881  0.33086468  0.83180567  1
  Te2-  Te173  1  0.01062563  0.65731881  0.16801568  1
  Te2-  Te174  1  -0.00261653  0.66622964  0.52001193  1
  Te2-  Te175  1  0.00132739  0.68319841  0.82885287  1
  Te2-  Te176  1  0.33121895  0.01556185  0.16799005  1
  Te2-  Te177  1  0.32970623  0.00442170  0.49523270  1
  Te2-  Te178  1  0.33752955  -0.00008118  0.84004651  1
  Te2-  Te179  1  0.32569535  0.31783971  0.16240641  1
  Te2-  Te180  1  0.32820453  0.33662069  0.50149763  1
  Te2-  Te181  1  0.33662438  0.34836915  0.83409510  1
  Te2-  Te182  1  0.32516253  0.67419366  0.17301290  1
  Te2-  Te183  1  0.33058324  0.66459358  0.49372967  1
  Te2-  Te184  1  0.32942796  0.64515257  0.83292168  1
  Te2-  Te185  1  0.66517393  -0.00275584  0.16253342  1
  Te2-  Te186  1  0.66980706  -0.00025472  0.50108114  1
  Te2-  Te187  1  0.66252057  -0.00722955  0.83480714  1
  Te2-  Te188  1  0.66631571  0.33889312  0.15983927  1
  Te2-  Te189  1  0.66889231  0.34643626  0.50962790  1
  Te2-  Te190  1  0.66754474  0.33532708  0.82952571  1
  Te2-  Te191  1  0.66621657  0.66506317  0.16416164  1
  Te2-  Te192  1  0.67236052  0.65802686  0.50282655  1
  Te2-  Te193  1  0.66767595  0.66950214  0.83130772  1
  Pb2+  Pb194  1  0.33239829  0.83615472  0.50114516  1
  Pb2+  Pb195  1  0.00148823  0.16940185  0.49521452  1
  Pb2+  Pb196  1  0.48623679  0.15808880  -0.00012268  1
  Pb2+  Pb197  1  0.67031487  0.16390579  0.83208008  1
  Pb2+  Pb198  1  0.83818026  0.33449985  0.17076114  1
  Pb2+  Pb199  1  0.49937865  0.00056671  0.50480696  1
  Pb2+  Pb200  1  0.66517824  -0.00659740  0.66645017  1
  Pb2+  Pb201  1  0.32730048  0.49743621  0.16996557  1
  Pb2+  Pb202  1  0.50257592  0.66319614  0.50231795  1
  Pb2+  Pb203  1  0.84233567  0.16580949  -0.00210606  1
  Pb2+  Pb204  1  0.16729474  0.32661730  0.83440775  1
  Pb2+  Pb205  1  0.48953134  0.33897786  0.16500168  1
  Pb2+  Pb206  1  0.32587727  0.66258592  0.66608994  1
  Pb2+  Pb207  1  0.67536486  0.16694402  0.16785868  1
  Pb2+  Pb208  1  0.83287803  0.66950407  0.84196628  1
  Pb2+  Pb209  1  0.67136164  -0.00111833  0.33346452  1
  Pb2+  Pb210  1  0.33137647  0.16856740  0.82657300  1
  Pb2+  Pb211  1  0.00159950  -0.00275793  0.32145580  1
  Pb2+  Pb212  1  0.83402448  0.50446214  0.33787717  1
  Pb2+  Pb213  1  0.33010360  0.67573831  0.00203684  1
  Pb2+  Pb214  1  0.50756494  0.50913399  -0.00826758  1
  Pb2+  Pb215  1  0.00239628  0.33745085  0.00424604  1
