# generated using pymatgen
data_In22Ag21Sn22Bi21(Te54Pb11)2
_symmetry_space_group_name_H-M   'P 1'
_cell_length_a   19.13174404
_cell_length_b   19.13027350
_cell_length_c   19.12495062
_cell_angle_alpha   89.98906041
_cell_angle_beta   89.98910419
_cell_angle_gamma   89.99900148
_symmetry_Int_Tables_number   1
_chemical_formula_structural   In22Ag21Sn22Bi21(Te54Pb11)2
_chemical_formula_sum   'In22 Ag21 Sn22 Bi21 Te108 Pb22'
_cell_volume   6999.64553484
_cell_formula_units_Z   1
loop_
 _symmetry_equiv_pos_site_id
 _symmetry_equiv_pos_as_xyz
  1  'x, y, z'
loop_
 _atom_type_symbol
 _atom_type_oxidation_number
  In3+  3.0
  Ag+  1.0
  Sn2+  2.0
  Bi3+  3.0
  Te2-  -2.0
  Pb2+  2.0
loop_
 _atom_site_type_symbol
 _atom_site_label
 _atom_site_symmetry_multiplicity
 _atom_site_fract_x
 _atom_site_fract_y
 _atom_site_fract_z
 _atom_site_occupancy
  In3+  In0  1  0.65916813  0.33815884  0.33958792  1
  In3+  In1  1  0.30826358  0.49658917  0.16770106  1
  In3+  In2  1  0.18054288  0.67509747  0.83214881  1
  In3+  In3  1  -0.01961537  0.66949176  0.33408411  1
  In3+  In4  1  0.83362039  0.32467552  0.83503715  1
  In3+  In5  1  0.00496279  0.49976501  0.84920891  1
  In3+  In6  1  0.66000278  0.49579642  0.49422682  1
  In3+  In7  1  0.83566673  0.33163458  0.50511112  1
  In3+  In8  1  0.16227366  0.66817087  0.16015808  1
  In3+  In9  1  0.17076656  0.48883036  0.00209510  1
  In3+  In10  1  0.65150727  0.16788506  0.17522539  1
  In3+  In11  1  0.33556759  0.13896726  0.82089876  1
  In3+  In12  1  0.00529065  0.67103322  0.66578020  1
  In3+  In13  1  0.16173137  0.52614888  0.33447576  1
  In3+  In14  1  0.83215358  0.51020030  0.66548072  1
  In3+  In15  1  0.33849967  0.15030868  0.16011854  1
  In3+  In16  1  0.35689029  0.33369476  0.67504234  1
  In3+  In17  1  0.18468719  0.83745982  0.01457449  1
  In3+  In18  1  0.83276515  0.02117260  0.17971104  1
  In3+  In19  1  0.50361594  0.51361349  0.33170456  1
  In3+  In20  1  0.84142411  0.49790533  0.32430354  1
  In3+  In21  1  0.64004700  -0.00620127  0.33835654  1
  Ag+  Ag22  1  0.33809152  -0.02741891  0.35629759  1
  Ag+  Ag23  1  0.35889791  0.85037761  0.17255095  1
  Ag+  Ag24  1  0.36171209  0.70070946  0.70433533  1
  Ag+  Ag25  1  -0.00112940  0.48009562  0.15132673  1
  Ag+  Ag26  1  0.47471276  0.65496673  0.80238898  1
  Ag+  Ag27  1  0.51135714  0.30431412  0.52363725  1
  Ag+  Ag28  1  0.47857005  0.82983289  -0.02252384  1
  Ag+  Ag29  1  0.35840833  -0.00040319  0.01327278  1
  Ag+  Ag30  1  0.82368617  0.31715624  0.19394323  1
  Ag+  Ag31  1  0.51467758  0.84248689  0.33686574  1
  Ag+  Ag32  1  0.52139805  0.19030671  0.65542032  1
  Ag+  Ag33  1  0.19080593  0.82762807  0.30891196  1
  Ag+  Ag34  1  -0.03014271  0.15418877  0.52499828  1
  Ag+  Ag35  1  0.17570314  0.13420399  0.01838882  1
  Ag+  Ag36  1  0.51313670  -0.02364890  0.52171378  1
  Ag+  Ag37  1  0.80603733  0.81397079  0.66333169  1
  Ag+  Ag38  1  0.66935414  0.32045505  0.68615385  1
  Ag+  Ag39  1  0.67229930  0.68917953  0.33437240  1
  Ag+  Ag40  1  0.33614410  0.83414008  0.80690632  1
  Ag+  Ag41  1  0.51013024  0.83860838  0.67951072  1
  Ag+  Ag42  1  0.80746460  0.17171643  0.01566030  1
  Sn2+  Sn43  1  0.65994828  0.66438483  0.66190006  1
  Sn2+  Sn44  1  0.83358538  -0.00346455  0.83537410  1
  Sn2+  Sn45  1  0.00158123  0.33324816  0.33318521  1
  Sn2+  Sn46  1  0.83266004  0.84414603  -0.01383630  1
  Sn2+  Sn47  1  0.00174328  0.66965057  0.00348975  1
  Sn2+  Sn48  1  0.33644960  0.83031584  0.48621033  1
  Sn2+  Sn49  1  0.82967122  -0.00374644  0.49840069  1
  Sn2+  Sn50  1  0.65725440  0.17211660  0.50130324  1
  Sn2+  Sn51  1  0.66246974  0.83379428  0.16586375  1
  Sn2+  Sn52  1  0.16138373  0.33452385  0.16670726  1
  Sn2+  Sn53  1  0.01636780  -0.00247325  0.33683310  1
  Sn2+  Sn54  1  0.00121139  0.82493974  0.83427540  1
  Sn2+  Sn55  1  0.48873495  0.15267838  -0.00939527  1
  Sn2+  Sn56  1  0.66819762  0.33317485  0.00167571  1
  Sn2+  Sn57  1  -0.00724773  -0.00308382  0.66332067  1
  Sn2+  Sn58  1  0.65002005  0.82976240  0.83301212  1
  Sn2+  Sn59  1  0.33885839  0.16426290  0.49457781  1
  Sn2+  Sn60  1  0.49897312  -0.00988502  0.16930800  1
  Sn2+  Sn61  1  -0.00514405  0.32523869  0.00592612  1
  Sn2+  Sn62  1  0.33706119  -0.00283851  0.66393664  1
  Sn2+  Sn63  1  0.16736650  0.33039297  0.82817791  1
  Sn2+  Sn64  1  0.16855348  -0.00510525  0.83249585  1
  Bi3+  Bi65  1  -0.00373323  0.49644754  0.49536687  1
  Bi3+  Bi66  1  0.49836891  0.66950085  0.49480778  1
  Bi3+  Bi67  1  0.17095995  0.16785693  0.66536192  1
  Bi3+  Bi68  1  0.50025666  0.66832378  0.16859768  1
  Bi3+  Bi69  1  0.50631413  0.33678376  0.16403320  1
  Bi3+  Bi70  1  0.33840575  0.66799338  0.33622594  1
  Bi3+  Bi71  1  0.83308652  0.16792765  0.66672892  1
  Bi3+  Bi72  1  0.16738842  0.83545200  0.66774811  1
  Bi3+  Bi73  1  0.49729816  -0.00583092  0.82872351  1
  Bi3+  Bi74  1  0.33453275  0.49563485  0.49410215  1
  Bi3+  Bi75  1  0.33368875  0.67639465  0.01138368  1
  Bi3+  Bi76  1  0.17039464  0.16515026  0.33024088  1
  Bi3+  Bi77  1  0.00628513  0.17047591  0.16511287  1
  Bi3+  Bi78  1  -0.00597840  0.00013565  -0.00250162  1
  Bi3+  Bi79  1  -0.00951955  0.83234838  0.16684013  1
  Bi3+  Bi80  1  0.33781154  0.33306148  0.33376386  1
  Bi3+  Bi81  1  0.83255803  0.67009540  0.83413229  1
  Bi3+  Bi82  1  0.83382952  0.66582971  0.16569849  1
  Bi3+  Bi83  1  0.17494567  0.00189875  0.49993337  1
  Bi3+  Bi84  1  0.66983593  0.50612499  0.82765369  1
  Bi3+  Bi85  1  0.66771492  0.00287195  0.00416386  1
  Te2-  Te86  1  0.17220967  0.16870430  0.16336622  1
  Te2-  Te87  1  0.17062400  0.16418535  0.49672954  1
  Te2-  Te88  1  0.17908840  0.16680616  0.82719278  1
  Te2-  Te89  1  0.15113492  0.50339103  0.16699164  1
  Te2-  Te90  1  0.16475728  0.49919018  0.49563123  1
  Te2-  Te91  1  0.16046309  0.50641660  0.84026531  1
  Te2-  Te92  1  0.15482268  0.82889644  0.16659543  1
  Te2-  Te93  1  0.16629439  0.83984920  0.50303020  1
  Te2-  Te94  1  0.17180826  0.82909215  0.83006910  1
  Te2-  Te95  1  0.49795510  0.17097235  0.16257591  1
  Te2-  Te96  1  0.49959927  0.15911818  0.51051687  1
  Te2-  Te97  1  0.49002658  0.16207442  0.82525968  1
  Te2-  Te98  1  0.50603097  0.50003275  0.16897008  1
  Te2-  Te99  1  0.49969890  0.50306386  0.49326599  1
  Te2-  Te100  1  0.50385562  0.51215234  0.83313157  1
  Te2-  Te101  1  0.50652188  0.82977820  0.17714877  1
  Te2-  Te102  1  0.49426553  0.83429106  0.48447062  1
  Te2-  Te103  1  0.49231044  0.83310018  0.83116223  1
  Te2-  Te104  1  0.84313511  0.17428886  0.16030875  1
  Te2-  Te105  1  0.82694911  0.17167001  0.50112240  1
  Te2-  Te106  1  0.83568884  0.16955843  0.82909848  1
  Te2-  Te107  1  0.84718528  0.50349835  0.16976552  1
  Te2-  Te108  1  0.83279764  0.49220585  0.49895397  1
  Te2-  Te109  1  0.83559574  0.50239862  0.82707270  1
  Te2-  Te110  1  0.82965725  0.82788898  0.16144450  1
  Te2-  Te111  1  0.83207555  0.83750895  0.51206639  1
  Te2-  Te112  1  0.83178215  0.83256977  0.82061704  1
  Te2-  Te113  1  0.15905676  -0.01000958  -0.00390648  1
  Te2-  Te114  1  0.18303764  -0.00022096  0.33676373  1
  Te2-  Te115  1  0.16465819  0.00350957  0.66520583  1
  Te2-  Te116  1  0.16430621  0.33881833  -0.00260603  1
  Te2-  Te117  1  0.17261235  0.32948412  0.32856862  1
  Te2-  Te118  1  0.15952306  0.33083151  0.66720560  1
  Te2-  Te119  1  0.16753842  0.67763437  -0.00203382  1
  Te2-  Te120  1  0.17392467  0.67785001  0.33088189  1
  Te2-  Te121  1  0.16283346  0.66720409  0.67561772  1
  Te2-  Te122  1  0.50589308  -0.00876852  -0.00309137  1
  Te2-  Te123  1  0.48867155  -0.00409339  0.32598807  1
  Te2-  Te124  1  0.49563685  -0.01200753  0.66737697  1
  Te2-  Te125  1  0.49888758  0.33296296  0.00267615  1
  Te2-  Te126  1  0.50320912  0.33162889  0.32431963  1
  Te2-  Te127  1  0.51079145  0.33685264  0.66824998  1
  Te2-  Te128  1  0.49880003  0.68184446  0.00765123  1
  Te2-  Te129  1  0.50323704  0.67180805  0.33077617  1
  Te2-  Te130  1  0.50067281  0.68018595  0.65869337  1
  Te2-  Te131  1  0.83144277  0.01647542  0.00001917  1
  Te2-  Te132  1  0.84058691  0.00388571  0.33402640  1
  Te2-  Te133  1  0.83421565  0.00645264  0.66469430  1
  Te2-  Te134  1  0.83342207  0.32159487  -0.00967768  1
  Te2-  Te135  1  0.82818761  0.34128725  0.33867434  1
  Te2-  Te136  1  0.81958819  0.33166237  0.65948353  1
  Te2-  Te137  1  0.83535908  0.66659134  -0.00036838  1
  Te2-  Te138  1  0.82158287  0.66219071  0.33014459  1
  Te2-  Te139  1  0.83273987  0.66865895  0.66852837  1
  Te2-  Te140  1  0.02015182  0.16258716  0.00191144  1
  Te2-  Te141  1  0.00807860  0.16538132  0.32710546  1
  Te2-  Te142  1  0.00165013  0.16760198  0.66738453  1
  Te2-  Te143  1  0.00514870  0.50131209  0.00331998  1
  Te2-  Te144  1  0.00140097  0.50315942  0.33540367  1
  Te2-  Te145  1  -0.00785296  0.50834773  0.65810976  1
  Te2-  Te146  1  -0.00513851  0.83691341  0.00056564  1
  Te2-  Te147  1  -0.00231104  0.83136183  0.33128774  1
  Te2-  Te148  1  0.00468199  0.82880226  0.66890201  1
  Te2-  Te149  1  0.32901420  0.15103461  0.00246702  1
  Te2-  Te150  1  0.33235025  0.17153955  0.32086845  1
  Te2-  Te151  1  0.33092536  0.17530525  0.66833809  1
  Te2-  Te152  1  0.32534153  0.50465594  0.00295867  1
  Te2-  Te153  1  0.32719488  0.49927750  0.32991548  1
  Te2-  Te154  1  0.33206748  0.48812711  0.66025756  1
  Te2-  Te155  1  0.33454353  0.83806547  0.02075363  1
  Te2-  Te156  1  0.33425643  0.82903813  0.32300461  1
  Te2-  Te157  1  0.32651540  0.83509910  0.65731663  1
  Te2-  Te158  1  0.66022185  0.16615376  0.00414820  1
  Te2-  Te159  1  0.66800575  0.16244194  0.32889044  1
  Te2-  Te160  1  0.66757645  0.17252317  0.66680867  1
  Te2-  Te161  1  0.66687803  0.50090982  -0.00452775  1
  Te2-  Te162  1  0.66860660  0.49128351  0.33817380  1
  Te2-  Te163  1  0.67424718  0.50221406  0.66200863  1
  Te2-  Te164  1  0.67483659  0.84123340  -0.00025185  1
  Te2-  Te165  1  0.66486617  0.83842063  0.33378983  1
  Te2-  Te166  1  0.66041524  0.83350018  0.66913024  1
  Te2-  Te167  1  -0.00628021  -0.00062971  0.16455770  1
  Te2-  Te168  1  0.00206761  0.01247733  0.49580165  1
  Te2-  Te169  1  -0.00103165  -0.00314237  0.83394982  1
  Te2-  Te170  1  -0.00800890  0.33279043  0.16884847  1
  Te2-  Te171  1  -0.00416414  0.33182223  0.49425283  1
  Te2-  Te172  1  -0.00373694  0.34380091  0.83448647  1
  Te2-  Te173  1  0.00048014  0.67018011  0.17232441  1
  Te2-  Te174  1  -0.00106932  0.66262110  0.49621775  1
  Te2-  Te175  1  -0.00563713  0.65916997  0.83158548  1
  Te2-  Te176  1  0.33578741  -0.00304374  0.15935344  1
  Te2-  Te177  1  0.33700118  0.00365682  0.50033143  1
  Te2-  Te178  1  0.33421875  -0.01427433  0.83550289  1
  Te2-  Te179  1  0.33646955  0.34344909  0.16750793  1
  Te2-  Te180  1  0.34749849  0.33413476  0.49631930  1
  Te2-  Te181  1  0.33205655  0.34018953  0.83031571  1
  Te2-  Te182  1  0.32885973  0.65589558  0.17148060  1
  Te2-  Te183  1  0.33437343  0.65775451  0.49990201  1
  Te2-  Te184  1  0.33442541  0.67917002  0.84680926  1
  Te2-  Te185  1  0.67383536  0.00821729  0.17053167  1
  Te2-  Te186  1  0.65720719  0.00108160  0.49138666  1
  Te2-  Te187  1  0.66560764  -0.00043730  0.83684039  1
  Te2-  Te188  1  0.67547237  0.32598170  0.16679094  1
  Te2-  Te189  1  0.65398713  0.33886254  0.49165233  1
  Te2-  Te190  1  0.67314882  0.34087825  0.83396947  1
  Te2-  Te191  1  0.66714999  0.66388247  0.17904010  1
  Te2-  Te192  1  0.66222717  0.65591234  0.48840040  1
  Te2-  Te193  1  0.67071441  0.66743741  0.83160112  1
  Pb2+  Pb194  1  0.17580802  0.33025085  0.49809769  1
  Pb2+  Pb195  1  0.66086128  0.82899446  0.50328752  1
  Pb2+  Pb196  1  0.50204462  0.50842117  0.66230928  1
  Pb2+  Pb197  1  0.16713467  0.67205793  0.50299723  1
  Pb2+  Pb198  1  0.83089052  0.66236162  0.50020341  1
  Pb2+  Pb199  1  0.49963153  0.16347075  0.34166947  1
  Pb2+  Pb200  1  0.49641730  0.51076510  0.00195157  1
  Pb2+  Pb201  1  0.83484663  0.49075027  -0.00238511  1
  Pb2+  Pb202  1  0.50205343  0.33540792  0.83523146  1
  Pb2+  Pb203  1  0.67459445  0.49580232  0.16933092  1
  Pb2+  Pb204  1  0.16787182  -0.00075524  0.16894002  1
  Pb2+  Pb205  1  0.83662856  0.17196734  0.33158648  1
  Pb2+  Pb206  1  0.33030657  0.32253641  -0.00076330  1
  Pb2+  Pb207  1  0.33188611  0.50769327  0.82886320  1
  Pb2+  Pb208  1  -0.01191017  0.33809502  0.66425460  1
  Pb2+  Pb209  1  -0.00111969  0.84155649  0.49945457  1
  Pb2+  Pb210  1  0.00631925  0.16889136  0.83650753  1
  Pb2+  Pb211  1  0.66393479  0.00298080  0.66397182  1
  Pb2+  Pb212  1  0.66398458  0.16758761  0.83639545  1
  Pb2+  Pb213  1  0.83085537  0.83737771  0.33325889  1
  Pb2+  Pb214  1  0.16266619  0.49906505  0.66764697  1
  Pb2+  Pb215  1  0.66592182  0.67380148  0.00535087  1
