# generated using pymatgen
data_In22Ag21Sn22Bi21(Te54Pb11)2
_symmetry_space_group_name_H-M   'P 1'
_cell_length_a   19.19912343
_cell_length_b   19.16377743
_cell_length_c   19.17480732
_cell_angle_alpha   90.01213191
_cell_angle_beta   89.97372876
_cell_angle_gamma   90.00941601
_symmetry_Int_Tables_number   1
_chemical_formula_structural   In22Ag21Sn22Bi21(Te54Pb11)2
_chemical_formula_sum   'In22 Ag21 Sn22 Bi21 Te108 Pb22'
_cell_volume   7054.94230247
_cell_formula_units_Z   1
loop_
 _symmetry_equiv_pos_site_id
 _symmetry_equiv_pos_as_xyz
  1  'x, y, z'
loop_
 _atom_type_symbol
 _atom_type_oxidation_number
  In3+  3.0
  Ag+  1.0
  Sn2+  2.0
  Bi3+  3.0
  Te2-  -2.0
  Pb2+  2.0
loop_
 _atom_site_type_symbol
 _atom_site_label
 _atom_site_symmetry_multiplicity
 _atom_site_fract_x
 _atom_site_fract_y
 _atom_site_fract_z
 _atom_site_occupancy
  In3+  In0  1  0.00421359  0.18662134  0.15650127  1
  In3+  In1  1  0.64725145  0.16626281  0.13784734  1
  In3+  In2  1  0.17238079  -0.00735267  0.49434740  1
  In3+  In3  1  0.48173580  0.66524984  0.16558584  1
  In3+  In4  1  0.02561983  0.33733017  -0.01272515  1
  In3+  In5  1  0.33446109  0.49663339  0.49016119  1
  In3+  In6  1  -0.01777003  0.33845749  0.66976254  1
  In3+  In7  1  0.32845476  0.50958602  0.15636282  1
  In3+  In8  1  0.83122368  0.66137726  0.84022889  1
  In3+  In9  1  0.83973669  0.81396488  0.66750542  1
  In3+  In10  1  0.33441475  0.33112089  0.68191489  1
  In3+  In11  1  0.19043066  0.82556344  0.00915801  1
  In3+  In12  1  0.47882542  -0.00351614  0.49626265  1
  In3+  In13  1  0.32177324  0.82966592  0.83849960  1
  In3+  In14  1  0.16656687  0.82114044  0.33842475  1
  In3+  In15  1  0.82700966  0.66815958  0.20212827  1
  In3+  In16  1  0.16496917  0.65011252  0.48672658  1
  In3+  In17  1  -0.00110492  0.01628759  0.67140808  1
  In3+  In18  1  0.32782269  0.17697926  0.85419759  1
  In3+  In19  1  0.00821822  0.81863052  0.83363764  1
  In3+  In20  1  0.00090122  0.65599969  0.65957715  1
  In3+  In21  1  0.49499346  0.85597974  -0.00102443  1
  Ag+  Ag22  1  0.18923118  0.47937606  0.34082226  1
  Ag+  Ag23  1  0.80839587  0.30738450  0.86010593  1
  Ag+  Ag24  1  -0.02162832  0.13383615  0.86224268  1
  Ag+  Ag25  1  0.69550082  0.15831791  0.84136593  1
  Ag+  Ag26  1  0.63635867  0.63336855  0.64285454  1
  Ag+  Ag27  1  0.33637928  0.36451645  0.01850936  1
  Ag+  Ag28  1  0.31457030  0.80762746  0.49157834  1
  Ag+  Ag29  1  0.02659841  0.65279172  0.30655156  1
  Ag+  Ag30  1  0.49738954  0.52054814  -0.00077085  1
  Ag+  Ag31  1  0.36734379  0.66290391  -0.02159117  1
  Ag+  Ag32  1  -0.01914182  0.52476213  0.47773948  1
  Ag+  Ag33  1  0.34947813  0.01676794  -0.00123352  1
  Ag+  Ag34  1  0.69243385  -0.02277909  0.03367513  1
  Ag+  Ag35  1  0.70481882  0.63058174  0.29902119  1
  Ag+  Ag36  1  0.35405531  0.19683657  0.14761626  1
  Ag+  Ag37  1  0.63350476  0.53583436  0.50624095  1
  Ag+  Ag38  1  0.80051210  0.19170773  0.30095947  1
  Ag+  Ag39  1  0.18813116  0.66633535  0.81449440  1
  Ag+  Ag40  1  0.80652766  0.64093751  0.50556292  1
  Ag+  Ag41  1  0.18361196  0.64441656  0.14023492  1
  Ag+  Ag42  1  0.48773315  0.16777844  0.01984331  1
  Sn2+  Sn43  1  0.66994764  0.16661973  0.51442137  1
  Sn2+  Sn44  1  0.82916209  0.82948632  -0.00206390  1
  Sn2+  Sn45  1  0.83592653  0.83401395  0.34279098  1
  Sn2+  Sn46  1  0.33285579  0.33138972  0.32597550  1
  Sn2+  Sn47  1  0.00238504  0.66620975  0.00096885  1
  Sn2+  Sn48  1  0.16184968  0.16710072  0.33587012  1
  Sn2+  Sn49  1  0.66388733  0.49660260  0.83444154  1
  Sn2+  Sn50  1  0.66649580  0.67028125  -0.00980263  1
  Sn2+  Sn51  1  0.50184725  0.50553599  0.67714447  1
  Sn2+  Sn52  1  0.17310607  0.33405812  0.16382003  1
  Sn2+  Sn53  1  0.50584170  0.32986240  0.84123739  1
  Sn2+  Sn54  1  0.83242978  0.50459862  0.66244920  1
  Sn2+  Sn55  1  0.16965354  0.16583993  0.66969406  1
  Sn2+  Sn56  1  0.50310167  0.16659334  0.32903652  1
  Sn2+  Sn57  1  0.84037667  0.33828431  0.49939696  1
  Sn2+  Sn58  1  0.50436339  0.66853329  0.49342481  1
  Sn2+  Sn59  1  0.49772851  0.83116565  0.33621651  1
  Sn2+  Sn60  1  0.48863367  -0.00554834  0.16124807  1
  Sn2+  Sn61  1  0.33400040  0.17522396  0.48814588  1
  Sn2+  Sn62  1  0.49889886  0.34013063  0.15417710  1
  Sn2+  Sn63  1  0.00752268  0.50589616  0.17618037  1
  Sn2+  Sn64  1  0.33003801  0.00182511  0.67759079  1
  Bi3+  Bi65  1  0.00040052  -0.00411286  0.33829370  1
  Bi3+  Bi66  1  0.00187395  0.16691629  0.49984227  1
  Bi3+  Bi67  1  0.16720539  -0.00398609  0.16506669  1
  Bi3+  Bi68  1  0.66554797  0.83769117  0.50050146  1
  Bi3+  Bi69  1  0.83405220  0.33572834  0.16411755  1
  Bi3+  Bi70  1  0.17070818  0.16315659  0.00337671  1
  Bi3+  Bi71  1  0.66278320  0.33067458  0.66590285  1
  Bi3+  Bi72  1  0.49618978  0.16896949  0.66160693  1
  Bi3+  Bi73  1  0.16757463  0.34205907  0.83302557  1
  Bi3+  Bi74  1  0.66711766  -0.00018174  0.33607243  1
  Bi3+  Bi75  1  0.83349842  0.50233225  0.33587555  1
  Bi3+  Bi76  1  0.16704705  0.83516322  0.67016377  1
  Bi3+  Bi77  1  -0.00211037  0.49927786  0.83595950  1
  Bi3+  Bi78  1  0.33736001  0.66780990  0.33848309  1
  Bi3+  Bi79  1  0.65357744  0.33432768  -0.00228452  1
  Bi3+  Bi80  1  0.66499803  0.33180713  0.33512915  1
  Bi3+  Bi81  1  -0.00265435  0.82833273  0.16380090  1
  Bi3+  Bi82  1  0.83597137  0.17066219  0.66193735  1
  Bi3+  Bi83  1  0.66903518  0.83640036  0.83193426  1
  Bi3+  Bi84  1  0.66713759  0.00053927  0.66827900  1
  Bi3+  Bi85  1  0.83765168  0.00560537  0.50033525  1
  Te2-  Te86  1  0.15938875  0.16191229  0.16446100  1
  Te2-  Te87  1  0.16563845  0.16099733  0.50136978  1
  Te2-  Te88  1  0.17336692  0.17068127  0.83826052  1
  Te2-  Te89  1  0.17050523  0.50177748  0.17268504  1
  Te2-  Te90  1  0.17549735  0.49811584  0.48841605  1
  Te2-  Te91  1  0.16387181  0.51110348  0.83448051  1
  Te2-  Te92  1  0.15959744  0.83127243  0.16380876  1
  Te2-  Te93  1  0.17225733  0.83861997  0.50540909  1
  Te2-  Te94  1  0.16373684  0.81902915  0.83462593  1
  Te2-  Te95  1  0.49546067  0.16488423  0.16923563  1
  Te2-  Te96  1  0.49876156  0.16022320  0.49976984  1
  Te2-  Te97  1  0.47760014  0.16868024  0.82105290  1
  Te2-  Te98  1  0.49687058  0.50791586  0.15773145  1
  Te2-  Te99  1  0.49043818  0.50263099  0.50399001  1
  Te2-  Te100  1  0.50310964  0.50017669  0.84354228  1
  Te2-  Te101  1  0.49889669  0.82724538  0.16377627  1
  Te2-  Te102  1  0.50102723  0.83855059  0.49986075  1
  Te2-  Te103  1  0.50707241  0.83364863  0.84062434  1
  Te2-  Te104  1  0.84877181  0.17119153  0.16548338  1
  Te2-  Te105  1  0.83901317  0.16949257  0.49887707  1
  Te2-  Te106  1  0.84237947  0.16986862  0.82668478  1
  Te2-  Te107  1  0.83262919  0.49925233  0.16954060  1
  Te2-  Te108  1  0.83867072  0.49597280  0.49883046  1
  Te2-  Te109  1  0.83424438  0.50571182  0.82864910  1
  Te2-  Te110  1  0.83363498  0.82861913  0.16844563  1
  Te2-  Te111  1  0.83476904  0.84348916  0.50934764  1
  Te2-  Te112  1  0.83166973  0.82683800  0.82775953  1
  Te2-  Te113  1  0.16776054  -0.00708515  0.00252978  1
  Te2-  Te114  1  0.16420402  -0.00235515  0.33276424  1
  Te2-  Te115  1  0.16557196  -0.00121773  0.66553612  1
  Te2-  Te116  1  0.18349049  0.33193419  -0.00247143  1
  Te2-  Te117  1  0.16497414  0.33531664  0.32478812  1
  Te2-  Te118  1  0.17902966  0.33200342  0.67130878  1
  Te2-  Te119  1  0.15850383  0.67688195  0.00165616  1
  Te2-  Te120  1  0.16952875  0.66887734  0.33619953  1
  Te2-  Te121  1  0.15879711  0.67221152  0.66946007  1
  Te2-  Te122  1  0.49647802  0.00847810  0.00551440  1
  Te2-  Te123  1  0.50285780  -0.00222883  0.33657869  1
  Te2-  Te124  1  0.50121228  0.00370138  0.65954016  1
  Te2-  Te125  1  0.48953752  0.32066535  0.00085316  1
  Te2-  Te126  1  0.50424228  0.33382521  0.32682222  1
  Te2-  Te127  1  0.49875755  0.33313741  0.66808610  1
  Te2-  Te128  1  0.51009749  0.66687171  0.01272871  1
  Te2-  Te129  1  0.50006422  0.67129829  0.32652396  1
  Te2-  Te130  1  0.49660031  0.66557783  0.66706029  1
  Te2-  Te131  1  0.83152936  0.00183239  0.00135844  1
  Te2-  Te132  1  0.83453540  0.00148913  0.33772280  1
  Te2-  Te133  1  0.83319891  0.00837913  0.66247851  1
  Te2-  Te134  1  0.82215323  0.33494267  0.00299743  1
  Te2-  Te135  1  0.83086601  0.33331050  0.32931939  1
  Te2-  Te136  1  0.82674931  0.33154106  0.66864697  1
  Te2-  Te137  1  0.83037535  0.66951131  -0.00579903  1
  Te2-  Te138  1  0.83471329  0.66798665  0.35605302  1
  Te2-  Te139  1  0.84373434  0.66474512  0.64951432  1
  Te2-  Te140  1  0.00620104  0.17297498  -0.00023634  1
  Te2-  Te141  1  0.00331394  0.16158551  0.33770068  1
  Te2-  Te142  1  0.00191359  0.17544063  0.66460077  1
  Te2-  Te143  1  -0.00145308  0.49845748  -0.00042622  1
  Te2-  Te144  1  -0.00461322  0.51035714  0.33299520  1
  Te2-  Te145  1  0.00256190  0.49785809  0.67131976  1
  Te2-  Te146  1  -0.01070746  0.83338284  -0.00601713  1
  Te2-  Te147  1  0.00469258  0.83140531  0.33304191  1
  Te2-  Te148  1  0.00171770  0.83116359  0.67650001  1
  Te2-  Te149  1  0.33310646  0.16334285  0.00691116  1
  Te2-  Te150  1  0.32988664  0.17098669  0.32803963  1
  Te2-  Te151  1  0.33413685  0.17061469  0.65633074  1
  Te2-  Te152  1  0.34095127  0.51247118  0.00507803  1
  Te2-  Te153  1  0.33388594  0.50441341  0.33239337  1
  Te2-  Te154  1  0.33640463  0.49245402  0.66752480  1
  Te2-  Te155  1  0.34241801  0.81242668  0.00010416  1
  Te2-  Te156  1  0.32867237  0.83310875  0.34549769  1
  Te2-  Te157  1  0.33048075  0.84252251  0.66919025  1
  Te2-  Te158  1  0.65115510  0.17289488  -0.01365031  1
  Te2-  Te159  1  0.66394727  0.16510691  0.34206722  1
  Te2-  Te160  1  0.66491075  0.16593168  0.68095268  1
  Te2-  Te161  1  0.65505600  0.49521291  -0.00260971  1
  Te2-  Te162  1  0.66840159  0.49580990  0.34892994  1
  Te2-  Te163  1  0.66274246  0.49188031  0.66130437  1
  Te2-  Te164  1  0.65951874  0.84032163  -0.00457649  1
  Te2-  Te165  1  0.66747282  0.83692037  0.33613389  1
  Te2-  Te166  1  0.67356679  0.83793966  0.66766414  1
  Te2-  Te167  1  0.00223904  -0.00816141  0.17414834  1
  Te2-  Te168  1  0.00372608  0.00066224  0.50195174  1
  Te2-  Te169  1  0.00164670  -0.00554329  0.82796115  1
  Te2-  Te170  1  -0.00130037  0.33966294  0.16516214  1
  Te2-  Te171  1  0.00363097  0.33125412  0.50690474  1
  Te2-  Te172  1  0.00779496  0.33839499  0.82678046  1
  Te2-  Te173  1  -0.01687116  0.67016805  0.16813643  1
  Te2-  Te174  1  0.01501037  0.66371493  0.50666765  1
  Te2-  Te175  1  -0.01264109  0.66552766  0.82989863  1
  Te2-  Te176  1  0.32876504  -0.00403607  0.15615403  1
  Te2-  Te177  1  0.32743298  0.00675091  0.50056812  1
  Te2-  Te178  1  0.33297095  -0.01818899  0.84886639  1
  Te2-  Te179  1  0.33414928  0.34111364  0.16450552  1
  Te2-  Te180  1  0.33627373  0.34045485  0.48980296  1
  Te2-  Te181  1  0.33062806  0.33321063  0.83667205  1
  Te2-  Te182  1  0.32570866  0.66414604  0.17433419  1
  Te2-  Te183  1  0.33160380  0.66324751  0.49995297  1
  Te2-  Te184  1  0.33412706  0.67517217  0.83384491  1
  Te2-  Te185  1  0.66234115  0.01117265  0.17209541  1
  Te2-  Te186  1  0.67138856  0.00028956  0.50081840  1
  Te2-  Te187  1  0.66580367  0.00527111  0.82905370  1
  Te2-  Te188  1  0.66810380  0.32482403  0.16884061  1
  Te2-  Te189  1  0.67075148  0.32736179  0.50042590  1
  Te2-  Te190  1  0.66687091  0.33287052  0.83105243  1
  Te2-  Te191  1  0.67820665  0.66543300  0.16120466  1
  Te2-  Te192  1  0.66291346  0.67763220  0.50450863  1
  Te2-  Te193  1  0.67638155  0.67041554  0.82570332  1
  Pb2+  Pb194  1  0.50093230  0.50244708  0.32986553  1
  Pb2+  Pb195  1  0.83114759  -0.00581984  0.83197272  1
  Pb2+  Pb196  1  0.33523045  0.50263520  0.83716915  1
  Pb2+  Pb197  1  0.50338276  0.33203005  0.49764963  1
  Pb2+  Pb198  1  0.00333186  0.82826264  0.50396294  1
  Pb2+  Pb199  1  0.83254524  -0.00084265  0.16976528  1
  Pb2+  Pb200  1  0.82103414  0.16971485  0.00031463  1
  Pb2+  Pb201  1  0.50937956  0.66701015  0.83715597  1
  Pb2+  Pb202  1  0.32732764  0.66833470  0.66703943  1
  Pb2+  Pb203  1  0.66537431  0.49646332  0.16997603  1
  Pb2+  Pb204  1  0.16801869  -0.00386563  0.83444250  1
  Pb2+  Pb205  1  0.33000953  0.83249952  0.17382498  1
  Pb2+  Pb206  1  0.16941383  0.32936935  0.49849802  1
  Pb2+  Pb207  1  0.82729516  0.50155857  -0.00376910  1
  Pb2+  Pb208  1  -0.00046699  0.33761282  0.33660963  1
  Pb2+  Pb209  1  0.50317553  0.83389507  0.66895604  1
  Pb2+  Pb210  1  0.16743138  0.50747148  0.00263204  1
  Pb2+  Pb211  1  0.00301054  -0.00083142  0.00417364  1
  Pb2+  Pb212  1  0.33281326  0.00509092  0.32651609  1
  Pb2+  Pb213  1  0.49965796  0.00536416  0.83475893  1
  Pb2+  Pb214  1  0.16952705  0.50002169  0.66113179  1
  Pb2+  Pb215  1  0.66503740  0.83125958  0.16799030  1
