# generated using pymatgen
data_In22Ag21Sn22Bi21(Te54Pb11)2
_symmetry_space_group_name_H-M   'P 1'
_cell_length_a   19.17048031
_cell_length_b   19.18493760
_cell_length_c   19.15089758
_cell_angle_alpha   89.99860567
_cell_angle_beta   89.98221910
_cell_angle_gamma   89.98377601
_symmetry_Int_Tables_number   1
_chemical_formula_structural   In22Ag21Sn22Bi21(Te54Pb11)2
_chemical_formula_sum   'In22 Ag21 Sn22 Bi21 Te108 Pb22'
_cell_volume   7043.40206487
_cell_formula_units_Z   1
loop_
 _symmetry_equiv_pos_site_id
 _symmetry_equiv_pos_as_xyz
  1  'x, y, z'
loop_
 _atom_type_symbol
 _atom_type_oxidation_number
  In3+  3.0
  Ag+  1.0
  Sn2+  2.0
  Bi3+  3.0
  Te2-  -2.0
  Pb2+  2.0
loop_
 _atom_site_type_symbol
 _atom_site_label
 _atom_site_symmetry_multiplicity
 _atom_site_fract_x
 _atom_site_fract_y
 _atom_site_fract_z
 _atom_site_occupancy
  In3+  In0  1  0.66774328  0.83744726  0.16853954  1
  In3+  In1  1  0.50766562  0.48110136  0.33263835  1
  In3+  In2  1  0.65742573  0.66681390  0.67563977  1
  In3+  In3  1  0.83048286  0.81053108  0.35250686  1
  In3+  In4  1  0.34950136  0.33697487  0.67940617  1
  In3+  In5  1  0.35253703  0.50127626  0.82498170  1
  In3+  In6  1  0.16689840  0.32069914  0.14689955  1
  In3+  In7  1  0.01189287  0.16676041  0.49129624  1
  In3+  In8  1  0.67652469  0.33368797  0.34415031  1
  In3+  In9  1  0.51057001  0.32730430  0.81954352  1
  In3+  In10  1  0.82773324  0.52439687  0.67444096  1
  In3+  In11  1  0.80162305  -0.00359914  0.16900872  1
  In3+  In12  1  0.51297464  0.49570827  -0.01360210  1
  In3+  In13  1  0.51002079  0.68840164  0.84219642  1
  In3+  In14  1  0.82851327  0.67427475  0.52076972  1
  In3+  In15  1  0.32725738  0.15564738  0.82359180  1
  In3+  In16  1  0.50056699  0.15936070  0.33342960  1
  In3+  In17  1  -0.00090085  0.32291084  -0.00151135  1
  In3+  In18  1  0.51425616  0.15400296  0.66224058  1
  In3+  In19  1  -0.00293356  0.31792149  0.66935887  1
  In3+  In20  1  0.81326285  0.16537514  -0.00156124  1
  In3+  In21  1  0.34577192  0.66964323  0.36397290  1
  Ag+  Ag22  1  0.65292921  0.51800538  0.83504044  1
  Ag+  Ag23  1  0.30275011  0.79193550  0.79795687  1
  Ag+  Ag24  1  0.19698811  0.33468648  0.84470147  1
  Ag+  Ag25  1  0.63847467  0.30709512  -0.00544280  1
  Ag+  Ag26  1  0.64957675  -0.03380757  0.66399966  1
  Ag+  Ag27  1  0.66112012  0.14603230  0.49966113  1
  Ag+  Ag28  1  0.66230608  0.86192112  0.81716516  1
  Ag+  Ag29  1  0.16989009  0.14349605  -0.03159780  1
  Ag+  Ag30  1  0.03130298  0.30526324  0.30328058  1
  Ag+  Ag31  1  0.35916707  0.69723619  0.67766646  1
  Ag+  Ag32  1  0.80213150  0.70192233  0.81534062  1
  Ag+  Ag33  1  0.65833810  0.67120427  -0.02092117  1
  Ag+  Ag34  1  0.80336427  0.85834273  0.64889413  1
  Ag+  Ag35  1  0.14464251  0.80927219  0.33261112  1
  Ag+  Ag36  1  0.85831771  0.51897718  0.36810991  1
  Ag+  Ag37  1  0.51132423  0.80926291  0.66952214  1
  Ag+  Ag38  1  0.52199917  0.30942849  0.51289943  1
  Ag+  Ag39  1  0.66649991  0.84896987  0.52925904  1
  Ag+  Ag40  1  0.49809954  0.02451053  0.13523962  1
  Ag+  Ag41  1  0.19536076  0.14902126  0.33542828  1
  Ag+  Ag42  1  0.35602539  -0.01300821  0.67030824  1
  Sn2+  Sn43  1  0.66560731  0.66218274  0.33599903  1
  Sn2+  Sn44  1  0.18157077  0.00166368  0.17463426  1
  Sn2+  Sn45  1  0.00524009  0.00429303  0.00091858  1
  Sn2+  Sn46  1  0.82498358  0.33592390  0.83332642  1
  Sn2+  Sn47  1  0.17150947  -0.00546969  0.50137524  1
  Sn2+  Sn48  1  -0.00529636  -0.00255019  0.67059580  1
  Sn2+  Sn49  1  0.00049878  0.84009412  0.16951053  1
  Sn2+  Sn50  1  0.17143643  0.83676086  0.66103541  1
  Sn2+  Sn51  1  0.15687779  0.49521196  0.67509451  1
  Sn2+  Sn52  1  0.17249621  0.66635845  0.17073120  1
  Sn2+  Sn53  1  0.50421965  -0.00547927  0.50693252  1
  Sn2+  Sn54  1  0.66385579  0.50338722  0.50342748  1
  Sn2+  Sn55  1  0.66849533  0.16569879  0.82311586  1
  Sn2+  Sn56  1  0.16295112  0.49595267  0.33598567  1
  Sn2+  Sn57  1  0.50452682  0.83161133  -0.00328793  1
  Sn2+  Sn58  1  0.17130361  -0.00881122  0.82555208  1
  Sn2+  Sn59  1  0.50363360  0.67321735  0.16527908  1
  Sn2+  Sn60  1  0.50080271  -0.00575676  0.82861111  1
  Sn2+  Sn61  1  0.33562675  0.49766327  0.50101133  1
  Sn2+  Sn62  1  0.01388475  0.17320236  0.83387538  1
  Sn2+  Sn63  1  0.16884371  0.16601235  0.65787193  1
  Sn2+  Sn64  1  0.50238877  0.50337938  0.65870946  1
  Bi3+  Bi65  1  0.33022855  0.33708250  0.00326733  1
  Bi3+  Bi66  1  0.82943262  0.33145112  0.16662727  1
  Bi3+  Bi67  1  0.33079004  0.50389253  0.16543424  1
  Bi3+  Bi68  1  0.33170793  0.16602836  0.16461708  1
  Bi3+  Bi69  1  0.83536256  0.00469766  0.83670401  1
  Bi3+  Bi70  1  0.33614830  0.83342447  0.16789029  1
  Bi3+  Bi71  1  0.33896151  0.83776811  0.50347706  1
  Bi3+  Bi72  1  0.83067008  0.33332613  0.49818982  1
  Bi3+  Bi73  1  0.00522348  0.66891305  0.66916915  1
  Bi3+  Bi74  1  0.83068551  0.16293907  0.66643589  1
  Bi3+  Bi75  1  0.82561194  0.17015605  0.33408137  1
  Bi3+  Bi76  1  0.00013830  0.66621349  0.33242252  1
  Bi3+  Bi77  1  -0.00499664  0.66629997  -0.00000910  1
  Bi3+  Bi78  1  0.16444188  0.33483893  0.50282516  1
  Bi3+  Bi79  1  0.50670755  0.66825006  0.50029170  1
  Bi3+  Bi80  1  0.32978743  0.34275856  0.33896474  1
  Bi3+  Bi81  1  0.16764974  0.50186881  -0.00056019  1
  Bi3+  Bi82  1  0.66193415  0.50007397  0.15868589  1
  Bi3+  Bi83  1  0.83022417  0.83362211  0.00359638  1
  Bi3+  Bi84  1  -0.00256511  0.49814640  0.83226442  1
  Bi3+  Bi85  1  0.82987469  0.66807229  0.16030985  1
  Te2-  Te86  1  0.17255556  0.16797813  0.18462234  1
  Te2-  Te87  1  0.16643027  0.16912197  0.48773516  1
  Te2-  Te88  1  0.17462891  0.18282791  0.82493865  1
  Te2-  Te89  1  0.16910257  0.49903885  0.16261431  1
  Te2-  Te90  1  0.16780575  0.49997279  0.50680137  1
  Te2-  Te91  1  0.16161399  0.48526433  0.83471363  1
  Te2-  Te92  1  0.17415111  0.83446600  0.18055912  1
  Te2-  Te93  1  0.17212635  0.83508225  0.48724037  1
  Te2-  Te94  1  0.16716675  0.83405136  0.83366626  1
  Te2-  Te95  1  0.49589378  0.16909264  0.16680172  1
  Te2-  Te96  1  0.50793531  0.16441375  0.50831377  1
  Te2-  Te97  1  0.49657295  0.17479146  0.82373829  1
  Te2-  Te98  1  0.49566037  0.50485552  0.17320729  1
  Te2-  Te99  1  0.49803557  0.50785581  0.49038804  1
  Te2-  Te100  1  0.50636316  0.48932319  0.83085495  1
  Te2-  Te101  1  0.49840882  0.82937145  0.16589747  1
  Te2-  Te102  1  0.50556640  0.82864984  0.51447531  1
  Te2-  Te103  1  0.51167540  0.83558506  0.82378435  1
  Te2-  Te104  1  0.83241507  0.16553947  0.16502352  1
  Te2-  Te105  1  0.81440765  0.17197346  0.49973152  1
  Te2-  Te106  1  0.83760011  0.16614572  0.83499632  1
  Te2-  Te107  1  0.82561790  0.49720087  0.16281760  1
  Te2-  Te108  1  0.82658853  0.49728447  0.50864120  1
  Te2-  Te109  1  0.83417547  0.49615667  0.82801939  1
  Te2-  Te110  1  0.82977057  0.83613404  0.16526855  1
  Te2-  Te111  1  0.82010433  0.83094151  0.50606129  1
  Te2-  Te112  1  0.81881680  0.84469114  0.84312867  1
  Te2-  Te113  1  0.16636519  0.00072146  0.00046446  1
  Te2-  Te114  1  0.16877579  0.00501023  0.33453512  1
  Te2-  Te115  1  0.15931387  0.00626615  0.66628850  1
  Te2-  Te116  1  0.16548282  0.34047759  -0.00792919  1
  Te2-  Te117  1  0.16773364  0.33919905  0.34122292  1
  Te2-  Te118  1  0.15152711  0.33174983  0.66127492  1
  Te2-  Te119  1  0.16219283  0.66688408  0.00064310  1
  Te2-  Te120  1  0.16260271  0.66345746  0.33256296  1
  Te2-  Te121  1  0.16459534  0.66520959  0.66755380  1
  Te2-  Te122  1  0.50017203  0.00073745  -0.01046478  1
  Te2-  Te123  1  0.49976560  0.00553494  0.34093417  1
  Te2-  Te124  1  0.50383067  0.00511608  0.66885595  1
  Te2-  Te125  1  0.49318729  0.34153767  0.00237215  1
  Te2-  Te126  1  0.49242173  0.33120150  0.34620865  1
  Te2-  Te127  1  0.50147845  0.34082221  0.65806763  1
  Te2-  Te128  1  0.50652402  0.66252140  -0.00788454  1
  Te2-  Te129  1  0.49942547  0.66866482  0.33831532  1
  Te2-  Te130  1  0.50160361  0.66061459  0.66709649  1
  Te2-  Te131  1  0.83563684  0.00369571  0.00495149  1
  Te2-  Te132  1  0.83065087  0.00622110  0.32513025  1
  Te2-  Te133  1  0.83314549  0.00057288  0.67127482  1
  Te2-  Te134  1  0.84344970  0.32136916  0.00272406  1
  Te2-  Te135  1  0.82956230  0.33291127  0.33142608  1
  Te2-  Te136  1  0.83780405  0.32439406  0.66364198  1
  Te2-  Te137  1  0.83404706  0.66903240  -0.00027344  1
  Te2-  Te138  1  0.83452314  0.65786400  0.32421698  1
  Te2-  Te139  1  0.83995301  0.67751760  0.67524327  1
  Te2-  Te140  1  0.02359456  0.17240086  -0.00292392  1
  Te2-  Te141  1  -0.01235771  0.17102602  0.33880994  1
  Te2-  Te142  1  -0.00661604  0.16304390  0.66096658  1
  Te2-  Te143  1  0.00179119  0.50126035  -0.00244469  1
  Te2-  Te144  1  -0.00090568  0.50378063  0.33411078  1
  Te2-  Te145  1  -0.01068922  0.50686146  0.66931280  1
  Te2-  Te146  1  -0.00287124  0.83090986  0.00168607  1
  Te2-  Te147  1  -0.00105751  0.82984051  0.33370405  1
  Te2-  Te148  1  0.00595316  0.83190965  0.66631864  1
  Te2-  Te149  1  0.31846690  0.17490114  0.00214490  1
  Te2-  Te150  1  0.34270710  0.17425751  0.33133123  1
  Te2-  Te151  1  0.33551767  0.18470478  0.67207636  1
  Te2-  Te152  1  0.33196825  0.49970056  -0.00030161  1
  Te2-  Te153  1  0.33171114  0.50879039  0.32970631  1
  Te2-  Te154  1  0.32841091  0.48887733  0.67305172  1
  Te2-  Te155  1  0.33890372  0.83452385  0.00283241  1
  Te2-  Te156  1  0.33685151  0.82624291  0.33788940  1
  Te2-  Te157  1  0.32847062  0.84167956  0.66374167  1
  Te2-  Te158  1  0.66191360  0.16022675  -0.00257642  1
  Te2-  Te159  1  0.65913328  0.17302286  0.34328678  1
  Te2-  Te160  1  0.66636090  0.17151095  0.65843821  1
  Te2-  Te161  1  0.66145921  0.51666592  -0.00699841  1
  Te2-  Te162  1  0.66116422  0.49115632  0.32475319  1
  Te2-  Te163  1  0.67317189  0.50600756  0.67971083  1
  Te2-  Te164  1  0.66521719  0.82170132  0.01218953  1
  Te2-  Te165  1  0.67362885  0.83052202  0.32341312  1
  Te2-  Te166  1  0.66338670  0.81859564  0.67414844  1
  Te2-  Te167  1  0.00908029  -0.00214523  0.16211917  1
  Te2-  Te168  1  0.00023588  0.00592347  0.50071603  1
  Te2-  Te169  1  0.00049833  0.00343217  0.83627716  1
  Te2-  Te170  1  -0.00199931  0.33324751  0.16381090  1
  Te2-  Te171  1  -0.00565478  0.32668498  0.50404729  1
  Te2-  Te172  1  -0.00731359  0.33579242  0.82969630  1
  Te2-  Te173  1  -0.00285392  0.67112055  0.16565592  1
  Te2-  Te174  1  -0.01082560  0.66818271  0.49853861  1
  Te2-  Te175  1  -0.00185827  0.66313742  0.83530299  1
  Te2-  Te176  1  0.34728398  0.00115453  0.16745706  1
  Te2-  Te177  1  0.33332614  0.00016581  0.51666611  1
  Te2-  Te178  1  0.33083059  0.00652550  0.81920502  1
  Te2-  Te179  1  0.33114515  0.33823687  0.17176056  1
  Te2-  Te180  1  0.32869783  0.33690455  0.50044232  1
  Te2-  Te181  1  0.34395959  0.34257078  0.83718472  1
  Te2-  Te182  1  0.33453311  0.66775583  0.16478152  1
  Te2-  Te183  1  0.33980836  0.67065467  0.51893388  1
  Te2-  Te184  1  0.34486714  0.65604184  0.82462046  1
  Te2-  Te185  1  0.64771808  -0.00074787  0.16554757  1
  Te2-  Te186  1  0.66367402  -0.00536427  0.51247794  1
  Te2-  Te187  1  0.67061613  0.00866356  0.81905816  1
  Te2-  Te188  1  0.66924510  0.33726829  0.14253611  1
  Te2-  Te189  1  0.66503630  0.34307128  0.49989516  1
  Te2-  Te190  1  0.66324651  0.32948068  0.84749834  1
  Te2-  Te191  1  0.66878903  0.66205472  0.17141775  1
  Te2-  Te192  1  0.67293851  0.66495633  0.50103828  1
  Te2-  Te193  1  0.66197081  0.66409318  0.83054770  1
  Pb2+  Pb194  1  0.50334702  0.83663615  0.33941324  1
  Pb2+  Pb195  1  0.16813468  0.83529340  0.00730452  1
  Pb2+  Pb196  1  0.33890427  0.66974146  -0.00493768  1
  Pb2+  Pb197  1  0.16812191  0.65619486  0.83165179  1
  Pb2+  Pb198  1  0.50418645  0.33586017  0.17597064  1
  Pb2+  Pb199  1  0.66606295  -0.00259244  0.34255993  1
  Pb2+  Pb200  1  0.82756987  0.49440553  -0.00614722  1
  Pb2+  Pb201  1  0.83122029  0.00563879  0.49906238  1
  Pb2+  Pb202  1  0.48735049  0.17183396  -0.00923882  1
  Pb2+  Pb203  1  0.16616303  0.66885620  0.50178610  1
  Pb2+  Pb204  1  -0.00098221  0.49485672  0.50200250  1
  Pb2+  Pb205  1  0.66557095  0.17092217  0.17263143  1
  Pb2+  Pb206  1  0.00143858  0.00254904  0.33015391  1
  Pb2+  Pb207  1  -0.00203012  0.83724140  0.50226723  1
  Pb2+  Pb208  1  0.67076232  0.33806694  0.67474271  1
  Pb2+  Pb209  1  0.33272367  -0.00236245  0.34135165  1
  Pb2+  Pb210  1  0.33250852  0.00049762  -0.00808235  1
  Pb2+  Pb211  1  0.66717936  -0.01148696  -0.00979763  1
  Pb2+  Pb212  1  0.33960931  0.16787009  0.50371795  1
  Pb2+  Pb213  1  -0.00412383  0.50131108  0.16790984  1
  Pb2+  Pb214  1  -0.01020280  0.83358899  0.83225385  1
  Pb2+  Pb215  1  0.00377320  0.16420250  0.16327032  1
