# generated using pymatgen
data_In22Ag21Sn22Bi21(Te54Pb11)2
_symmetry_space_group_name_H-M   'P 1'
_cell_length_a   19.17552016
_cell_length_b   19.15662217
_cell_length_c   19.17611590
_cell_angle_alpha   89.99121395
_cell_angle_beta   89.97646427
_cell_angle_gamma   89.97505184
_symmetry_Int_Tables_number   1
_chemical_formula_structural   In22Ag21Sn22Bi21(Te54Pb11)2
_chemical_formula_sum   'In22 Ag21 Sn22 Bi21 Te108 Pb22'
_cell_volume   7044.11845017
_cell_formula_units_Z   1
loop_
 _symmetry_equiv_pos_site_id
 _symmetry_equiv_pos_as_xyz
  1  'x, y, z'
loop_
 _atom_type_symbol
 _atom_type_oxidation_number
  In3+  3.0
  Ag+  1.0
  Sn2+  2.0
  Bi3+  3.0
  Te2-  -2.0
  Pb2+  2.0
loop_
 _atom_site_type_symbol
 _atom_site_label
 _atom_site_symmetry_multiplicity
 _atom_site_fract_x
 _atom_site_fract_y
 _atom_site_fract_z
 _atom_site_occupancy
  In3+  In0  1  0.69052881  0.82254086  0.49480050  1
  In3+  In1  1  0.35580233  0.17246225  0.50657891  1
  In3+  In2  1  0.16749465  0.00708289  0.81347905  1
  In3+  In3  1  0.51550082  0.16785533  -0.01443612  1
  In3+  In4  1  0.33401751  0.35270350  0.33174553  1
  In3+  In5  1  0.82062672  0.50518989  0.66458660  1
  In3+  In6  1  0.65317727  0.17092793  0.81889880  1
  In3+  In7  1  -0.01410785  0.66649585  0.64352213  1
  In3+  In8  1  0.33142800  0.50764645  0.81150749  1
  In3+  In9  1  0.16594474  0.50065392  0.65064433  1
  In3+  In10  1  -0.00433859  0.00707591  0.67422570  1
  In3+  In11  1  0.81788649  0.00612114  0.15831435  1
  In3+  In12  1  0.31707533  0.83371615  0.17569874  1
  In3+  In13  1  0.33958767  0.31476620  0.66554513  1
  In3+  In14  1  0.65078989  0.16667503  0.17587008  1
  In3+  In15  1  0.33718046  0.33501955  -0.01908840  1
  In3+  In16  1  -0.00931757  0.84186830  0.17866057  1
  In3+  In17  1  0.82883875  -0.01509930  0.47752941  1
  In3+  In18  1  0.51562623  0.82173036  0.00397067  1
  In3+  In19  1  0.48918411  0.67533992  0.48766453  1
  In3+  In20  1  0.00179121  0.31813307  0.66556842  1
  In3+  In21  1  -0.00664330  0.17979585  0.16992544  1
  Ag+  Ag22  1  0.52231423  0.16692637  0.68496300  1
  Ag+  Ag23  1  0.47164087  0.15399705  0.31477358  1
  Ag+  Ag24  1  0.85899689  0.35148504  0.14193492  1
  Ag+  Ag25  1  0.14647201  0.02289485  0.16722911  1
  Ag+  Ag26  1  0.83305918  0.80472988  0.31287957  1
  Ag+  Ag27  1  0.36261461  0.86494099  0.86943169  1
  Ag+  Ag28  1  0.30795527  0.64763741  0.32776625  1
  Ag+  Ag29  1  0.85593166  0.64061259  0.86359478  1
  Ag+  Ag30  1  0.65040367  0.63729994  -0.02753880  1
  Ag+  Ag31  1  0.64664742  0.00254628  -0.02337508  1
  Ag+  Ag32  1  -0.03120941  0.35237878  0.34050707  1
  Ag+  Ag33  1  0.00350772  0.19064168  0.86698173  1
  Ag+  Ag34  1  0.16538808  0.19182412  0.64269130  1
  Ag+  Ag35  1  0.14329575  0.48951780  0.35498148  1
  Ag+  Ag36  1  -0.03080885  0.69438460  0.34596550  1
  Ag+  Ag37  1  0.80918932  0.85742844  0.67015586  1
  Ag+  Ag38  1  0.68927025  0.00105523  0.32093188  1
  Ag+  Ag39  1  0.52322501  0.33559371  0.80379300  1
  Ag+  Ag40  1  0.80442076  0.63969666  0.50584204  1
  Ag+  Ag41  1  0.33785540  0.47675857  0.51009383  1
  Ag+  Ag42  1  0.70023901  0.33641427  0.67737095  1
  Sn2+  Sn43  1  0.67022087  0.49916549  0.17470239  1
  Sn2+  Sn44  1  0.50384635  0.66800766  0.17098841  1
  Sn2+  Sn45  1  0.00528451  0.50321313  0.82439073  1
  Sn2+  Sn46  1  0.82918355  0.16659242  -0.00502800  1
  Sn2+  Sn47  1  0.15995504  0.00241142  0.48837514  1
  Sn2+  Sn48  1  0.83158040  0.32970455  0.49284771  1
  Sn2+  Sn49  1  0.16905607  0.33261105  0.17476353  1
  Sn2+  Sn50  1  -0.00071637  -0.00352038  0.00268216  1
  Sn2+  Sn51  1  0.66648890  0.00458098  0.66159629  1
  Sn2+  Sn52  1  0.84205978  0.50047082  0.33549668  1
  Sn2+  Sn53  1  0.50356819  0.49249180  0.33810290  1
  Sn2+  Sn54  1  0.33800897  0.66736051  0.00725200  1
  Sn2+  Sn55  1  0.33016226  0.16193344  0.17163894  1
  Sn2+  Sn56  1  0.17186780  0.84351369  -0.00291650  1
  Sn2+  Sn57  1  0.16336195  0.66769415  0.83481320  1
  Sn2+  Sn58  1  0.16962382  0.17300748  0.33397622  1
  Sn2+  Sn59  1  0.49949809  0.00048151  0.49682598  1
  Sn2+  Sn60  1  0.00604167  0.00553822  0.33451682  1
  Sn2+  Sn61  1  0.67244967  0.66461374  0.67054449  1
  Sn2+  Sn62  1  0.66932210  0.83574043  0.16814376  1
  Sn2+  Sn63  1  0.66102994  0.32074864  0.33935337  1
  Sn2+  Sn64  1  0.33276086  -0.00258779  0.66364362  1
  Bi3+  Bi65  1  0.00025843  0.83768783  0.50172799  1
  Bi3+  Bi66  1  0.66665162  0.67103085  0.33306203  1
  Bi3+  Bi67  1  0.16927904  0.16422530  0.00294253  1
  Bi3+  Bi68  1  -0.00325302  0.16699799  0.49492814  1
  Bi3+  Bi69  1  0.50163937  0.33331042  0.49935060  1
  Bi3+  Bi70  1  0.17000283  0.50264589  0.00076319  1
  Bi3+  Bi71  1  0.16555361  0.33091869  0.83484524  1
  Bi3+  Bi72  1  0.83963721  0.00090098  0.83736099  1
  Bi3+  Bi73  1  0.49882380  0.66002288  0.83117633  1
  Bi3+  Bi74  1  0.00089087  0.50145893  0.16660041  1
  Bi3+  Bi75  1  0.16856930  0.66741584  0.49724046  1
  Bi3+  Bi76  1  0.16526108  0.82753443  0.67047817  1
  Bi3+  Bi77  1  0.50060585  0.33527449  0.17307928  1
  Bi3+  Bi78  1  0.83435474  0.16715487  0.33267213  1
  Bi3+  Bi79  1  0.66858792  0.16620707  0.49921791  1
  Bi3+  Bi80  1  0.66382397  0.49924400  0.83233090  1
  Bi3+  Bi81  1  0.16787128  0.66210992  0.16978667  1
  Bi3+  Bi82  1  0.32982881  -0.00111515  0.33546061  1
  Bi3+  Bi83  1  0.00011931  0.83117333  0.83239516  1
  Bi3+  Bi84  1  -0.00122420  0.66707042  0.00583136  1
  Bi3+  Bi85  1  0.33263826  0.83756253  0.50005319  1
  Te2-  Te86  1  0.16722881  0.16891172  0.16682242  1
  Te2-  Te87  1  0.15807290  0.16143292  0.49675431  1
  Te2-  Te88  1  0.15212965  0.16339497  0.84142906  1
  Te2-  Te89  1  0.16602401  0.49930315  0.16308989  1
  Te2-  Te90  1  0.18168995  0.50385729  0.49685424  1
  Te2-  Te91  1  0.17373577  0.49724197  0.83898883  1
  Te2-  Te92  1  0.16496543  0.82372054  0.16525245  1
  Te2-  Te93  1  0.16505452  0.83323697  0.50316452  1
  Te2-  Te94  1  0.16543113  0.83249535  0.83183555  1
  Te2-  Te95  1  0.49750031  0.17105554  0.17137421  1
  Te2-  Te96  1  0.50581421  0.16751418  0.50206311  1
  Te2-  Te97  1  0.49825712  0.18287633  0.83173956  1
  Te2-  Te98  1  0.50640093  0.49951656  0.16845279  1
  Te2-  Te99  1  0.48975432  0.49901425  0.49892328  1
  Te2-  Te100  1  0.49891070  0.48760935  0.83288683  1
  Te2-  Te101  1  0.50542104  0.83190834  0.15991717  1
  Te2-  Te102  1  0.49513340  0.83361469  0.50039078  1
  Te2-  Te103  1  0.50095942  0.83085923  0.83887079  1
  Te2-  Te104  1  0.84196386  0.15732403  0.16940367  1
  Te2-  Te105  1  0.83435928  0.16284675  0.49925274  1
  Te2-  Te106  1  0.85831475  0.16196688  0.83651239  1
  Te2-  Te107  1  0.83551093  0.49365643  0.16765315  1
  Te2-  Te108  1  0.83467257  0.49566720  0.50704184  1
  Te2-  Te109  1  0.82891071  0.50354572  0.82254636  1
  Te2-  Te110  1  0.83569642  0.84097205  0.16988878  1
  Te2-  Te111  1  0.83986426  0.83770565  0.51931493  1
  Te2-  Te112  1  0.83551045  0.83852164  0.82100561  1
  Te2-  Te113  1  0.16732980  0.00174519  0.01573057  1
  Te2-  Te114  1  0.16544229  -0.00419384  0.32037709  1
  Te2-  Te115  1  0.15878918  -0.00910534  0.66282170  1
  Te2-  Te116  1  0.17363050  0.33418237  0.00008528  1
  Te2-  Te117  1  0.17938390  0.34528211  0.33315664  1
  Te2-  Te118  1  0.15970387  0.33934504  0.67101252  1
  Te2-  Te119  1  0.16749388  0.66519284  0.00299831  1
  Te2-  Te120  1  0.16258763  0.65934369  0.33358116  1
  Te2-  Te121  1  0.16659000  0.66061334  0.66538601  1
  Te2-  Te122  1  0.50063280  0.01486788  -0.00288630  1
  Te2-  Te123  1  0.49450139  0.00849631  0.33804029  1
  Te2-  Te124  1  0.49862029  0.01528825  0.66732879  1
  Te2-  Te125  1  0.49267213  0.32360099  0.00702159  1
  Te2-  Te126  1  0.49565324  0.32296741  0.33731694  1
  Te2-  Te127  1  0.48941596  0.31883618  0.66144944  1
  Te2-  Te128  1  0.50846715  0.66852666  -0.00294177  1
  Te2-  Te129  1  0.50729024  0.66926881  0.33450364  1
  Te2-  Te130  1  0.50193243  0.66440153  0.67120889  1
  Te2-  Te131  1  0.83565789  0.00225043  0.00346300  1
  Te2-  Te132  1  0.83629935  0.00471341  0.32912329  1
  Te2-  Te133  1  0.83852529  0.00226810  0.67514291  1
  Te2-  Te134  1  0.83428293  0.32751107  0.00091435  1
  Te2-  Te135  1  0.82379309  0.32954394  0.33397100  1
  Te2-  Te136  1  0.84673394  0.33973258  0.66249210  1
  Te2-  Te137  1  0.83353696  0.66974745  0.00451860  1
  Te2-  Te138  1  0.82712843  0.66129780  0.34891679  1
  Te2-  Te139  1  0.83322006  0.65768119  0.65284072  1
  Te2-  Te140  1  0.00402222  0.16634864  0.01431101  1
  Te2-  Te141  1  0.00069360  0.16759876  0.32996800  1
  Te2-  Te142  1  0.01489899  0.16555771  0.65924303  1
  Te2-  Te143  1  0.00328611  0.50178749  -0.00120648  1
  Te2-  Te144  1  -0.00065905  0.49564647  0.32793847  1
  Te2-  Te145  1  0.00998975  0.51018731  0.66582912  1
  Te2-  Te146  1  0.00344882  0.82841922  -0.00234263  1
  Te2-  Te147  1  -0.01386720  0.83805793  0.33580113  1
  Te2-  Te148  1  0.00404237  0.81951588  0.66690010  1
  Te2-  Te149  1  0.32930144  0.17388887  0.00176800  1
  Te2-  Te150  1  0.32764224  0.16065380  0.34331093  1
  Te2-  Te151  1  0.31270722  0.16525329  0.65964580  1
  Te2-  Te152  1  0.33158785  0.49517671  0.00408936  1
  Te2-  Te153  1  0.34677254  0.50604787  0.33709345  1
  Te2-  Te154  1  0.32640489  0.49762744  0.65780091  1
  Te2-  Te155  1  0.33694274  0.82611350  0.00655460  1
  Te2-  Te156  1  0.33722181  0.83698876  0.33354579  1
  Te2-  Te157  1  0.32950544  0.83487666  0.66636294  1
  Te2-  Te158  1  0.66597567  0.15382316  0.01014146  1
  Te2-  Te159  1  0.67161867  0.15431781  0.33500941  1
  Te2-  Te160  1  0.67063296  0.17809472  0.66696999  1
  Te2-  Te161  1  0.66819397  0.49389696  -0.00282832  1
  Te2-  Te162  1  0.66883554  0.50078188  0.33270012  1
  Te2-  Te163  1  0.66679519  0.48706572  0.67011989  1
  Te2-  Te164  1  0.66327925  0.85239199  0.00285343  1
  Te2-  Te165  1  0.68230580  0.83859092  0.34167944  1
  Te2-  Te166  1  0.66428258  0.83529164  0.65944271  1
  Te2-  Te167  1  0.00320067  -0.00842998  0.16475435  1
  Te2-  Te168  1  -0.00864250  0.00032301  0.50528525  1
  Te2-  Te169  1  0.00597983  -0.00778796  0.83456364  1
  Te2-  Te170  1  -0.00004963  0.33491969  0.17986316  1
  Te2-  Te171  1  -0.00043321  0.33113032  0.48873305  1
  Te2-  Te172  1  0.00474467  0.33633500  0.82933587  1
  Te2-  Te173  1  0.00117253  0.66593958  0.16861251  1
  Te2-  Te174  1  0.00412841  0.67096689  0.48969201  1
  Te2-  Te175  1  -0.00210803  0.66786687  0.84076890  1
  Te2-  Te176  1  0.33322788  -0.00759535  0.17125331  1
  Te2-  Te177  1  0.32813665  0.00083412  0.50054233  1
  Te2-  Te178  1  0.32504204  0.00027364  0.83166090  1
  Te2-  Te179  1  0.33807480  0.32961905  0.17864648  1
  Te2-  Te180  1  0.33520077  0.32875651  0.49923526  1
  Te2-  Te181  1  0.32653464  0.33748253  0.82367456  1
  Te2-  Te182  1  0.33319715  0.67337505  0.17697174  1
  Te2-  Te183  1  0.33389277  0.67584348  0.48748006  1
  Te2-  Te184  1  0.33777739  0.65894679  0.83587081  1
  Te2-  Te185  1  0.66738864  0.00590223  0.17594131  1
  Te2-  Te186  1  0.67142406  0.00381125  0.50528626  1
  Te2-  Te187  1  0.67243170  0.01529147  0.83064538  1
  Te2-  Te188  1  0.66170022  0.32438464  0.17200174  1
  Te2-  Te189  1  0.66426951  0.32968289  0.50770842  1
  Te2-  Te190  1  0.66842501  0.32743955  0.82716217  1
  Te2-  Te191  1  0.66684941  0.67012173  0.17161715  1
  Te2-  Te192  1  0.65898015  0.67026254  0.50052461  1
  Te2-  Te193  1  0.66332001  0.66328053  0.82971027  1
  Pb2+  Pb194  1  0.83417466  0.83486412  -0.00646954  1
  Pb2+  Pb195  1  0.32309672  0.16815502  0.83173323  1
  Pb2+  Pb196  1  0.49830791  0.49607675  -0.00018205  1
  Pb2+  Pb197  1  0.83604813  0.33099518  0.83238376  1
  Pb2+  Pb198  1  0.00559869  0.33307722  0.00709278  1
  Pb2+  Pb199  1  0.66373053  0.32169830  0.00240168  1
  Pb2+  Pb200  1  0.16558796  0.33129304  0.49935114  1
  Pb2+  Pb201  1  0.00400714  0.50062480  0.49757546  1
  Pb2+  Pb202  1  0.49951330  0.00035221  0.16703637  1
  Pb2+  Pb203  1  0.33595909  0.50151532  0.17362228  1
  Pb2+  Pb204  1  0.51100414  0.84223608  0.33168138  1
  Pb2+  Pb205  1  0.66143679  0.49866370  0.49802924  1
  Pb2+  Pb206  1  0.83358644  0.66539484  0.17464852  1
  Pb2+  Pb207  1  0.49841071  0.84030814  0.66712094  1
  Pb2+  Pb208  1  0.33258417  -0.00040808  0.00326224  1
  Pb2+  Pb209  1  0.66970846  0.83737973  0.83178735  1
  Pb2+  Pb210  1  0.84065984  0.16833425  0.67018878  1
  Pb2+  Pb211  1  0.50013424  0.00516815  0.83127361  1
  Pb2+  Pb212  1  0.33493612  0.66803598  0.65866978  1
  Pb2+  Pb213  1  0.83329359  0.50337051  -0.00234066  1
  Pb2+  Pb214  1  0.49761744  0.49223224  0.66565188  1
  Pb2+  Pb215  1  0.16121852  0.82441041  0.33203723  1
