# generated using pymatgen
data_In22Ag21Sn22Bi21(Te54Pb11)2
_symmetry_space_group_name_H-M   'P 1'
_cell_length_a   19.09683035
_cell_length_b   19.12728927
_cell_length_c   19.13401286
_cell_angle_alpha   90.00662831
_cell_angle_beta   89.99497268
_cell_angle_gamma   90.00805274
_symmetry_Int_Tables_number   1
_chemical_formula_structural   In22Ag21Sn22Bi21(Te54Pb11)2
_chemical_formula_sum   'In22 Ag21 Sn22 Bi21 Te108 Pb22'
_cell_volume   6989.09218008
_cell_formula_units_Z   1
loop_
 _symmetry_equiv_pos_site_id
 _symmetry_equiv_pos_as_xyz
  1  'x, y, z'
loop_
 _atom_type_symbol
 _atom_type_oxidation_number
  In3+  3.0
  Ag+  1.0
  Sn2+  2.0
  Bi3+  3.0
  Te2-  -2.0
  Pb2+  2.0
loop_
 _atom_site_type_symbol
 _atom_site_label
 _atom_site_symmetry_multiplicity
 _atom_site_fract_x
 _atom_site_fract_y
 _atom_site_fract_z
 _atom_site_occupancy
  In3+  In0  1  0.18408385  0.82949048  0.00328016  1
  In3+  In1  1  0.16768361  0.00309110  0.15652708  1
  In3+  In2  1  0.17204325  0.33581980  0.15235108  1
  In3+  In3  1  0.80815386  0.83339646  0.01063586  1
  In3+  In4  1  0.01224871  0.33049087  0.67679264  1
  In3+  In5  1  0.66500921  0.66423900  0.31851060  1
  In3+  In6  1  0.17448620  0.00074795  0.82516933  1
  In3+  In7  1  0.32908105  0.82373704  0.84003796  1
  In3+  In8  1  0.49060415  0.50425496  0.02516579  1
  In3+  In9  1  0.67323007  0.82854941  0.17662240  1
  In3+  In10  1  0.17390067  0.83424918  0.33527609  1
  In3+  In11  1  0.00025796  0.17021718  0.15813254  1
  In3+  In12  1  0.34225530  0.33995408  0.66267775  1
  In3+  In13  1  0.00853045  -0.00625927  0.33306711  1
  In3+  In14  1  0.83843872  0.49000714  0.67589493  1
  In3+  In15  1  0.18395672  0.48373949  0.00153550  1
  In3+  In16  1  0.33378634  0.67396365  0.68307338  1
  In3+  In17  1  0.00627401  0.31758561  0.33743051  1
  In3+  In18  1  0.48368940  0.49510541  0.33104464  1
  In3+  In19  1  0.82064363  0.33158317  0.83836293  1
  In3+  In20  1  0.33648991  0.50318425  0.50848786  1
  In3+  In21  1  0.19263514  0.67517165  0.16609467  1
  Ag+  Ag22  1  0.83309456  0.85692326  0.31060020  1
  Ag+  Ag23  1  0.33181208  0.51929802  0.17803065  1
  Ag+  Ag24  1  0.47337004  0.33198724  0.15839640  1
  Ag+  Ag25  1  0.17470146  0.15296856  -0.01304002  1
  Ag+  Ag26  1  0.80834494  0.16861920  0.02435537  1
  Ag+  Ag27  1  0.17775438  -0.00292041  0.52040122  1
  Ag+  Ag28  1  0.17071059  0.36017010  0.81171653  1
  Ag+  Ag29  1  0.85606134  0.66260442  0.14695347  1
  Ag+  Ag30  1  0.48740156  0.68071405  0.52090476  1
  Ag+  Ag31  1  0.51694471  0.14042939  0.34363935  1
  Ag+  Ag32  1  0.63723780  0.19225502  0.16691024  1
  Ag+  Ag33  1  0.32865945  0.67678735  -0.00219099  1
  Ag+  Ag34  1  0.49456992  0.80274016  0.02486608  1
  Ag+  Ag35  1  0.49636555  0.31378231  0.46843653  1
  Ag+  Ag36  1  0.16892144  0.65344723  0.80928663  1
  Ag+  Ag37  1  0.17069207  0.18566230  0.69108657  1
  Ag+  Ag38  1  0.34995233  0.33500991  0.02556569  1
  Ag+  Ag39  1  0.49786633  0.69493428  0.17320586  1
  Ag+  Ag40  1  0.63757939  0.83314241  0.47322964  1
  Ag+  Ag41  1  0.33196681  -0.02289925  0.00775408  1
  Ag+  Ag42  1  0.17258512  0.80995119  0.70028321  1
  Sn2+  Sn43  1  0.50282607  0.49553315  0.65058156  1
  Sn2+  Sn44  1  0.00287287  0.49232400  0.49388028  1
  Sn2+  Sn45  1  0.84290192  0.67128493  0.84518496  1
  Sn2+  Sn46  1  0.49665480  0.01472898  0.16231323  1
  Sn2+  Sn47  1  0.47607669  0.33625708  0.84635891  1
  Sn2+  Sn48  1  0.33747409  0.49720608  0.84412325  1
  Sn2+  Sn49  1  0.65809436  0.33196875  0.33567542  1
  Sn2+  Sn50  1  0.33199853  0.82771711  0.50408317  1
  Sn2+  Sn51  1  0.84344088  0.17063686  0.66514987  1
  Sn2+  Sn52  1  0.50483413  0.82573715  0.32485102  1
  Sn2+  Sn53  1  0.48921859  -0.00282394  0.49507599  1
  Sn2+  Sn54  1  0.00567523  0.16821135  0.83942273  1
  Sn2+  Sn55  1  -0.01450779  0.66909687  0.33254674  1
  Sn2+  Sn56  1  0.01099730  0.00303870  0.65952709  1
  Sn2+  Sn57  1  0.00534423  0.50349226  0.16690196  1
  Sn2+  Sn58  1  0.81903888  0.33597940  0.49966719  1
  Sn2+  Sn59  1  0.33724093  0.33207288  0.33398223  1
  Sn2+  Sn60  1  0.82135841  0.16871052  0.32454734  1
  Sn2+  Sn61  1  0.65644200  0.51542065  0.49712867  1
  Sn2+  Sn62  1  0.34122655  0.82749396  0.16437101  1
  Sn2+  Sn63  1  0.49254106  0.17253319  0.65255850  1
  Sn2+  Sn64  1  0.32994056  0.00406469  0.32823341  1
  Bi3+  Bi65  1  0.83939209  0.00427402  0.83729032  1
  Bi3+  Bi66  1  0.66506489  -0.00304017  0.33354495  1
  Bi3+  Bi67  1  0.16717222  0.16547642  0.33177328  1
  Bi3+  Bi68  1  0.49580946  0.00295271  0.83447792  1
  Bi3+  Bi69  1  0.83175098  0.49836766  0.33774075  1
  Bi3+  Bi70  1  0.49049918  0.17000438  0.00406619  1
  Bi3+  Bi71  1  0.82780950  0.66499700  0.50484298  1
  Bi3+  Bi72  1  0.66886950  -0.00073483  0.66156689  1
  Bi3+  Bi73  1  0.00142864  0.16553417  0.50064436  1
  Bi3+  Bi74  1  0.32652142  0.16376298  0.16260701  1
  Bi3+  Bi75  1  0.65903047  0.66487585  -0.00093081  1
  Bi3+  Bi76  1  0.33367647  0.16670747  0.83561899  1
  Bi3+  Bi77  1  0.84442439  0.83319366  0.67037458  1
  Bi3+  Bi78  1  0.84072009  0.33927147  0.16833464  1
  Bi3+  Bi79  1  0.33294227  -0.00116708  0.66789712  1
  Bi3+  Bi80  1  0.00246749  0.83218929  0.49752375  1
  Bi3+  Bi81  1  0.00198078  0.83397913  0.83656138  1
  Bi3+  Bi82  1  0.66440670  0.66849960  0.66234773  1
  Bi3+  Bi83  1  0.00680535  0.00139065  -0.00167125  1
  Bi3+  Bi84  1  0.00251271  0.33192926  -0.00070086  1
  Bi3+  Bi85  1  0.66249815  0.83272175  0.83392374  1
  Te2-  Te86  1  0.16078238  0.17323790  0.17053251  1
  Te2-  Te87  1  0.16274563  0.15600782  0.49315038  1
  Te2-  Te88  1  0.17194190  0.15488095  0.83625044  1
  Te2-  Te89  1  0.17835107  0.49922135  0.15710614  1
  Te2-  Te90  1  0.17592368  0.49953349  0.49752322  1
  Te2-  Te91  1  0.17354453  0.50644505  0.84771095  1
  Te2-  Te92  1  0.17054130  0.83389511  0.16584168  1
  Te2-  Te93  1  0.16344554  0.84594158  0.48862342  1
  Te2-  Te94  1  0.16867364  0.83943304  0.84465603  1
  Te2-  Te95  1  0.49051069  0.17475131  0.16795432  1
  Te2-  Te96  1  0.49932890  0.16546257  0.48785425  1
  Te2-  Te97  1  0.49836132  0.16773234  0.83334289  1
  Te2-  Te98  1  0.48671615  0.48528160  0.17490519  1
  Te2-  Te99  1  0.49528447  0.51145800  0.48834199  1
  Te2-  Te100  1  0.49445456  0.49410752  0.82417381  1
  Te2-  Te101  1  0.49886183  0.84439655  0.16559546  1
  Te2-  Te102  1  0.49210775  0.82794372  0.49575955  1
  Te2-  Te103  1  0.49678267  0.83931552  0.83017957  1
  Te2-  Te104  1  0.84317107  0.17151877  0.16740029  1
  Te2-  Te105  1  0.83763447  0.16975282  0.49946577  1
  Te2-  Te106  1  0.83764550  0.17012765  0.82436284  1
  Te2-  Te107  1  0.83336327  0.50837744  0.17174637  1
  Te2-  Te108  1  0.83277704  0.49940610  0.50490496  1
  Te2-  Te109  1  0.83486450  0.49564800  0.83277597  1
  Te2-  Te110  1  0.82889842  0.81583800  0.16717458  1
  Te2-  Te111  1  0.84096591  0.82753401  0.50919539  1
  Te2-  Te112  1  0.83422446  0.83795766  0.83549698  1
  Te2-  Te113  1  0.17441226  -0.00040216  0.00270963  1
  Te2-  Te114  1  0.16305391  -0.00118803  0.31911735  1
  Te2-  Te115  1  0.17099946  -0.00176558  0.66944927  1
  Te2-  Te116  1  0.16211094  0.33326633  0.00058982  1
  Te2-  Te117  1  0.16220840  0.33168456  0.33419376  1
  Te2-  Te118  1  0.16747745  0.33082554  0.66488036  1
  Te2-  Te119  1  0.17928121  0.67651441  0.01399543  1
  Te2-  Te120  1  0.16520487  0.67481125  0.32298237  1
  Te2-  Te121  1  0.17774095  0.66736323  0.66309991  1
  Te2-  Te122  1  0.48460092  0.00824231  -0.00458007  1
  Te2-  Te123  1  0.50060656  -0.00526672  0.33189000  1
  Te2-  Te124  1  0.50196261  0.00461435  0.66604984  1
  Te2-  Te125  1  0.49875680  0.33553088  0.00704351  1
  Te2-  Te126  1  0.49987489  0.34253062  0.32571365  1
  Te2-  Te127  1  0.49596918  0.32930514  0.67143608  1
  Te2-  Te128  1  0.49368854  0.65647230  0.00065784  1
  Te2-  Te129  1  0.51014174  0.66826966  0.32079217  1
  Te2-  Te130  1  0.49741725  0.66489753  0.66746438  1
  Te2-  Te131  1  0.83882147  0.01905127  -0.00311352  1
  Te2-  Te132  1  0.83058693  0.00308430  0.33196278  1
  Te2-  Te133  1  0.83487424  -0.00119130  0.67106611  1
  Te2-  Te134  1  0.84136370  0.31846861  -0.00148161  1
  Te2-  Te135  1  0.83676561  0.33511758  0.33387111  1
  Te2-  Te136  1  0.83718499  0.33584835  0.66992852  1
  Te2-  Te137  1  0.82999290  0.66690058  0.00147215  1
  Te2-  Te138  1  0.82144847  0.66072098  0.34328555  1
  Te2-  Te139  1  0.83202196  0.66748355  0.67165299  1
  Te2-  Te140  1  0.02093956  0.16436083  0.00390202  1
  Te2-  Te141  1  -0.00019958  0.16249617  0.33332615  1
  Te2-  Te142  1  0.01409747  0.17126159  0.66373203  1
  Te2-  Te143  1  0.00062932  0.49860447  0.00428638  1
  Te2-  Te144  1  -0.00384175  0.49989921  0.33485990  1
  Te2-  Te145  1  -0.00087925  0.49254995  0.66415079  1
  Te2-  Te146  1  -0.00129583  0.83933546  -0.00158639  1
  Te2-  Te147  1  -0.01733226  0.83831920  0.33494598  1
  Te2-  Te148  1  0.01046980  0.83478368  0.66947572  1
  Te2-  Te149  1  0.32527545  0.18330998  -0.00066131  1
  Te2-  Te150  1  0.32999906  0.16553642  0.32919631  1
  Te2-  Te151  1  0.32369595  0.16254020  0.66923797  1
  Te2-  Te152  1  0.33771936  0.48358310  0.00242615  1
  Te2-  Te153  1  0.33183089  0.50093938  0.32569164  1
  Te2-  Te154  1  0.33930061  0.50259469  0.66428049  1
  Te2-  Te155  1  0.34163590  0.82764651  -0.00442031  1
  Te2-  Te156  1  0.32783852  0.83923714  0.33165614  1
  Te2-  Te157  1  0.32158274  0.83229611  0.67064241  1
  Te2-  Te158  1  0.65901610  0.16312999  0.01519690  1
  Te2-  Te159  1  0.66082041  0.16157808  0.31861435  1
  Te2-  Te160  1  0.66786808  0.16129089  0.66235049  1
  Te2-  Te161  1  0.66142965  0.50250419  0.00052042  1
  Te2-  Te162  1  0.66953461  0.50554959  0.33688558  1
  Te2-  Te163  1  0.67033788  0.50379326  0.66215674  1
  Te2-  Te164  1  0.64706417  0.82824529  -0.00436663  1
  Te2-  Te165  1  0.67827893  0.83376427  0.33194769  1
  Te2-  Te166  1  0.67404068  0.83420196  0.67093214  1
  Te2-  Te167  1  0.00340067  0.00401624  0.16391390  1
  Te2-  Te168  1  0.00628835  -0.00069942  0.49359401  1
  Te2-  Te169  1  0.00165497  -0.00182895  0.83380907  1
  Te2-  Te170  1  0.00320626  0.33570921  0.16749602  1
  Te2-  Te171  1  -0.00339794  0.33138074  0.49825208  1
  Te2-  Te172  1  0.01970367  0.32987176  0.83266559  1
  Te2-  Te173  1  0.00134548  0.66331618  0.17192582  1
  Te2-  Te174  1  0.00119668  0.66568766  0.49810568  1
  Te2-  Te175  1  0.01409974  0.67069518  0.83483085  1
  Te2-  Te176  1  0.32675750  0.00195957  0.15618505  1
  Te2-  Te177  1  0.32817804  -0.00299143  0.50333174  1
  Te2-  Te178  1  0.33320863  -0.00062530  0.83400658  1
  Te2-  Te179  1  0.32497324  0.32774626  0.17354014  1
  Te2-  Te180  1  0.34813320  0.34198383  0.50567056  1
  Te2-  Te181  1  0.31975053  0.32988658  0.81948156  1
  Te2-  Te182  1  0.34475398  0.66644046  0.15509962  1
  Te2-  Te183  1  0.34121901  0.66106017  0.49668325  1
  Te2-  Te184  1  0.32065886  0.66910823  0.83801857  1
  Te2-  Te185  1  0.66673176  -0.01380450  0.16903202  1
  Te2-  Te186  1  0.66292009  -0.01265372  0.49939859  1
  Te2-  Te187  1  0.66837738  -0.00299802  0.83203253  1
  Te2-  Te188  1  0.68119231  0.33283207  0.17132937  1
  Te2-  Te189  1  0.65052331  0.33515714  0.49426412  1
  Te2-  Te190  1  0.66723570  0.33126375  0.83281275  1
  Te2-  Te191  1  0.64973245  0.67194045  0.16161445  1
  Te2-  Te192  1  0.66360634  0.68144383  0.50414926  1
  Te2-  Te193  1  0.66985672  0.67021243  0.83226971  1
  Pb2+  Pb194  1  0.66090683  0.50027684  0.83066088  1
  Pb2+  Pb195  1  0.01183724  0.66989296  0.00367943  1
  Pb2+  Pb196  1  0.83664437  -0.00389720  0.49992899  1
  Pb2+  Pb197  1  0.66545289  0.33159756  0.66084042  1
  Pb2+  Pb198  1  0.33123914  0.16888580  0.50082420  1
  Pb2+  Pb199  1  0.83302513  0.49187786  0.00452489  1
  Pb2+  Pb200  1  0.66749636  0.16479321  0.83905576  1
  Pb2+  Pb201  1  0.16514024  0.50270185  0.32588877  1
  Pb2+  Pb202  1  0.00545323  0.49667001  0.83577030  1
  Pb2+  Pb203  1  0.66595289  0.32988829  0.00452327  1
  Pb2+  Pb204  1  0.66757481  0.16333701  0.49039233  1
  Pb2+  Pb205  1  0.17439100  0.67490295  0.49330986  1
  Pb2+  Pb206  1  0.17203622  0.49912300  0.66943375  1
  Pb2+  Pb207  1  0.49763550  0.83491941  0.66247828  1
  Pb2+  Pb208  1  0.49349956  0.66598014  0.83712264  1
  Pb2+  Pb209  1  0.00304539  0.83318745  0.16729166  1
  Pb2+  Pb210  1  0.00078706  0.66603642  0.66552075  1
  Pb2+  Pb211  1  0.17094764  0.32726488  0.49945064  1
  Pb2+  Pb212  1  0.65728297  -0.00214622  0.00335153  1
  Pb2+  Pb213  1  0.34084472  0.67090841  0.33049200  1
  Pb2+  Pb214  1  0.65804874  0.49914300  0.17019877  1
  Pb2+  Pb215  1  0.83357668  -0.00499647  0.16365351  1
