# generated using pymatgen
data_In22Ag21Sn22Bi21(Te54Pb11)2
_symmetry_space_group_name_H-M   'P 1'
_cell_length_a   19.15313664
_cell_length_b   19.15779177
_cell_length_c   19.14934223
_cell_angle_alpha   90.00537371
_cell_angle_beta   90.00655550
_cell_angle_gamma   90.00840752
_symmetry_Int_Tables_number   1
_chemical_formula_structural   In22Ag21Sn22Bi21(Te54Pb11)2
_chemical_formula_sum   'In22 Ag21 Sn22 Bi21 Te108 Pb22'
_cell_volume   7026.50252868
_cell_formula_units_Z   1
loop_
 _symmetry_equiv_pos_site_id
 _symmetry_equiv_pos_as_xyz
  1  'x, y, z'
loop_
 _atom_type_symbol
 _atom_type_oxidation_number
  In3+  3.0
  Ag+  1.0
  Sn2+  2.0
  Bi3+  3.0
  Te2-  -2.0
  Pb2+  2.0
loop_
 _atom_site_type_symbol
 _atom_site_label
 _atom_site_symmetry_multiplicity
 _atom_site_fract_x
 _atom_site_fract_y
 _atom_site_fract_z
 _atom_site_occupancy
  In3+  In0  1  0.16088849  0.34299539  0.15467322  1
  In3+  In1  1  -0.02006195  0.33439695  -0.01216370  1
  In3+  In2  1  0.83096350  0.35033046  0.16737985  1
  In3+  In3  1  0.33203231  0.35742767  -0.00901919  1
  In3+  In4  1  -0.00300158  0.50410292  0.15220473  1
  In3+  In5  1  0.16692032  0.83400729  0.67784428  1
  In3+  In6  1  -0.00212443  0.50431756  0.48137381  1
  In3+  In7  1  -0.00819342  0.16357351  0.83012177  1
  In3+  In8  1  0.49828917  0.66719619  0.15607175  1
  In3+  In9  1  0.32898172  -0.00286963  0.34398479  1
  In3+  In10  1  0.16929058  -0.01639054  0.50817366  1
  In3+  In11  1  0.49908806  0.82194800  0.33547610  1
  In3+  In12  1  -0.00018522  0.82503348  0.49884778  1
  In3+  In13  1  0.80884372  0.33591012  0.84125845  1
  In3+  In14  1  0.33021558  0.66584847  0.34414863  1
  In3+  In15  1  -0.00389051  -0.02712139  0.33523849  1
  In3+  In16  1  0.50103908  0.83488614  -0.01422874  1
  In3+  In17  1  0.67293778  0.68650882  0.33255493  1
  In3+  In18  1  0.66796814  0.14124396  0.16898375  1
  In3+  In19  1  0.65599448  0.16223415  0.82597172  1
  In3+  In20  1  0.51002586  -0.00758412  0.49323633  1
  In3+  In21  1  0.17075329  0.68527728  0.16006826  1
  Ag+  Ag22  1  0.35946878  0.15422100  0.52758809  1
  Ag+  Ag23  1  0.84359112  -0.01894690  0.81178062  1
  Ag+  Ag24  1  0.84737825  0.53361938  -0.02266933  1
  Ag+  Ag25  1  0.47382364  0.16508584  0.31195569  1
  Ag+  Ag26  1  0.67363083  -0.02355711  0.69573555  1
  Ag+  Ag27  1  0.52721897  0.84199813  0.68544540  1
  Ag+  Ag28  1  0.64488243  0.68968019  0.70209613  1
  Ag+  Ag29  1  0.32284603  0.68660377  0.02729906  1
  Ag+  Ag30  1  0.52847902  0.52385830  0.33229554  1
  Ag+  Ag31  1  0.64519945  0.53044759  0.81581911  1
  Ag+  Ag32  1  0.85531650  0.83176421  -0.02345777  1
  Ag+  Ag33  1  -0.01560552  0.79804942  0.85651331  1
  Ag+  Ag34  1  -0.02565258  0.49519319  0.82257018  1
  Ag+  Ag35  1  0.85200986  0.81339003  0.33246079  1
  Ag+  Ag36  1  0.69259817  0.82468976  0.14470570  1
  Ag+  Ag37  1  0.15007831  0.84941316  0.33080384  1
  Ag+  Ag38  1  0.50761285  0.36052717  0.86042516  1
  Ag+  Ag39  1  0.83899046  0.68874152  0.85745857  1
  Ag+  Ag40  1  0.14825488  0.82979024  -0.02078004  1
  Ag+  Ag41  1  0.36893273  0.70253262  0.69269480  1
  Ag+  Ag42  1  -0.02400916  0.66628213  0.30727070  1
  Sn2+  Sn43  1  0.82644383  0.15912127  0.66964643  1
  Sn2+  Sn44  1  0.16318551  0.50952611  -0.00263931  1
  Sn2+  Sn45  1  0.66647880  0.34140136  0.67534982  1
  Sn2+  Sn46  1  0.16331031  0.16646887  0.66249280  1
  Sn2+  Sn47  1  0.50627918  -0.00317389  0.82661330  1
  Sn2+  Sn48  1  -0.00834051  0.34109702  0.67996420  1
  Sn2+  Sn49  1  0.35464593  -0.00276069  0.66723444  1
  Sn2+  Sn50  1  0.15772809  -0.00209254  0.83239313  1
  Sn2+  Sn51  1  0.16580398  0.16116442  0.33273121  1
  Sn2+  Sn52  1  0.50107445  0.16080841  0.65851640  1
  Sn2+  Sn53  1  0.33774068  0.16882027  0.16482022  1
  Sn2+  Sn54  1  0.16360692  0.66673020  0.82890748  1
  Sn2+  Sn55  1  0.16892425  0.15708973  -0.00141981  1
  Sn2+  Sn56  1  -0.00189586  0.17135549  0.16897170  1
  Sn2+  Sn57  1  0.83067186  0.49985083  0.33154643  1
  Sn2+  Sn58  1  0.33125570  0.16066773  0.83570199  1
  Sn2+  Sn59  1  0.65450856  0.33055460  0.33318268  1
  Sn2+  Sn60  1  0.83198352  0.50147229  0.68610040  1
  Sn2+  Sn61  1  0.83362475  0.67591248  0.16018106  1
  Sn2+  Sn62  1  0.16428770  0.50816579  0.67372018  1
  Sn2+  Sn63  1  0.68485373  0.83491059  0.83906284  1
  Sn2+  Sn64  1  0.32655475  -0.00605908  -0.00107781  1
  Bi3+  Bi65  1  0.83551630  0.66519071  0.49711883  1
  Bi3+  Bi66  1  0.66489043  0.00241086  0.33313898  1
  Bi3+  Bi67  1  0.66413530  0.33372561  0.00385559  1
  Bi3+  Bi68  1  0.66649519  0.66505802  0.00297055  1
  Bi3+  Bi69  1  0.33435976  0.50059456  0.82775997  1
  Bi3+  Bi70  1  0.67065992  0.50748657  0.16541450  1
  Bi3+  Bi71  1  0.16750173  0.00158077  0.16851217  1
  Bi3+  Bi72  1  0.00156274  0.16850944  0.50094862  1
  Bi3+  Bi73  1  0.33490780  0.32863090  0.66770612  1
  Bi3+  Bi74  1  0.16652088  0.66511221  0.49532222  1
  Bi3+  Bi75  1  0.33490594  0.83609487  0.16975904  1
  Bi3+  Bi76  1  0.83327635  -0.00303119  0.16933263  1
  Bi3+  Bi77  1  0.16724271  0.50073505  0.33308851  1
  Bi3+  Bi78  1  0.66672878  0.16864317  0.50062711  1
  Bi3+  Bi79  1  0.83572312  0.16590111  0.32929452  1
  Bi3+  Bi80  1  0.00017174  0.66364313  0.66760169  1
  Bi3+  Bi81  1  0.16731768  0.32881168  0.49811518  1
  Bi3+  Bi82  1  0.49731980  0.66690419  0.49769537  1
  Bi3+  Bi83  1  0.49849201  0.33006896  0.49811169  1
  Bi3+  Bi84  1  0.32785497  0.32611685  0.33074655  1
  Bi3+  Bi85  1  0.66669796  -0.00260566  0.00010275  1
  Te2-  Te86  1  0.16256139  0.16250357  0.16323360  1
  Te2-  Te87  1  0.16174538  0.16779208  0.49962258  1
  Te2-  Te88  1  0.16120511  0.15943069  0.83257024  1
  Te2-  Te89  1  0.15919436  0.49617906  0.16460258  1
  Te2-  Te90  1  0.16095510  0.49754787  0.49951588  1
  Te2-  Te91  1  0.17386979  0.50106558  0.84106566  1
  Te2-  Te92  1  0.17138784  0.83635539  0.18037734  1
  Te2-  Te93  1  0.16098481  0.83108363  0.48151227  1
  Te2-  Te94  1  0.15149839  0.83388483  0.83156041  1
  Te2-  Te95  1  0.50624855  0.16360002  0.16755622  1
  Te2-  Te96  1  0.50501840  0.16467555  0.50063833  1
  Te2-  Te97  1  0.50358518  0.15546078  0.82793695  1
  Te2-  Te98  1  0.50529933  0.50920195  0.17959214  1
  Te2-  Te99  1  0.50177872  0.49792136  0.48429511  1
  Te2-  Te100  1  0.50063068  0.50416036  0.83246962  1
  Te2-  Te101  1  0.49517438  0.82314081  0.17950012  1
  Te2-  Te102  1  0.49585569  0.83430742  0.49489430  1
  Te2-  Te103  1  0.50084976  0.83846205  0.83012594  1
  Te2-  Te104  1  0.83235460  0.16258323  0.16712601  1
  Te2-  Te105  1  0.83527662  0.16804408  0.49862436  1
  Te2-  Te106  1  0.83900167  0.18440010  0.83358498  1
  Te2-  Te107  1  0.83700035  0.50381237  0.16499761  1
  Te2-  Te108  1  0.83987297  0.50181814  0.49872867  1
  Te2-  Te109  1  0.82851707  0.48458573  0.84049474  1
  Te2-  Te110  1  0.83367616  0.83316255  0.18377396  1
  Te2-  Te111  1  0.84113305  0.82973918  0.48414243  1
  Te2-  Te112  1  0.84329921  0.83437670  0.82870296  1
  Te2-  Te113  1  0.16698431  -0.01576155  0.00403483  1
  Te2-  Te114  1  0.16671251  -0.00239017  0.33241393  1
  Te2-  Te115  1  0.16728089  -0.00510519  0.66104390  1
  Te2-  Te116  1  0.18019230  0.33395678  0.00322681  1
  Te2-  Te117  1  0.16544920  0.33543888  0.33194534  1
  Te2-  Te118  1  0.17124348  0.33407024  0.66270404  1
  Te2-  Te119  1  0.17610343  0.67825027  0.00503189  1
  Te2-  Te120  1  0.17596117  0.66022917  0.33257628  1
  Te2-  Te121  1  0.16427527  0.67390996  0.65911879  1
  Te2-  Te122  1  0.50381338  -0.00706604  0.00057780  1
  Te2-  Te123  1  0.49971430  0.01690715  0.34124272  1
  Te2-  Te124  1  0.51008267  -0.01102844  0.66009891  1
  Te2-  Te125  1  0.49572968  0.33156891  0.00371788  1
  Te2-  Te126  1  0.49176226  0.31849440  0.33647527  1
  Te2-  Te127  1  0.49650591  0.33198631  0.65897722  1
  Te2-  Te128  1  0.50148320  0.67146111  0.00088881  1
  Te2-  Te129  1  0.48988128  0.66544969  0.33796962  1
  Te2-  Te130  1  0.50646863  0.67199804  0.65676669  1
  Te2-  Te131  1  0.82846242  -0.01717879  0.00841666  1
  Te2-  Te132  1  0.83268685  0.00366305  0.33116248  1
  Te2-  Te133  1  0.82236050  0.00169257  0.66803856  1
  Te2-  Te134  1  0.82868681  0.32757589  0.00570647  1
  Te2-  Te135  1  0.83131760  0.33077816  0.32781058  1
  Te2-  Te136  1  0.83198683  0.33440722  0.67363532  1
  Te2-  Te137  1  0.83062365  0.67830719  0.00413305  1
  Te2-  Te138  1  0.82901152  0.66506569  0.33296208  1
  Te2-  Te139  1  0.83834242  0.65916992  0.65613056  1
  Te2-  Te140  1  0.00347885  0.17730204  -0.00465796  1
  Te2-  Te141  1  -0.00241305  0.17308309  0.33624615  1
  Te2-  Te142  1  -0.00235839  0.17121067  0.66768381  1
  Te2-  Te143  1  -0.00912216  0.48979035  -0.00028931  1
  Te2-  Te144  1  0.00199915  0.51368883  0.32786716  1
  Te2-  Te145  1  0.00479339  0.50079060  0.67552523  1
  Te2-  Te146  1  0.00205676  0.83233552  -0.00082916  1
  Te2-  Te147  1  0.00265263  0.81751711  0.33625709  1
  Te2-  Te148  1  0.00813295  0.83235955  0.65605698  1
  Te2-  Te149  1  0.32923064  0.15920217  -0.00093146  1
  Te2-  Te150  1  0.32647227  0.16350271  0.32634366  1
  Te2-  Te151  1  0.33113436  0.16537250  0.67189363  1
  Te2-  Te152  1  0.33567639  0.50856717  -0.00328891  1
  Te2-  Te153  1  0.32854168  0.49145039  0.33001593  1
  Te2-  Te154  1  0.33024216  0.49309525  0.66532815  1
  Te2-  Te155  1  0.34629079  0.83100832  0.00544825  1
  Te2-  Te156  1  0.34078196  0.84096750  0.33330976  1
  Te2-  Te157  1  0.32225249  0.83875264  0.66691819  1
  Te2-  Te158  1  0.66676296  0.16529598  0.00620879  1
  Te2-  Te159  1  0.67299301  0.16477697  0.33493681  1
  Te2-  Te160  1  0.66719165  0.17083558  0.66546812  1
  Te2-  Te161  1  0.67450036  0.49917276  0.00518808  1
  Te2-  Te162  1  0.67159443  0.49311026  0.32811303  1
  Te2-  Te163  1  0.66682118  0.49728474  0.67479736  1
  Te2-  Te164  1  0.65532107  0.83105368  0.00208563  1
  Te2-  Te165  1  0.65481273  0.83960139  0.33604411  1
  Te2-  Te166  1  0.67226123  0.83170527  0.67056304  1
  Te2-  Te167  1  0.00189261  0.00346413  0.17315202  1
  Te2-  Te168  1  0.00787583  0.00538013  0.49378806  1
  Te2-  Te169  1  -0.01102044  0.01126699  0.83284713  1
  Te2-  Te170  1  -0.00038855  0.33606291  0.15874639  1
  Te2-  Te171  1  0.00449376  0.33479507  0.50347470  1
  Te2-  Te172  1  0.00889600  0.34472527  0.83913034  1
  Te2-  Te173  1  0.00672142  0.65960644  0.16353247  1
  Te2-  Te174  1  0.00255509  0.66556029  0.50077848  1
  Te2-  Te175  1  -0.00697787  0.65273431  0.82852133  1
  Te2-  Te176  1  0.33057224  0.00071011  0.16917711  1
  Te2-  Te177  1  0.32598611  0.01133051  0.49759631  1
  Te2-  Te178  1  0.32796419  -0.00175862  0.83338749  1
  Te2-  Te179  1  0.32689161  0.33064803  0.16490356  1
  Te2-  Te180  1  0.33145680  0.31401784  0.49877606  1
  Te2-  Te181  1  0.34702913  0.33214732  0.83382254  1
  Te2-  Te182  1  0.33242307  0.66978131  0.17216734  1
  Te2-  Te183  1  0.33066825  0.66256700  0.50011747  1
  Te2-  Te184  1  0.32648466  0.66373100  0.82629758  1
  Te2-  Te185  1  0.66743378  -0.02044065  0.16855024  1
  Te2-  Te186  1  0.66459033  0.00493263  0.49820128  1
  Te2-  Te187  1  0.67781408  0.00745299  0.83981566  1
  Te2-  Te188  1  0.67052313  0.34058607  0.16502820  1
  Te2-  Te189  1  0.66507577  0.33216667  0.50087918  1
  Te2-  Te190  1  0.65326804  0.32271266  0.84240648  1
  Te2-  Te191  1  0.66202566  0.67359651  0.17110209  1
  Te2-  Te192  1  0.66697130  0.66649421  0.48803614  1
  Te2-  Te193  1  0.68161438  0.67023133  0.84223309  1
  Pb2+  Pb194  1  0.49793597  0.50193460  0.65923650  1
  Pb2+  Pb195  1  0.50896021  0.50152090  0.00588808  1
  Pb2+  Pb196  1  -0.00228252  0.34335808  0.32870531  1
  Pb2+  Pb197  1  0.49905280  -0.00699792  0.17315245  1
  Pb2+  Pb198  1  0.49752803  0.16197573  -0.00314776  1
  Pb2+  Pb199  1  -0.00069908  0.00208080  -0.00060878  1
  Pb2+  Pb200  1  0.83597285  0.33529471  0.50390612  1
  Pb2+  Pb201  1  0.33077389  0.50140933  0.16452422  1
  Pb2+  Pb202  1  0.83324150  0.15418911  -0.00175888  1
  Pb2+  Pb203  1  -0.00188312  0.00144980  0.66634280  1
  Pb2+  Pb204  1  0.66721299  0.83302604  0.50393919  1
  Pb2+  Pb205  1  0.32429532  0.83067075  0.83754282  1
  Pb2+  Pb206  1  0.33222302  0.48808215  0.49577101  1
  Pb2+  Pb207  1  0.83707549  -0.00182080  0.50073140  1
  Pb2+  Pb208  1  0.32854469  0.83566087  0.50131119  1
  Pb2+  Pb209  1  0.66931102  0.50207222  0.50675016  1
  Pb2+  Pb210  1  0.83900777  0.82578134  0.66115372  1
  Pb2+  Pb211  1  0.50010984  0.33502767  0.17156163  1
  Pb2+  Pb212  1  0.17514400  0.32901053  0.83282445  1
  Pb2+  Pb213  1  0.49958179  0.67058342  0.82817537  1
  Pb2+  Pb214  1  -0.00187366  0.83135073  0.16516687  1
  Pb2+  Pb215  1  0.00790105  0.66458957  -0.00742441  1
