# generated using pymatgen
data_In22Ag21Sn22Bi21(Te54Pb11)2
_symmetry_space_group_name_H-M   'P 1'
_cell_length_a   19.11199754
_cell_length_b   19.10689371
_cell_length_c   19.12953881
_cell_angle_alpha   90.00641258
_cell_angle_beta   90.00962496
_cell_angle_gamma   89.98089772
_symmetry_Int_Tables_number   1
_chemical_formula_structural   In22Ag21Sn22Bi21(Te54Pb11)2
_chemical_formula_sum   'In22 Ag21 Sn22 Bi21 Te108 Pb22'
_cell_volume   6985.55048424
_cell_formula_units_Z   1
loop_
 _symmetry_equiv_pos_site_id
 _symmetry_equiv_pos_as_xyz
  1  'x, y, z'
loop_
 _atom_type_symbol
 _atom_type_oxidation_number
  In3+  3.0
  Ag+  1.0
  Sn2+  2.0
  Bi3+  3.0
  Te2-  -2.0
  Pb2+  2.0
loop_
 _atom_site_type_symbol
 _atom_site_label
 _atom_site_symmetry_multiplicity
 _atom_site_fract_x
 _atom_site_fract_y
 _atom_site_fract_z
 _atom_site_occupancy
  In3+  In0  1  0.82316778  0.00692975  0.82832844  1
  In3+  In1  1  0.16723074  0.00796148  0.82878436  1
  In3+  In2  1  0.51009644  0.00264484  0.82890553  1
  In3+  In3  1  0.32380367  0.83330329  0.82925092  1
  In3+  In4  1  0.65761955  0.33208512  0.35426260  1
  In3+  In5  1  0.32833678  0.83052193  0.18112424  1
  In3+  In6  1  0.49641052  0.33173639  0.51653860  1
  In3+  In7  1  0.64904593  0.52302441  0.50602710  1
  In3+  In8  1  0.49741376  0.82484204  0.66617114  1
  In3+  In9  1  0.83474019  0.32087259  0.82819265  1
  In3+  In10  1  0.33587665  0.33534196  0.00055135  1
  In3+  In11  1  0.82977258  0.83753972  0.34549318  1
  In3+  In12  1  0.15923628  0.50765173  0.02178709  1
  In3+  In13  1  0.33029732  0.34474477  0.66175231  1
  In3+  In14  1  0.00245772  0.51295142  0.81245048  1
  In3+  In15  1  0.85251914  0.51507410  0.66401181  1
  In3+  In16  1  0.17655821  0.16500651  0.31956005  1
  In3+  In17  1  0.49887993  0.31214131  0.17182412  1
  In3+  In18  1  0.16715839  0.16494416  0.64813942  1
  In3+  In19  1  0.16153275  0.33784601  0.82243881  1
  In3+  In20  1  0.47994112  0.50782792  0.00390588  1
  In3+  In21  1  0.68299356  0.33396101  0.67058321  1
  Ag+  Ag22  1  0.34499320  0.49768364  0.50321511  1
  Ag+  Ag23  1  0.17211131  0.66801304  0.52091968  1
  Ag+  Ag24  1  0.00338529  0.64865253  -0.03034192  1
  Ag+  Ag25  1  0.34240422  -0.01561480  0.30432911  1
  Ag+  Ag26  1  0.64881787  0.16750042  0.80888748  1
  Ag+  Ag27  1  -0.01625580  0.32889383  0.66835998  1
  Ag+  Ag28  1  0.14412750  0.81103331  0.66754083  1
  Ag+  Ag29  1  0.81682294  0.16139113  0.68347433  1
  Ag+  Ag30  1  0.18073992  0.51577837  0.66316826  1
  Ag+  Ag31  1  0.81018867  0.18603885  -0.02417310  1
  Ag+  Ag32  1  0.33604302  0.52980239  0.14752567  1
  Ag+  Ag33  1  0.51862142  0.17192885  0.64786289  1
  Ag+  Ag34  1  0.83108752  0.63806435  0.80852607  1
  Ag+  Ag35  1  0.00118050  0.69162094  0.32819255  1
  Ag+  Ag36  1  0.47754903  0.00260563  0.19980274  1
  Ag+  Ag37  1  -0.00247711  0.69361901  0.66579118  1
  Ag+  Ag38  1  -0.00293838  0.15259322  0.18941246  1
  Ag+  Ag39  1  0.64504065  0.69144147  0.66908043  1
  Ag+  Ag40  1  0.18639652  -0.02477764  0.18697203  1
  Ag+  Ag41  1  0.65942725  0.83554636  0.52656766  1
  Ag+  Ag42  1  0.47382450  0.16380424  0.30938548  1
  Sn2+  Sn43  1  0.00750917  0.50038672  0.16440735  1
  Sn2+  Sn44  1  0.15602305  0.66498572  0.17422058  1
  Sn2+  Sn45  1  0.67685974  0.16613663  0.16989711  1
  Sn2+  Sn46  1  -0.00036130  0.82017340  0.50557128  1
  Sn2+  Sn47  1  0.34148226  0.16798193  0.82509155  1
  Sn2+  Sn48  1  0.49490676  0.83626898  0.00565023  1
  Sn2+  Sn49  1  0.00130868  0.01335114  0.66508195  1
  Sn2+  Sn50  1  0.33881363  0.16613877  0.49701646  1
  Sn2+  Sn51  1  0.32693490  0.82631810  0.50247259  1
  Sn2+  Sn52  1  0.66385305  0.15708106  0.50335881  1
  Sn2+  Sn53  1  0.33193230  0.33651890  0.33290847  1
  Sn2+  Sn54  1  0.00380854  0.83616775  0.16545711  1
  Sn2+  Sn55  1  0.00084127  0.82764680  0.83300449  1
  Sn2+  Sn56  1  0.16476930  0.83432115  -0.00939426  1
  Sn2+  Sn57  1  0.32644674  0.16460197  0.16552135  1
  Sn2+  Sn58  1  0.66261393  0.00666940  0.66016122  1
  Sn2+  Sn59  1  -0.00445015  0.33236292  0.33945067  1
  Sn2+  Sn60  1  0.01247684  0.00034084  0.32788285  1
  Sn2+  Sn61  1  0.66475845  0.33202988  -0.00131160  1
  Sn2+  Sn62  1  0.17146029  -0.01259733  0.49803885  1
  Sn2+  Sn63  1  0.66732179  0.83532440  0.83155108  1
  Sn2+  Sn64  1  0.17086054  0.50557449  0.35147157  1
  Bi3+  Bi65  1  0.33124913  0.00193692  -0.00280115  1
  Bi3+  Bi66  1  0.16975753  0.33305386  0.16320744  1
  Bi3+  Bi67  1  0.32816510  0.66934425  0.66563533  1
  Bi3+  Bi68  1  0.00858920  0.16579124  0.83407991  1
  Bi3+  Bi69  1  0.00521258  0.33308847  -0.00281331  1
  Bi3+  Bi70  1  0.50259326  0.16804966  0.00394977  1
  Bi3+  Bi71  1  0.16579354  0.16861889  0.00260336  1
  Bi3+  Bi72  1  0.66815244  0.83443670  0.16208751  1
  Bi3+  Bi73  1  0.83785508  0.66342582  0.16306622  1
  Bi3+  Bi74  1  0.83778657  -0.00150841  0.16497684  1
  Bi3+  Bi75  1  0.68111592  0.66428424  -0.01065453  1
  Bi3+  Bi76  1  0.00304342  0.49833309  0.49828919  1
  Bi3+  Bi77  1  0.84308594  0.66419252  0.49883367  1
  Bi3+  Bi78  1  0.49807866  0.00482456  0.50663827  1
  Bi3+  Bi79  1  0.00147950  0.16331170  0.50002795  1
  Bi3+  Bi80  1  0.83358413  0.16613343  0.33442571  1
  Bi3+  Bi81  1  0.83724750  0.83689723  0.00123598  1
  Bi3+  Bi82  1  0.84010725  0.49733141  -0.00187211  1
  Bi3+  Bi83  1  0.33276616  0.00394974  0.66652988  1
  Bi3+  Bi84  1  0.00372506  0.00129031  -0.00044666  1
  Bi3+  Bi85  1  0.83657218  0.49958725  0.33674589  1
  Te2-  Te86  1  0.15541816  0.16986444  0.16541146  1
  Te2-  Te87  1  0.16555362  0.16349407  0.49341388  1
  Te2-  Te88  1  0.17158894  0.16577801  0.84029985  1
  Te2-  Te89  1  0.18183268  0.49602558  0.17244715  1
  Te2-  Te90  1  0.16219135  0.50477763  0.50972008  1
  Te2-  Te91  1  0.15794999  0.49345667  0.81483417  1
  Te2-  Te92  1  0.16895879  0.83201430  0.16425296  1
  Te2-  Te93  1  0.16803520  0.82338525  0.51154194  1
  Te2-  Te94  1  0.16872738  0.83791911  0.82184665  1
  Te2-  Te95  1  0.50222883  0.15409318  0.16368325  1
  Te2-  Te96  1  0.49995157  0.17182983  0.49967024  1
  Te2-  Te97  1  0.50368830  0.16105816  0.84267606  1
  Te2-  Te98  1  0.48712789  0.50401242  0.15898798  1
  Te2-  Te99  1  0.49518310  0.49056614  0.50011564  1
  Te2-  Te100  1  0.49919537  0.49735512  0.84488873  1
  Te2-  Te101  1  0.50284130  0.84910559  0.16473193  1
  Te2-  Te102  1  0.50673725  0.83855937  0.50954883  1
  Te2-  Te103  1  0.50308401  0.84341948  0.82827019  1
  Te2-  Te104  1  0.84503532  0.16144190  0.17178903  1
  Te2-  Te105  1  0.83604102  0.16450036  0.49817332  1
  Te2-  Te106  1  0.84274502  0.16304042  0.83440641  1
  Te2-  Te107  1  0.83331714  0.49893960  0.16706271  1
  Te2-  Te108  1  0.83409862  0.49900584  0.50202003  1
  Te2-  Te109  1  0.84345873  0.49005365  0.83123957  1
  Te2-  Te110  1  0.83422937  0.83138453  0.16553338  1
  Te2-  Te111  1  0.82652475  0.82736010  0.50058856  1
  Te2-  Te112  1  0.83472212  0.84719433  0.83995756  1
  Te2-  Te113  1  0.16710930  0.00146888  0.00318283  1
  Te2-  Te114  1  0.17518787  0.00752982  0.32850520  1
  Te2-  Te115  1  0.17028007  0.00644654  0.66747486  1
  Te2-  Te116  1  0.16795457  0.33721816  -0.00249560  1
  Te2-  Te117  1  0.16440331  0.32700766  0.32695234  1
  Te2-  Te118  1  0.17836990  0.32255532  0.66852606  1
  Te2-  Te119  1  0.15280006  0.66190746  -0.00029087  1
  Te2-  Te120  1  0.15135906  0.66665504  0.33114067  1
  Te2-  Te121  1  0.16704537  0.66528961  0.66874898  1
  Te2-  Te122  1  0.49698030  0.00167323  -0.01013323  1
  Te2-  Te123  1  0.48856827  0.01220348  0.34485216  1
  Te2-  Te124  1  0.49637651  0.02191085  0.67139129  1
  Te2-  Te125  1  0.49682349  0.33500533  0.00737281  1
  Te2-  Te126  1  0.50145669  0.31841876  0.32428725  1
  Te2-  Te127  1  0.48617831  0.31875429  0.66926056  1
  Te2-  Te128  1  0.50777454  0.66396999  -0.00027229  1
  Te2-  Te129  1  0.50262851  0.66626781  0.33549828  1
  Te2-  Te130  1  0.49957279  0.66373896  0.66737007  1
  Te2-  Te131  1  0.83916180  0.00133295  -0.00005818  1
  Te2-  Te132  1  0.83485762  -0.00060348  0.33035873  1
  Te2-  Te133  1  0.83222829  0.01112138  0.67281293  1
  Te2-  Te134  1  0.83794907  0.33107655  -0.00660884  1
  Te2-  Te135  1  0.82725479  0.33435941  0.33111758  1
  Te2-  Te136  1  0.83604100  0.31391203  0.67219011  1
  Te2-  Te137  1  0.84285020  0.66619455  -0.00050442  1
  Te2-  Te138  1  0.84703174  0.66239773  0.33305234  1
  Te2-  Te139  1  0.84859334  0.66445494  0.66455879  1
  Te2-  Te140  1  0.00351868  0.16824506  -0.00288572  1
  Te2-  Te141  1  -0.00155223  0.16788334  0.33769415  1
  Te2-  Te142  1  0.01115443  0.17305476  0.66723988  1
  Te2-  Te143  1  0.00214217  0.50079640  -0.00476549  1
  Te2-  Te144  1  -0.00117147  0.49211001  0.33507250  1
  Te2-  Te145  1  -0.00122093  0.47957946  0.66401316  1
  Te2-  Te146  1  0.00109635  0.83702072  -0.00071205  1
  Te2-  Te147  1  -0.00819559  0.83824233  0.33653091  1
  Te2-  Te148  1  0.00054031  0.84310973  0.66501785  1
  Te2-  Te149  1  0.33262159  0.16633644  -0.00197233  1
  Te2-  Te150  1  0.33025945  0.17214129  0.33523707  1
  Te2-  Te151  1  0.32342804  0.16558346  0.66612610  1
  Te2-  Te152  1  0.32411402  0.50028336  0.00352534  1
  Te2-  Te153  1  0.32981627  0.49653081  0.34598265  1
  Te2-  Te154  1  0.33115341  0.50028692  0.66033272  1
  Te2-  Te155  1  0.33229254  0.83722577  -0.00968297  1
  Te2-  Te156  1  0.33227936  0.83834167  0.33538319  1
  Te2-  Te157  1  0.34143057  0.83562046  0.66867695  1
  Te2-  Te158  1  0.66785644  0.17150385  0.00827817  1
  Te2-  Te159  1  0.67226735  0.17393458  0.33584652  1
  Te2-  Te160  1  0.66910933  0.17465056  0.66235376  1
  Te2-  Te161  1  0.67773181  0.50161174  -0.00257185  1
  Te2-  Te162  1  0.67014627  0.49564040  0.34118252  1
  Te2-  Te163  1  0.66779324  0.48581072  0.65999441  1
  Te2-  Te164  1  0.66862067  0.82726923  -0.00211989  1
  Te2-  Te165  1  0.67245833  0.83108654  0.32582551  1
  Te2-  Te166  1  0.66345249  0.83788929  0.67386762  1
  Te2-  Te167  1  0.00076863  0.00536874  0.16459441  1
  Te2-  Te168  1  0.00666760  -0.00064582  0.49848636  1
  Te2-  Te169  1  0.00983670  -0.00000192  0.83525515  1
  Te2-  Te170  1  0.00480856  0.33857367  0.16157632  1
  Te2-  Te171  1  0.00173042  0.32918837  0.50799464  1
  Te2-  Te172  1  0.00308458  0.32862868  0.83219309  1
  Te2-  Te173  1  -0.00232206  0.66527558  0.17621811  1
  Te2-  Te174  1  0.00372897  0.66214977  0.51527689  1
  Te2-  Te175  1  -0.01199751  0.66541858  0.82196831  1
  Te2-  Te176  1  0.33244187  -0.00398462  0.15868529  1
  Te2-  Te177  1  0.33474949  -0.00422016  0.50561069  1
  Te2-  Te178  1  0.32749056  -0.00351279  0.83278965  1
  Te2-  Te179  1  0.33610956  0.32446062  0.16330094  1
  Te2-  Te180  1  0.33937592  0.34032511  0.50392512  1
  Te2-  Te181  1  0.32664492  0.33316265  0.83848371  1
  Te2-  Te182  1  0.33062480  0.67703767  0.16607767  1
  Te2-  Te183  1  0.32405150  0.65924253  0.50433107  1
  Te2-  Te184  1  0.33634535  0.67197590  0.83155129  1
  Te2-  Te185  1  0.67222658  -0.00296002  0.16540156  1
  Te2-  Te186  1  0.66353735  -0.01253499  0.50147417  1
  Te2-  Te187  1  0.66814189  0.01438928  0.83018209  1
  Te2-  Te188  1  0.65827874  0.33214048  0.16274137  1
  Te2-  Te189  1  0.65639496  0.32873727  0.50601981  1
  Te2-  Te190  1  0.67330034  0.31996461  0.82752596  1
  Te2-  Te191  1  0.67260520  0.66782215  0.16295921  1
  Te2-  Te192  1  0.67171459  0.67314829  0.51710099  1
  Te2-  Te193  1  0.68129329  0.66428627  0.82436537  1
  Pb2+  Pb194  1  0.16934519  0.33632782  0.49673219  1
  Pb2+  Pb195  1  0.83869751  -0.00228862  0.50263929  1
  Pb2+  Pb196  1  0.50200695  0.84031668  0.33608913  1
  Pb2+  Pb197  1  0.32212161  0.66353381  0.33695163  1
  Pb2+  Pb198  1  0.16039068  0.83402601  0.34055266  1
  Pb2+  Pb199  1  0.83180553  0.32667963  0.16117999  1
  Pb2+  Pb200  1  0.67560521  0.66587659  0.34364347  1
  Pb2+  Pb201  1  0.83045459  0.33073583  0.50093228  1
  Pb2+  Pb202  1  0.32648085  0.49999957  0.83085274  1
  Pb2+  Pb203  1  0.49920787  0.32930530  0.83717762  1
  Pb2+  Pb204  1  0.67227675  0.49471633  0.82864579  1
  Pb2+  Pb205  1  0.49519026  0.49064807  0.32834254  1
  Pb2+  Pb206  1  0.66053188  0.00589879  0.33268953  1
  Pb2+  Pb207  1  0.83411663  0.83616043  0.67255054  1
  Pb2+  Pb208  1  0.51167468  0.67310808  0.83388751  1
  Pb2+  Pb209  1  0.50184197  0.67520408  0.16825330  1
  Pb2+  Pb210  1  0.32492721  0.67072244  -0.00062092  1
  Pb2+  Pb211  1  0.50076587  0.48946700  0.67153211  1
  Pb2+  Pb212  1  0.66734193  0.00109338  -0.00202164  1
  Pb2+  Pb213  1  0.65633004  0.49659123  0.16613628  1
  Pb2+  Pb214  1  0.16154983  0.66678044  0.83266328  1
  Pb2+  Pb215  1  0.49294967  0.66924194  0.50039175  1
