# generated using pymatgen
data_In22Ag21Sn22Bi21(Te54Pb11)2
_symmetry_space_group_name_H-M   'P 1'
_cell_length_a   19.13133224
_cell_length_b   19.12636865
_cell_length_c   19.14347274
_cell_angle_alpha   89.97918357
_cell_angle_beta   89.99233705
_cell_angle_gamma   90.00333650
_symmetry_Int_Tables_number   1
_chemical_formula_structural   In22Ag21Sn22Bi21(Te54Pb11)2
_chemical_formula_sum   'In22 Ag21 Sn22 Bi21 Te108 Pb22'
_cell_volume   7004.84334471
_cell_formula_units_Z   1
loop_
 _symmetry_equiv_pos_site_id
 _symmetry_equiv_pos_as_xyz
  1  'x, y, z'
loop_
 _atom_type_symbol
 _atom_type_oxidation_number
  In3+  3.0
  Ag+  1.0
  Sn2+  2.0
  Bi3+  3.0
  Te2-  -2.0
  Pb2+  2.0
loop_
 _atom_site_type_symbol
 _atom_site_label
 _atom_site_symmetry_multiplicity
 _atom_site_fract_x
 _atom_site_fract_y
 _atom_site_fract_z
 _atom_site_occupancy
  In3+  In0  1  -0.00483916  0.32538992  0.34822896  1
  In3+  In1  1  0.34535016  0.84133189  0.15446446  1
  In3+  In2  1  0.34699380  0.31178934  -0.02032217  1
  In3+  In3  1  0.67150082  0.83122961  0.15363407  1
  In3+  In4  1  0.00889397  0.33457876  -0.02818277  1
  In3+  In5  1  0.66277055  0.50368734  0.50198383  1
  In3+  In6  1  0.64933626  0.84012527  0.49874895  1
  In3+  In7  1  0.48850588  0.16990007  0.66756724  1
  In3+  In8  1  0.49676989  0.33724290  0.50452921  1
  In3+  In9  1  0.00674260  -0.00879596  0.33028825  1
  In3+  In10  1  0.33521122  0.52067463  0.50282848  1
  In3+  In11  1  -0.00377915  0.68246628  0.00030909  1
  In3+  In12  1  0.18015887  0.16838890  0.33471146  1
  In3+  In13  1  0.66235196  -0.00033363  0.67872328  1
  In3+  In14  1  0.49150130  0.00161464  0.84285916  1
  In3+  In15  1  0.17341726  0.67257325  0.82237772  1
  In3+  In16  1  0.83821200  0.14985821  -0.01627482  1
  In3+  In17  1  0.33869860  -0.01333281  0.68910140  1
  In3+  In18  1  0.84041575  0.66380128  0.49449201  1
  In3+  In19  1  0.01485835  0.49841297  0.50925667  1
  In3+  In20  1  0.66454114  0.15552210  0.51733516  1
  In3+  In21  1  0.33965686  -0.00829256  0.32213307  1
  Ag+  Ag22  1  0.49622359  -0.01558199  0.18433888  1
  Ag+  Ag23  1  0.18576435  0.83903540  0.02218977  1
  Ag+  Ag24  1  0.32736265  0.84274040  0.47323240  1
  Ag+  Ag25  1  0.85520807  0.66201024  0.18781158  1
  Ag+  Ag26  1  0.01201392  0.66137092  0.68846288  1
  Ag+  Ag27  1  0.35752160  0.15364751  0.83782809  1
  Ag+  Ag28  1  0.35927447  -0.01632904  -0.01199626  1
  Ag+  Ag29  1  0.35591602  0.69243335  0.33163355  1
  Ag+  Ag30  1  0.16709682  0.48263083  0.65206619  1
  Ag+  Ag31  1  0.83522690  0.84877504  0.02596054  1
  Ag+  Ag32  1  0.47490274  0.16036226  0.02380875  1
  Ag+  Ag33  1  -0.01997160  0.30707408  0.66124855  1
  Ag+  Ag34  1  0.47827324  0.83159018  0.31440383  1
  Ag+  Ag35  1  0.35465635  0.80596575  0.85833148  1
  Ag+  Ag36  1  -0.00662217  0.48793093  0.19489120  1
  Ag+  Ag37  1  0.02496234  0.19410020  0.80028607  1
  Ag+  Ag38  1  0.52544217  0.52667161  0.66817037  1
  Ag+  Ag39  1  0.50317327  0.36060057  0.85588176  1
  Ag+  Ag40  1  0.64348064  0.83501298  0.85359229  1
  Ag+  Ag41  1  -0.02341012  0.85745718  0.50194034  1
  Ag+  Ag42  1  0.83937204  0.18565869  0.68460113  1
  Sn2+  Sn43  1  0.85028362  0.49901747  0.65965594  1
  Sn2+  Sn44  1  0.32714198  0.66559277  0.01451435  1
  Sn2+  Sn45  1  0.66515546  0.33262746  0.33684095  1
  Sn2+  Sn46  1  0.49976116  0.16024519  0.33007959  1
  Sn2+  Sn47  1  0.84140894  0.34252948  0.16216972  1
  Sn2+  Sn48  1  0.16701027  0.83252144  0.33551060  1
  Sn2+  Sn49  1  0.16560941  0.33409832  0.16194021  1
  Sn2+  Sn50  1  0.33632912  0.15204529  0.51060585  1
  Sn2+  Sn51  1  0.83312888  -0.00953214  0.82864893  1
  Sn2+  Sn52  1  0.32557895  0.50600392  0.16763177  1
  Sn2+  Sn53  1  0.66052984  0.67038334  0.33231533  1
  Sn2+  Sn54  1  0.49606504  -0.00020563  0.49658665  1
  Sn2+  Sn55  1  0.67654885  0.66810883  0.66500096  1
  Sn2+  Sn56  1  0.66164429  0.16418287  0.83636449  1
  Sn2+  Sn57  1  0.83301680  -0.00275837  0.50288445  1
  Sn2+  Sn58  1  0.49977661  0.66665710  0.16675313  1
  Sn2+  Sn59  1  0.33335070  0.49823765  0.82264197  1
  Sn2+  Sn60  1  -0.00365001  0.18268989  0.16902029  1
  Sn2+  Sn61  1  0.83000197  0.33385737  0.50408102  1
  Sn2+  Sn62  1  -0.01046636  0.16973661  0.50509217  1
  Sn2+  Sn63  1  0.17672875  0.33068818  0.83040240  1
  Sn2+  Sn64  1  0.82411668  0.00041920  0.16955075  1
  Bi3+  Bi65  1  0.83199782  0.16626104  0.33396969  1
  Bi3+  Bi66  1  0.50155625  0.66640829  0.50017685  1
  Bi3+  Bi67  1  0.33353561  0.33090887  0.33294291  1
  Bi3+  Bi68  1  0.83491162  0.83037534  0.66305996  1
  Bi3+  Bi69  1  0.16944207  -0.00007756  0.49880480  1
  Bi3+  Bi70  1  0.83489971  0.50122165  -0.00118622  1
  Bi3+  Bi71  1  0.16688561  0.83593345  0.66547531  1
  Bi3+  Bi72  1  0.33375059  0.33408041  0.66579386  1
  Bi3+  Bi73  1  -0.00177260  0.83414519  0.82512067  1
  Bi3+  Bi74  1  0.16385751  0.66510466  0.16377158  1
  Bi3+  Bi75  1  0.83401602  0.83402006  0.33483572  1
  Bi3+  Bi76  1  0.83298286  0.66573023  0.83069918  1
  Bi3+  Bi77  1  0.66404794  0.00303158  -0.00411945  1
  Bi3+  Bi78  1  0.00059789  0.66590465  0.33176114  1
  Bi3+  Bi79  1  0.16575106  0.50720238  -0.00363270  1
  Bi3+  Bi80  1  0.66805846  0.66619772  -0.00226714  1
  Bi3+  Bi81  1  0.00262530  0.50270757  0.82897010  1
  Bi3+  Bi82  1  0.66910874  0.33071206  -0.00163785  1
  Bi3+  Bi83  1  0.66726380  0.16460709  0.16717835  1
  Bi3+  Bi84  1  -0.00000618  0.00048650  0.00306712  1
  Bi3+  Bi85  1  0.49966798  0.83974475  0.66239020  1
  Te2-  Te86  1  0.16360437  0.16782294  0.17281520  1
  Te2-  Te87  1  0.16492970  0.16285688  0.49255316  1
  Te2-  Te88  1  0.16397837  0.17078157  0.83494458  1
  Te2-  Te89  1  0.15577139  0.50198536  0.15861711  1
  Te2-  Te90  1  0.16976713  0.50204797  0.50435776  1
  Te2-  Te91  1  0.16486600  0.50393567  0.83636771  1
  Te2-  Te92  1  0.16838207  0.82873064  0.16819823  1
  Te2-  Te93  1  0.17941227  0.83855473  0.50026800  1
  Te2-  Te94  1  0.15851273  0.82793358  0.82781542  1
  Te2-  Te95  1  0.50384126  0.16093440  0.17030585  1
  Te2-  Te96  1  0.50893804  0.16595983  0.49930408  1
  Te2-  Te97  1  0.50443446  0.15509005  0.81890781  1
  Te2-  Te98  1  0.49807970  0.50222445  0.16756801  1
  Te2-  Te99  1  0.49764392  0.50068058  0.51644428  1
  Te2-  Te100  1  0.49732560  0.50283611  0.81788776  1
  Te2-  Te101  1  0.49931324  0.83657857  0.16774244  1
  Te2-  Te102  1  0.49377570  0.82967753  0.50234806  1
  Te2-  Te103  1  0.49601030  0.84377550  0.82783884  1
  Te2-  Te104  1  0.82967272  0.16682483  0.17117681  1
  Te2-  Te105  1  0.82192052  0.16674021  0.49486892  1
  Te2-  Te106  1  0.82819904  0.16025163  0.83060137  1
  Te2-  Te107  1  0.84329646  0.51110102  0.16191774  1
  Te2-  Te108  1  0.82075889  0.50222853  0.50187896  1
  Te2-  Te109  1  0.83597494  0.50057972  0.83153273  1
  Te2-  Te110  1  0.82709813  0.82664594  0.17272547  1
  Te2-  Te111  1  0.83268202  0.82664220  0.49898885  1
  Te2-  Te112  1  0.83698607  0.82792933  0.82384443  1
  Te2-  Te113  1  0.15848131  -0.01201477  0.00195317  1
  Te2-  Te114  1  0.16324650  0.00366485  0.33372924  1
  Te2-  Te115  1  0.17391236  0.00106773  0.66328006  1
  Te2-  Te116  1  0.16294836  0.33861923  -0.00212020  1
  Te2-  Te117  1  0.16700111  0.32692350  0.33176479  1
  Te2-  Te118  1  0.17187445  0.33640658  0.67010855  1
  Te2-  Te119  1  0.16238909  0.67496177  0.00172087  1
  Te2-  Te120  1  0.16278409  0.66642968  0.32972143  1
  Te2-  Te121  1  0.15972125  0.67264980  0.66804827  1
  Te2-  Te122  1  0.50420531  0.01153693  -0.00383299  1
  Te2-  Te123  1  0.49459585  -0.01189956  0.33223366  1
  Te2-  Te124  1  0.49954969  0.00305973  0.66022090  1
  Te2-  Te125  1  0.50143553  0.31965802  -0.00209200  1
  Te2-  Te126  1  0.49744073  0.33174133  0.33858352  1
  Te2-  Te127  1  0.49596705  0.32371139  0.65953411  1
  Te2-  Te128  1  0.50182303  0.66666182  0.00155699  1
  Te2-  Te129  1  0.50257577  0.67778611  0.33502207  1
  Te2-  Te130  1  0.50198156  0.67348407  0.66416545  1
  Te2-  Te131  1  0.82991578  -0.00383376  0.00248220  1
  Te2-  Te132  1  0.83738957  -0.00062178  0.33446172  1
  Te2-  Te133  1  0.82511622  -0.00726116  0.66129597  1
  Te2-  Te134  1  0.83340975  0.33789461  0.00175808  1
  Te2-  Te135  1  0.83511930  0.33049924  0.33434489  1
  Te2-  Te136  1  0.83436291  0.33243633  0.66289249  1
  Te2-  Te137  1  0.83046983  0.66233132  -0.00632859  1
  Te2-  Te138  1  0.83265844  0.66815846  0.33390641  1
  Te2-  Te139  1  0.83829331  0.66643210  0.66471480  1
  Te2-  Te140  1  -0.00927848  0.17127186  0.00295334  1
  Te2-  Te141  1  -0.00630147  0.17317224  0.33714207  1
  Te2-  Te142  1  -0.01259772  0.15937683  0.66289453  1
  Te2-  Te143  1  0.00037599  0.48903176  -0.00711996  1
  Te2-  Te144  1  0.00067109  0.49795426  0.34238927  1
  Te2-  Te145  1  0.01175655  0.51240438  0.66410682  1
  Te2-  Te146  1  -0.01641494  0.83750313  -0.00305785  1
  Te2-  Te147  1  -0.00229952  0.83070800  0.34778016  1
  Te2-  Te148  1  0.00037308  0.82639457  0.65329533  1
  Te2-  Te149  1  0.33162973  0.16518972  -0.00828355  1
  Te2-  Te150  1  0.33483229  0.16465430  0.33550277  1
  Te2-  Te151  1  0.33506016  0.16632402  0.67573368  1
  Te2-  Te152  1  0.32818357  0.50343366  0.00031186  1
  Te2-  Te153  1  0.33318922  0.49237801  0.34390630  1
  Te2-  Te154  1  0.32109988  0.49795827  0.65889594  1
  Te2-  Te155  1  0.33200013  0.83826602  0.00037165  1
  Te2-  Te156  1  0.32988753  0.83726767  0.32497049  1
  Te2-  Te157  1  0.33408956  0.83692432  0.67445589  1
  Te2-  Te158  1  0.67777591  0.16713519  0.00321682  1
  Te2-  Te159  1  0.66681084  0.16603762  0.32937003  1
  Te2-  Te160  1  0.68019479  0.15807023  0.66729616  1
  Te2-  Te161  1  0.66452596  0.49798744  -0.00176606  1
  Te2-  Te162  1  0.66429588  0.50039542  0.33667930  1
  Te2-  Te163  1  0.67077344  0.49889789  0.66009178  1
  Te2-  Te164  1  0.67891924  0.83463219  -0.00202641  1
  Te2-  Te165  1  0.67176962  0.83168300  0.34455801  1
  Te2-  Te166  1  0.66654915  0.83752948  0.65458958  1
  Te2-  Te167  1  -0.00535531  0.00283412  0.16942352  1
  Te2-  Te168  1  0.00409725  0.00221720  0.49185882  1
  Te2-  Te169  1  -0.00471739  -0.00302463  0.83802528  1
  Te2-  Te170  1  -0.00038285  0.34122752  0.17945029  1
  Te2-  Te171  1  -0.00127542  0.33799166  0.50970089  1
  Te2-  Te172  1  -0.00018562  0.33776005  0.81748594  1
  Te2-  Te173  1  -0.00026783  0.66677753  0.16505129  1
  Te2-  Te174  1  -0.00598693  0.65286552  0.49275394  1
  Te2-  Te175  1  -0.00136329  0.66820071  0.83755858  1
  Te2-  Te176  1  0.34310778  -0.00390937  0.16597511  1
  Te2-  Te177  1  0.33201148  -0.00542651  0.48587338  1
  Te2-  Te178  1  0.33617526  0.00718858  0.84205764  1
  Te2-  Te179  1  0.32939578  0.33771242  0.17067377  1
  Te2-  Te180  1  0.34003101  0.31974549  0.49986945  1
  Te2-  Te181  1  0.34814019  0.33492630  0.83121604  1
  Te2-  Te182  1  0.33063721  0.66472960  0.17864068  1
  Te2-  Te183  1  0.33764166  0.67336579  0.48573933  1
  Te2-  Te184  1  0.32677795  0.66509444  0.83618009  1
  Te2-  Te185  1  0.65734658  -0.00471389  0.16099052  1
  Te2-  Te186  1  0.66583633  0.00073783  0.50066853  1
  Te2-  Te187  1  0.66522495  -0.01248667  0.83343738  1
  Te2-  Te188  1  0.66874680  0.33212581  0.16385334  1
  Te2-  Te189  1  0.65917233  0.33571431  0.49574228  1
  Te2-  Te190  1  0.65493812  0.33374747  0.83634812  1
  Te2-  Te191  1  0.66358765  0.67436008  0.16031677  1
  Te2-  Te192  1  0.66472040  0.66047330  0.50092396  1
  Te2-  Te193  1  0.66777164  0.68134712  0.83389129  1
  Pb2+  Pb194  1  0.16306416  0.17071364  0.66611024  1
  Pb2+  Pb195  1  0.49596615  0.66951390  0.83342513  1
  Pb2+  Pb196  1  0.50447054  0.83833828  0.00004894  1
  Pb2+  Pb197  1  0.16944161  -0.00255593  0.16488413  1
  Pb2+  Pb198  1  0.16520655  -0.00174678  0.83588066  1
  Pb2+  Pb199  1  0.83506634  0.49851640  0.33301805  1
  Pb2+  Pb200  1  0.17063042  0.33283314  0.50013168  1
  Pb2+  Pb201  1  0.49278937  0.49464150  -0.00519701  1
  Pb2+  Pb202  1  0.16319073  0.67321005  0.49926018  1
  Pb2+  Pb203  1  -0.00208109  -0.00874318  0.66601444  1
  Pb2+  Pb204  1  0.16017976  0.16538515  -0.00048402  1
  Pb2+  Pb205  1  0.66421387  0.32856823  0.66540739  1
  Pb2+  Pb206  1  0.16788101  0.49907013  0.32872933  1
  Pb2+  Pb207  1  0.82739743  0.32692555  0.83398688  1
  Pb2+  Pb208  1  0.32982195  0.66894803  0.66064207  1
  Pb2+  Pb209  1  0.00054953  0.83371103  0.16978187  1
  Pb2+  Pb210  1  0.67231257  0.50453693  0.16819462  1
  Pb2+  Pb211  1  0.49830633  0.33034825  0.16867737  1
  Pb2+  Pb212  1  0.33266356  0.16777907  0.16402155  1
  Pb2+  Pb213  1  0.49722810  0.50443785  0.34069721  1
  Pb2+  Pb214  1  0.66384005  -0.00208239  0.33159227  1
  Pb2+  Pb215  1  0.66493537  0.50881285  0.82732579  1
