# generated using pymatgen
data_In22Ag21Sn22Bi21(Te54Pb11)2
_symmetry_space_group_name_H-M   'P 1'
_cell_length_a   19.15327306
_cell_length_b   19.14520644
_cell_length_c   19.13288414
_cell_angle_alpha   90.00602608
_cell_angle_beta   90.01844668
_cell_angle_gamma   89.98932401
_symmetry_Int_Tables_number   1
_chemical_formula_structural   In22Ag21Sn22Bi21(Te54Pb11)2
_chemical_formula_sum   'In22 Ag21 Sn22 Bi21 Te108 Pb22'
_cell_volume   7015.90117590
_cell_formula_units_Z   1
loop_
 _symmetry_equiv_pos_site_id
 _symmetry_equiv_pos_as_xyz
  1  'x, y, z'
loop_
 _atom_type_symbol
 _atom_type_oxidation_number
  In3+  3.0
  Ag+  1.0
  Sn2+  2.0
  Bi3+  3.0
  Te2-  -2.0
  Pb2+  2.0
loop_
 _atom_site_type_symbol
 _atom_site_label
 _atom_site_symmetry_multiplicity
 _atom_site_fract_x
 _atom_site_fract_y
 _atom_site_fract_z
 _atom_site_occupancy
  In3+  In0  1  -0.01824381  0.48619013  0.83505554  1
  In3+  In1  1  0.85166618  0.35110329  0.83677250  1
  In3+  In2  1  0.15310110  0.49696277  0.69175236  1
  In3+  In3  1  -0.00752208  0.65424141  -0.00448381  1
  In3+  In4  1  0.83043392  0.18907386  0.32982705  1
  In3+  In5  1  0.67853960  -0.01630262  0.65904862  1
  In3+  In6  1  0.00141590  0.16445627  0.49404598  1
  In3+  In7  1  0.32965612  0.67100402  0.65608712  1
  In3+  In8  1  0.16432615  0.84381477  0.66416803  1
  In3+  In9  1  0.16485844  0.50554059  0.33901437  1
  In3+  In10  1  0.16726292  0.83132691  0.35161307  1
  In3+  In11  1  0.00701351  0.65097446  0.33985047  1
  In3+  In12  1  0.16162700  0.66386358  0.84166844  1
  In3+  In13  1  0.82977040  0.51383814  0.30597535  1
  In3+  In14  1  0.67490365  0.66667093  0.66641604  1
  In3+  In15  1  0.50299139  0.15193469  0.64447313  1
  In3+  In16  1  0.52321870  0.33385683  0.17692687  1
  In3+  In17  1  0.84186971  0.66906303  0.15298351  1
  In3+  In18  1  0.47694435  0.49856764  0.03037154  1
  In3+  In19  1  0.50303015  0.66861385  0.50896908  1
  In3+  In20  1  0.17047160  0.66521335  0.51678280  1
  In3+  In21  1  0.16263607  0.66771982  0.15496878  1
  Ag+  Ag22  1  0.86050992  0.65819579  0.81118274  1
  Ag+  Ag23  1  0.81909078  0.49801119  0.64630070  1
  Ag+  Ag24  1  0.53278797  0.18215074  0.34732231  1
  Ag+  Ag25  1  0.85517484  0.83489063  -0.03120967  1
  Ag+  Ag26  1  0.33972565  0.84130896  0.51733772  1
  Ag+  Ag27  1  0.52584964  0.85384556  0.64117983  1
  Ag+  Ag28  1  0.16647589  0.19711353  0.35853243  1
  Ag+  Ag29  1  0.29883466  -0.03314570  -0.03291256  1
  Ag+  Ag30  1  0.83161276  0.03017734  0.81451753  1
  Ag+  Ag31  1  0.81492429  0.47743862  0.00093827  1
  Ag+  Ag32  1  0.83186332  0.35599911  0.19011755  1
  Ag+  Ag33  1  0.52717742  0.52345162  0.33322556  1
  Ag+  Ag34  1  0.68877172  0.35878067  0.33293308  1
  Ag+  Ag35  1  0.14948874  0.81477132  -0.00525037  1
  Ag+  Ag36  1  0.65205134  0.83201277  0.50610179  1
  Ag+  Ag37  1  0.14848382  0.02315958  0.51162543  1
  Ag+  Ag38  1  -0.02715911  0.32879042  0.64872654  1
  Ag+  Ag39  1  0.47242494  -0.03374029  0.52285985  1
  Ag+  Ag40  1  0.31191073  0.33849569  0.02463261  1
  Ag+  Ag41  1  0.15415431  0.47722659  0.01366496  1
  Ag+  Ag42  1  0.15765013  0.36581658  0.81038413  1
  Sn2+  Sn43  1  0.32891250  0.83402887  0.16834996  1
  Sn2+  Sn44  1  -0.00177803  0.49312621  0.51101230  1
  Sn2+  Sn45  1  0.49064303  0.33209594  0.84004894  1
  Sn2+  Sn46  1  0.67083096  0.67119512  0.33675704  1
  Sn2+  Sn47  1  0.67912467  0.66793178  -0.00438550  1
  Sn2+  Sn48  1  0.50212257  0.66562071  0.17444093  1
  Sn2+  Sn49  1  0.67253817  0.15735606  0.50012397  1
  Sn2+  Sn50  1  0.83185752  0.66609864  0.50501352  1
  Sn2+  Sn51  1  0.49967880  0.50373161  0.65952744  1
  Sn2+  Sn52  1  0.82387688  0.34167461  0.50962615  1
  Sn2+  Sn53  1  0.16897582  -0.00740714  0.17739573  1
  Sn2+  Sn54  1  0.15468542  0.33137688  0.16234932  1
  Sn2+  Sn55  1  0.83801607  0.82587165  0.67106707  1
  Sn2+  Sn56  1  0.32617636  0.83405180  0.83536151  1
  Sn2+  Sn57  1  0.34080035  0.49970384  0.50040479  1
  Sn2+  Sn58  1  -0.00221862  0.66187313  0.66343376  1
  Sn2+  Sn59  1  -0.00217877  0.32654419  0.33724811  1
  Sn2+  Sn60  1  -0.00035164  0.01662344  0.67107719  1
  Sn2+  Sn61  1  0.66926035  0.33665026  0.65765395  1
  Sn2+  Sn62  1  0.66789973  0.82951098  0.17848018  1
  Sn2+  Sn63  1  0.32632106  0.49786427  0.16708029  1
  Sn2+  Sn64  1  0.00257039  0.33359568  0.00057651  1
  Bi3+  Bi65  1  0.33476515  0.16963620  0.83388777  1
  Bi3+  Bi66  1  0.33977491  0.49882971  0.82927967  1
  Bi3+  Bi67  1  0.50245985  0.33768825  0.49319069  1
  Bi3+  Bi68  1  0.33228630  -0.00158260  0.33220885  1
  Bi3+  Bi69  1  -0.00061149  0.16777696  0.17142085  1
  Bi3+  Bi70  1  -0.00000159  0.16971320  0.83275490  1
  Bi3+  Bi71  1  0.32938696  0.33004537  0.33206867  1
  Bi3+  Bi72  1  0.49830577  -0.00058891  0.16830546  1
  Bi3+  Bi73  1  0.00258930  -0.00359919  0.33570474  1
  Bi3+  Bi74  1  0.66708662  -0.00421867  -0.00397944  1
  Bi3+  Bi75  1  0.66490274  0.83116560  0.83316314  1
  Bi3+  Bi76  1  0.66429457  -0.00569420  0.33940612  1
  Bi3+  Bi77  1  0.17195966  0.16648905  -0.00051469  1
  Bi3+  Bi78  1  0.33635860  0.66469768  -0.00239785  1
  Bi3+  Bi79  1  0.49814960  0.17343185  0.00243066  1
  Bi3+  Bi80  1  0.34132526  0.33930377  0.66592880  1
  Bi3+  Bi81  1  0.66797295  0.49962357  0.83417303  1
  Bi3+  Bi82  1  0.50433618  0.83269944  -0.00444067  1
  Bi3+  Bi83  1  0.49711807  0.66417944  0.83200210  1
  Bi3+  Bi84  1  0.83517843  0.82820064  0.34134208  1
  Bi3+  Bi85  1  -0.00262041  -0.00172281  -0.00217915  1
  Te2-  Te86  1  0.16054993  0.16355523  0.16134814  1
  Te2-  Te87  1  0.15828275  0.16914802  0.50353323  1
  Te2-  Te88  1  0.16590141  0.16301950  0.83513193  1
  Te2-  Te89  1  0.16780616  0.50838568  0.15872120  1
  Te2-  Te90  1  0.16803158  0.51272809  0.49248124  1
  Te2-  Te91  1  0.17678559  0.50883842  0.84236045  1
  Te2-  Te92  1  0.17194364  0.82584497  0.14775715  1
  Te2-  Te93  1  0.17354861  0.81971218  0.50702611  1
  Te2-  Te94  1  0.16809393  0.82635425  0.83942212  1
  Te2-  Te95  1  0.49742339  0.16812042  0.16363210  1
  Te2-  Te96  1  0.50481954  0.17180243  0.49218101  1
  Te2-  Te97  1  0.49864360  0.16760504  0.83800073  1
  Te2-  Te98  1  0.49662098  0.49453117  0.18502584  1
  Te2-  Te99  1  0.50103821  0.50227554  0.48416451  1
  Te2-  Te100  1  0.50215949  0.50079069  0.83085533  1
  Te2-  Te101  1  0.50123402  0.83335277  0.16269933  1
  Te2-  Te102  1  0.48970365  0.82125364  0.50257986  1
  Te2-  Te103  1  0.49968307  0.82823933  0.83002704  1
  Te2-  Te104  1  0.83742724  0.16527787  0.17490328  1
  Te2-  Te105  1  0.84271069  0.17245763  0.49162685  1
  Te2-  Te106  1  0.83725254  0.17652824  0.83078150  1
  Te2-  Te107  1  0.83430221  0.50006722  0.15380394  1
  Te2-  Te108  1  0.83850375  0.50178070  0.50019527  1
  Te2-  Te109  1  0.83263965  0.50952857  0.85010411  1
  Te2-  Te110  1  0.83157925  0.82099824  0.17748895  1
  Te2-  Te111  1  0.83531439  0.82705191  0.50439811  1
  Te2-  Te112  1  0.82471115  0.80960983  0.82579822  1
  Te2-  Te113  1  0.16238916  0.00345390  0.00305927  1
  Te2-  Te114  1  0.16429421  -0.01383110  0.33983391  1
  Te2-  Te115  1  0.16247938  -0.00333117  0.65849928  1
  Te2-  Te116  1  0.16622603  0.33047169  0.00383502  1
  Te2-  Te117  1  0.16291907  0.34352020  0.33000920  1
  Te2-  Te118  1  0.17625976  0.34588102  0.66625642  1
  Te2-  Te119  1  0.17279101  0.66910921  -0.00264994  1
  Te2-  Te120  1  0.15963078  0.66943264  0.31737523  1
  Te2-  Te121  1  0.16503810  0.65429937  0.66915572  1
  Te2-  Te122  1  0.50309508  0.00029128  0.00269411  1
  Te2-  Te123  1  0.50131664  0.00518606  0.33013543  1
  Te2-  Te124  1  0.50727559  -0.00207209  0.66302692  1
  Te2-  Te125  1  0.50303749  0.33873047  0.01377103  1
  Te2-  Te126  1  0.49077844  0.32208255  0.32850047  1
  Te2-  Te127  1  0.50307357  0.33975925  0.65952114  1
  Te2-  Te128  1  0.50099466  0.66395921  -0.00114355  1
  Te2-  Te129  1  0.50084818  0.66874796  0.33281840  1
  Te2-  Te130  1  0.49137129  0.66386461  0.66525108  1
  Te2-  Te131  1  0.83222998  -0.01303778  -0.00031288  1
  Te2-  Te132  1  0.83647633  -0.00974309  0.33396859  1
  Te2-  Te133  1  0.83146141  0.00034546  0.66896481  1
  Te2-  Te134  1  0.83469598  0.33159515  -0.01246443  1
  Te2-  Te135  1  0.83674043  0.34043004  0.33763932  1
  Te2-  Te136  1  0.83001539  0.34960155  0.67612225  1
  Te2-  Te137  1  0.84387480  0.68348612  0.00330971  1
  Te2-  Te138  1  0.84254407  0.66437331  0.33627873  1
  Te2-  Te139  1  0.83896020  0.65243378  0.66471777  1
  Te2-  Te140  1  0.00236726  0.16280794  -0.00110185  1
  Te2-  Te141  1  0.01621075  0.15948842  0.33579605  1
  Te2-  Te142  1  -0.00073917  0.18054577  0.66975589  1
  Te2-  Te143  1  0.01086771  0.50360541  -0.01149460  1
  Te2-  Te144  1  0.00259109  0.49962289  0.33310473  1
  Te2-  Te145  1  0.00218654  0.49041428  0.68014929  1
  Te2-  Te146  1  0.00108747  0.83708249  -0.00047687  1
  Te2-  Te147  1  0.00374716  0.83281056  0.33437158  1
  Te2-  Te148  1  0.00775384  0.83278214  0.66853550  1
  Te2-  Te149  1  0.33601002  0.18100023  -0.00432331  1
  Te2-  Te150  1  0.31206993  0.16385881  0.33271220  1
  Te2-  Te151  1  0.34272034  0.17059982  0.66769725  1
  Te2-  Te152  1  0.33099978  0.49401657  -0.00541573  1
  Te2-  Te153  1  0.32157074  0.49636365  0.33563567  1
  Te2-  Te154  1  0.33255044  0.50351251  0.66551956  1
  Te2-  Te155  1  0.34351288  0.83004119  -0.00296638  1
  Te2-  Te156  1  0.32289097  0.83205112  0.33371513  1
  Te2-  Te157  1  0.31958980  0.82420180  0.66460550  1
  Te2-  Te158  1  0.66553609  0.16182961  -0.00141393  1
  Te2-  Te159  1  0.67777771  0.15592892  0.33797762  1
  Te2-  Te160  1  0.66076335  0.16973803  0.66059561  1
  Te2-  Te161  1  0.66943857  0.50657868  -0.00408918  1
  Te2-  Te162  1  0.67563480  0.50612406  0.33294332  1
  Te2-  Te163  1  0.67096283  0.50675643  0.67052088  1
  Te2-  Te164  1  0.66562523  0.83404418  0.00052845  1
  Te2-  Te165  1  0.67014712  0.83275059  0.35099063  1
  Te2-  Te166  1  0.66900903  0.82686921  0.66333163  1
  Te2-  Te167  1  0.00167810  0.00220875  0.16738821  1
  Te2-  Te168  1  0.00225888  0.00537166  0.50157468  1
  Te2-  Te169  1  -0.01513358  0.00475165  0.83283627  1
  Te2-  Te170  1  -0.01573090  0.32797800  0.16672981  1
  Te2-  Te171  1  -0.00338270  0.33410786  0.50388504  1
  Te2-  Te172  1  0.01387203  0.33485454  0.83616915  1
  Te2-  Te173  1  -0.00014165  0.66341532  0.16296243  1
  Te2-  Te174  1  0.00862784  0.66144205  0.49712372  1
  Te2-  Te175  1  0.00603084  0.66103342  0.83659668  1
  Te2-  Te176  1  0.33527583  -0.00357506  0.16996673  1
  Te2-  Te177  1  0.33090517  -0.01053358  0.49465251  1
  Te2-  Te178  1  0.33331592  0.00370405  0.83037155  1
  Te2-  Te179  1  0.32273164  0.33764580  0.17115005  1
  Te2-  Te180  1  0.33703775  0.33107923  0.49882869  1
  Te2-  Te181  1  0.33035886  0.33482241  0.82736951  1
  Te2-  Te182  1  0.33782141  0.66544769  0.15985245  1
  Te2-  Te183  1  0.33052462  0.66634175  0.50093906  1
  Te2-  Te184  1  0.33343306  0.66447849  0.83281899  1
  Te2-  Te185  1  0.66370128  -0.00334636  0.16806364  1
  Te2-  Te186  1  0.66404025  -0.01189015  0.50381211  1
  Te2-  Te187  1  0.67985303  -0.00510841  0.83088231  1
  Te2-  Te188  1  0.67844081  0.33538991  0.18125363  1
  Te2-  Te189  1  0.66516150  0.33100484  0.48564878  1
  Te2-  Te190  1  0.65731299  0.33866515  0.82890866  1
  Te2-  Te191  1  0.66828934  0.67094205  0.16873888  1
  Te2-  Te192  1  0.65889302  0.67507381  0.50844034  1
  Te2-  Te193  1  0.65998294  0.66630035  0.82764744  1
  Pb2+  Pb194  1  0.66397354  0.16875940  0.17038245  1
  Pb2+  Pb195  1  0.00238459  0.83067863  0.50229404  1
  Pb2+  Pb196  1  0.33002155  0.66320044  0.33087131  1
  Pb2+  Pb197  1  0.83530494  0.16022507  0.00115687  1
  Pb2+  Pb198  1  0.16977450  0.17442937  0.66948836  1
  Pb2+  Pb199  1  0.33386081  -0.00595414  0.66179288  1
  Pb2+  Pb200  1  0.66902536  0.50261342  0.50184919  1
  Pb2+  Pb201  1  0.33689003  0.15612069  0.49531165  1
  Pb2+  Pb202  1  0.83132940  0.00009250  0.50083783  1
  Pb2+  Pb203  1  0.16499383  0.34326895  0.50039095  1
  Pb2+  Pb204  1  0.66203338  0.50305990  0.16236079  1
  Pb2+  Pb205  1  0.32991685  0.16811372  0.16651690  1
  Pb2+  Pb206  1  0.49420571  0.83890655  0.33562258  1
  Pb2+  Pb207  1  0.83185495  -0.00672366  0.16464713  1
  Pb2+  Pb208  1  0.50652335  -0.00235671  0.83366804  1
  Pb2+  Pb209  1  0.66774027  0.33698079  -0.00039701  1
  Pb2+  Pb210  1  0.00301962  0.49469617  0.16204549  1
  Pb2+  Pb211  1  0.15947771  -0.00608588  0.83436914  1
  Pb2+  Pb212  1  0.66747845  0.17014901  0.82802173  1
  Pb2+  Pb213  1  -0.00641198  0.83062659  0.83415463  1
  Pb2+  Pb214  1  0.00524563  0.83147699  0.16598297  1
  Pb2+  Pb215  1  0.83123370  0.17512318  0.66169939  1
