# generated using pymatgen
data_In22Ag21Sn22Bi21(Te54Pb11)2
_symmetry_space_group_name_H-M   'P 1'
_cell_length_a   19.16168778
_cell_length_b   19.18732556
_cell_length_c   19.17910488
_cell_angle_alpha   89.99143710
_cell_angle_beta   89.99021133
_cell_angle_gamma   89.99776798
_symmetry_Int_Tables_number   1
_chemical_formula_structural   In22Ag21Sn22Bi21(Te54Pb11)2
_chemical_formula_sum   'In22 Ag21 Sn22 Bi21 Te108 Pb22'
_cell_volume   7051.41908385
_cell_formula_units_Z   1
loop_
 _symmetry_equiv_pos_site_id
 _symmetry_equiv_pos_as_xyz
  1  'x, y, z'
loop_
 _atom_type_symbol
 _atom_type_oxidation_number
  In3+  3.0
  Ag+  1.0
  Sn2+  2.0
  Bi3+  3.0
  Te2-  -2.0
  Pb2+  2.0
loop_
 _atom_site_type_symbol
 _atom_site_label
 _atom_site_symmetry_multiplicity
 _atom_site_fract_x
 _atom_site_fract_y
 _atom_site_fract_z
 _atom_site_occupancy
  In3+  In0  1  0.67246001  0.69658943  0.31347095  1
  In3+  In1  1  0.33080501  -0.01314949  0.67525167  1
  In3+  In2  1  0.00361953  0.68797386  0.36313151  1
  In3+  In3  1  0.66813763  0.84849850  0.13981523  1
  In3+  In4  1  0.16478750  0.31670521  0.49836700  1
  In3+  In5  1  0.33490289  0.83986451  0.84191481  1
  In3+  In6  1  0.49804358  0.31891879  0.49839450  1
  In3+  In7  1  0.84328680  0.51404203  0.66941322  1
  In3+  In8  1  0.84056856  0.68621595  0.83777234  1
  In3+  In9  1  0.16590441  0.31355975  0.14643432  1
  In3+  In10  1  -0.00107070  0.49722374  0.49408839  1
  In3+  In11  1  0.48939346  0.32409381  0.15392831  1
  In3+  In12  1  0.01500482  0.50166629  0.84462832  1
  In3+  In13  1  0.68370099  0.00097935  0.67999309  1
  In3+  In14  1  0.83853888  0.68615621  0.50274419  1
  In3+  In15  1  0.30408433  -0.01313428  0.00817415  1
  In3+  In16  1  0.32586566  0.85016293  0.48421396  1
  In3+  In17  1  0.14964532  0.50524421  0.67778711  1
  In3+  In18  1  0.49478391  -0.00621204  0.84574691  1
  In3+  In19  1  0.68240831  0.00520685  0.33349718  1
  In3+  In20  1  0.00273274  0.31598179  -0.02159734  1
  In3+  In21  1  0.67658800  0.82332779  0.83790536  1
  Ag+  Ag22  1  0.30837312  0.84012336  0.18476091  1
  Ag+  Ag23  1  0.15270918  0.14419343  0.31449625  1
  Ag+  Ag24  1  -0.01627837  -0.02711177  -0.03480570  1
  Ag+  Ag25  1  0.02265964  0.68953147  0.67064283  1
  Ag+  Ag26  1  0.14514815  -0.02640831  0.85176064  1
  Ag+  Ag27  1  0.01436303  0.14144899  0.86535323  1
  Ag+  Ag28  1  0.16876053  0.81213599  0.30792256  1
  Ag+  Ag29  1  0.03711282  0.85349723  0.83491356  1
  Ag+  Ag30  1  0.13156730  0.69386327  0.82836769  1
  Ag+  Ag31  1  0.16040303  0.14013379  -0.02656586  1
  Ag+  Ag32  1  0.30933282  0.53016408  0.81035113  1
  Ag+  Ag33  1  0.47885129  0.83571053  -0.00167180  1
  Ag+  Ag34  1  0.69628936  0.67578896  0.01984697  1
  Ag+  Ag35  1  0.17084670  0.85988467  0.67664228  1
  Ag+  Ag36  1  0.85669975  -0.01700909  0.84898803  1
  Ag+  Ag37  1  0.14679850  -0.01780886  0.19954859  1
  Ag+  Ag38  1  0.00164033  0.13880327  0.49779556  1
  Ag+  Ag39  1  0.03566140  -0.01723294  0.30519600  1
  Ag+  Ag40  1  0.16483306  0.30784204  0.85139024  1
  Ag+  Ag41  1  0.82905535  -0.01259438  0.48068332  1
  Ag+  Ag42  1  0.85489144  0.84066711  0.01943266  1
  Sn2+  Sn43  1  0.84152276  0.34041354  0.16518496  1
  Sn2+  Sn44  1  0.83205401  0.49895770  0.34381776  1
  Sn2+  Sn45  1  0.15754751  0.83718705  -0.00381628  1
  Sn2+  Sn46  1  0.68543500  0.15766158  0.49851364  1
  Sn2+  Sn47  1  0.65874068  0.83274036  0.51088232  1
  Sn2+  Sn48  1  0.66347109  0.49730650  0.16283867  1
  Sn2+  Sn49  1  0.48715156  -0.00938647  0.15905915  1
  Sn2+  Sn50  1  0.50166653  0.50242240  0.67097900  1
  Sn2+  Sn51  1  0.17220419  0.51042152  -0.00305307  1
  Sn2+  Sn52  1  0.15512000  -0.00569012  0.49968643  1
  Sn2+  Sn53  1  0.85210387  0.16366586  0.33874095  1
  Sn2+  Sn54  1  0.50482883  0.49912817  0.34142822  1
  Sn2+  Sn55  1  0.33633355  0.66481046  -0.00270774  1
  Sn2+  Sn56  1  0.32244236  0.50419622  0.51344051  1
  Sn2+  Sn57  1  0.33119684  0.00429759  0.33239323  1
  Sn2+  Sn58  1  0.00421431  0.50238854  0.16611590  1
  Sn2+  Sn59  1  0.32067026  0.67089838  0.67313063  1
  Sn2+  Sn60  1  0.17108608  0.67211987  0.50986883  1
  Sn2+  Sn61  1  0.66798286  0.50402004  0.49402615  1
  Sn2+  Sn62  1  0.49965527  0.15715842  0.67698648  1
  Sn2+  Sn63  1  0.69105502  0.16280256  0.83494234  1
  Sn2+  Sn64  1  0.32491924  0.33667051  0.33213145  1
  Bi3+  Bi65  1  0.50285779  0.66671119  0.49847109  1
  Bi3+  Bi66  1  0.83682996  0.16493602  0.66710358  1
  Bi3+  Bi67  1  0.50245508  0.66764082  0.83511791  1
  Bi3+  Bi68  1  0.66559865  0.49996152  0.82811149  1
  Bi3+  Bi69  1  0.32473060  0.16701911  0.83408099  1
  Bi3+  Bi70  1  0.32848414  0.32937183  -0.00271734  1
  Bi3+  Bi71  1  0.66189621  0.33025310  0.33287332  1
  Bi3+  Bi72  1  0.66613291  0.16637788  0.16635299  1
  Bi3+  Bi73  1  0.00152272  0.16749725  0.17619916  1
  Bi3+  Bi74  1  0.32880397  0.16593506  0.50146509  1
  Bi3+  Bi75  1  0.00584733  0.66545209  -0.00793443  1
  Bi3+  Bi76  1  0.49148555  0.16552344  0.33503043  1
  Bi3+  Bi77  1  0.16470169  0.17193912  0.66659333  1
  Bi3+  Bi78  1  0.00973184  0.83623655  0.51222982  1
  Bi3+  Bi79  1  0.00115643  0.33111925  0.66520382  1
  Bi3+  Bi80  1  0.00543856  0.00187917  0.66306573  1
  Bi3+  Bi81  1  0.32903466  0.33509701  0.66754474  1
  Bi3+  Bi82  1  0.33133439  0.50744140  0.16591863  1
  Bi3+  Bi83  1  0.66217408  0.66782363  0.66411278  1
  Bi3+  Bi84  1  0.49836328  0.66775850  0.16296976  1
  Bi3+  Bi85  1  -0.00061543  0.33271238  0.33507086  1
  Te2-  Te86  1  0.16495868  0.16556741  0.17045818  1
  Te2-  Te87  1  0.16709488  0.16359782  0.50231242  1
  Te2-  Te88  1  0.16006744  0.16431919  0.82695091  1
  Te2-  Te89  1  0.16969762  0.50571092  0.16667853  1
  Te2-  Te90  1  0.16033510  0.51459514  0.50889255  1
  Te2-  Te91  1  0.16837399  0.50268658  0.82934920  1
  Te2-  Te92  1  0.16380206  0.83904395  0.16155735  1
  Te2-  Te93  1  0.17290199  0.82962165  0.51355688  1
  Te2-  Te94  1  0.18274261  0.83351897  0.82481274  1
  Te2-  Te95  1  0.50022819  0.16302774  0.16943014  1
  Te2-  Te96  1  0.49559434  0.16500041  0.49991303  1
  Te2-  Te97  1  0.49509499  0.16249529  0.83428360  1
  Te2-  Te98  1  0.49556865  0.50493686  0.17109490  1
  Te2-  Te99  1  0.49812024  0.50617342  0.50048005  1
  Te2-  Te100  1  0.50241560  0.50201605  0.83340557  1
  Te2-  Te101  1  0.51539917  0.82793256  0.15798823  1
  Te2-  Te102  1  0.48814868  0.82955141  0.49751730  1
  Te2-  Te103  1  0.49279127  0.83464018  0.84195856  1
  Te2-  Te104  1  0.83073049  0.17122435  0.16919541  1
  Te2-  Te105  1  0.84290271  0.15903675  0.50229951  1
  Te2-  Te106  1  0.84571127  0.16623085  0.83229137  1
  Te2-  Te107  1  0.83294055  0.49859570  0.16650559  1
  Te2-  Te108  1  0.83731605  0.49974966  0.50655668  1
  Te2-  Te109  1  0.82663647  0.49841101  0.82341920  1
  Te2-  Te110  1  0.82322819  0.83217371  0.16369468  1
  Te2-  Te111  1  0.83458685  0.83894967  0.50253943  1
  Te2-  Te112  1  0.82733774  0.83970054  0.83318047  1
  Te2-  Te113  1  0.15724430  -0.00452642  -0.00416483  1
  Te2-  Te114  1  0.17499615  0.00286380  0.34326845  1
  Te2-  Te115  1  0.17208738  0.00891134  0.66589333  1
  Te2-  Te116  1  0.16209525  0.34164971  -0.00332288  1
  Te2-  Te117  1  0.16288881  0.33643848  0.34397967  1
  Te2-  Te118  1  0.16599369  0.34143414  0.65814057  1
  Te2-  Te119  1  0.16704089  0.67019348  -0.02100431  1
  Te2-  Te120  1  0.15391814  0.66861861  0.33555754  1
  Te2-  Te121  1  0.16522541  0.65676902  0.68133279  1
  Te2-  Te122  1  0.50237347  -0.01179972  -0.00056321  1
  Te2-  Te123  1  0.49124095  0.00338255  0.32897863  1
  Te2-  Te124  1  0.48976569  0.00046378  0.66628158  1
  Te2-  Te125  1  0.49514585  0.33117419  -0.00156908  1
  Te2-  Te126  1  0.49795170  0.32863547  0.33841504  1
  Te2-  Te127  1  0.49498374  0.33132398  0.65880889  1
  Te2-  Te128  1  0.49577526  0.67904686  -0.00140115  1
  Te2-  Te129  1  0.50824798  0.66842202  0.33327426  1
  Te2-  Te130  1  0.49852404  0.66826193  0.66601461  1
  Te2-  Te131  1  0.83884277  -0.00877596  -0.00387030  1
  Te2-  Te132  1  0.83518725  0.00344357  0.33399179  1
  Te2-  Te133  1  0.83329853  0.00431231  0.67918013  1
  Te2-  Te134  1  0.84490333  0.33324048  0.00035745  1
  Te2-  Te135  1  0.83011601  0.33056463  0.33125664  1
  Te2-  Te136  1  0.83483067  0.32807537  0.66361735  1
  Te2-  Te137  1  0.84010355  0.67836583  -0.00884871  1
  Te2-  Te138  1  0.83742506  0.66687781  0.34353494  1
  Te2-  Te139  1  0.82403411  0.66658288  0.66334108  1
  Te2-  Te140  1  0.01395701  0.17128583  0.00924476  1
  Te2-  Te141  1  0.00914921  0.17155370  0.34360348  1
  Te2-  Te142  1  0.00183965  0.17015475  0.65061680  1
  Te2-  Te143  1  0.00239464  0.50284903  -0.00032564  1
  Te2-  Te144  1  -0.00595387  0.49835225  0.33532722  1
  Te2-  Te145  1  -0.00418093  0.49334065  0.66166400  1
  Te2-  Te146  1  -0.00129215  0.82632351  -0.01812965  1
  Te2-  Te147  1  0.01336624  0.83827400  0.34015508  1
  Te2-  Te148  1  0.01361293  0.83737555  0.67744931  1
  Te2-  Te149  1  0.31818355  0.16706121  -0.00224841  1
  Te2-  Te150  1  0.32962009  0.17163901  0.33929412  1
  Te2-  Te151  1  0.33074456  0.17300038  0.66494220  1
  Te2-  Te152  1  0.33405812  0.49398859  0.00554971  1
  Te2-  Te153  1  0.33458045  0.49806582  0.33068790  1
  Te2-  Te154  1  0.33621090  0.49689764  0.66994090  1
  Te2-  Te155  1  0.33100651  0.83871564  -0.00427192  1
  Te2-  Te156  1  0.32080673  0.83251804  0.33138949  1
  Te2-  Te157  1  0.32313266  0.83605759  0.67318956  1
  Te2-  Te158  1  0.66613831  0.16614440  0.00235843  1
  Te2-  Te159  1  0.65881787  0.16573026  0.33157991  1
  Te2-  Te160  1  0.66927817  0.16017855  0.66779765  1
  Te2-  Te161  1  0.66970728  0.50799091  -0.00648310  1
  Te2-  Te162  1  0.66830388  0.49222500  0.33138204  1
  Te2-  Te163  1  0.66595756  0.50170363  0.66323613  1
  Te2-  Te164  1  0.67167635  0.82072592  -0.00837467  1
  Te2-  Te165  1  0.66652625  0.84535153  0.34252020  1
  Te2-  Te166  1  0.66524411  0.83678339  0.66960522  1
  Te2-  Te167  1  0.00553148  0.00748508  0.16506157  1
  Te2-  Te168  1  -0.01224843  -0.00752077  0.50320713  1
  Te2-  Te169  1  0.00243981  0.00240892  0.82247666  1
  Te2-  Te170  1  0.00832434  0.33451435  0.17431132  1
  Te2-  Te171  1  0.00366746  0.34182255  0.49958414  1
  Te2-  Te172  1  0.01478024  0.34370920  0.82863333  1
  Te2-  Te173  1  0.00042251  0.66931214  0.15805512  1
  Te2-  Te174  1  -0.00410557  0.67279038  0.51897130  1
  Te2-  Te175  1  -0.00952326  0.65285548  0.82017412  1
  Te2-  Te176  1  0.33065641  -0.01148891  0.15920260  1
  Te2-  Te177  1  0.33304798  0.00055208  0.50684366  1
  Te2-  Te178  1  0.33941359  0.00570433  0.83358177  1
  Te2-  Te179  1  0.32576146  0.33657645  0.16342305  1
  Te2-  Te180  1  0.33331624  0.33272512  0.50215020  1
  Te2-  Te181  1  0.32014283  0.32938606  0.83279760  1
  Te2-  Te182  1  0.33580278  0.67446673  0.16747823  1
  Te2-  Te183  1  0.33885239  0.66504142  0.50467919  1
  Te2-  Te184  1  0.34351302  0.66891389  0.83679963  1
  Te2-  Te185  1  0.66353512  0.00228973  0.17186567  1
  Te2-  Te186  1  0.67609665  0.00076307  0.49551063  1
  Te2-  Te187  1  0.65308391  0.00084405  0.82789861  1
  Te2-  Te188  1  0.66442777  0.33100054  0.16919291  1
  Te2-  Te189  1  0.65969795  0.33086485  0.49569550  1
  Te2-  Te190  1  0.66451760  0.33259928  0.83449895  1
  Te2-  Te191  1  0.66363816  0.65874785  0.16320102  1
  Te2-  Te192  1  0.66617631  0.66913839  0.50157523  1
  Te2-  Te193  1  0.66598059  0.66579279  0.82585439  1
  Pb2+  Pb194  1  0.33297921  0.66449784  0.33840024  1
  Pb2+  Pb195  1  -0.00137359  0.83932729  0.15789344  1
  Pb2+  Pb196  1  0.49603116  0.83581506  0.32394781  1
  Pb2+  Pb197  1  0.49211170  0.83518205  0.67348367  1
  Pb2+  Pb198  1  0.67020786  0.33804881  0.00205904  1
  Pb2+  Pb199  1  0.67258499  -0.00674048  -0.00591157  1
  Pb2+  Pb200  1  0.83516902  0.50778881  -0.00693236  1
  Pb2+  Pb201  1  0.32996444  0.15971764  0.16726844  1
  Pb2+  Pb202  1  0.16414645  0.50124296  0.33740463  1
  Pb2+  Pb203  1  0.84342016  0.15851755  -0.00038029  1
  Pb2+  Pb204  1  0.50638182  -0.00193884  0.49856004  1
  Pb2+  Pb205  1  0.48879225  0.33198729  0.82780300  1
  Pb2+  Pb206  1  0.48993655  0.15668007  -0.00050197  1
  Pb2+  Pb207  1  0.16752104  0.67223946  0.15463195  1
  Pb2+  Pb208  1  0.84421246  0.83620430  0.67018581  1
  Pb2+  Pb209  1  0.50163011  0.50997533  0.00237148  1
  Pb2+  Pb210  1  0.84133360  0.33263383  0.83057085  1
  Pb2+  Pb211  1  0.84026296  0.83542858  0.33306048  1
  Pb2+  Pb212  1  0.83609861  0.66491645  0.17060624  1
  Pb2+  Pb213  1  0.83861632  0.00320074  0.16425988  1
  Pb2+  Pb214  1  0.66447885  0.33115062  0.66737969  1
  Pb2+  Pb215  1  0.83341651  0.32766981  0.49703492  1
