# generated using pymatgen
data_In22Ag21Sn22Bi21(Te54Pb11)2
_symmetry_space_group_name_H-M   'P 1'
_cell_length_a   19.13598963
_cell_length_b   19.14971519
_cell_length_c   19.14641431
_cell_angle_alpha   89.97448471
_cell_angle_beta   89.99482830
_cell_angle_gamma   89.99789216
_symmetry_Int_Tables_number   1
_chemical_formula_structural   In22Ag21Sn22Bi21(Te54Pb11)2
_chemical_formula_sum   'In22 Ag21 Sn22 Bi21 Te108 Pb22'
_cell_volume   7016.17888701
_cell_formula_units_Z   1
loop_
 _symmetry_equiv_pos_site_id
 _symmetry_equiv_pos_as_xyz
  1  'x, y, z'
loop_
 _atom_type_symbol
 _atom_type_oxidation_number
  In3+  3.0
  Ag+  1.0
  Sn2+  2.0
  Bi3+  3.0
  Te2-  -2.0
  Pb2+  2.0
loop_
 _atom_site_type_symbol
 _atom_site_label
 _atom_site_symmetry_multiplicity
 _atom_site_fract_x
 _atom_site_fract_y
 _atom_site_fract_z
 _atom_site_occupancy
  In3+  In0  1  0.48862791  0.50341610  0.31474532  1
  In3+  In1  1  0.81337871  0.33916271  0.83331548  1
  In3+  In2  1  0.16485413  0.82077136  0.00378035  1
  In3+  In3  1  0.48336887  0.49832021  -0.00867883  1
  In3+  In4  1  0.33229064  0.81645190  0.15003043  1
  In3+  In5  1  0.49725330  0.14476313  0.66825419  1
  In3+  In6  1  0.66761021  -0.01551654  0.66685569  1
  In3+  In7  1  0.66591403  -0.00206335  0.31258786  1
  In3+  In8  1  0.47354039  0.50619110  0.67370947  1
  In3+  In9  1  0.00503600  0.14199723  0.51206268  1
  In3+  In10  1  0.00858726  0.53088267  0.16463753  1
  In3+  In11  1  0.33697473  0.83614891  0.83763425  1
  In3+  In12  1  0.85898361  0.67162515  0.49883430  1
  In3+  In13  1  0.63935445  0.33783625  0.66400589  1
  In3+  In14  1  0.00411716  0.82435397  0.49739584  1
  In3+  In15  1  0.01977435  0.33255436  0.32007236  1
  In3+  In16  1  0.00399555  -0.02146016  0.01916752  1
  In3+  In17  1  0.49563378  0.82822840  0.67355840  1
  In3+  In18  1  0.02370533  0.82094417  0.82893639  1
  In3+  In19  1  0.32692777  0.35376652  0.66923239  1
  In3+  In20  1  0.82979385  -0.00354601  0.50142014  1
  In3+  In21  1  0.15874898  0.50101913  0.02393305  1
  Ag+  Ag22  1  0.01733614  -0.02269305  0.66595185  1
  Ag+  Ag23  1  0.34679539  0.32684618  -0.02994068  1
  Ag+  Ag24  1  0.64271866  0.69552184  0.34183273  1
  Ag+  Ag25  1  0.00417365  0.68793364  0.02049409  1
  Ag+  Ag26  1  0.18523990  0.52850369  0.32719761  1
  Ag+  Ag27  1  0.49574681  0.85759877  0.02264743  1
  Ag+  Ag28  1  0.30068823  -0.02701840  0.29934147  1
  Ag+  Ag29  1  0.32378123  0.47391356  0.86260402  1
  Ag+  Ag30  1  0.69078926  0.19351256  0.18831093  1
  Ag+  Ag31  1  -0.01330676  0.84176023  0.19621386  1
  Ag+  Ag32  1  0.48382720  0.31805415  0.83081435  1
  Ag+  Ag33  1  -0.00004012  0.68131464  0.68470819  1
  Ag+  Ag34  1  0.16728744  -0.02695307  0.48762573  1
  Ag+  Ag35  1  0.31573936  -0.00166078  0.65547144  1
  Ag+  Ag36  1  0.30382972  0.69131384  0.33286187  1
  Ag+  Ag37  1  0.81484430  -0.01299958  0.13753035  1
  Ag+  Ag38  1  0.16611151  0.51798422  0.68943821  1
  Ag+  Ag39  1  0.69248488  0.82900124  0.18511832  1
  Ag+  Ag40  1  0.16091177  0.30993173  0.14508671  1
  Ag+  Ag41  1  0.16924722  0.67277406  0.52277375  1
  Ag+  Ag42  1  0.18616360  0.68360232  0.16672491  1
  Sn2+  Sn43  1  0.66177319  0.51011276  0.49837740  1
  Sn2+  Sn44  1  0.16965501  0.83250876  0.66495120  1
  Sn2+  Sn45  1  0.81887403  0.82635571  0.00231043  1
  Sn2+  Sn46  1  -0.00777927  0.15970232  0.16473423  1
  Sn2+  Sn47  1  0.50758966  -0.00183726  0.17144470  1
  Sn2+  Sn48  1  0.84064459  0.32263812  0.16931238  1
  Sn2+  Sn49  1  0.16068720  0.00116014  0.82446358  1
  Sn2+  Sn50  1  0.17455088  0.65972414  0.83236583  1
  Sn2+  Sn51  1  0.82753357  0.16804664  0.66621178  1
  Sn2+  Sn52  1  0.32489822  0.66128910  -0.00308071  1
  Sn2+  Sn53  1  0.48533810  0.32800628  0.16303645  1
  Sn2+  Sn54  1  0.17564466  0.82684738  0.33269251  1
  Sn2+  Sn55  1  0.17348714  0.16225951  0.33556990  1
  Sn2+  Sn56  1  0.16758787  0.34156867  0.84122725  1
  Sn2+  Sn57  1  0.84131255  0.00338679  0.82914601  1
  Sn2+  Sn58  1  0.49573559  0.82901807  0.33045255  1
  Sn2+  Sn59  1  0.67297845  0.33243283  0.32818011  1
  Sn2+  Sn60  1  0.83641837  0.33793764  0.50499987  1
  Sn2+  Sn61  1  0.49794837  0.00166499  0.84041016  1
  Sn2+  Sn62  1  0.31995440  0.67787140  0.65848162  1
  Sn2+  Sn63  1  0.50252066  0.67233698  0.16608143  1
  Sn2+  Sn64  1  0.16762925  0.16829365  0.00319653  1
  Bi3+  Bi65  1  0.83369293  0.66810122  0.16757707  1
  Bi3+  Bi66  1  0.66826090  0.16838708  0.83180560  1
  Bi3+  Bi67  1  0.33511905  0.32841616  0.33662133  1
  Bi3+  Bi68  1  0.32841682  0.49974347  0.16815239  1
  Bi3+  Bi69  1  0.49844566  0.66452273  0.83452905  1
  Bi3+  Bi70  1  -0.00174140  0.66241436  0.33215238  1
  Bi3+  Bi71  1  0.32979586  0.83467284  0.50113100  1
  Bi3+  Bi72  1  0.00536164  0.33833935  0.66336212  1
  Bi3+  Bi73  1  0.16710507  0.33987284  0.49984938  1
  Bi3+  Bi74  1  0.83997914  0.49945255  0.00132992  1
  Bi3+  Bi75  1  0.33170573  0.17048631  0.16956386  1
  Bi3+  Bi76  1  0.32752837  0.50374924  0.49762297  1
  Bi3+  Bi77  1  0.00278803  0.33087961  0.00071019  1
  Bi3+  Bi78  1  0.84448032  0.49938150  0.66543835  1
  Bi3+  Bi79  1  0.83848356  0.16561995  0.33440669  1
  Bi3+  Bi80  1  0.66452995  0.49972486  0.83132469  1
  Bi3+  Bi81  1  0.32972759  0.16050965  0.50224122  1
  Bi3+  Bi82  1  0.83499674  0.49736869  0.33321086  1
  Bi3+  Bi83  1  0.00415182  0.49944364  0.49463340  1
  Bi3+  Bi84  1  0.66301912  0.83396947  0.83577134  1
  Bi3+  Bi85  1  0.00163188  0.16568351  0.83088675  1
  Te2-  Te86  1  0.16699081  0.16502026  0.16879667  1
  Te2-  Te87  1  0.16345781  0.17329765  0.49947011  1
  Te2-  Te88  1  0.16517067  0.16837940  0.83569864  1
  Te2-  Te89  1  0.16330642  0.50511116  0.17646827  1
  Te2-  Te90  1  0.16698478  0.50142413  0.48007104  1
  Te2-  Te91  1  0.18060798  0.50136777  0.83526547  1
  Te2-  Te92  1  0.17780125  0.83140618  0.15635156  1
  Te2-  Te93  1  0.16460259  0.82576007  0.50304584  1
  Te2-  Te94  1  0.17667810  0.83276122  0.83810272  1
  Te2-  Te95  1  0.49764170  0.16960555  0.16569855  1
  Te2-  Te96  1  0.49897413  0.16707822  0.50955044  1
  Te2-  Te97  1  0.50392130  0.17111189  0.82500842  1
  Te2-  Te98  1  0.49719115  0.49704169  0.16066709  1
  Te2-  Te99  1  0.49277176  0.50090369  0.51587646  1
  Te2-  Te100  1  0.49883224  0.50339442  0.82970920  1
  Te2-  Te101  1  0.48702577  0.83137344  0.16751424  1
  Te2-  Te102  1  0.49578158  0.83283563  0.50183192  1
  Te2-  Te103  1  0.49936709  0.83091723  0.82911562  1
  Te2-  Te104  1  0.83110789  0.15389889  0.17085525  1
  Te2-  Te105  1  0.84556374  0.16705951  0.49763411  1
  Te2-  Te106  1  0.83334906  0.17171406  0.83191081  1
  Te2-  Te107  1  0.84099225  0.49735940  0.16732782  1
  Te2-  Te108  1  0.83721816  0.50439570  0.49940247  1
  Te2-  Te109  1  0.83508150  0.50022489  0.83239639  1
  Te2-  Te110  1  0.83858835  0.83719553  0.15787226  1
  Te2-  Te111  1  0.84133458  0.83566092  0.50192867  1
  Te2-  Te112  1  0.82421176  0.83677712  0.83696138  1
  Te2-  Te113  1  0.15544073  -0.00341565  -0.00381173  1
  Te2-  Te114  1  0.16400639  -0.00319800  0.34231709  1
  Te2-  Te115  1  0.16621424  -0.00160937  0.67117635  1
  Te2-  Te116  1  0.16427122  0.34254986  0.00161882  1
  Te2-  Te117  1  0.17110422  0.32807350  0.33679335  1
  Te2-  Te118  1  0.16946734  0.33799927  0.66539208  1
  Te2-  Te119  1  0.15934312  0.66822811  0.00747405  1
  Te2-  Te120  1  0.15878825  0.67281461  0.31504945  1
  Te2-  Te121  1  0.16140874  0.66502185  0.66981361  1
  Te2-  Te122  1  0.49643533  0.00244977  -0.00176618  1
  Te2-  Te123  1  0.51214613  -0.00058038  0.33257944  1
  Te2-  Te124  1  0.50847351  -0.00852700  0.67013126  1
  Te2-  Te125  1  0.49214019  0.34318649  -0.00911951  1
  Te2-  Te126  1  0.50057335  0.34206556  0.33175602  1
  Te2-  Te127  1  0.48621130  0.34387658  0.67680535  1
  Te2-  Te128  1  0.49423683  0.65336807  -0.00269847  1
  Te2-  Te129  1  0.50294337  0.65710894  0.32699055  1
  Te2-  Te130  1  0.49652303  0.66649218  0.66853279  1
  Te2-  Te131  1  0.84981527  -0.00491465  -0.00401568  1
  Te2-  Te132  1  0.82922895  0.00097686  0.34595235  1
  Te2-  Te133  1  0.82478766  0.00470291  0.65926629  1
  Te2-  Te134  1  0.83796374  0.33614444  0.00294072  1
  Te2-  Te135  1  0.83444047  0.33103346  0.33204404  1
  Te2-  Te136  1  0.84238812  0.33718420  0.66963712  1
  Te2-  Te137  1  0.84645604  0.66221633  0.00487082  1
  Te2-  Te138  1  0.83488599  0.66139801  0.33338606  1
  Te2-  Te139  1  0.84569039  0.66228253  0.66135544  1
  Te2-  Te140  1  0.00455151  0.16820515  -0.00391993  1
  Te2-  Te141  1  -0.00012139  0.17276156  0.33091943  1
  Te2-  Te142  1  -0.00345871  0.17461992  0.66643797  1
  Te2-  Te143  1  0.00449410  0.49507989  0.00186199  1
  Te2-  Te144  1  -0.00406731  0.49498247  0.32885873  1
  Te2-  Te145  1  0.00981198  0.50007150  0.66017569  1
  Te2-  Te146  1  0.00376814  0.82974267  -0.01878213  1
  Te2-  Te147  1  0.00279846  0.83117911  0.34187894  1
  Te2-  Te148  1  0.00360012  0.82936768  0.67400195  1
  Te2-  Te149  1  0.32784309  0.18025684  0.00303407  1
  Te2-  Te150  1  0.33805952  0.16405926  0.33852694  1
  Te2-  Te151  1  0.34141956  0.14922710  0.66314111  1
  Te2-  Te152  1  0.32621802  0.49610594  0.00680994  1
  Te2-  Te153  1  0.33390882  0.49495045  0.33284811  1
  Te2-  Te154  1  0.31712908  0.51033048  0.66001401  1
  Te2-  Te155  1  0.34348183  0.83053294  -0.00127094  1
  Te2-  Te156  1  0.33661025  0.83643316  0.33826083  1
  Te2-  Te157  1  0.33765244  0.84189911  0.66309419  1
  Te2-  Te158  1  0.66809007  0.16582573  -0.00560636  1
  Te2-  Te159  1  0.67317295  0.16084026  0.33086898  1
  Te2-  Te160  1  0.66166447  0.18257257  0.67127931  1
  Te2-  Te161  1  0.67759096  0.50146778  -0.00406713  1
  Te2-  Te162  1  0.67316822  0.49265005  0.33809544  1
  Te2-  Te163  1  0.67832303  0.49312071  0.66882152  1
  Te2-  Te164  1  0.64865315  0.83215779  -0.00488027  1
  Te2-  Te165  1  0.66461965  0.84117256  0.33106589  1
  Te2-  Te166  1  0.66433690  0.82796656  0.66907142  1
  Te2-  Te167  1  0.00020250  -0.01044036  0.16918035  1
  Te2-  Te168  1  0.00967733  -0.00723283  0.51558955  1
  Te2-  Te169  1  -0.00240764  0.00595072  0.81491115  1
  Te2-  Te170  1  0.00937070  0.32570021  0.16490760  1
  Te2-  Te171  1  0.00310047  0.33774862  0.49740501  1
  Te2-  Te172  1  0.00480242  0.33009134  0.83267958  1
  Te2-  Te173  1  -0.00384657  0.68550095  0.16802492  1
  Te2-  Te174  1  0.01767056  0.66561283  0.49453075  1
  Te2-  Te175  1  0.00506390  0.66907860  0.83090392  1
  Te2-  Te176  1  0.33939463  0.00973518  0.16459000  1
  Te2-  Te177  1  0.32079322  -0.00094875  0.50536142  1
  Te2-  Te178  1  0.33756152  -0.00861336  0.83155345  1
  Te2-  Te179  1  0.32188403  0.33523535  0.17490598  1
  Te2-  Te180  1  0.33220424  0.33192419  0.50357152  1
  Te2-  Te181  1  0.33461565  0.33338533  0.82336475  1
  Te2-  Te182  1  0.33365615  0.66421873  0.17224538  1
  Te2-  Te183  1  0.31796124  0.66813212  0.48600533  1
  Te2-  Te184  1  0.33777656  0.67828608  0.82966016  1
  Te2-  Te185  1  0.67025994  -0.01825692  0.16275743  1
  Te2-  Te186  1  0.66861376  0.00245756  0.51308158  1
  Te2-  Te187  1  0.66701801  0.00270756  0.82484007  1
  Te2-  Te188  1  0.66462839  0.33449812  0.16799245  1
  Te2-  Te189  1  0.66990195  0.33597258  0.50592252  1
  Te2-  Te190  1  0.65534261  0.33700247  0.82841153  1
  Te2-  Te191  1  0.67212920  0.67620997  0.17368132  1
  Te2-  Te192  1  0.66040135  0.66651022  0.48918577  1
  Te2-  Te193  1  0.66519607  0.66464728  0.82988039  1
  Pb2+  Pb194  1  0.16828668  -0.00240765  0.17149143  1
  Pb2+  Pb195  1  -0.00183142  0.00430966  0.34153926  1
  Pb2+  Pb196  1  0.66906298  0.50551620  0.17122161  1
  Pb2+  Pb197  1  0.66916384  0.65875836  0.65573791  1
  Pb2+  Pb198  1  0.48796418  0.66601632  0.49352045  1
  Pb2+  Pb199  1  0.50190584  0.33616777  0.50157230  1
  Pb2+  Pb200  1  0.48963922  -0.00120598  0.49876563  1
  Pb2+  Pb201  1  0.67081032  -0.00264421  -0.00382454  1
  Pb2+  Pb202  1  0.66532937  0.66913177  0.00620559  1
  Pb2+  Pb203  1  0.01182144  0.50072760  0.83042042  1
  Pb2+  Pb204  1  0.33369290  0.16052802  0.83136780  1
  Pb2+  Pb205  1  0.66695497  0.83508384  0.49688927  1
  Pb2+  Pb206  1  0.83821876  0.83423766  0.67067195  1
  Pb2+  Pb207  1  0.83607927  0.16432562  0.00171021  1
  Pb2+  Pb208  1  0.49768511  0.17094175  -0.00086396  1
  Pb2+  Pb209  1  0.67500420  0.16794547  0.50076755  1
  Pb2+  Pb210  1  0.32345087  0.00233360  -0.00044656  1
  Pb2+  Pb211  1  0.16803869  0.16653638  0.66692350  1
  Pb2+  Pb212  1  0.50479446  0.16967097  0.33208903  1
  Pb2+  Pb213  1  0.83388727  0.83049814  0.33032973  1
  Pb2+  Pb214  1  0.66098916  0.33389491  0.00017991  1
  Pb2+  Pb215  1  0.83752078  0.67078402  0.83386139  1
