# generated using pymatgen
data_In22Ag21Sn22Bi21(Te54Pb11)2
_symmetry_space_group_name_H-M   'P 1'
_cell_length_a   19.12212319
_cell_length_b   19.11012831
_cell_length_c   19.12186922
_cell_angle_alpha   90.01826771
_cell_angle_beta   89.99178687
_cell_angle_gamma   89.98419609
_symmetry_Int_Tables_number   1
_chemical_formula_structural   In22Ag21Sn22Bi21(Te54Pb11)2
_chemical_formula_sum   'In22 Ag21 Sn22 Bi21 Te108 Pb22'
_cell_volume   6987.63184071
_cell_formula_units_Z   1
loop_
 _symmetry_equiv_pos_site_id
 _symmetry_equiv_pos_as_xyz
  1  'x, y, z'
loop_
 _atom_type_symbol
 _atom_type_oxidation_number
  In3+  3.0
  Ag+  1.0
  Sn2+  2.0
  Bi3+  3.0
  Te2-  -2.0
  Pb2+  2.0
loop_
 _atom_site_type_symbol
 _atom_site_label
 _atom_site_symmetry_multiplicity
 _atom_site_fract_x
 _atom_site_fract_y
 _atom_site_fract_z
 _atom_site_occupancy
  In3+  In0  1  0.50482418  0.15787004  0.67011175  1
  In3+  In1  1  0.01491612  0.84322555  0.49653978  1
  In3+  In2  1  0.66510635  0.00323470  -0.01507192  1
  In3+  In3  1  0.81385089  0.47399471  0.67362685  1
  In3+  In4  1  0.49848884  0.00418180  0.50624943  1
  In3+  In5  1  0.17021872  0.33804552  0.49908233  1
  In3+  In6  1  0.16376080  0.85927888  0.33420366  1
  In3+  In7  1  0.68754614  -0.00103649  0.33353650  1
  In3+  In8  1  0.34718482  0.51146364  0.49889863  1
  In3+  In9  1  0.68381720  0.17394588  0.50557568  1
  In3+  In10  1  0.49871153  0.81497205  0.65597165  1
  In3+  In11  1  0.17003821  0.14190224  0.01161014  1
  In3+  In12  1  0.33397426  0.16847369  0.49639260  1
  In3+  In13  1  0.48327414  0.83169719  -0.02270171  1
  In3+  In14  1  0.16588769  0.01187651  0.85085843  1
  In3+  In15  1  0.50186726  0.51198244  0.32905508  1
  In3+  In16  1  0.02493241  0.49906230  0.16289489  1
  In3+  In17  1  -0.00702582  0.49985637  0.49952312  1
  In3+  In18  1  0.49601855  0.00043320  0.18491292  1
  In3+  In19  1  -0.00076032  0.02746545  0.32748139  1
  In3+  In20  1  0.32665802  0.67687563  0.33984835  1
  In3+  In21  1  0.82807945  0.33594878  0.49817107  1
  Ag+  Ag22  1  0.52176522  0.16377457  0.36373475  1
  Ag+  Ag23  1  0.33326974  0.51418861  0.19820624  1
  Ag+  Ag24  1  0.68913163  0.52556180  0.50101448  1
  Ag+  Ag25  1  0.64967678  0.30450610  0.02744316  1
  Ag+  Ag26  1  0.69180571  0.66741168  0.64835205  1
  Ag+  Ag27  1  0.65908519  0.31082901  0.66331097  1
  Ag+  Ag28  1  0.51572503  0.00276346  0.85327907  1
  Ag+  Ag29  1  0.17777455  0.82762242  -0.02489973  1
  Ag+  Ag30  1  0.18285239  0.63919147  0.49983159  1
  Ag+  Ag31  1  0.82920992  0.17128656  0.68461794  1
  Ag+  Ag32  1  0.02171167  0.33557512  0.35953464  1
  Ag+  Ag33  1  0.51870488  0.64436233  0.49584097  1
  Ag+  Ag34  1  0.81153634  0.00222378  0.79962605  1
  Ag+  Ag35  1  0.31830340  0.81450959  0.50098897  1
  Ag+  Ag36  1  0.33242653  0.14634395  0.85482435  1
  Ag+  Ag37  1  0.17188368  -0.01497899  0.15388311  1
  Ag+  Ag38  1  0.18216144  0.16675060  0.35302225  1
  Ag+  Ag39  1  0.81071224  0.00310322  0.49811886  1
  Ag+  Ag40  1  0.31208443  0.66969162  0.03239136  1
  Ag+  Ag41  1  -0.02686656  0.51389552  0.80236766  1
  Ag+  Ag42  1  0.80374581  -0.00955849  0.14394489  1
  Sn2+  Sn43  1  0.49751726  0.67233532  0.16909341  1
  Sn2+  Sn44  1  0.83459128  0.66944769  0.16307477  1
  Sn2+  Sn45  1  0.65938635  0.33485126  0.34274679  1
  Sn2+  Sn46  1  0.16205868  0.16556635  0.66752944  1
  Sn2+  Sn47  1  0.66726293  -0.00678441  0.66291788  1
  Sn2+  Sn48  1  -0.00785265  0.00052756  0.66664807  1
  Sn2+  Sn49  1  0.49494411  0.84288986  0.34199921  1
  Sn2+  Sn50  1  0.16496579  0.49632860  0.33329426  1
  Sn2+  Sn51  1  0.83514990  0.67783557  0.50141993  1
  Sn2+  Sn52  1  0.17249515  0.66501395  0.82735406  1
  Sn2+  Sn53  1  0.50214792  0.66977855  0.82370889  1
  Sn2+  Sn54  1  0.01043320  0.66760365  -0.00975498  1
  Sn2+  Sn55  1  0.50305138  0.31455498  0.83319964  1
  Sn2+  Sn56  1  0.83676955  0.32311419  0.16806659  1
  Sn2+  Sn57  1  0.00221823  0.17168395  0.82696027  1
  Sn2+  Sn58  1  0.34679833  0.32681425  0.66880849  1
  Sn2+  Sn59  1  0.66256481  0.17495623  0.82581263  1
  Sn2+  Sn60  1  0.66239865  0.49433419  0.82458544  1
  Sn2+  Sn61  1  0.33257499  0.00635689  0.66787647  1
  Sn2+  Sn62  1  0.49742897  0.16637287  -0.00890769  1
  Sn2+  Sn63  1  -0.00251554  0.66585004  0.66449495  1
  Sn2+  Sn64  1  -0.00255341  0.16563439  0.49818613  1
  Bi3+  Bi65  1  0.00171908  -0.00046853  0.00385332  1
  Bi3+  Bi66  1  -0.00390004  0.33689861  -0.00309361  1
  Bi3+  Bi67  1  0.16961478  0.50813408  -0.00202478  1
  Bi3+  Bi68  1  0.83233866  0.49824094  0.00419155  1
  Bi3+  Bi69  1  0.33502256  0.50228106  0.82803307  1
  Bi3+  Bi70  1  0.83107492  0.84038956  0.66533936  1
  Bi3+  Bi71  1  0.66834682  0.67009408  -0.00059584  1
  Bi3+  Bi72  1  0.83755556  0.16672419  -0.00396663  1
  Bi3+  Bi73  1  0.16947811  0.00765867  0.50134392  1
  Bi3+  Bi74  1  0.50407288  0.49795998  0.66504199  1
  Bi3+  Bi75  1  0.83063952  0.49648610  0.33335639  1
  Bi3+  Bi76  1  0.00162107  0.65226142  0.33489439  1
  Bi3+  Bi77  1  0.66561013  0.83897091  0.50166077  1
  Bi3+  Bi78  1  0.83449714  0.16918013  0.33500774  1
  Bi3+  Bi79  1  0.33104881  0.00049293  0.33498973  1
  Bi3+  Bi80  1  0.33356077  0.32887877  0.33181670  1
  Bi3+  Bi81  1  0.32914453  0.66710406  0.66437053  1
  Bi3+  Bi82  1  -0.00182545  0.32989688  0.66610286  1
  Bi3+  Bi83  1  0.49844166  0.32881929  0.16752745  1
  Bi3+  Bi84  1  -0.00271849  0.16874308  0.16241593  1
  Bi3+  Bi85  1  0.33140560  0.16760608  0.16736248  1
  Te2-  Te86  1  0.16435098  0.16272951  0.16307488  1
  Te2-  Te87  1  0.16077663  0.17129284  0.49914205  1
  Te2-  Te88  1  0.17832598  0.16355965  0.83291418  1
  Te2-  Te89  1  0.18264799  0.50171347  0.16372195  1
  Te2-  Te90  1  0.15714023  0.49294116  0.49674615  1
  Te2-  Te91  1  0.17087760  0.50385949  0.83526641  1
  Te2-  Te92  1  0.16852854  0.83808175  0.18199560  1
  Te2-  Te93  1  0.17037405  0.84009618  0.49135610  1
  Te2-  Te94  1  0.16628858  0.82612345  0.82815001  1
  Te2-  Te95  1  0.49444377  0.16235652  0.15648541  1
  Te2-  Te96  1  0.49689541  0.16264124  0.51093912  1
  Te2-  Te97  1  0.48734623  0.15568054  0.82913848  1
  Te2-  Te98  1  0.48868639  0.49706373  0.17470211  1
  Te2-  Te99  1  0.49920413  0.49743479  0.49859501  1
  Te2-  Te100  1  0.49910048  0.50069985  0.82811298  1
  Te2-  Te101  1  0.49933101  0.83896119  0.17817830  1
  Te2-  Te102  1  0.50264382  0.84639020  0.50293565  1
  Te2-  Te103  1  0.49893395  0.85045516  0.82626178  1
  Te2-  Te104  1  0.83448374  0.15339783  0.16573656  1
  Te2-  Te105  1  0.83523787  0.15683404  0.49602942  1
  Te2-  Te106  1  0.83344661  0.15335178  0.83197313  1
  Te2-  Te107  1  0.82771758  0.49706858  0.16797524  1
  Te2-  Te108  1  0.83364159  0.49770036  0.49855525  1
  Te2-  Te109  1  0.82957707  0.50054075  0.83041672  1
  Te2-  Te110  1  0.83539623  0.84410627  0.17180434  1
  Te2-  Te111  1  0.82933968  0.84720347  0.50390283  1
  Te2-  Te112  1  0.83529828  0.85026369  0.82758556  1
  Te2-  Te113  1  0.16720402  -0.01841903  0.00422186  1
  Te2-  Te114  1  0.16513537  0.01512696  0.33860147  1
  Te2-  Te115  1  0.16168326  0.00485428  0.66232916  1
  Te2-  Te116  1  0.16188455  0.34423909  -0.00124011  1
  Te2-  Te117  1  0.16920672  0.32613397  0.34016982  1
  Te2-  Te118  1  0.16286754  0.33095432  0.65921381  1
  Te2-  Te119  1  0.16714810  0.67389755  0.00094344  1
  Te2-  Te120  1  0.16921539  0.65528885  0.34691564  1
  Te2-  Te121  1  0.16607279  0.66732366  0.65155716  1
  Te2-  Te122  1  0.50878704  -0.00538884  0.00141982  1
  Te2-  Te123  1  0.49158187  0.01512873  0.33681458  1
  Te2-  Te124  1  0.49940332  0.00753667  0.66291050  1
  Te2-  Te125  1  0.50818847  0.33471584  0.00165136  1
  Te2-  Te126  1  0.49781504  0.31194793  0.32989491  1
  Te2-  Te127  1  0.51003205  0.33535337  0.66759307  1
  Te2-  Te128  1  0.50641929  0.67955672  -0.00163630  1
  Te2-  Te129  1  0.48945543  0.66449479  0.34498955  1
  Te2-  Te130  1  0.49205743  0.66118011  0.65259195  1
  Te2-  Te131  1  0.83718216  0.00616327  0.00206628  1
  Te2-  Te132  1  0.84293876  0.00430955  0.34445344  1
  Te2-  Te133  1  0.83352627  0.00244643  0.65456471  1
  Te2-  Te134  1  0.83008743  0.33242072  0.00084372  1
  Te2-  Te135  1  0.82604410  0.33378271  0.33769290  1
  Te2-  Te136  1  0.83063574  0.32284797  0.65985985  1
  Te2-  Te137  1  0.83445997  0.66479911  0.00054203  1
  Te2-  Te138  1  0.83350776  0.66017301  0.33095413  1
  Te2-  Te139  1  0.83783222  0.67514670  0.66420838  1
  Te2-  Te140  1  0.00461084  0.16989821  -0.00357644  1
  Te2-  Te141  1  -0.00450056  0.18541621  0.32758690  1
  Te2-  Te142  1  -0.01224279  0.16781944  0.66888000  1
  Te2-  Te143  1  -0.00254865  0.50038497  0.00453513  1
  Te2-  Te144  1  -0.00517422  0.48630369  0.33262397  1
  Te2-  Te145  1  -0.01033405  0.49465286  0.65829107  1
  Te2-  Te146  1  0.00665741  0.83514671  0.00117347  1
  Te2-  Te147  1  0.00848301  0.81783309  0.34209828  1
  Te2-  Te148  1  -0.00233539  0.83440965  0.65634795  1
  Te2-  Te149  1  0.32738104  0.16887374  0.00102590  1
  Te2-  Te150  1  0.33009353  0.16606633  0.33380497  1
  Te2-  Te151  1  0.33331870  0.17031625  0.65555880  1
  Te2-  Te152  1  0.33303596  0.51653136  -0.00759836  1
  Te2-  Te153  1  0.33705180  0.49088466  0.34393580  1
  Te2-  Te154  1  0.33441362  0.49833876  0.66043806  1
  Te2-  Te155  1  0.33074262  0.82041757  0.00164283  1
  Te2-  Te156  1  0.33064187  0.83426256  0.34820473  1
  Te2-  Te157  1  0.34371411  0.83271210  0.65085108  1
  Te2-  Te158  1  0.67170917  0.16252032  -0.00355653  1
  Te2-  Te159  1  0.66981975  0.16260287  0.34487454  1
  Te2-  Te160  1  0.67568731  0.16067186  0.66061096  1
  Te2-  Te161  1  0.67141610  0.50610224  -0.00287536  1
  Te2-  Te162  1  0.66255073  0.49769352  0.34855887  1
  Te2-  Te163  1  0.66957447  0.51478671  0.65516574  1
  Te2-  Te164  1  0.66892551  0.83881377  -0.00103649  1
  Te2-  Te165  1  0.66448281  0.83997929  0.33788432  1
  Te2-  Te166  1  0.66199739  0.82387454  0.66376270  1
  Te2-  Te167  1  0.01430157  0.00710241  0.17187985  1
  Te2-  Te168  1  0.00761825  -0.00419488  0.49058248  1
  Te2-  Te169  1  0.01257461  0.00409993  0.84009646  1
  Te2-  Te170  1  -0.00367773  0.33532846  0.16020184  1
  Te2-  Te171  1  -0.00739069  0.33364236  0.50429015  1
  Te2-  Te172  1  -0.00134676  0.34125441  0.83086998  1
  Te2-  Te173  1  -0.00275116  0.66023077  0.17117926  1
  Te2-  Te174  1  -0.00654806  0.65954533  0.49556705  1
  Te2-  Te175  1  0.00218832  0.65736771  0.83072204  1
  Te2-  Te176  1  0.32579530  0.00436816  0.16944430  1
  Te2-  Te177  1  0.33527641  0.00941964  0.49795302  1
  Te2-  Te178  1  0.31978826  0.00159689  0.83078323  1
  Te2-  Te179  1  0.33565500  0.33163668  0.16559859  1
  Te2-  Te180  1  0.32827654  0.32763009  0.49819100  1
  Te2-  Te181  1  0.33839237  0.33714982  0.82954964  1
  Te2-  Te182  1  0.33924791  0.66211668  0.17829712  1
  Te2-  Te183  1  0.32945290  0.66574569  0.49708148  1
  Te2-  Te184  1  0.33947731  0.66677388  0.82597166  1
  Te2-  Te185  1  0.66087211  0.00097426  0.18188526  1
  Te2-  Te186  1  0.65989807  0.00318518  0.49379095  1
  Te2-  Te187  1  0.66484925  0.00736819  0.83280502  1
  Te2-  Te188  1  0.66402804  0.33167097  0.17159704  1
  Te2-  Te189  1  0.67175088  0.32705087  0.51113658  1
  Te2-  Te190  1  0.66427435  0.33223944  0.81595820  1
  Te2-  Te191  1  0.66308390  0.66566922  0.16601117  1
  Te2-  Te192  1  0.66490686  0.67303329  0.50273635  1
  Te2-  Te193  1  0.66089796  0.66499007  0.83612522  1
  Pb2+  Pb194  1  0.33584297  0.34483234  -0.00417714  1
  Pb2+  Pb195  1  0.83876762  0.83251813  0.33872910  1
  Pb2+  Pb196  1  0.16676789  0.67106095  0.17711115  1
  Pb2+  Pb197  1  0.16506985  0.32861499  0.16839898  1
  Pb2+  Pb198  1  0.16084648  0.50117615  0.66600029  1
  Pb2+  Pb199  1  0.50008145  0.33049541  0.49807555  1
  Pb2+  Pb200  1  0.50058861  0.50903387  -0.00093021  1
  Pb2+  Pb201  1  0.00188982  0.83790898  0.17073288  1
  Pb2+  Pb202  1  0.33448648  0.83269676  0.17140497  1
  Pb2+  Pb203  1  0.34185031  -0.00463437  -0.00107002  1
  Pb2+  Pb204  1  0.65924465  0.66874415  0.33770593  1
  Pb2+  Pb205  1  0.83155484  0.32320030  0.83235915  1
  Pb2+  Pb206  1  0.33267273  0.83501099  0.82589033  1
  Pb2+  Pb207  1  0.16794341  0.33031890  0.83106853  1
  Pb2+  Pb208  1  0.65975811  0.49761320  0.17034499  1
  Pb2+  Pb209  1  0.66583708  0.83368483  0.83202438  1
  Pb2+  Pb210  1  0.66643859  0.83387993  0.16403104  1
  Pb2+  Pb211  1  0.17112319  0.83688637  0.66111635  1
  Pb2+  Pb212  1  0.00075525  0.83348345  0.82980027  1
  Pb2+  Pb213  1  0.83727170  0.83809880  0.00182485  1
  Pb2+  Pb214  1  0.83055742  0.67148202  0.83052553  1
  Pb2+  Pb215  1  0.66352727  0.16580090  0.17074679  1
