# generated using pymatgen
data_In22Ag21Sn22Bi21(Te54Pb11)2
_symmetry_space_group_name_H-M   'P 1'
_cell_length_a   19.13746405
_cell_length_b   19.12655655
_cell_length_c   19.15116897
_cell_angle_alpha   89.98898289
_cell_angle_beta   89.98576735
_cell_angle_gamma   89.99804555
_symmetry_Int_Tables_number   1
_chemical_formula_structural   In22Ag21Sn22Bi21(Te54Pb11)2
_chemical_formula_sum   'In22 Ag21 Sn22 Bi21 Te108 Pb22'
_cell_volume   7009.97458204
_cell_formula_units_Z   1
loop_
 _symmetry_equiv_pos_site_id
 _symmetry_equiv_pos_as_xyz
  1  'x, y, z'
loop_
 _atom_type_symbol
 _atom_type_oxidation_number
  In3+  3.0
  Ag+  1.0
  Sn2+  2.0
  Bi3+  3.0
  Te2-  -2.0
  Pb2+  2.0
loop_
 _atom_site_type_symbol
 _atom_site_label
 _atom_site_symmetry_multiplicity
 _atom_site_fract_x
 _atom_site_fract_y
 _atom_site_fract_z
 _atom_site_occupancy
  In3+  In0  1  0.18014082  0.33260260  0.84121790  1
  In3+  In1  1  0.17106889  0.17245884  0.66409044  1
  In3+  In2  1  0.66172622  0.65975183  0.66883344  1
  In3+  In3  1  0.16019020  0.68590594  0.49915042  1
  In3+  In4  1  0.48837458  0.33190903  0.49983324  1
  In3+  In5  1  0.00579122  0.33121521  0.66606966  1
  In3+  In6  1  0.50394816  -0.00811647  0.83794233  1
  In3+  In7  1  0.31671620  -0.00616228  0.33628945  1
  In3+  In8  1  -0.00235015  0.18061733  0.17628832  1
  In3+  In9  1  0.49692944  0.16558380  0.68133369  1
  In3+  In10  1  0.17168668  0.50913952  -0.00112082  1
  In3+  In11  1  0.34276391  0.68767055  0.32610787  1
  In3+  In12  1  0.65666224  0.83389055  0.17315606  1
  In3+  In13  1  0.67167345  0.31286399  0.66822770  1
  In3+  In14  1  0.50110935  0.00103864  0.51421136  1
  In3+  In15  1  0.84931402  -0.00459473  0.16724214  1
  In3+  In16  1  0.49806601  -0.00240463  0.17747122  1
  In3+  In17  1  0.16767232  0.16992689  0.01279901  1
  In3+  In18  1  0.66181721  -0.00405671  0.32994940  1
  In3+  In19  1  0.83601918  0.65385068  0.50557502  1
  In3+  In20  1  0.84099640  0.84133067  0.33121732  1
  In3+  In21  1  0.31005362  0.50705733  0.50402116  1
  Ag+  Ag22  1  0.01876209  0.17409550  0.52618635  1
  Ag+  Ag23  1  0.02690050  0.02660453  0.63719262  1
  Ag+  Ag24  1  0.19592069  0.69797792  0.86255333  1
  Ag+  Ag25  1  0.16434277  0.33908348  0.18259283  1
  Ag+  Ag26  1  0.66258847  -0.01277196  0.67856116  1
  Ag+  Ag27  1  0.35920369  0.32625055  -0.02203024  1
  Ag+  Ag28  1  0.00881983  0.47321579  0.49017882  1
  Ag+  Ag29  1  0.63951939  0.00081068  0.02541247  1
  Ag+  Ag30  1  0.85467406  0.14664069  0.66602310  1
  Ag+  Ag31  1  0.36473476  0.33473034  0.68255325  1
  Ag+  Ag32  1  0.33986020  0.86326912  0.86115012  1
  Ag+  Ag33  1  0.31520467  0.86117175  0.15235787  1
  Ag+  Ag34  1  0.48554760  0.64207210  0.14539265  1
  Ag+  Ag35  1  0.16043865  0.15685357  0.31524261  1
  Ag+  Ag36  1  0.52856974  0.16596166  0.01923765  1
  Ag+  Ag37  1  0.82064792  0.47363256  0.66521639  1
  Ag+  Ag38  1  0.47940788  0.32825972  0.86046227  1
  Ag+  Ag39  1  0.35401375  0.80660906  0.51710262  1
  Ag+  Ag40  1  0.00824766  0.30964347  0.30895469  1
  Ag+  Ag41  1  0.02413785  0.83098014  0.18763879  1
  Ag+  Ag42  1  0.18948497  0.80524626  0.33242975  1
  Sn2+  Sn43  1  0.66135338  0.16263582  0.83344292  1
  Sn2+  Sn44  1  0.66541724  0.83953361  0.82878776  1
  Sn2+  Sn45  1  0.83080849  0.67483950  0.16987328  1
  Sn2+  Sn46  1  -0.00199418  0.00400688  0.33388781  1
  Sn2+  Sn47  1  0.50348417  0.49274049  0.66807379  1
  Sn2+  Sn48  1  0.49659554  0.83525454  0.33312976  1
  Sn2+  Sn49  1  0.83025344  0.00282583  0.50680546  1
  Sn2+  Sn50  1  0.68402370  0.32936517  0.33456740  1
  Sn2+  Sn51  1  0.16648640  0.48935864  0.33073799  1
  Sn2+  Sn52  1  -0.00179090  0.16554667  0.83519517  1
  Sn2+  Sn53  1  0.00339374  0.33270719  -0.00556721  1
  Sn2+  Sn54  1  0.48941048  0.16655923  0.33226615  1
  Sn2+  Sn55  1  0.83596606  0.49813898  -0.01537280  1
  Sn2+  Sn56  1  0.34079672  0.00779980  0.00110872  1
  Sn2+  Sn57  1  0.33855513  0.16429183  0.83725517  1
  Sn2+  Sn58  1  0.65950843  0.66949202  0.33017297  1
  Sn2+  Sn59  1  0.48835598  0.83400440  0.66942313  1
  Sn2+  Sn60  1  0.83977390  0.16333429  0.34524687  1
  Sn2+  Sn61  1  0.16211486  -0.00569047  0.16999643  1
  Sn2+  Sn62  1  0.83420951  0.16188077  -0.01075275  1
  Sn2+  Sn63  1  0.01724366  0.83438171  0.83437183  1
  Sn2+  Sn64  1  0.84226553  0.66740822  0.82868725  1
  Bi3+  Bi65  1  0.33063483  0.49554873  0.83004510  1
  Bi3+  Bi66  1  0.32654895  0.16687601  0.16573629  1
  Bi3+  Bi67  1  0.66974943  0.50147659  0.49935538  1
  Bi3+  Bi68  1  0.33202829  0.17123647  0.49791985  1
  Bi3+  Bi69  1  0.82952723  0.84070201  0.66456968  1
  Bi3+  Bi70  1  0.83142360  0.32872933  0.83047710  1
  Bi3+  Bi71  1  -0.00314583  0.84002800  0.49870808  1
  Bi3+  Bi72  1  0.66796634  0.16810671  0.49769191  1
  Bi3+  Bi73  1  0.83426733  0.50138630  0.33596789  1
  Bi3+  Bi74  1  0.82950449  0.83461883  -0.00071844  1
  Bi3+  Bi75  1  0.32752546  0.33103311  0.33471257  1
  Bi3+  Bi76  1  0.82784763  -0.00030688  0.83189740  1
  Bi3+  Bi77  1  0.32957224  0.49266267  0.16995899  1
  Bi3+  Bi78  1  -0.00534009  0.66826018  0.33432668  1
  Bi3+  Bi79  1  0.16100188  0.49635337  0.66782834  1
  Bi3+  Bi80  1  0.16275655  0.33377766  0.49783993  1
  Bi3+  Bi81  1  -0.00033611  0.50089022  0.82621448  1
  Bi3+  Bi82  1  0.49744770  0.49785227  0.33745989  1
  Bi3+  Bi83  1  -0.00019974  -0.00017209  -0.00256779  1
  Bi3+  Bi84  1  -0.00107570  0.66882392  0.66483222  1
  Bi3+  Bi85  1  0.83332673  0.33057235  0.49993092  1
  Te2-  Te86  1  0.16100394  0.16928006  0.16741539  1
  Te2-  Te87  1  0.16549349  0.17116358  0.50706953  1
  Te2-  Te88  1  0.16699595  0.17820814  0.81953094  1
  Te2-  Te89  1  0.16746601  0.49117593  0.15980400  1
  Te2-  Te90  1  0.15514930  0.49570346  0.50250846  1
  Te2-  Te91  1  0.16382748  0.49316646  0.83278194  1
  Te2-  Te92  1  0.17442880  0.83359120  0.17904534  1
  Te2-  Te93  1  0.16165303  0.83783589  0.48263287  1
  Te2-  Te94  1  0.17594622  0.83839685  0.83287073  1
  Te2-  Te95  1  0.49469579  0.15681867  0.16466732  1
  Te2-  Te96  1  0.49876029  0.16762616  0.49206269  1
  Te2-  Te97  1  0.49949277  0.18152645  0.83018258  1
  Te2-  Te98  1  0.49668182  0.49688938  0.17120921  1
  Te2-  Te99  1  0.50611114  0.49634765  0.49942329  1
  Te2-  Te100  1  0.49527959  0.48841184  0.83094766  1
  Te2-  Te101  1  0.50115869  0.84265931  0.17051395  1
  Te2-  Te102  1  0.49514625  0.84290258  0.49809207  1
  Te2-  Te103  1  0.48736764  0.83954222  0.83134264  1
  Te2-  Te104  1  0.84425127  0.15858998  0.16838894  1
  Te2-  Te105  1  0.82973768  0.16743652  0.51030756  1
  Te2-  Te106  1  0.83014738  0.16427705  0.81915359  1
  Te2-  Te107  1  0.83627727  0.50372409  0.16982461  1
  Te2-  Te108  1  0.83309481  0.49665605  0.50416449  1
  Te2-  Te109  1  0.83693248  0.49736237  0.82130224  1
  Te2-  Te110  1  0.82084923  0.83650711  0.16553631  1
  Te2-  Te111  1  0.83266867  0.83713268  0.49680649  1
  Te2-  Te112  1  0.83405840  0.83462334  0.83238887  1
  Te2-  Te113  1  0.16579343  0.00941968  0.00085548  1
  Te2-  Te114  1  0.16579807  0.00978357  0.32889624  1
  Te2-  Te115  1  0.16870734  0.00470851  0.66685144  1
  Te2-  Te116  1  0.16045640  0.32212931  -0.00923079  1
  Te2-  Te117  1  0.15851478  0.33245319  0.33358828  1
  Te2-  Te118  1  0.16291886  0.33349106  0.66284168  1
  Te2-  Te119  1  0.16571846  0.66528390  0.00215295  1
  Te2-  Te120  1  0.16039496  0.65934799  0.34234354  1
  Te2-  Te121  1  0.16420900  0.66140848  0.65669947  1
  Te2-  Te122  1  0.49717196  0.01772002  -0.01203603  1
  Te2-  Te123  1  0.50561221  0.00403734  0.32817694  1
  Te2-  Te124  1  0.50784929  0.00351809  0.66671655  1
  Te2-  Te125  1  0.50438551  0.31810306  0.00546739  1
  Te2-  Te126  1  0.49937683  0.33493756  0.33983348  1
  Te2-  Te127  1  0.50953244  0.33588833  0.65465555  1
  Te2-  Te128  1  0.49977474  0.66636394  0.00210652  1
  Te2-  Te129  1  0.49568020  0.66267751  0.33097786  1
  Te2-  Te130  1  0.50434754  0.66654867  0.66442282  1
  Te2-  Te131  1  0.83560522  -0.00150468  -0.00189032  1
  Te2-  Te132  1  0.82639252  -0.00195913  0.32761086  1
  Te2-  Te133  1  0.81942640  0.00176732  0.66944610  1
  Te2-  Te134  1  0.83544721  0.33235506  -0.00444750  1
  Te2-  Te135  1  0.85010341  0.33582004  0.33543184  1
  Te2-  Te136  1  0.82721496  0.32789079  0.66546348  1
  Te2-  Te137  1  0.83043623  0.66822077  -0.00165869  1
  Te2-  Te138  1  0.82940957  0.66714787  0.33384833  1
  Te2-  Te139  1  0.83243499  0.67915264  0.66538806  1
  Te2-  Te140  1  0.00112926  0.16195038  -0.00042407  1
  Te2-  Te141  1  0.00541445  0.16283473  0.32790406  1
  Te2-  Te142  1  0.00053696  0.16755485  0.67081618  1
  Te2-  Te143  1  0.00089593  0.49842638  -0.00473615  1
  Te2-  Te144  1  -0.00480357  0.50623990  0.34476019  1
  Te2-  Te145  1  -0.00235106  0.50521712  0.66318224  1
  Te2-  Te146  1  -0.00587418  0.83639141  -0.00316365  1
  Te2-  Te147  1  -0.00748362  0.83365216  0.33275066  1
  Te2-  Te148  1  -0.00555204  0.83421434  0.66386548  1
  Te2-  Te149  1  0.32249961  0.17810904  0.00281082  1
  Te2-  Te150  1  0.32125912  0.16782872  0.33260503  1
  Te2-  Te151  1  0.34249122  0.18183412  0.65915831  1
  Te2-  Te152  1  0.32760266  0.48038953  0.00064450  1
  Te2-  Te153  1  0.33392671  0.49408214  0.33634661  1
  Te2-  Te154  1  0.32988913  0.48672666  0.66459421  1
  Te2-  Te155  1  0.33279042  0.83661528  0.00634630  1
  Te2-  Te156  1  0.33284220  0.84029003  0.33288580  1
  Te2-  Te157  1  0.33227475  0.83376407  0.65781321  1
  Te2-  Te158  1  0.67547223  0.15118324  0.00131712  1
  Te2-  Te159  1  0.67020505  0.16929324  0.33562178  1
  Te2-  Te160  1  0.65039170  0.16209803  0.65879003  1
  Te2-  Te161  1  0.66850521  0.49999843  -0.00105077  1
  Te2-  Te162  1  0.66797898  0.49919691  0.33503109  1
  Te2-  Te163  1  0.67632492  0.50686817  0.66071139  1
  Te2-  Te164  1  0.66809766  0.85049783  -0.00334708  1
  Te2-  Te165  1  0.66576690  0.83673091  0.33168017  1
  Te2-  Te166  1  0.66304914  0.83792939  0.66855421  1
  Te2-  Te167  1  -0.00075233  -0.01952191  0.16233267  1
  Te2-  Te168  1  -0.00756815  0.00280809  0.49792623  1
  Te2-  Te169  1  -0.00709789  -0.00031764  0.83374386  1
  Te2-  Te170  1  0.01104698  0.33149590  0.16371470  1
  Te2-  Te171  1  -0.00305191  0.32566095  0.51126917  1
  Te2-  Te172  1  -0.00750422  0.33638069  0.82495979  1
  Te2-  Te173  1  -0.00127474  0.67809167  0.17186549  1
  Te2-  Te174  1  -0.00255233  0.67506268  0.50009049  1
  Te2-  Te175  1  0.00449745  0.66513169  0.82746765  1
  Te2-  Te176  1  0.33572181  0.00546221  0.16933756  1
  Te2-  Te177  1  0.34101052  0.00887478  0.48980814  1
  Te2-  Te178  1  0.34088246  0.00692039  0.83055646  1
  Te2-  Te179  1  0.31854479  0.32964865  0.17313858  1
  Te2-  Te180  1  0.32877910  0.33560880  0.49631216  1
  Te2-  Te181  1  0.33384288  0.33241189  0.82848522  1
  Te2-  Te182  1  0.33987452  0.65713929  0.17473391  1
  Te2-  Te183  1  0.32753190  0.66513069  0.48981107  1
  Te2-  Te184  1  0.33187119  0.65668679  0.83152874  1
  Te2-  Te185  1  0.66105278  -0.00555344  0.17178669  1
  Te2-  Te186  1  0.65982525  0.00586387  0.48774058  1
  Te2-  Te187  1  0.66106601  0.00128878  0.82618509  1
  Te2-  Te188  1  0.66875413  0.33053364  0.16970920  1
  Te2-  Te189  1  0.67013303  0.33449239  0.49984465  1
  Te2-  Te190  1  0.66975657  0.33120007  0.82353924  1
  Te2-  Te191  1  0.66051039  0.67680658  0.17007439  1
  Te2-  Te192  1  0.66995825  0.66571995  0.50107694  1
  Te2-  Te193  1  0.66668300  0.66968830  0.82618747  1
  Pb2+  Pb194  1  0.66500207  0.67841269  -0.00081914  1
  Pb2+  Pb195  1  0.49902784  0.84317312  0.00386448  1
  Pb2+  Pb196  1  0.16693158  0.84064641  0.00737163  1
  Pb2+  Pb197  1  0.83837420  0.33265861  0.16750909  1
  Pb2+  Pb198  1  0.66957564  0.50486968  0.16524850  1
  Pb2+  Pb199  1  0.16390568  0.83321219  0.66127682  1
  Pb2+  Pb200  1  0.33407381  0.65995146  0.00265229  1
  Pb2+  Pb201  1  0.66800103  0.32452832  -0.00465104  1
  Pb2+  Pb202  1  0.17199335  0.66573549  0.17585203  1
  Pb2+  Pb203  1  0.00177091  0.50476434  0.17557999  1
  Pb2+  Pb204  1  0.67129060  0.16279253  0.16778915  1
  Pb2+  Pb205  1  0.33710217  0.00597096  0.66071438  1
  Pb2+  Pb206  1  0.66604626  0.49972382  0.83042092  1
  Pb2+  Pb207  1  0.49000182  0.32649700  0.17149503  1
  Pb2+  Pb208  1  0.66428104  0.83674629  0.50186818  1
  Pb2+  Pb209  1  0.16553774  0.00241722  0.49707150  1
  Pb2+  Pb210  1  0.49753437  0.66496061  0.83298215  1
  Pb2+  Pb211  1  0.16384166  0.00853405  0.83372327  1
  Pb2+  Pb212  1  0.49630255  0.49110430  -0.00087350  1
  Pb2+  Pb213  1  -0.00287442  0.66668368  -0.00129460  1
  Pb2+  Pb214  1  0.33249732  0.66177805  0.66426835  1
  Pb2+  Pb215  1  0.49891408  0.66725412  0.49693247  1
