# generated using pymatgen
data_In22Ag21Sn22Bi21(Te54Pb11)2
_symmetry_space_group_name_H-M   'P 1'
_cell_length_a   19.13535061
_cell_length_b   19.13610267
_cell_length_c   19.13483557
_cell_angle_alpha   89.98836490
_cell_angle_beta   90.00693164
_cell_angle_gamma   90.00570334
_symmetry_Int_Tables_number   1
_chemical_formula_structural   In22Ag21Sn22Bi21(Te54Pb11)2
_chemical_formula_sum   'In22 Ag21 Sn22 Bi21 Te108 Pb22'
_cell_volume   7006.71796697
_cell_formula_units_Z   1
loop_
 _symmetry_equiv_pos_site_id
 _symmetry_equiv_pos_as_xyz
  1  'x, y, z'
loop_
 _atom_type_symbol
 _atom_type_oxidation_number
  In3+  3.0
  Ag+  1.0
  Sn2+  2.0
  Bi3+  3.0
  Te2-  -2.0
  Pb2+  2.0
loop_
 _atom_site_type_symbol
 _atom_site_label
 _atom_site_symmetry_multiplicity
 _atom_site_fract_x
 _atom_site_fract_y
 _atom_site_fract_z
 _atom_site_occupancy
  In3+  In0  1  0.83330661  0.00888278  0.50104922  1
  In3+  In1  1  0.48862778  0.50243901  0.33874285  1
  In3+  In2  1  0.33049530  0.82981469  0.49548212  1
  In3+  In3  1  0.16251780  0.00299192  0.16782271  1
  In3+  In4  1  0.83240970  0.51414568  0.32704427  1
  In3+  In5  1  0.16526880  0.83873442  0.02137421  1
  In3+  In6  1  0.83120629  0.82738277  -0.01363519  1
  In3+  In7  1  0.49321324  0.00086745  0.81434455  1
  In3+  In8  1  0.17064366  0.82392838  0.65577626  1
  In3+  In9  1  0.50013920  0.66960606  0.15186316  1
  In3+  In10  1  0.83594006  0.83135426  0.33465968  1
  In3+  In11  1  0.34593487  0.31697488  0.33672186  1
  In3+  In12  1  0.81553308  0.17018325  0.32987729  1
  In3+  In13  1  0.02102347  0.83494152  0.83953823  1
  In3+  In14  1  0.17110715  -0.00582577  0.48801512  1
  In3+  In15  1  0.00966690  0.67129728  0.32737239  1
  In3+  In16  1  0.49393473  0.15200048  0.34020719  1
  In3+  In17  1  -0.00077100  0.17015861  0.15560501  1
  In3+  In18  1  0.32490340  0.49799961  0.16882188  1
  In3+  In19  1  0.17005107  0.34826828  0.49421287  1
  In3+  In20  1  0.00523404  0.00181222  0.65521517  1
  In3+  In21  1  0.48732816  0.83142788  0.33886459  1
  Ag+  Ag22  1  0.35749478  0.49928849  0.80628281  1
  Ag+  Ag23  1  0.02015239  -0.01518707  0.00109570  1
  Ag+  Ag24  1  0.16665062  0.14156324  -0.02494467  1
  Ag+  Ag25  1  0.65169573  0.35562860  0.35261858  1
  Ag+  Ag26  1  0.50430813  0.83890813  0.68599909  1
  Ag+  Ag27  1  0.33941887  0.13703760  0.50074575  1
  Ag+  Ag28  1  0.51538780  0.64730699  0.80110454  1
  Ag+  Ag29  1  0.80105110  0.14204161  0.69576560  1
  Ag+  Ag30  1  0.30822798  0.30574266  -0.03495625  1
  Ag+  Ag31  1  0.63492783  0.68084644  0.65599270  1
  Ag+  Ag32  1  -0.00145680  0.68815335  0.02642826  1
  Ag+  Ag33  1  0.16969876  0.68970557  0.47636778  1
  Ag+  Ag34  1  0.32410418  -0.00771773  0.33109959  1
  Ag+  Ag35  1  0.85054720  0.67383859  0.17576871  1
  Ag+  Ag36  1  0.53320087  0.54575531  0.69446695  1
  Ag+  Ag37  1  0.35279550  0.66833530  0.31927943  1
  Ag+  Ag38  1  0.47222493  -0.00131481  0.51244682  1
  Ag+  Ag39  1  0.19510180  0.52083297  0.64371088  1
  Ag+  Ag40  1  0.02580266  0.52928911  0.19406821  1
  Ag+  Ag41  1  0.63807180  0.15257486  0.17097778  1
  Ag+  Ag42  1  0.18398884  0.83162444  0.32655320  1
  Sn2+  Sn43  1  0.66845587  0.16481954  0.49324395  1
  Sn2+  Sn44  1  0.66574080  0.33481539  0.66434957  1
  Sn2+  Sn45  1  0.49791907  0.32529588  0.50154233  1
  Sn2+  Sn46  1  0.49427715  0.67518051  0.49823854  1
  Sn2+  Sn47  1  0.32370155  0.66676819  -0.00124324  1
  Sn2+  Sn48  1  0.82792318  0.34239472  0.16688684  1
  Sn2+  Sn49  1  0.16765826  0.32443250  0.16865337  1
  Sn2+  Sn50  1  0.33877956  0.81962263  0.83112949  1
  Sn2+  Sn51  1  0.65690294  0.82439172  0.82716917  1
  Sn2+  Sn52  1  0.65949287  0.16142026  0.84522679  1
  Sn2+  Sn53  1  0.16793091  0.17155715  0.66072311  1
  Sn2+  Sn54  1  0.49564175  -0.00231060  0.17581501  1
  Sn2+  Sn55  1  0.50336514  0.16401741  0.65417257  1
  Sn2+  Sn56  1  0.84155949  0.66717967  0.50141078  1
  Sn2+  Sn57  1  -0.00713544  0.83889912  0.16384684  1
  Sn2+  Sn58  1  0.83444893  -0.00443567  0.17181031  1
  Sn2+  Sn59  1  0.67379321  0.83735135  0.16625734  1
  Sn2+  Sn60  1  0.16990862  0.15994650  0.33732433  1
  Sn2+  Sn61  1  0.32864863  0.17073016  0.17161033  1
  Sn2+  Sn62  1  0.33730941  0.00939044  0.01059515  1
  Sn2+  Sn63  1  -0.00079944  0.50627090  0.50425321  1
  Sn2+  Sn64  1  0.16766399  0.34037996  0.83531787  1
  Bi3+  Bi65  1  0.33528638  0.50927428  0.49698550  1
  Bi3+  Bi66  1  0.00823731  0.16599549  0.49840710  1
  Bi3+  Bi67  1  0.17008464  0.66433522  0.83582480  1
  Bi3+  Bi68  1  -0.00044035  0.83082975  0.50313078  1
  Bi3+  Bi69  1  0.00291433  0.50258308  0.83575922  1
  Bi3+  Bi70  1  0.33264913  0.33327054  0.66020973  1
  Bi3+  Bi71  1  0.16124402  0.50503700  0.00039924  1
  Bi3+  Bi72  1  0.32810513  0.66622845  0.66552521  1
  Bi3+  Bi73  1  0.00845679  0.33499547  0.00121481  1
  Bi3+  Bi74  1  0.66190742  0.83220691  0.49988051  1
  Bi3+  Bi75  1  0.66571831  -0.00066434  0.33296527  1
  Bi3+  Bi76  1  0.50048713  0.33584576  0.17243885  1
  Bi3+  Bi77  1  0.66774718  0.49805348  0.16635837  1
  Bi3+  Bi78  1  0.66573499  0.00170484  0.00393528  1
  Bi3+  Bi79  1  0.66517734  0.33003697  0.00499554  1
  Bi3+  Bi80  1  0.33596321  0.83650048  0.16826768  1
  Bi3+  Bi81  1  0.83398277  0.32911429  0.49573647  1
  Bi3+  Bi82  1  0.00256427  0.33045599  0.66335301  1
  Bi3+  Bi83  1  0.83424443  0.50512549  0.00664151  1
  Bi3+  Bi84  1  -0.00029115  0.66898484  0.66634118  1
  Bi3+  Bi85  1  0.66608735  0.50020831  0.83286661  1
  Te2-  Te86  1  0.16975178  0.15998214  0.17412509  1
  Te2-  Te87  1  0.17018929  0.15263168  0.50169428  1
  Te2-  Te88  1  0.16863122  0.16667403  0.82868831  1
  Te2-  Te89  1  0.16629036  0.49793081  0.16564421  1
  Te2-  Te90  1  0.16772627  0.50060147  0.50065683  1
  Te2-  Te91  1  0.16432044  0.50140815  0.83866013  1
  Te2-  Te92  1  0.16741333  0.84162889  0.17582851  1
  Te2-  Te93  1  0.16192971  0.83439231  0.49732470  1
  Te2-  Te94  1  0.17349977  0.82749255  0.82586911  1
  Te2-  Te95  1  0.49105888  0.17087764  0.17810386  1
  Te2-  Te96  1  0.49565969  0.15274108  0.49603251  1
  Te2-  Te97  1  0.49999383  0.15984577  0.83193573  1
  Te2-  Te98  1  0.50210077  0.50220149  0.17905650  1
  Te2-  Te99  1  0.49666708  0.50166903  0.49369486  1
  Te2-  Te100  1  0.50235020  0.50151904  0.83672902  1
  Te2-  Te101  1  0.50110139  0.82896447  0.17609537  1
  Te2-  Te102  1  0.50126031  0.84510934  0.49083591  1
  Te2-  Te103  1  0.49702775  0.84282096  0.83380365  1
  Te2-  Te104  1  0.84556376  0.16637346  0.17491097  1
  Te2-  Te105  1  0.84136231  0.16512990  0.49176706  1
  Te2-  Te106  1  0.83111903  0.16343048  0.83774988  1
  Te2-  Te107  1  0.83097488  0.51059921  0.16784813  1
  Te2-  Te108  1  0.83336417  0.49587841  0.48893876  1
  Te2-  Te109  1  0.83255345  0.49965527  0.83726809  1
  Te2-  Te110  1  0.83223527  0.82506556  0.17520855  1
  Te2-  Te111  1  0.83392275  0.83386307  0.49520861  1
  Te2-  Te112  1  0.82460958  0.83213814  0.83310273  1
  Te2-  Te113  1  0.16906667  -0.00352999  0.00662425  1
  Te2-  Te114  1  0.17497553  -0.01226742  0.33389029  1
  Te2-  Te115  1  0.15915013  -0.00525956  0.66425575  1
  Te2-  Te116  1  0.17075850  0.33978351  0.00518397  1
  Te2-  Te117  1  0.17123990  0.33336369  0.33817726  1
  Te2-  Te118  1  0.16676846  0.33272849  0.65897042  1
  Te2-  Te119  1  0.15244312  0.67268506  -0.00133137  1
  Te2-  Te120  1  0.16015918  0.67808326  0.33015482  1
  Te2-  Te121  1  0.16342296  0.66324096  0.67167503  1
  Te2-  Te122  1  0.50199783  0.00187913  0.01015776  1
  Te2-  Te123  1  0.50023250  -0.00206895  0.33420201  1
  Te2-  Te124  1  0.49561641  -0.00931299  0.66023931  1
  Te2-  Te125  1  0.49914472  0.33293270  0.00674964  1
  Te2-  Te126  1  0.50449017  0.33509358  0.33562414  1
  Te2-  Te127  1  0.49653386  0.33208380  0.65993530  1
  Te2-  Te128  1  0.49499410  0.66983966  -0.00072828  1
  Te2-  Te129  1  0.49917545  0.66826479  0.34200870  1
  Te2-  Te130  1  0.48836157  0.68493832  0.65812694  1
  Te2-  Te131  1  0.82689257  -0.01043660  0.00732907  1
  Te2-  Te132  1  0.83270622  0.00171895  0.33321855  1
  Te2-  Te133  1  0.83989311  0.00484035  0.66076505  1
  Te2-  Te134  1  0.83450212  0.33456125  0.00297052  1
  Te2-  Te135  1  0.82851063  0.32391276  0.33410272  1
  Te2-  Te136  1  0.83696347  0.32659458  0.65778466  1
  Te2-  Te137  1  0.84370215  0.67292244  0.00854345  1
  Te2-  Te138  1  0.83695062  0.66849668  0.32928918  1
  Te2-  Te139  1  0.83804303  0.66439610  0.66231345  1
  Te2-  Te140  1  0.01609894  0.17264446  0.00203356  1
  Te2-  Te141  1  0.00923740  0.16321200  0.33666211  1
  Te2-  Te142  1  0.00063571  0.16428603  0.66109513  1
  Te2-  Te143  1  -0.00431770  0.49644186  -0.00170093  1
  Te2-  Te144  1  -0.00642854  0.50197666  0.33376413  1
  Te2-  Te145  1  0.00290969  0.49640793  0.67080638  1
  Te2-  Te146  1  0.00514109  0.83277210  -0.00223990  1
  Te2-  Te147  1  -0.00677276  0.82970959  0.33811270  1
  Te2-  Te148  1  0.00138322  0.83713518  0.66755104  1
  Te2-  Te149  1  0.31974605  0.16489831  0.00077761  1
  Te2-  Te150  1  0.33768361  0.16651460  0.34857878  1
  Te2-  Te151  1  0.33457606  0.16867613  0.65107687  1
  Te2-  Te152  1  0.32428001  0.50792312  0.01406416  1
  Te2-  Te153  1  0.33528692  0.51626323  0.33252632  1
  Te2-  Te154  1  0.33910624  0.49822420  0.66007857  1
  Te2-  Te155  1  0.32273364  0.83436915  0.00551911  1
  Te2-  Te156  1  0.33376686  0.82314862  0.33445219  1
  Te2-  Te157  1  0.33148090  0.83165957  0.66014393  1
  Te2-  Te158  1  0.66843931  0.16737683  0.01514574  1
  Te2-  Te159  1  0.66195469  0.16008516  0.32354876  1
  Te2-  Te160  1  0.66084827  0.16744226  0.66718446  1
  Te2-  Te161  1  0.66953495  0.49700715  -0.00066218  1
  Te2-  Te162  1  0.67463315  0.49872484  0.32929201  1
  Te2-  Te163  1  0.66571239  0.49339325  0.67073879  1
  Te2-  Te164  1  0.67037327  0.83625160  0.00136632  1
  Te2-  Te165  1  0.67498997  0.83679136  0.33526476  1
  Te2-  Te166  1  0.65665224  0.82875169  0.66478359  1
  Te2-  Te167  1  0.00457370  0.00208034  0.15411683  1
  Te2-  Te168  1  0.00073843  -0.00235495  0.49679257  1
  Te2-  Te169  1  0.00079948  -0.01146830  0.85075648  1
  Te2-  Te170  1  -0.00054040  0.32760423  0.16355831  1
  Te2-  Te171  1  0.00391166  0.33189060  0.50090462  1
  Te2-  Te172  1  0.00226736  0.33329991  0.82937024  1
  Te2-  Te173  1  -0.00145664  0.67203364  0.17333432  1
  Te2-  Te174  1  0.00984574  0.66860110  0.50288360  1
  Te2-  Te175  1  0.00184947  0.66934009  0.82815463  1
  Te2-  Te176  1  0.33147361  -0.00299141  0.17974280  1
  Te2-  Te177  1  0.32697547  -0.01213889  0.48507956  1
  Te2-  Te178  1  0.33952244  -0.00272420  0.83551335  1
  Te2-  Te179  1  0.33793401  0.34157165  0.18005028  1
  Te2-  Te180  1  0.33144348  0.34294053  0.49376496  1
  Te2-  Te181  1  0.33116355  0.34625743  0.82660467  1
  Te2-  Te182  1  0.34264693  0.67231599  0.17121926  1
  Te2-  Te183  1  0.32098209  0.67497296  0.50149255  1
  Te2-  Te184  1  0.33322307  0.65724211  0.83043983  1
  Te2-  Te185  1  0.66592516  0.00555023  0.16878407  1
  Te2-  Te186  1  0.67512226  -0.00154091  0.49651441  1
  Te2-  Te187  1  0.65796522  -0.00018054  0.83880167  1
  Te2-  Te188  1  0.66508416  0.33484379  0.16592179  1
  Te2-  Te189  1  0.66919489  0.32573443  0.49618462  1
  Te2-  Te190  1  0.66578660  0.33090876  0.83911364  1
  Te2-  Te191  1  0.65549324  0.66425895  0.16769272  1
  Te2-  Te192  1  0.66900860  0.66982822  0.50937136  1
  Te2-  Te193  1  0.65909325  0.66441376  0.83006900  1
  Pb2+  Pb194  1  -0.00323919  0.33124019  0.32986818  1
  Pb2+  Pb195  1  0.49174975  0.50049803  0.00950732  1
  Pb2+  Pb196  1  0.49841382  0.33328108  0.82878777  1
  Pb2+  Pb197  1  0.83130186  0.66653122  0.83619785  1
  Pb2+  Pb198  1  0.66352836  -0.00213358  0.66648045  1
  Pb2+  Pb199  1  0.32739847  -0.00130020  0.66064594  1
  Pb2+  Pb200  1  0.49537187  0.83604014  0.00268358  1
  Pb2+  Pb201  1  0.83183494  -0.00224709  0.83668505  1
  Pb2+  Pb202  1  0.66151959  0.50022219  0.50026222  1
  Pb2+  Pb203  1  0.00168362  0.15731600  0.83143558  1
  Pb2+  Pb204  1  0.83656359  0.49477760  0.65897582  1
  Pb2+  Pb205  1  0.16923408  -0.00363791  0.83180848  1
  Pb2+  Pb206  1  0.84124153  0.16114223  0.00895430  1
  Pb2+  Pb207  1  0.00513360  -0.00226593  0.32476802  1
  Pb2+  Pb208  1  0.16663913  0.50619016  0.33456603  1
  Pb2+  Pb209  1  0.33321217  0.16918193  0.82374118  1
  Pb2+  Pb210  1  0.83307728  0.33050101  0.82897136  1
  Pb2+  Pb211  1  0.83041184  0.83489136  0.66278256  1
  Pb2+  Pb212  1  0.67085487  0.66851902  0.00080323  1
  Pb2+  Pb213  1  0.49469490  0.16769353  0.00529537  1
  Pb2+  Pb214  1  0.66623621  0.66774298  0.33796251  1
  Pb2+  Pb215  1  0.17389672  0.66945143  0.16618991  1
