# generated using pymatgen
data_In22Ag21Sn22Bi21(Te54Pb11)2
_symmetry_space_group_name_H-M   'P 1'
_cell_length_a   19.12363129
_cell_length_b   19.12764241
_cell_length_c   19.12696595
_cell_angle_alpha   89.99787047
_cell_angle_beta   89.99681433
_cell_angle_gamma   89.99297152
_symmetry_Int_Tables_number   1
_chemical_formula_structural   In22Ag21Sn22Bi21(Te54Pb11)2
_chemical_formula_sum   'In22 Ag21 Sn22 Bi21 Te108 Pb22'
_cell_volume   6996.45244094
_cell_formula_units_Z   1
loop_
 _symmetry_equiv_pos_site_id
 _symmetry_equiv_pos_as_xyz
  1  'x, y, z'
loop_
 _atom_type_symbol
 _atom_type_oxidation_number
  In3+  3.0
  Ag+  1.0
  Sn2+  2.0
  Bi3+  3.0
  Te2-  -2.0
  Pb2+  2.0
loop_
 _atom_site_type_symbol
 _atom_site_label
 _atom_site_symmetry_multiplicity
 _atom_site_fract_x
 _atom_site_fract_y
 _atom_site_fract_z
 _atom_site_occupancy
  In3+  In0  1  0.01675531  0.84063056  0.49307879  1
  In3+  In1  1  0.66558448  0.50910923  0.18124836  1
  In3+  In2  1  0.50182459  0.51404919  0.00023608  1
  In3+  In3  1  0.16715480  -0.00519015  0.18664843  1
  In3+  In4  1  0.47570935  0.14176778  0.33056008  1
  In3+  In5  1  0.01443373  0.51335870  0.49593792  1
  In3+  In6  1  0.83167757  0.16643352  0.67744114  1
  In3+  In7  1  0.01779453  0.32152182  0.33666480  1
  In3+  In8  1  -0.00571496  0.51605444  0.84496651  1
  In3+  In9  1  0.16047612  0.13748152  0.02251803  1
  In3+  In10  1  0.16837486  0.33000374  0.49105054  1
  In3+  In11  1  0.67544373  0.34352995  0.66697526  1
  In3+  In12  1  0.83175866  0.50223418  0.35291157  1
  In3+  In13  1  0.83240463  -0.00109048  0.82876551  1
  In3+  In14  1  0.82513348  0.68469709  0.83235364  1
  In3+  In15  1  0.33923228  -0.00611557  -0.00611512  1
  In3+  In16  1  0.15850310  0.17303472  0.66537970  1
  In3+  In17  1  0.66044415  -0.00609141  0.67276644  1
  In3+  In18  1  0.49855466  0.68162529  0.18300658  1
  In3+  In19  1  0.33296045  -0.01003788  0.66351067  1
  In3+  In20  1  0.47886318  0.16567941  0.00125665  1
  In3+  In21  1  0.18251163  0.83217956  0.32915369  1
  Ag+  Ag22  1  -0.00302569  0.15645671  0.19163656  1
  Ag+  Ag23  1  -0.01899021  -0.02439002  0.30317613  1
  Ag+  Ag24  1  0.35004242  0.36044152  0.33353028  1
  Ag+  Ag25  1  0.85918543  0.33092336  0.83472786  1
  Ag+  Ag26  1  0.67960333  0.66545793  0.35963076  1
  Ag+  Ag27  1  0.66534220  0.80889274  0.18096258  1
  Ag+  Ag28  1  0.19016021  0.83375101  0.02592822  1
  Ag+  Ag29  1  0.66494663  0.52311799  0.48802335  1
  Ag+  Ag30  1  0.03414491  0.64698149  0.02780792  1
  Ag+  Ag31  1  0.35102855  0.84760305  0.83506157  1
  Ag+  Ag32  1  0.19446977  0.69224475  0.49724741  1
  Ag+  Ag33  1  0.48862096  0.69029765  0.83031276  1
  Ag+  Ag34  1  0.47752512  -0.01573007  0.83483403  1
  Ag+  Ag35  1  0.66100187  0.81902205  0.47549363  1
  Ag+  Ag36  1  0.35016996  -0.00665510  0.30389950  1
  Ag+  Ag37  1  0.52524058  0.83339256  0.35810260  1
  Ag+  Ag38  1  0.02358532  0.16889495  0.85282799  1
  Ag+  Ag39  1  0.36521247  0.83162884  0.47196553  1
  Ag+  Ag40  1  0.30869980  0.49888267  0.19266674  1
  Ag+  Ag41  1  0.64667676  0.81450401  0.83336404  1
  Ag+  Ag42  1  0.17163469  0.18258062  0.32083387  1
  Sn2+  Sn43  1  0.16336791  0.50106357  0.66861147  1
  Sn2+  Sn44  1  0.82702005  0.67322523  0.50151768  1
  Sn2+  Sn45  1  0.84068294  0.16783093  -0.00781388  1
  Sn2+  Sn46  1  0.50287089  0.16357981  0.66897547  1
  Sn2+  Sn47  1  -0.00526442  0.48900732  0.16907546  1
  Sn2+  Sn48  1  0.33146535  0.32877924  0.66339779  1
  Sn2+  Sn49  1  0.50219401  0.83268273  -0.00622262  1
  Sn2+  Sn50  1  0.00321058  0.84314577  0.83429099  1
  Sn2+  Sn51  1  0.82559561  0.82936213  0.33482576  1
  Sn2+  Sn52  1  0.83365709  0.49637025  0.66728980  1
  Sn2+  Sn53  1  0.83433132  0.33787156  0.49889359  1
  Sn2+  Sn54  1  0.66129210  0.67241465  0.66477391  1
  Sn2+  Sn55  1  0.83199559  0.33184781  0.16290205  1
  Sn2+  Sn56  1  0.00074786  0.33170595  0.67324975  1
  Sn2+  Sn57  1  0.82277411  0.83228626  0.65742672  1
  Sn2+  Sn58  1  0.66276128  -0.00556335  -0.00338536  1
  Sn2+  Sn59  1  0.83222038  -0.00430920  0.49489601  1
  Sn2+  Sn60  1  0.33629624  0.51094012  0.83456049  1
  Sn2+  Sn61  1  0.33283119  0.33310841  0.00835263  1
  Sn2+  Sn62  1  0.16275574  0.32838497  0.83330626  1
  Sn2+  Sn63  1  0.49988591  0.66516153  0.50688864  1
  Sn2+  Sn64  1  0.00200978  0.33427622  0.00085583  1
  Bi3+  Bi65  1  0.16614972  0.33272336  0.16344700  1
  Bi3+  Bi66  1  0.66845015  0.16377914  0.50004033  1
  Bi3+  Bi67  1  0.49351688  0.32947065  0.83251488  1
  Bi3+  Bi68  1  0.49662024  0.33168560  0.16768467  1
  Bi3+  Bi69  1  -0.00081666  -0.00212990  -0.00224875  1
  Bi3+  Bi70  1  0.83148387  0.83387460  -0.00336075  1
  Bi3+  Bi71  1  0.66712234  0.16797078  0.83567366  1
  Bi3+  Bi72  1  0.49953479  0.49703186  0.66789545  1
  Bi3+  Bi73  1  -0.00459000  0.66521079  0.66448272  1
  Bi3+  Bi74  1  0.49685621  0.33282164  0.49859702  1
  Bi3+  Bi75  1  0.49967600  0.00056954  0.50593197  1
  Bi3+  Bi76  1  0.33343577  0.15753260  0.49904099  1
  Bi3+  Bi77  1  0.16843211  0.00120933  0.49758629  1
  Bi3+  Bi78  1  0.16075470  0.83395507  0.66772555  1
  Bi3+  Bi79  1  -0.00105494  0.16733192  0.50111561  1
  Bi3+  Bi80  1  0.33628602  0.66809743  -0.00156426  1
  Bi3+  Bi81  1  0.67274342  0.16860758  0.16737765  1
  Bi3+  Bi82  1  0.83079331  0.49736241  -0.00375400  1
  Bi3+  Bi83  1  0.66690816  0.66915624  -0.00613770  1
  Bi3+  Bi84  1  -0.00268400  -0.00244044  0.66471454  1
  Bi3+  Bi85  1  0.33685015  0.67592981  0.33302427  1
  Te2-  Te86  1  0.15792120  0.16858758  0.17298222  1
  Te2-  Te87  1  0.16724910  0.16722111  0.50557835  1
  Te2-  Te88  1  0.16811840  0.16832690  0.81997171  1
  Te2-  Te89  1  0.16369871  0.49833303  0.16370534  1
  Te2-  Te90  1  0.16549543  0.48873437  0.49885698  1
  Te2-  Te91  1  0.15473468  0.50024987  0.82709166  1
  Te2-  Te92  1  0.16333841  0.83731320  0.17123734  1
  Te2-  Te93  1  0.17009135  0.83820697  0.50263099  1
  Te2-  Te94  1  0.15994061  0.83176690  0.82822006  1
  Te2-  Te95  1  0.50260146  0.16888079  0.17023383  1
  Te2-  Te96  1  0.49950880  0.16603962  0.49569947  1
  Te2-  Te97  1  0.50273540  0.16814027  0.83861638  1
  Te2-  Te98  1  0.51143143  0.49302743  0.15768959  1
  Te2-  Te99  1  0.50941773  0.49724906  0.50209890  1
  Te2-  Te100  1  0.50015256  0.49035645  0.83177006  1
  Te2-  Te101  1  0.51283893  0.83178256  0.15652106  1
  Te2-  Te102  1  0.50967324  0.83831419  0.50486293  1
  Te2-  Te103  1  0.50051088  0.83942090  0.83572286  1
  Te2-  Te104  1  0.84285458  0.17166290  0.16627564  1
  Te2-  Te105  1  0.83261486  0.16765232  0.50365257  1
  Te2-  Te106  1  0.82809653  0.18166562  0.83117520  1
  Te2-  Te107  1  0.82826955  0.49663043  0.15810007  1
  Te2-  Te108  1  0.81509166  0.49857430  0.50301209  1
  Te2-  Te109  1  0.84437755  0.48149389  0.83351940  1
  Te2-  Te110  1  0.82030950  0.83348043  0.16204259  1
  Te2-  Te111  1  0.81072941  0.83354255  0.49905595  1
  Te2-  Te112  1  0.83713146  0.83954870  0.83137526  1
  Te2-  Te113  1  0.16343207  -0.01409591  0.00203406  1
  Te2-  Te114  1  0.15784565  -0.01497214  0.33802665  1
  Te2-  Te115  1  0.16222959  -0.00010198  0.66262997  1
  Te2-  Te116  1  0.16801941  0.33335285  0.00298405  1
  Te2-  Te117  1  0.17187140  0.33113304  0.33164169  1
  Te2-  Te118  1  0.16957267  0.33232842  0.65868255  1
  Te2-  Te119  1  0.17309250  0.67931224  -0.00030452  1
  Te2-  Te120  1  0.17064224  0.67475950  0.34662124  1
  Te2-  Te121  1  0.15916160  0.66843183  0.64819591  1
  Te2-  Te122  1  0.49509749  0.00595812  -0.01138961  1
  Te2-  Te123  1  0.49567889  -0.01328983  0.33653047  1
  Te2-  Te124  1  0.49712429  0.00384157  0.67622772  1
  Te2-  Te125  1  0.49518083  0.32437628  0.00135697  1
  Te2-  Te126  1  0.49568649  0.33683599  0.33353412  1
  Te2-  Te127  1  0.49739447  0.33113788  0.66328566  1
  Te2-  Te128  1  0.50166289  0.66552885  -0.01752974  1
  Te2-  Te129  1  0.50037699  0.68048478  0.33522766  1
  Te2-  Te130  1  0.49953172  0.65968111  0.67927743  1
  Te2-  Te131  1  0.83561710  0.00026336  -0.00777507  1
  Te2-  Te132  1  0.83789872  0.00098170  0.33439712  1
  Te2-  Te133  1  0.83574094  0.00303680  0.66722067  1
  Te2-  Te134  1  0.83957273  0.33565824  -0.00657286  1
  Te2-  Te135  1  0.82872077  0.34549776  0.33249490  1
  Te2-  Te136  1  0.83211420  0.32920283  0.66905395  1
  Te2-  Te137  1  0.83150462  0.66380875  -0.01163212  1
  Te2-  Te138  1  0.82534178  0.65797090  0.33235284  1
  Te2-  Te139  1  0.83247565  0.66313409  0.67358461  1
  Te2-  Te140  1  0.00916082  0.16357595  -0.00154094  1
  Te2-  Te141  1  0.01417933  0.17005315  0.33911738  1
  Te2-  Te142  1  -0.00259282  0.16359997  0.66342852  1
  Te2-  Te143  1  -0.00215803  0.50642172  -0.00129947  1
  Te2-  Te144  1  -0.01073808  0.49458931  0.33939750  1
  Te2-  Te145  1  -0.00156410  0.49969990  0.65066421  1
  Te2-  Te146  1  -0.00786030  0.83613798  -0.00365605  1
  Te2-  Te147  1  -0.01162174  0.83475134  0.34106799  1
  Te2-  Te148  1  -0.00545378  0.83278003  0.65943804  1
  Te2-  Te149  1  0.31794347  0.16277052  0.00275981  1
  Te2-  Te150  1  0.32066407  0.14536931  0.33804009  1
  Te2-  Te151  1  0.33328343  0.16320073  0.66026786  1
  Te2-  Te152  1  0.34104293  0.50240680  -0.00453426  1
  Te2-  Te153  1  0.33249926  0.50989556  0.33712567  1
  Te2-  Te154  1  0.33339188  0.49832842  0.66735471  1
  Te2-  Te155  1  0.33404748  0.83610890  -0.00882773  1
  Te2-  Te156  1  0.33479879  0.83959852  0.32763748  1
  Te2-  Te157  1  0.32559495  0.83756523  0.68239268  1
  Te2-  Te158  1  0.67526830  0.16265234  0.00337773  1
  Te2-  Te159  1  0.67082102  0.16525063  0.33381276  1
  Te2-  Te160  1  0.66930907  0.16273188  0.66616749  1
  Te2-  Te161  1  0.66594747  0.50163265  -0.00298911  1
  Te2-  Te162  1  0.66986816  0.51348482  0.33616409  1
  Te2-  Te163  1  0.66202925  0.49766831  0.66005537  1
  Te2-  Te164  1  0.67060293  0.83390873  -0.01608125  1
  Te2-  Te165  1  0.66991540  0.82417579  0.32716753  1
  Te2-  Te166  1  0.66635156  0.83956183  0.68426954  1
  Te2-  Te167  1  0.00844010  0.01030041  0.16306537  1
  Te2-  Te168  1  0.00102497  0.00191402  0.50220125  1
  Te2-  Te169  1  -0.00843261  0.01654266  0.82957180  1
  Te2-  Te170  1  0.00277162  0.33177263  0.17379902  1
  Te2-  Te171  1  0.00173144  0.32807404  0.49654712  1
  Te2-  Te172  1  0.00665284  0.31900318  0.83164421  1
  Te2-  Te173  1  0.00055304  0.66642858  0.16824695  1
  Te2-  Te174  1  -0.01056075  0.66540809  0.50207106  1
  Te2-  Te175  1  -0.00805253  0.66779424  0.82591208  1
  Te2-  Te176  1  0.32363907  -0.00064472  0.15855279  1
  Te2-  Te177  1  0.33600293  -0.01000451  0.50763452  1
  Te2-  Te178  1  0.33074693  -0.00305931  0.83806824  1
  Te2-  Te179  1  0.33216372  0.34462394  0.17736974  1
  Te2-  Te180  1  0.33334110  0.32588994  0.48731929  1
  Te2-  Te181  1  0.33211594  0.33728714  0.83444739  1
  Te2-  Te182  1  0.34251848  0.65327174  0.16427980  1
  Te2-  Te183  1  0.34190038  0.68022112  0.49716097  1
  Te2-  Te184  1  0.33885707  0.66853299  0.83707608  1
  Te2-  Te185  1  0.66456210  0.00873076  0.16560845  1
  Te2-  Te186  1  0.66272249  0.00308558  0.51094248  1
  Te2-  Te187  1  0.67677093  0.00921373  0.82824928  1
  Te2-  Te188  1  0.66326000  0.33134053  0.16625268  1
  Te2-  Te189  1  0.66228198  0.32453669  0.50704365  1
  Te2-  Te190  1  0.65828084  0.33079506  0.82574849  1
  Te2-  Te191  1  0.65494701  0.66258334  0.15686033  1
  Te2-  Te192  1  0.66012692  0.67081028  0.50633568  1
  Te2-  Te193  1  0.66969801  0.66651436  0.83185380  1
  Pb2+  Pb194  1  0.50161524  0.50874881  0.32827655  1
  Pb2+  Pb195  1  0.83272124  0.00272144  0.16319387  1
  Pb2+  Pb196  1  0.66708542  -0.00596189  0.33671440  1
  Pb2+  Pb197  1  0.15922128  0.50132240  0.33089814  1
  Pb2+  Pb198  1  0.34138907  0.82866887  0.16042989  1
  Pb2+  Pb199  1  0.16505863  0.66741815  0.82710505  1
  Pb2+  Pb200  1  0.33755328  0.50079556  0.50198069  1
  Pb2+  Pb201  1  0.84083729  0.17460958  0.33493867  1
  Pb2+  Pb202  1  0.16155223  -0.00081424  0.83476406  1
  Pb2+  Pb203  1  0.33420023  0.16673066  0.83123019  1
  Pb2+  Pb204  1  0.66222835  0.33623034  0.33707885  1
  Pb2+  Pb205  1  0.17365739  0.50135058  -0.00620905  1
  Pb2+  Pb206  1  0.32951317  0.17329399  0.17276931  1
  Pb2+  Pb207  1  -0.00965284  0.83681963  0.16457935  1
  Pb2+  Pb208  1  0.49834277  -0.00246886  0.15998987  1
  Pb2+  Pb209  1  0.17190588  0.66830833  0.17111189  1
  Pb2+  Pb210  1  0.82967000  0.66618114  0.16185116  1
  Pb2+  Pb211  1  0.32905043  0.66996384  0.66734351  1
  Pb2+  Pb212  1  -0.00376332  0.66814569  0.33419151  1
  Pb2+  Pb213  1  0.67303778  0.50094156  0.82732946  1
  Pb2+  Pb214  1  0.49661312  0.83105403  0.66780943  1
  Pb2+  Pb215  1  0.66752229  0.33050832  -0.00267595  1
