# generated using pymatgen
data_In22Ag21Sn22Bi21(Te54Pb11)2
_symmetry_space_group_name_H-M   'P 1'
_cell_length_a   19.11886633
_cell_length_b   19.11714074
_cell_length_c   19.14088572
_cell_angle_alpha   90.00968867
_cell_angle_beta   90.00965037
_cell_angle_gamma   89.99099708
_symmetry_Int_Tables_number   1
_chemical_formula_structural   In22Ag21Sn22Bi21(Te54Pb11)2
_chemical_formula_sum   'In22 Ag21 Sn22 Bi21 Te108 Pb22'
_cell_volume   6995.95627837
_cell_formula_units_Z   1
loop_
 _symmetry_equiv_pos_site_id
 _symmetry_equiv_pos_as_xyz
  1  'x, y, z'
loop_
 _atom_type_symbol
 _atom_type_oxidation_number
  In3+  3.0
  Ag+  1.0
  Sn2+  2.0
  Bi3+  3.0
  Te2-  -2.0
  Pb2+  2.0
loop_
 _atom_site_type_symbol
 _atom_site_label
 _atom_site_symmetry_multiplicity
 _atom_site_fract_x
 _atom_site_fract_y
 _atom_site_fract_z
 _atom_site_occupancy
  In3+  In0  1  0.17790715  0.66528491  0.49115319  1
  In3+  In1  1  0.31834664  0.84700123  0.15710790  1
  In3+  In2  1  0.83850560  0.35229383  0.83219429  1
  In3+  In3  1  0.83373716  0.83049839  -0.00352990  1
  In3+  In4  1  0.34631967  0.18872538  0.48598274  1
  In3+  In5  1  0.50278731  0.15692791  -0.00517049  1
  In3+  In6  1  0.50032964  0.48990709  0.67489994  1
  In3+  In7  1  0.85369511  -0.00503482  0.15717731  1
  In3+  In8  1  0.33525163  0.14870302  0.18579416  1
  In3+  In9  1  -0.01599917  0.82870404  0.83028590  1
  In3+  In10  1  0.82936083  0.50048096  0.35825705  1
  In3+  In11  1  0.33100040  0.16941386  0.82993197  1
  In3+  In12  1  0.66182960  0.66238674  -0.00136183  1
  In3+  In13  1  0.17710189  -0.02308227  0.83473698  1
  In3+  In14  1  0.33778425  0.32169958  0.00156717  1
  In3+  In15  1  0.49802526  0.50393792  -0.00431003  1
  In3+  In16  1  0.83690287  0.66918936  0.14182003  1
  In3+  In17  1  0.66475065  0.83308901  0.14414056  1
  In3+  In18  1  -0.01311118  0.51312553  0.83487969  1
  In3+  In19  1  0.64657832  0.17572067  0.50519211  1
  In3+  In20  1  0.82770749  0.82872910  0.66677509  1
  In3+  In21  1  0.51279520  0.68188564  0.82974823  1
  Ag+  Ag22  1  0.50273170  0.18659728  0.66604574  1
  Ag+  Ag23  1  0.64054930  0.01738584  0.68043910  1
  Ag+  Ag24  1  0.33225200  0.31131903  0.64862055  1
  Ag+  Ag25  1  0.68350304  0.51981525  0.83384109  1
  Ag+  Ag26  1  0.83362198  0.30648647  0.46641720  1
  Ag+  Ag27  1  0.82307946  0.49231829  -0.01174653  1
  Ag+  Ag28  1  0.32723904  0.02041849  0.01093101  1
  Ag+  Ag29  1  0.47853960  0.81135300  0.00245868  1
  Ag+  Ag30  1  0.82839165  0.66800452  0.83474803  1
  Ag+  Ag31  1  0.47978160  0.69206201  0.46910928  1
  Ag+  Ag32  1  0.18779389  0.64160864  0.19088684  1
  Ag+  Ag33  1  0.50125360  0.16455554  0.31299448  1
  Ag+  Ag34  1  0.80117779  0.47978318  0.69028993  1
  Ag+  Ag35  1  -0.02241384  0.17840091  0.17126228  1
  Ag+  Ag36  1  0.33376062  0.32169389  0.30492660  1
  Ag+  Ag37  1  0.33658971  -0.01972312  0.35392839  1
  Ag+  Ag38  1  -0.02613523  0.33081951  0.35790229  1
  Ag+  Ag39  1  0.19447645  0.67442019  0.83556216  1
  Ag+  Ag40  1  0.02501726  0.80419567  0.46315103  1
  Ag+  Ag41  1  0.67383899  0.82093401  0.83910675  1
  Ag+  Ag42  1  0.15451885  0.00748027  0.19273915  1
  Sn2+  Sn43  1  0.16569272  0.34202340  0.83142468  1
  Sn2+  Sn44  1  0.84061159  0.33835421  0.16138078  1
  Sn2+  Sn45  1  0.17156780  0.84532009  0.33377859  1
  Sn2+  Sn46  1  0.00493457  0.16451582  0.48421570  1
  Sn2+  Sn47  1  0.50489376  -0.00565443  0.49662595  1
  Sn2+  Sn48  1  0.01372687  0.00328661  0.00477045  1
  Sn2+  Sn49  1  0.16728353  -0.00191615  0.49955487  1
  Sn2+  Sn50  1  0.16429184  0.82995107  0.00584702  1
  Sn2+  Sn51  1  0.50705598  0.33789938  0.49695578  1
  Sn2+  Sn52  1  0.83559941  0.17434630  0.00579432  1
  Sn2+  Sn53  1  0.16162797  0.32479801  0.17115562  1
  Sn2+  Sn54  1  0.34038791  0.83644934  0.83731583  1
  Sn2+  Sn55  1  0.49759969  0.48817498  0.33517212  1
  Sn2+  Sn56  1  0.49888355  0.66889783  0.16772374  1
  Sn2+  Sn57  1  0.00522765  0.33682540  0.66348075  1
  Sn2+  Sn58  1  -0.00809969  0.49489108  0.16383984  1
  Sn2+  Sn59  1  0.50605564  0.82954954  0.67514974  1
  Sn2+  Sn60  1  0.00404316  0.83554179  0.16520640  1
  Sn2+  Sn61  1  0.32914764  0.84092489  0.49975136  1
  Sn2+  Sn62  1  0.16937527  0.17134595  0.33124065  1
  Sn2+  Sn63  1  0.33570504  0.00561410  0.66506057  1
  Sn2+  Sn64  1  0.67641266  0.49998401  0.15849738  1
  Bi3+  Bi65  1  -0.00087374  0.00223309  0.67086949  1
  Bi3+  Bi66  1  0.33439529  0.66767336  0.66996438  1
  Bi3+  Bi67  1  0.65971848  0.00016852  0.33881348  1
  Bi3+  Bi68  1  0.17016351  0.50025459  0.66949701  1
  Bi3+  Bi69  1  0.50236303  -0.00320519  0.16446221  1
  Bi3+  Bi70  1  0.16869881  0.16721341  0.66771924  1
  Bi3+  Bi71  1  0.66603865  0.83569997  0.50817832  1
  Bi3+  Bi72  1  0.83023302  0.66921938  0.50766944  1
  Bi3+  Bi73  1  0.83550182  0.00048591  0.50041693  1
  Bi3+  Bi74  1  0.16721613  0.83031535  0.66875425  1
  Bi3+  Bi75  1  0.33836396  0.50026106  0.50094299  1
  Bi3+  Bi76  1  0.00149693  0.33470524  -0.00125557  1
  Bi3+  Bi77  1  -0.00037159  0.66962346  -0.00055929  1
  Bi3+  Bi78  1  0.49782064  -0.00244230  0.83279043  1
  Bi3+  Bi79  1  0.66613323  0.66986360  0.66804463  1
  Bi3+  Bi80  1  0.33536588  0.49760074  0.83507607  1
  Bi3+  Bi81  1  0.33635726  0.50205689  0.16709616  1
  Bi3+  Bi82  1  0.66338452  0.16350254  0.83183954  1
  Bi3+  Bi83  1  0.83418404  -0.00209651  0.83488401  1
  Bi3+  Bi84  1  -0.00007190  0.49951513  0.50192987  1
  Bi3+  Bi85  1  0.50008798  0.33003923  0.83432586  1
  Te2-  Te86  1  0.18453777  0.15581024  0.16936220  1
  Te2-  Te87  1  0.17207910  0.16386961  0.50505291  1
  Te2-  Te88  1  0.17183566  0.17310333  0.83004743  1
  Te2-  Te89  1  0.16792761  0.49874293  0.16650720  1
  Te2-  Te90  1  0.16731803  0.50014988  0.50377477  1
  Te2-  Te91  1  0.17182589  0.50635688  0.83137940  1
  Te2-  Te92  1  0.16703133  0.85454768  0.16639162  1
  Te2-  Te93  1  0.16368984  0.82861969  0.50494375  1
  Te2-  Te94  1  0.16900526  0.82361973  0.83143096  1
  Te2-  Te95  1  0.48991880  0.16584476  0.16353760  1
  Te2-  Te96  1  0.49262556  0.16681174  0.51777117  1
  Te2-  Te97  1  0.49792186  0.16404200  0.82486574  1
  Te2-  Te98  1  0.50229956  0.50520643  0.16088377  1
  Te2-  Te99  1  0.50026115  0.49610113  0.50338511  1
  Te2-  Te100  1  0.49747664  0.49187074  0.83766891  1
  Te2-  Te101  1  0.50855657  0.83081909  0.15255646  1
  Te2-  Te102  1  0.50107577  0.83318774  0.50068845  1
  Te2-  Te103  1  0.50716301  0.83532003  0.84873187  1
  Te2-  Te104  1  0.83036133  0.16202498  0.16403899  1
  Te2-  Te105  1  0.84102168  0.16357016  0.50192740  1
  Te2-  Te106  1  0.82963528  0.15981371  0.83859504  1
  Te2-  Te107  1  0.83321044  0.50950759  0.16006113  1
  Te2-  Te108  1  0.83816242  0.50539414  0.51144367  1
  Te2-  Te109  1  0.83190254  0.50662971  0.83462413  1
  Te2-  Te110  1  0.82988241  0.83466950  0.16129316  1
  Te2-  Te111  1  0.83226091  0.83531502  0.50455587  1
  Te2-  Te112  1  0.82666945  0.83507030  0.83542090  1
  Te2-  Te113  1  0.17786704  -0.00146518  -0.01467837  1
  Te2-  Te114  1  0.18333541  0.00330590  0.33885198  1
  Te2-  Te115  1  0.16470722  -0.00130999  0.67394137  1
  Te2-  Te116  1  0.16538544  0.33287885  -0.00097216  1
  Te2-  Te117  1  0.18269777  0.32776447  0.33018447  1
  Te2-  Te118  1  0.17822820  0.33382181  0.66827576  1
  Te2-  Te119  1  0.15928015  0.66998855  -0.01353851  1
  Te2-  Te120  1  0.16312557  0.67154400  0.33188307  1
  Te2-  Te121  1  0.16923576  0.66594900  0.68042193  1
  Te2-  Te122  1  0.49370035  0.00315272  -0.00196326  1
  Te2-  Te123  1  0.49192024  0.00945715  0.32962866  1
  Te2-  Te124  1  0.49707732  -0.01145136  0.67043260  1
  Te2-  Te125  1  0.49691548  0.32918103  -0.00215919  1
  Te2-  Te126  1  0.49084458  0.32779381  0.33875346  1
  Te2-  Te127  1  0.48628948  0.33401478  0.66925346  1
  Te2-  Te128  1  0.50752789  0.66586359  -0.00432410  1
  Te2-  Te129  1  0.50127868  0.66271773  0.32872751  1
  Te2-  Te130  1  0.49988503  0.66546063  0.67431844  1
  Te2-  Te131  1  0.83573509  -0.00221169  0.00277332  1
  Te2-  Te132  1  0.82995116  0.00164165  0.33144261  1
  Te2-  Te133  1  0.83771960  -0.00396048  0.66909439  1
  Te2-  Te134  1  0.83683926  0.34284980  -0.00599573  1
  Te2-  Te135  1  0.83124154  0.34231331  0.32257469  1
  Te2-  Te136  1  0.83479694  0.33723167  0.68032397  1
  Te2-  Te137  1  0.83344674  0.67276317  -0.01010751  1
  Te2-  Te138  1  0.83314489  0.66078800  0.34124551  1
  Te2-  Te139  1  0.82944064  0.67242959  0.67391880  1
  Te2-  Te140  1  -0.00248684  0.16989514  0.01003443  1
  Te2-  Te141  1  0.00112173  0.18002739  0.32630220  1
  Te2-  Te142  1  0.00562938  0.16727924  0.66796091  1
  Te2-  Te143  1  -0.01117093  0.50087084  -0.00453261  1
  Te2-  Te144  1  -0.00485761  0.48463203  0.33659482  1
  Te2-  Te145  1  0.00730517  0.49887835  0.67120623  1
  Te2-  Te146  1  -0.00599711  0.83622167  -0.00173901  1
  Te2-  Te147  1  0.00111521  0.83852037  0.32481398  1
  Te2-  Te148  1  0.00377294  0.83845252  0.67431146  1
  Te2-  Te149  1  0.34063803  0.16602126  -0.01167698  1
  Te2-  Te150  1  0.34478656  0.17613594  0.33702085  1
  Te2-  Te151  1  0.33188052  0.16576837  0.67374052  1
  Te2-  Te152  1  0.33706917  0.49752870  0.00167409  1
  Te2-  Te153  1  0.33646170  0.49636881  0.33440840  1
  Te2-  Te154  1  0.33523389  0.50404039  0.66815365  1
  Te2-  Te155  1  0.33218806  0.83230220  0.00506761  1
  Te2-  Te156  1  0.33128917  0.83443686  0.32728148  1
  Te2-  Te157  1  0.33049937  0.83018699  0.66905755  1
  Te2-  Te158  1  0.66326893  0.16565206  -0.00205434  1
  Te2-  Te159  1  0.65220043  0.16148318  0.34240074  1
  Te2-  Te160  1  0.65668869  0.16260525  0.66236134  1
  Te2-  Te161  1  0.67404816  0.51091355  -0.01086007  1
  Te2-  Te162  1  0.66828197  0.49977598  0.33258758  1
  Te2-  Te163  1  0.65724062  0.50515434  0.68093272  1
  Te2-  Te164  1  0.67643180  0.82669296  -0.00971425  1
  Te2-  Te165  1  0.66387317  0.83784611  0.34218269  1
  Te2-  Te166  1  0.66872618  0.83232541  0.67218084  1
  Te2-  Te167  1  0.00637568  0.01080529  0.16553898  1
  Te2-  Te168  1  -0.00140452  -0.00015297  0.50455949  1
  Te2-  Te169  1  -0.00106096  -0.00452510  0.83661172  1
  Te2-  Te170  1  0.00135393  0.32610355  0.15995554  1
  Te2-  Te171  1  -0.01373406  0.33518678  0.50460159  1
  Te2-  Te172  1  -0.00214448  0.33616476  0.83546188  1
  Te2-  Te173  1  -0.00672356  0.66671560  0.16017467  1
  Te2-  Te174  1  -0.00464016  0.66448359  0.49853040  1
  Te2-  Te175  1  -0.01705771  0.66952224  0.83573325  1
  Te2-  Te176  1  0.34072383  -0.00210262  0.15723935  1
  Te2-  Te177  1  0.33507124  -0.00348442  0.49990840  1
  Te2-  Te178  1  0.33519399  -0.00197305  0.83459923  1
  Te2-  Te179  1  0.33128046  0.34075810  0.15717502  1
  Te2-  Te180  1  0.33480985  0.33807329  0.50352840  1
  Te2-  Te181  1  0.33552413  0.33490040  0.84162916  1
  Te2-  Te182  1  0.32985251  0.66567462  0.16534825  1
  Te2-  Te183  1  0.33929710  0.66441800  0.50571290  1
  Te2-  Te184  1  0.34717671  0.66344850  0.83219665  1
  Te2-  Te185  1  0.66362161  -0.00760034  0.17066351  1
  Te2-  Te186  1  0.67184166  0.00032046  0.50188012  1
  Te2-  Te187  1  0.66716081  0.00127863  0.82627665  1
  Te2-  Te188  1  0.66957128  0.33239891  0.16551947  1
  Te2-  Te189  1  0.68278473  0.32760769  0.50240039  1
  Te2-  Te190  1  0.66539127  0.32603670  0.83331580  1
  Te2-  Te191  1  0.67408230  0.67198573  0.15719155  1
  Te2-  Te192  1  0.66628660  0.66991123  0.50437896  1
  Te2-  Te193  1  0.66813484  0.66963252  0.83393964  1
  Pb2+  Pb194  1  -0.00125646  0.66835629  0.66629403  1
  Pb2+  Pb195  1  0.32894167  0.66669764  -0.00029066  1
  Pb2+  Pb196  1  0.66928158  0.50038453  0.50687314  1
  Pb2+  Pb197  1  0.16891127  0.16409944  0.00261312  1
  Pb2+  Pb198  1  0.49960224  0.33804980  0.16899606  1
  Pb2+  Pb199  1  0.83281203  0.83343881  0.33236550  1
  Pb2+  Pb200  1  0.66630009  0.34143093  -0.00150184  1
  Pb2+  Pb201  1  0.33238319  0.66455709  0.33310991  1
  Pb2+  Pb202  1  0.83010286  0.16822772  0.33518547  1
  Pb2+  Pb203  1  0.16458256  0.49537076  0.33268924  1
  Pb2+  Pb204  1  0.16059267  0.50220227  -0.00031824  1
  Pb2+  Pb205  1  0.66763918  0.66757496  0.32861514  1
  Pb2+  Pb206  1  0.66038382  0.33200201  0.33605544  1
  Pb2+  Pb207  1  0.66165106  0.16089964  0.17017258  1
  Pb2+  Pb208  1  -0.00231812  0.65657317  0.32804671  1
  Pb2+  Pb209  1  0.83089594  0.17042946  0.66934440  1
  Pb2+  Pb210  1  0.00719861  0.01007364  0.33576131  1
  Pb2+  Pb211  1  0.66335471  -0.00418073  -0.00623725  1
  Pb2+  Pb212  1  0.66205922  0.33216096  0.66802829  1
  Pb2+  Pb213  1  0.15776179  0.32835403  0.49711034  1
  Pb2+  Pb214  1  0.00100627  0.16529687  0.83828719  1
  Pb2+  Pb215  1  0.49742879  0.84053885  0.32549789  1
