# generated using pymatgen
data_In22Ag21Sn22Bi21(Te54Pb11)2
_symmetry_space_group_name_H-M   'P 1'
_cell_length_a   19.12966669
_cell_length_b   19.11337526
_cell_length_c   19.11217348
_cell_angle_alpha   90.01997126
_cell_angle_beta   89.98841847
_cell_angle_gamma   90.01130658
_symmetry_Int_Tables_number   1
_chemical_formula_structural   In22Ag21Sn22Bi21(Te54Pb11)2
_chemical_formula_sum   'In22 Ag21 Sn22 Bi21 Te108 Pb22'
_cell_volume   6988.03103080
_cell_formula_units_Z   1
loop_
 _symmetry_equiv_pos_site_id
 _symmetry_equiv_pos_as_xyz
  1  'x, y, z'
loop_
 _atom_type_symbol
 _atom_type_oxidation_number
  In3+  3.0
  Ag+  1.0
  Sn2+  2.0
  Bi3+  3.0
  Te2-  -2.0
  Pb2+  2.0
loop_
 _atom_site_type_symbol
 _atom_site_label
 _atom_site_symmetry_multiplicity
 _atom_site_fract_x
 _atom_site_fract_y
 _atom_site_fract_z
 _atom_site_occupancy
  In3+  In0  1  -0.01822230  0.00701265  0.64443321  1
  In3+  In1  1  -0.00395895  0.33541384  -0.01040004  1
  In3+  In2  1  0.50307208  0.49970487  0.00521822  1
  In3+  In3  1  0.16714593  0.49995386  0.00648826  1
  In3+  In4  1  0.33233879  0.66871999  0.00200039  1
  In3+  In5  1  -0.00875508  0.64193091  0.66673967  1
  In3+  In6  1  0.15897594  0.16852396  0.32890574  1
  In3+  In7  1  0.33850516  0.49423172  0.83112212  1
  In3+  In8  1  0.51262815  0.67334000  0.82965155  1
  In3+  In9  1  0.35422492  0.34010588  0.32830602  1
  In3+  In10  1  0.66807750  -0.00812023  -0.00988749  1
  In3+  In11  1  0.15855082  0.33170076  0.82843277  1
  In3+  In12  1  0.67963142  0.32880600  0.33336578  1
  In3+  In13  1  0.51878251  -0.01491063  0.50464255  1
  In3+  In14  1  0.66494280  -0.01985263  0.32062306  1
  In3+  In15  1  0.67452777  0.16894916  0.49946132  1
  In3+  In16  1  -0.00722980  0.83600886  0.48780848  1
  In3+  In17  1  0.16335641  0.32397035  0.18511999  1
  In3+  In18  1  0.34849899  0.16528368  0.48195181  1
  In3+  In19  1  0.65945524  0.84998174  0.17072372  1
  In3+  In20  1  0.66814736  0.66194044  0.01139748  1
  In3+  In21  1  -0.01800212  0.83630741  0.81045729  1
  Ag+  Ag22  1  0.34000635  0.15009400  0.18619250  1
  Ag+  Ag23  1  0.49718691  -0.02283379  0.14455767  1
  Ag+  Ag24  1  0.47738993  0.85981171  0.33134146  1
  Ag+  Ag25  1  0.64474251  0.49607519  0.16810880  1
  Ag+  Ag26  1  0.82200099  -0.01203149  0.47739815  1
  Ag+  Ag27  1  0.18313374  0.86288643  0.33266191  1
  Ag+  Ag28  1  0.36219183  0.85649174  0.19069134  1
  Ag+  Ag29  1  -0.02648476  0.34605464  0.69143897  1
  Ag+  Ag30  1  0.52318374  0.33328197  0.52414630  1
  Ag+  Ag31  1  0.82847137  0.01594154  0.83537637  1
  Ag+  Ag32  1  0.33666469  0.80885474  0.86260624  1
  Ag+  Ag33  1  0.52327420  0.33491085  0.17418857  1
  Ag+  Ag34  1  0.81358427  0.49686014  0.67706225  1
  Ag+  Ag35  1  0.81813474  0.66351839  0.83142885  1
  Ag+  Ag36  1  0.51887004  0.49850711  0.69367737  1
  Ag+  Ag37  1  0.68694677  0.31470327  0.69307066  1
  Ag+  Ag38  1  0.84158658  0.36540473  0.80412563  1
  Ag+  Ag39  1  0.82042800  0.83831433  0.32330400  1
  Ag+  Ag40  1  -0.02799405  0.47160550  0.52153093  1
  Ag+  Ag41  1  0.02413146  -0.01139381  0.34578070  1
  Ag+  Ag42  1  -0.01241763  0.31852031  0.33289897  1
  Sn2+  Sn43  1  0.67499816  0.17113765  0.83354963  1
  Sn2+  Sn44  1  0.17082644  0.67636113  0.17107983  1
  Sn2+  Sn45  1  -0.00141948  0.50537238  0.83043616  1
  Sn2+  Sn46  1  0.33086033  -0.00127310  0.67119682  1
  Sn2+  Sn47  1  0.32958745  0.66943661  0.67513759  1
  Sn2+  Sn48  1  0.17660740  -0.00389257  0.16795737  1
  Sn2+  Sn49  1  -0.00510553  0.15750638  0.83500504  1
  Sn2+  Sn50  1  0.83826408  0.67192243  0.50218107  1
  Sn2+  Sn51  1  0.82929560  0.16617451  0.00151560  1
  Sn2+  Sn52  1  -0.00537063  0.66324281  -0.00653756  1
  Sn2+  Sn53  1  0.33702396  0.50262159  0.16388498  1
  Sn2+  Sn54  1  0.50232643  0.49957078  0.33441034  1
  Sn2+  Sn55  1  0.33315726  0.66656793  0.33183123  1
  Sn2+  Sn56  1  0.64736539  0.17846877  0.16639068  1
  Sn2+  Sn57  1  0.33985031  0.33506501  0.65902488  1
  Sn2+  Sn58  1  0.00090970  0.16216466  0.17111562  1
  Sn2+  Sn59  1  0.16496866  0.83492516  0.66243225  1
  Sn2+  Sn60  1  0.83316591  0.82472451  0.66209475  1
  Sn2+  Sn61  1  0.16148197  -0.01282862  0.83336104  1
  Sn2+  Sn62  1  0.67951921  0.00763263  0.66700752  1
  Sn2+  Sn63  1  0.83014491  0.49510452  -0.00830497  1
  Sn2+  Sn64  1  0.16253292  0.49104993  0.33423173  1
  Bi3+  Bi65  1  0.17083751  0.49954408  0.67081115  1
  Bi3+  Bi66  1  0.16763393  0.66756663  0.83213407  1
  Bi3+  Bi67  1  -0.00031818  0.67493848  0.33646830  1
  Bi3+  Bi68  1  0.16554837  0.16691911  0.66664021  1
  Bi3+  Bi69  1  0.16404152  0.33560517  0.50406016  1
  Bi3+  Bi70  1  0.66881967  0.33256608  0.00223700  1
  Bi3+  Bi71  1  0.66931694  0.66439836  0.66358154  1
  Bi3+  Bi72  1  0.00044354  0.16992075  0.49852231  1
  Bi3+  Bi73  1  0.66454719  0.49741256  0.49466419  1
  Bi3+  Bi74  1  0.49794284  0.17420801  0.00092778  1
  Bi3+  Bi75  1  0.66823416  0.65869853  0.32972662  1
  Bi3+  Bi76  1  0.16528144  0.66906817  0.49791970  1
  Bi3+  Bi77  1  0.16461845  0.17254894  0.00001706  1
  Bi3+  Bi78  1  0.83414884  0.33353364  0.49955106  1
  Bi3+  Bi79  1  0.83691473  0.66533670  0.16469872  1
  Bi3+  Bi80  1  0.32959245  0.83767833  0.49675623  1
  Bi3+  Bi81  1  0.00496007  0.49808041  0.16887312  1
  Bi3+  Bi82  1  0.33450153  0.49496509  0.49938119  1
  Bi3+  Bi83  1  -0.00461945  0.00129026  0.00302042  1
  Bi3+  Bi84  1  0.00076661  0.83441748  0.17043105  1
  Bi3+  Bi85  1  0.33212273  0.17122640  0.83231643  1
  Te2-  Te86  1  0.17508367  0.17011676  0.16249537  1
  Te2-  Te87  1  0.16582093  0.16979701  0.50259996  1
  Te2-  Te88  1  0.16464713  0.16789294  0.83356119  1
  Te2-  Te89  1  0.16597227  0.50136002  0.16227354  1
  Te2-  Te90  1  0.16962961  0.50200737  0.50449808  1
  Te2-  Te91  1  0.16583981  0.49986765  0.83274275  1
  Te2-  Te92  1  0.16357745  0.83682083  0.18109681  1
  Te2-  Te93  1  0.16704259  0.83305985  0.48749557  1
  Te2-  Te94  1  0.18563214  0.83018157  0.83274934  1
  Te2-  Te95  1  0.48729994  0.18468367  0.16014148  1
  Te2-  Te96  1  0.49712965  0.18633092  0.49603019  1
  Te2-  Te97  1  0.49962356  0.16686934  0.83464951  1
  Te2-  Te98  1  0.49640199  0.48946646  0.16180089  1
  Te2-  Te99  1  0.49787129  0.48426512  0.49611925  1
  Te2-  Te100  1  0.49444559  0.50702795  0.83879587  1
  Te2-  Te101  1  0.50545076  0.83144906  0.17975015  1
  Te2-  Te102  1  0.49536659  0.83234250  0.48654202  1
  Te2-  Te103  1  0.48738420  0.82718866  0.83303397  1
  Te2-  Te104  1  0.82918401  0.16442829  0.16305893  1
  Te2-  Te105  1  0.83454734  0.16687657  0.50229676  1
  Te2-  Te106  1  0.83343968  0.16492701  0.83767865  1
  Te2-  Te107  1  0.84379838  0.50338410  0.16190415  1
  Te2-  Te108  1  0.82935629  0.49992257  0.50409378  1
  Te2-  Te109  1  0.84096457  0.51067027  0.82696508  1
  Te2-  Te110  1  0.83229717  0.82766664  0.17219787  1
  Te2-  Te111  1  0.83888486  0.84195137  0.50217891  1
  Te2-  Te112  1  0.83516819  0.81378456  0.83101179  1
  Te2-  Te113  1  0.16264790  0.00632567  0.00153604  1
  Te2-  Te114  1  0.16925411  0.01054403  0.33046406  1
  Te2-  Te115  1  0.15979264  0.00336507  0.67123930  1
  Te2-  Te116  1  0.15822624  0.33614320  -0.00887803  1
  Te2-  Te117  1  0.15266287  0.32671406  0.34032517  1
  Te2-  Te118  1  0.16622546  0.33273367  0.66844027  1
  Te2-  Te119  1  0.16504322  0.65897376  -0.00260340  1
  Te2-  Te120  1  0.16311181  0.66184849  0.33637057  1
  Te2-  Te121  1  0.15893405  0.66690351  0.66440602  1
  Te2-  Te122  1  0.50932410  0.00443019  -0.00076205  1
  Te2-  Te123  1  0.51249333  0.00191957  0.35011161  1
  Te2-  Te124  1  0.50560502  0.00104285  0.65795782  1
  Te2-  Te125  1  0.50162155  0.33958124  0.00161014  1
  Te2-  Te126  1  0.50376143  0.33790887  0.32203097  1
  Te2-  Te127  1  0.49564650  0.34827908  0.66864122  1
  Te2-  Te128  1  0.50278981  0.65935536  -0.00740368  1
  Te2-  Te129  1  0.50359642  0.66016007  0.33137422  1
  Te2-  Te130  1  0.50267316  0.65693085  0.67189093  1
  Te2-  Te131  1  0.82928472  -0.00149388  -0.00979631  1
  Te2-  Te132  1  0.81530475  -0.00983328  0.33064113  1
  Te2-  Te133  1  0.83565507  -0.00362150  0.68460333  1
  Te2-  Te134  1  0.83571098  0.33379926  -0.00530073  1
  Te2-  Te135  1  0.83765087  0.33295637  0.33457440  1
  Te2-  Te136  1  0.82941607  0.34421135  0.65999209  1
  Te2-  Te137  1  0.83243040  0.65938432  -0.00192226  1
  Te2-  Te138  1  0.83397054  0.67798558  0.33301288  1
  Te2-  Te139  1  0.83625374  0.65641727  0.66728495  1
  Te2-  Te140  1  0.00148319  0.16862579  0.00378487  1
  Te2-  Te141  1  0.00421574  0.15370153  0.33240702  1
  Te2-  Te142  1  0.00294510  0.16291160  0.66516518  1
  Te2-  Te143  1  0.00446244  0.49429553  0.00185694  1
  Te2-  Te144  1  0.00312506  0.51337593  0.33185000  1
  Te2-  Te145  1  0.00828948  0.48848449  0.66346296  1
  Te2-  Te146  1  0.00355722  0.83478856  0.00579033  1
  Te2-  Te147  1  -0.00344886  0.83995379  0.33398797  1
  Te2-  Te148  1  0.00241813  0.84618192  0.66043125  1
  Te2-  Te149  1  0.33002219  0.17153975  -0.00486267  1
  Te2-  Te150  1  0.32632689  0.17640801  0.32925458  1
  Te2-  Te151  1  0.32763930  0.16795959  0.66971526  1
  Te2-  Te152  1  0.33138049  0.50662297  -0.00778745  1
  Te2-  Te153  1  0.32989922  0.49769735  0.33739442  1
  Te2-  Te154  1  0.33206060  0.50230408  0.66523600  1
  Te2-  Te155  1  0.33342842  0.82525433  0.00943250  1
  Te2-  Te156  1  0.33061081  0.82753394  0.33266205  1
  Te2-  Te157  1  0.33128827  0.83644432  0.65806855  1
  Te2-  Te158  1  0.66184514  0.16962956  0.00105236  1
  Te2-  Te159  1  0.66791452  0.17416601  0.33674106  1
  Te2-  Te160  1  0.66418866  0.17294519  0.66114885  1
  Te2-  Te161  1  0.66226168  0.49646867  0.00530520  1
  Te2-  Te162  1  0.66849296  0.49666016  0.32764730  1
  Te2-  Te163  1  0.66350874  0.50399245  0.65998598  1
  Te2-  Te164  1  0.66635050  0.83168249  0.00906535  1
  Te2-  Te165  1  0.67049061  0.82480141  0.32821320  1
  Te2-  Te166  1  0.66640929  0.82977272  0.66564031  1
  Te2-  Te167  1  -0.00003334  -0.00069684  0.16429536  1
  Te2-  Te168  1  -0.01037397  0.00447336  0.49055690  1
  Te2-  Te169  1  -0.00598931  -0.01062791  0.84249158  1
  Te2-  Te170  1  0.00931652  0.33312243  0.18234251  1
  Te2-  Te171  1  0.00011712  0.33165518  0.48491729  1
  Te2-  Te172  1  -0.00809817  0.33094432  0.83485468  1
  Te2-  Te173  1  0.00180588  0.66778950  0.16492295  1
  Te2-  Te174  1  0.00173578  0.67449402  0.50326176  1
  Te2-  Te175  1  0.00859810  0.67860540  0.82628888  1
  Te2-  Te176  1  0.34565117  0.00242852  0.16725643  1
  Te2-  Te177  1  0.33467630  0.00427935  0.50248657  1
  Te2-  Te178  1  0.33193028  0.00776934  0.83088131  1
  Te2-  Te179  1  0.31576265  0.34166421  0.17563511  1
  Te2-  Te180  1  0.32556857  0.33133637  0.48974267  1
  Te2-  Te181  1  0.32776534  0.33721858  0.83343141  1
  Te2-  Te182  1  0.33183031  0.66308129  0.15973501  1
  Te2-  Te183  1  0.33012379  0.66604271  0.50235594  1
  Te2-  Te184  1  0.32963666  0.66171317  0.83569080  1
  Te2-  Te185  1  0.64912979  0.00553840  0.16918375  1
  Te2-  Te186  1  0.67543049  0.00900345  0.50596954  1
  Te2-  Te187  1  0.67502192  0.00004622  0.83566734  1
  Te2-  Te188  1  0.67195038  0.34300153  0.16584639  1
  Te2-  Te189  1  0.66919684  0.33304729  0.49155402  1
  Te2-  Te190  1  0.67878619  0.33266633  0.83773683  1
  Te2-  Te191  1  0.67246666  0.64861159  0.16666313  1
  Te2-  Te192  1  0.66895900  0.66420964  0.49714373  1
  Te2-  Te193  1  0.66851529  0.66501288  0.83032747  1
  Pb2+  Pb194  1  0.49879737  0.83035291  0.00542646  1
  Pb2+  Pb195  1  0.83697899  0.50551288  0.33648639  1
  Pb2+  Pb196  1  0.50106575  0.16920329  0.32726411  1
  Pb2+  Pb197  1  0.84162151  0.33345543  0.16120451  1
  Pb2+  Pb198  1  0.50323611  0.33490842  0.83237066  1
  Pb2+  Pb199  1  0.83703633  0.82949373  0.00122016  1
  Pb2+  Pb200  1  0.16300669  0.00056443  0.50346246  1
  Pb2+  Pb201  1  0.50053977  -0.00195700  0.82819229  1
  Pb2+  Pb202  1  0.66628621  0.83255980  0.83493105  1
  Pb2+  Pb203  1  0.49607818  0.17601715  0.66022366  1
  Pb2+  Pb204  1  0.83366725  0.17206006  0.67029765  1
  Pb2+  Pb205  1  0.66964293  0.49781169  0.83157291  1
  Pb2+  Pb206  1  0.33426042  -0.00062245  0.00049503  1
  Pb2+  Pb207  1  0.34005339  0.00125609  0.33376506  1
  Pb2+  Pb208  1  0.32885185  0.33937629  0.00816494  1
  Pb2+  Pb209  1  0.50202096  0.66094608  0.16426582  1
  Pb2+  Pb210  1  0.49781482  0.82824377  0.66096992  1
  Pb2+  Pb211  1  0.82777303  -0.00352664  0.16374983  1
  Pb2+  Pb212  1  0.16848553  0.83137680  0.00457407  1
  Pb2+  Pb213  1  0.83526610  0.15927269  0.33270410  1
  Pb2+  Pb214  1  0.67095206  0.83652216  0.49765802  1
  Pb2+  Pb215  1  0.49892179  0.65367760  0.49962017  1
