# generated using pymatgen
data_In22Ag21Sn22Bi21(Te54Pb11)2
_symmetry_space_group_name_H-M   'P 1'
_cell_length_a   19.12770413
_cell_length_b   19.16214665
_cell_length_c   19.15761197
_cell_angle_alpha   90.00282989
_cell_angle_beta   90.00628259
_cell_angle_gamma   89.99914747
_symmetry_Int_Tables_number   1
_chemical_formula_structural   In22Ag21Sn22Bi21(Te54Pb11)2
_chemical_formula_sum   'In22 Ag21 Sn22 Bi21 Te108 Pb22'
_cell_volume   7021.79868820
_cell_formula_units_Z   1
loop_
 _symmetry_equiv_pos_site_id
 _symmetry_equiv_pos_as_xyz
  1  'x, y, z'
loop_
 _atom_type_symbol
 _atom_type_oxidation_number
  In3+  3.0
  Ag+  1.0
  Sn2+  2.0
  Bi3+  3.0
  Te2-  -2.0
  Pb2+  2.0
loop_
 _atom_site_type_symbol
 _atom_site_label
 _atom_site_symmetry_multiplicity
 _atom_site_fract_x
 _atom_site_fract_y
 _atom_site_fract_z
 _atom_site_occupancy
  In3+  In0  1  0.51110073  0.17264403  0.34154134  1
  In3+  In1  1  0.68418121  0.85438104  0.82649038  1
  In3+  In2  1  0.49839341  0.15663869  -0.01706064  1
  In3+  In3  1  -0.00240527  0.32029705  0.34304692  1
  In3+  In4  1  0.83476388  0.31362249  0.51346951  1
  In3+  In5  1  0.48895029  0.00111738  0.81973320  1
  In3+  In6  1  0.13788065  0.33598020  0.84539761  1
  In3+  In7  1  0.67091617  0.50545202  0.48574961  1
  In3+  In8  1  0.32339842  0.83196689  0.16778703  1
  In3+  In9  1  0.86144236  0.49846688  0.34124248  1
  In3+  In10  1  0.67507408  0.66881725  0.34511182  1
  In3+  In11  1  0.67406120  0.83580371  0.14563580  1
  In3+  In12  1  0.52053283  0.33436681  0.83680208  1
  In3+  In13  1  0.66569224  0.52341823  0.17187620  1
  In3+  In14  1  0.32486178  0.49312924  0.83692610  1
  In3+  In15  1  0.15337010  -0.01393559  0.83219082  1
  In3+  In16  1  0.31774836  0.66188507  0.33474418  1
  In3+  In17  1  0.66485838  0.67422456  0.68624045  1
  In3+  In18  1  0.02027557  0.66956979  -0.00555218  1
  In3+  In19  1  0.83934639  0.66521224  0.81802737  1
  In3+  In20  1  0.49567843  0.67298650  0.49177113  1
  In3+  In21  1  0.32458922  0.50084244  0.49908031  1
  Ag+  Ag22  1  0.54625903  0.14278080  0.69160105  1
  Ag+  Ag23  1  0.66721172  0.02487762  -0.02206738  1
  Ag+  Ag24  1  0.00457591  0.30850797  0.00867256  1
  Ag+  Ag25  1  0.83348295  0.85715385  0.68641168  1
  Ag+  Ag26  1  0.01602849  0.80796280  0.85235514  1
  Ag+  Ag27  1  0.01935153  0.14982882  0.85732690  1
  Ag+  Ag28  1  0.80984249  0.85062769  0.33143018  1
  Ag+  Ag29  1  0.81058392  0.14230201  0.34675403  1
  Ag+  Ag30  1  0.18899022  0.68869573  0.85975819  1
  Ag+  Ag31  1  0.33349653  0.14145886  0.51656146  1
  Ag+  Ag32  1  0.65405985  0.03680546  0.68601219  1
  Ag+  Ag33  1  0.16445495  0.85581741  -0.01844052  1
  Ag+  Ag34  1  0.14463194  0.49602017  -0.00328144  1
  Ag+  Ag35  1  0.84362398  0.15331306  0.69579907  1
  Ag+  Ag36  1  0.34966423  0.02615906  0.33961795  1
  Ag+  Ag37  1  -0.02630714  0.19007385  0.50486395  1
  Ag+  Ag38  1  0.16160501  0.64529088  0.14943698  1
  Ag+  Ag39  1  0.83237370  0.30741569  0.85864719  1
  Ag+  Ag40  1  0.69227326  0.15708850  0.80818508  1
  Ag+  Ag41  1  0.83739499  0.67148122  0.51588093  1
  Ag+  Ag42  1  0.16464761  0.52311864  0.30486535  1
  Sn2+  Sn43  1  0.33637093  0.01186620  0.65973073  1
  Sn2+  Sn44  1  0.67851685  0.32633954  -0.00137707  1
  Sn2+  Sn45  1  0.15622247  0.66623550  0.50237093  1
  Sn2+  Sn46  1  -0.00694033  0.67115681  0.33026234  1
  Sn2+  Sn47  1  0.67414371  0.33877081  0.32658449  1
  Sn2+  Sn48  1  -0.00041740  0.50073581  0.49786419  1
  Sn2+  Sn49  1  0.68152796  0.82732533  0.50500346  1
  Sn2+  Sn50  1  0.84351371  0.66684515  0.16458949  1
  Sn2+  Sn51  1  0.48719396  0.66709661  0.17069266  1
  Sn2+  Sn52  1  0.33164990  0.50161667  0.16146797  1
  Sn2+  Sn53  1  0.33781823  0.83369104  0.49564769  1
  Sn2+  Sn54  1  0.66857288  -0.01258173  0.33849500  1
  Sn2+  Sn55  1  0.32585580  0.67072514  0.00101512  1
  Sn2+  Sn56  1  0.33589118  0.67765060  0.66821251  1
  Sn2+  Sn57  1  0.15279086  0.16800669  0.66160155  1
  Sn2+  Sn58  1  0.82946811  0.16368742  -0.00022238  1
  Sn2+  Sn59  1  0.16499649  0.00695854  0.50285469  1
  Sn2+  Sn60  1  0.32721133  0.33213020  0.33153084  1
  Sn2+  Sn61  1  -0.00150386  0.32225668  0.68345300  1
  Sn2+  Sn62  1  0.50322536  0.83659296  0.33099142  1
  Sn2+  Sn63  1  0.49216980  0.83841747  0.00076631  1
  Sn2+  Sn64  1  0.33471113  0.16222639  0.17520344  1
  Bi3+  Bi65  1  0.50185680  0.49576953  0.66495546  1
  Bi3+  Bi66  1  0.50146344  0.33408020  0.50237811  1
  Bi3+  Bi67  1  0.17028375  -0.00214743  0.16735032  1
  Bi3+  Bi68  1  0.17098173  0.83198379  0.33611079  1
  Bi3+  Bi69  1  0.33327525  0.33584865  0.66324756  1
  Bi3+  Bi70  1  0.16800699  0.33699454  0.16516272  1
  Bi3+  Bi71  1  0.16871664  0.49909985  0.66919725  1
  Bi3+  Bi72  1  0.83307477  0.50100869  0.65729716  1
  Bi3+  Bi73  1  0.66568461  0.16363802  0.16508375  1
  Bi3+  Bi74  1  0.66607244  0.33916354  0.66346974  1
  Bi3+  Bi75  1  0.66196400  0.66515465  0.00161883  1
  Bi3+  Bi76  1  -0.00327847  0.82942761  0.50066072  1
  Bi3+  Bi77  1  0.83353799  0.00066448  0.83065941  1
  Bi3+  Bi78  1  -0.00193076  0.49922158  0.82828820  1
  Bi3+  Bi79  1  -0.00401338  0.00209625  0.66191120  1
  Bi3+  Bi80  1  0.49998568  -0.00044527  0.49788918  1
  Bi3+  Bi81  1  0.50025873  -0.00406543  0.16904038  1
  Bi3+  Bi82  1  0.50220364  0.50009908  -0.00206752  1
  Bi3+  Bi83  1  0.83451071  0.33559841  0.16577653  1
  Bi3+  Bi84  1  0.16654778  0.16414205  0.33455306  1
  Bi3+  Bi85  1  0.00628522  0.00043241  0.33324093  1
  Te2-  Te86  1  0.16938442  0.16624498  0.16700473  1
  Te2-  Te87  1  0.18111643  0.16411039  0.49726071  1
  Te2-  Te88  1  0.15951310  0.18318383  0.82966801  1
  Te2-  Te89  1  0.17212972  0.49797542  0.15907611  1
  Te2-  Te90  1  0.16841519  0.50076207  0.50581072  1
  Te2-  Te91  1  0.16560912  0.49168086  0.83277628  1
  Te2-  Te92  1  0.17107521  0.83646928  0.17116242  1
  Te2-  Te93  1  0.16685144  0.83374218  0.49890144  1
  Te2-  Te94  1  0.16047481  0.83114987  0.83450287  1
  Te2-  Te95  1  0.49981511  0.16153305  0.17964697  1
  Te2-  Te96  1  0.48586916  0.16697900  0.49469035  1
  Te2-  Te97  1  0.49889999  0.15858087  0.82887901  1
  Te2-  Te98  1  0.50137750  0.49990932  0.16328420  1
  Te2-  Te99  1  0.50314360  0.50057717  0.50312730  1
  Te2-  Te100  1  0.49861744  0.49754532  0.83076524  1
  Te2-  Te101  1  0.50020837  0.83437321  0.16353822  1
  Te2-  Te102  1  0.50510571  0.83113459  0.50093052  1
  Te2-  Te103  1  0.50073577  0.84276095  0.83500347  1
  Te2-  Te104  1  0.82865667  0.17194169  0.16896213  1
  Te2-  Te105  1  0.82861979  0.16698162  0.48937865  1
  Te2-  Te106  1  0.83772995  0.16173020  0.84249208  1
  Te2-  Te107  1  0.82409904  0.49770678  0.17133142  1
  Te2-  Te108  1  0.82901778  0.51299864  0.49301888  1
  Te2-  Te109  1  0.83420588  0.50644387  0.82306112  1
  Te2-  Te110  1  0.82571545  0.83189423  0.17962726  1
  Te2-  Te111  1  0.83498131  0.81964554  0.47981139  1
  Te2-  Te112  1  0.83602619  0.83110504  0.83300153  1
  Te2-  Te113  1  0.16926068  0.00206487  -0.00099374  1
  Te2-  Te114  1  0.16987923  -0.00202265  0.33147172  1
  Te2-  Te115  1  0.16626587  0.00311016  0.67400508  1
  Te2-  Te116  1  0.15698421  0.34291033  -0.00062784  1
  Te2-  Te117  1  0.15845356  0.32903873  0.32779535  1
  Te2-  Te118  1  0.16894951  0.33712925  0.66559183  1
  Te2-  Te119  1  0.17084299  0.64910527  -0.00101246  1
  Te2-  Te120  1  0.16420440  0.66791875  0.34005164  1
  Te2-  Te121  1  0.16676534  0.66149025  0.66318074  1
  Te2-  Te122  1  0.51413260  0.00284064  0.00576375  1
  Te2-  Te123  1  0.49491892  0.00080869  0.33491981  1
  Te2-  Te124  1  0.50734715  0.00260333  0.66300006  1
  Te2-  Te125  1  0.50365604  0.33487341  -0.00754392  1
  Te2-  Te126  1  0.49949709  0.33167810  0.33850714  1
  Te2-  Te127  1  0.49983805  0.33322792  0.66555565  1
  Te2-  Te128  1  0.49705055  0.66619102  0.00195034  1
  Te2-  Te129  1  0.50886983  0.66653118  0.33794572  1
  Te2-  Te130  1  0.50667302  0.66143155  0.66217644  1
  Te2-  Te131  1  0.81893207  -0.00285542  -0.00418460  1
  Te2-  Te132  1  0.84090991  -0.00143023  0.33256646  1
  Te2-  Te133  1  0.83171812  0.00464743  0.66784581  1
  Te2-  Te134  1  0.83990100  0.33370137  0.00383345  1
  Te2-  Te135  1  0.84210730  0.34422842  0.32802313  1
  Te2-  Te136  1  0.83147902  0.34109189  0.66102348  1
  Te2-  Te137  1  0.82503195  0.66780749  0.00715601  1
  Te2-  Te138  1  0.82721859  0.64847877  0.32122842  1
  Te2-  Te139  1  0.82206744  0.66347492  0.66325579  1
  Te2-  Te140  1  -0.00283922  0.16281466  0.00194455  1
  Te2-  Te141  1  0.00386944  0.16531922  0.34728314  1
  Te2-  Te142  1  -0.01096072  0.16569828  0.65356309  1
  Te2-  Te143  1  -0.00133229  0.51510035  -0.00724043  1
  Te2-  Te144  1  0.01448382  0.50222425  0.33413857  1
  Te2-  Te145  1  -0.00029438  0.49668798  0.66506463  1
  Te2-  Te146  1  0.01251322  0.82506245  -0.00201388  1
  Te2-  Te147  1  0.00733614  0.83586782  0.33620014  1
  Te2-  Te148  1  -0.01463623  0.83773548  0.66237523  1
  Te2-  Te149  1  0.34308342  0.16627325  0.00098520  1
  Te2-  Te150  1  0.32844699  0.17152992  0.33222601  1
  Te2-  Te151  1  0.32801446  0.17022097  0.66049177  1
  Te2-  Te152  1  0.34238502  0.50182470  -0.00643702  1
  Te2-  Te153  1  0.31704117  0.50430568  0.33610101  1
  Te2-  Te154  1  0.33587956  0.50219826  0.66398924  1
  Te2-  Te155  1  0.32051319  0.82954238  0.00617846  1
  Te2-  Te156  1  0.33371621  0.81831015  0.33050615  1
  Te2-  Te157  1  0.33382774  0.83666519  0.66498119  1
  Te2-  Te158  1  0.65599828  0.16943875  0.00393258  1
  Te2-  Te159  1  0.66589896  0.16545734  0.32912968  1
  Te2-  Te160  1  0.68719459  0.17936345  0.66351723  1
  Te2-  Te161  1  0.66370495  0.49782652  0.00457100  1
  Te2-  Te162  1  0.65813080  0.50165279  0.32856904  1
  Te2-  Te163  1  0.66650970  0.50210336  0.66414778  1
  Te2-  Te164  1  0.66235975  0.82809598  -0.00621173  1
  Te2-  Te165  1  0.66465117  0.82509895  0.33686574  1
  Te2-  Te166  1  0.68162737  0.82758184  0.67268349  1
  Te2-  Te167  1  0.00461609  0.00048443  0.16697128  1
  Te2-  Te168  1  0.00315689  -0.00479163  0.49859003  1
  Te2-  Te169  1  0.00092087  0.00631539  0.82724703  1
  Te2-  Te170  1  0.00233710  0.33618558  0.15573476  1
  Te2-  Te171  1  -0.00703599  0.33628209  0.49794679  1
  Te2-  Te172  1  -0.01626548  0.33663865  0.83935087  1
  Te2-  Te173  1  0.01335079  0.66526572  0.16523787  1
  Te2-  Te174  1  -0.01144662  0.66713531  0.49631433  1
  Te2-  Te175  1  -0.00462534  0.66368468  0.83546569  1
  Te2-  Te176  1  0.33495157  -0.00606160  0.17762105  1
  Te2-  Te177  1  0.33718858  -0.00557416  0.49135551  1
  Te2-  Te178  1  0.33581346  0.00118667  0.83262077  1
  Te2-  Te179  1  0.33126571  0.33353745  0.16494367  1
  Te2-  Te180  1  0.33804379  0.34276025  0.49897482  1
  Te2-  Te181  1  0.33969825  0.33896002  0.82541455  1
  Te2-  Te182  1  0.32770603  0.66590821  0.17441849  1
  Te2-  Te183  1  0.33950102  0.66400474  0.49803446  1
  Te2-  Te184  1  0.32919127  0.66141689  0.82774234  1
  Te2-  Te185  1  0.66194254  -0.00401859  0.17363127  1
  Te2-  Te186  1  0.66143557  -0.00268205  0.49728127  1
  Te2-  Te187  1  0.66787911  0.00613920  0.82956584  1
  Te2-  Te188  1  0.66783724  0.32759906  0.16639773  1
  Te2-  Te189  1  0.66716270  0.34096421  0.49539618  1
  Te2-  Te190  1  0.67656599  0.32024623  0.82870940  1
  Te2-  Te191  1  0.66103655  0.67570177  0.16393152  1
  Te2-  Te192  1  0.66642461  0.66042882  0.49550079  1
  Te2-  Te193  1  0.66678581  0.66482918  0.83864281  1
  Pb2+  Pb194  1  0.83202217  -0.00870560  0.50112048  1
  Pb2+  Pb195  1  0.16783184  0.16994909  -0.00364690  1
  Pb2+  Pb196  1  0.15726881  0.83242171  0.66535428  1
  Pb2+  Pb197  1  0.16537644  0.33051799  0.49681876  1
  Pb2+  Pb198  1  0.48554809  0.50268674  0.33531394  1
  Pb2+  Pb199  1  -0.00482834  -0.00467244  -0.00505371  1
  Pb2+  Pb200  1  -0.00296686  0.66838706  0.66576169  1
  Pb2+  Pb201  1  0.32739725  0.17064719  0.82515036  1
  Pb2+  Pb202  1  0.49976820  0.32967411  0.16477633  1
  Pb2+  Pb203  1  0.34208190  -0.00295854  0.00566538  1
  Pb2+  Pb204  1  0.49595363  0.66937658  0.83473778  1
  Pb2+  Pb205  1  0.82982694  0.00299413  0.16475910  1
  Pb2+  Pb206  1  0.66741158  0.49160828  0.83254904  1
  Pb2+  Pb207  1  0.83578420  0.83071060  0.00306418  1
  Pb2+  Pb208  1  -0.00213901  0.17123123  0.17628464  1
  Pb2+  Pb209  1  0.50840810  0.83331853  0.66651815  1
  Pb2+  Pb210  1  0.83371891  0.50161872  -0.00255542  1
  Pb2+  Pb211  1  0.32968467  0.33539546  -0.00700002  1
  Pb2+  Pb212  1  -0.00301504  0.50075949  0.16410381  1
  Pb2+  Pb213  1  0.00029953  0.82955447  0.16691703  1
  Pb2+  Pb214  1  0.65771792  0.16784196  0.50166850  1
  Pb2+  Pb215  1  0.33250698  0.83267924  0.83470705  1
