# generated using pymatgen
data_In22Ag21Sn22Bi21(Te54Pb11)2
_symmetry_space_group_name_H-M   'P 1'
_cell_length_a   19.11105331
_cell_length_b   19.10985564
_cell_length_c   19.10005876
_cell_angle_alpha   89.98840618
_cell_angle_beta   89.98483811
_cell_angle_gamma   90.00703391
_symmetry_Int_Tables_number   1
_chemical_formula_structural   In22Ag21Sn22Bi21(Te54Pb11)2
_chemical_formula_sum   'In22 Ag21 Sn22 Bi21 Te108 Pb22'
_cell_volume   6975.52189353
_cell_formula_units_Z   1
loop_
 _symmetry_equiv_pos_site_id
 _symmetry_equiv_pos_as_xyz
  1  'x, y, z'
loop_
 _atom_type_symbol
 _atom_type_oxidation_number
  In3+  3.0
  Ag+  1.0
  Sn2+  2.0
  Bi3+  3.0
  Te2-  -2.0
  Pb2+  2.0
loop_
 _atom_site_type_symbol
 _atom_site_label
 _atom_site_symmetry_multiplicity
 _atom_site_fract_x
 _atom_site_fract_y
 _atom_site_fract_z
 _atom_site_occupancy
  In3+  In0  1  0.82333412  0.65609074  0.49938990  1
  In3+  In1  1  0.81866138  0.00145340  0.49963036  1
  In3+  In2  1  0.35815380  0.83247085  0.50122220  1
  In3+  In3  1  0.50978612  0.67136084  0.50651963  1
  In3+  In4  1  0.16957116  0.48248744  -0.00342967  1
  In3+  In5  1  0.68141352  0.83573469  0.83239318  1
  In3+  In6  1  0.64742341  0.48728973  0.83342279  1
  In3+  In7  1  0.82835686  0.00048592  0.85246825  1
  In3+  In8  1  0.34486956  0.49735882  0.51008380  1
  In3+  In9  1  0.16547015  0.17413879  -0.01017502  1
  In3+  In10  1  0.33750785  0.49686929  0.13982536  1
  In3+  In11  1  0.66027426  0.00476492  0.65756886  1
  In3+  In12  1  0.00283323  0.16225537  0.15672643  1
  In3+  In13  1  -0.01361178  0.32991989  0.65866313  1
  In3+  In14  1  0.16132594  0.66381786  0.84435809  1
  In3+  In15  1  0.51261664  0.83532716  0.66712150  1
  In3+  In16  1  0.14620746  0.83606534  0.33239004  1
  In3+  In17  1  0.16833268  0.15119011  0.32916708  1
  In3+  In18  1  -0.01066087  0.66263580  0.33206767  1
  In3+  In19  1  0.34696525  0.16806295  0.82716072  1
  In3+  In20  1  0.00114494  0.48696155  0.84215452  1
  In3+  In21  1  0.33530163  0.81849891  0.83810472  1
  Ag+  Ag22  1  -0.00449469  0.18716988  0.85433255  1
  Ag+  Ag23  1  0.66651295  0.64917480  0.67613683  1
  Ag+  Ag24  1  0.16981272  0.01770045  0.14448397  1
  Ag+  Ag25  1  0.68528000  0.36241576  0.00331306  1
  Ag+  Ag26  1  -0.00297160  0.52753786  0.52981236  1
  Ag+  Ag27  1  0.66595155  0.00102365  0.35419634  1
  Ag+  Ag28  1  0.52522445  0.19265967  0.66549221  1
  Ag+  Ag29  1  0.33276225  0.33249729  -0.01758822  1
  Ag+  Ag30  1  0.81739700  0.82967726  0.35505932  1
  Ag+  Ag31  1  0.65249341  -0.00921683  -0.00054593  1
  Ag+  Ag32  1  0.80450059  0.35938441  0.49789283  1
  Ag+  Ag33  1  0.34512938  0.51789422  0.83637307  1
  Ag+  Ag34  1  0.51641243  -0.01555375  0.49826737  1
  Ag+  Ag35  1  0.33443217  0.35923516  0.68931305  1
  Ag+  Ag36  1  0.34035067  0.63952620  -0.02144336  1
  Ag+  Ag37  1  0.52637566  0.46864397  0.00130774  1
  Ag+  Ag38  1  -0.01982681  0.33245383  0.01403823  1
  Ag+  Ag39  1  0.67293213  0.81480977  0.48345672  1
  Ag+  Ag40  1  0.80713944  0.83639113  0.01690551  1
  Ag+  Ag41  1  0.80794974  0.66951502  0.14087483  1
  Ag+  Ag42  1  0.64307545  0.14401715  0.47921683  1
  Sn2+  Sn43  1  0.50288817  0.83214681  -0.00173020  1
  Sn2+  Sn44  1  0.34525039  0.00528304  0.00431751  1
  Sn2+  Sn45  1  -0.00537534  0.66496628  0.66010208  1
  Sn2+  Sn46  1  0.33243736  0.16710832  0.15342325  1
  Sn2+  Sn47  1  0.83643584  0.50333676  0.00395897  1
  Sn2+  Sn48  1  0.67654886  0.84095102  0.17853345  1
  Sn2+  Sn49  1  0.67219823  0.49818370  0.49863671  1
  Sn2+  Sn50  1  0.50401780  0.16992923  -0.00676665  1
  Sn2+  Sn51  1  -0.00625598  0.33289910  0.33439117  1
  Sn2+  Sn52  1  0.16594342  0.32972473  0.83014397  1
  Sn2+  Sn53  1  -0.01657655  0.83465501  0.49586006  1
  Sn2+  Sn54  1  -0.00858999  -0.00011256  0.32725007  1
  Sn2+  Sn55  1  0.66637801  0.49918409  0.16364543  1
  Sn2+  Sn56  1  0.66741183  0.15825705  0.16403333  1
  Sn2+  Sn57  1  0.50019785  0.50179870  0.32065849  1
  Sn2+  Sn58  1  0.66040220  0.67521186  -0.00645371  1
  Sn2+  Sn59  1  -0.00864932  0.83253264  0.16219355  1
  Sn2+  Sn60  1  0.17436490  0.17148980  0.66941513  1
  Sn2+  Sn61  1  0.67483984  0.16086911  0.84016054  1
  Sn2+  Sn62  1  0.50348264  0.00297824  0.17243988  1
  Sn2+  Sn63  1  0.33655239  0.66654499  0.66702692  1
  Sn2+  Sn64  1  0.67096949  0.31840619  0.32618980  1
  Bi3+  Bi65  1  -0.00139462  0.16435235  0.49834106  1
  Bi3+  Bi66  1  0.16367912  0.00030419  0.83442214  1
  Bi3+  Bi67  1  0.16962901  -0.00252923  0.50077264  1
  Bi3+  Bi68  1  0.33251134  0.66639627  0.33748421  1
  Bi3+  Bi69  1  0.16910365  0.83108248  0.66027105  1
  Bi3+  Bi70  1  0.33291077  0.33667915  0.33921517  1
  Bi3+  Bi71  1  0.33477437  -0.00434632  0.66693050  1
  Bi3+  Bi72  1  0.83271155  0.16769437  0.66512903  1
  Bi3+  Bi73  1  0.17030416  0.83409010  0.00154037  1
  Bi3+  Bi74  1  0.49876820  0.66908694  0.16447534  1
  Bi3+  Bi75  1  0.16831879  0.50179988  0.33395992  1
  Bi3+  Bi76  1  0.16803089  0.67043977  0.16535152  1
  Bi3+  Bi77  1  0.50489930  0.83525442  0.33118985  1
  Bi3+  Bi78  1  0.00466971  0.83278850  0.83246487  1
  Bi3+  Bi79  1  0.33774609  0.16588398  0.50115620  1
  Bi3+  Bi80  1  0.49647538  0.33091250  0.83421360  1
  Bi3+  Bi81  1  0.83352188  0.50007825  0.66988217  1
  Bi3+  Bi82  1  0.49850803  0.33473372  0.50135562  1
  Bi3+  Bi83  1  0.16718500  0.33326055  0.50218038  1
  Bi3+  Bi84  1  0.83576619  0.16141054  0.33651790  1
  Bi3+  Bi85  1  0.00135231  0.49909170  0.16650926  1
  Te2-  Te86  1  0.16264961  0.16272348  0.16819609  1
  Te2-  Te87  1  0.16936505  0.16439729  0.49774698  1
  Te2-  Te88  1  0.14741875  0.16097852  0.83665403  1
  Te2-  Te89  1  0.16854880  0.50463057  0.16718530  1
  Te2-  Te90  1  0.14502687  0.49744444  0.49702549  1
  Te2-  Te91  1  0.15944611  0.50505278  0.83938149  1
  Te2-  Te92  1  0.16443182  0.83211447  0.16928499  1
  Te2-  Te93  1  0.15945724  0.83378909  0.49702208  1
  Te2-  Te94  1  0.17170137  0.83354082  0.82950529  1
  Te2-  Te95  1  0.50094812  0.16154126  0.16780924  1
  Te2-  Te96  1  0.50082483  0.17284677  0.51228355  1
  Te2-  Te97  1  0.50557690  0.16841118  0.81796250  1
  Te2-  Te98  1  0.49790166  0.50501535  0.14997669  1
  Te2-  Te99  1  0.50493686  0.50361632  0.49861253  1
  Te2-  Te100  1  0.49315477  0.49623408  0.84847274  1
  Te2-  Te101  1  0.50289671  0.83463368  0.16735974  1
  Te2-  Te102  1  0.51659854  0.83494443  0.49814900  1
  Te2-  Te103  1  0.48833821  0.83589313  0.82605548  1
  Te2-  Te104  1  0.83833262  0.16533173  0.17294763  1
  Te2-  Te105  1  0.83611988  0.15995136  0.50082957  1
  Te2-  Te106  1  0.84510328  0.15901406  0.83040192  1
  Te2-  Te107  1  0.83590813  0.51497489  0.16346470  1
  Te2-  Te108  1  0.84481474  0.50257821  0.50398719  1
  Te2-  Te109  1  0.84368530  0.49806569  0.83388998  1
  Te2-  Te110  1  0.83352012  0.81978404  0.16094337  1
  Te2-  Te111  1  0.82400267  0.84328878  0.50130445  1
  Te2-  Te112  1  0.83834482  0.84077597  0.83627076  1
  Te2-  Te113  1  0.17089019  0.00043460  -0.00344883  1
  Te2-  Te114  1  0.16650464  -0.00873628  0.33844402  1
  Te2-  Te115  1  0.16682468  -0.00246671  0.66746964  1
  Te2-  Te116  1  0.18090590  0.32878834  -0.00058172  1
  Te2-  Te117  1  0.16658032  0.33889105  0.33803544  1
  Te2-  Te118  1  0.18439199  0.33161229  0.66419151  1
  Te2-  Te119  1  0.18079176  0.67217901  0.00129704  1
  Te2-  Te120  1  0.16761987  0.66839855  0.33233942  1
  Te2-  Te121  1  0.16449680  0.66907913  0.66880367  1
  Te2-  Te122  1  0.50222083  0.00227500  -0.00171305  1
  Te2-  Te123  1  0.51041897  -0.00244668  0.34164925  1
  Te2-  Te124  1  0.50000545  -0.00976772  0.65504712  1
  Te2-  Te125  1  0.48389068  0.32753422  -0.00477396  1
  Te2-  Te126  1  0.50041139  0.33736831  0.33451385  1
  Te2-  Te127  1  0.48918839  0.33776049  0.66824547  1
  Te2-  Te128  1  0.48579468  0.67336077  0.00398530  1
  Te2-  Te129  1  0.49796136  0.66812881  0.33661214  1
  Te2-  Te130  1  0.51157529  0.67529179  0.66220245  1
  Te2-  Te131  1  0.83460874  -0.01208269  0.00416779  1
  Te2-  Te132  1  0.82596201  -0.00486713  0.33965588  1
  Te2-  Te133  1  0.82337610  0.00473499  0.66011258  1
  Te2-  Te134  1  0.83218309  0.33380961  -0.00100875  1
  Te2-  Te135  1  0.82906773  0.33058464  0.34621223  1
  Te2-  Te136  1  0.82930329  0.33378768  0.65331396  1
  Te2-  Te137  1  0.83357612  0.67210140  -0.00279757  1
  Te2-  Te138  1  0.83568374  0.67845731  0.34529630  1
  Te2-  Te139  1  0.82332568  0.66315325  0.65785033  1
  Te2-  Te140  1  0.00506869  0.17956257  0.00260543  1
  Te2-  Te141  1  -0.00004369  0.16799826  0.33318908  1
  Te2-  Te142  1  -0.00076593  0.17316778  0.66225790  1
  Te2-  Te143  1  0.00728131  0.48670009  0.00123774  1
  Te2-  Te144  1  0.00171179  0.50109653  0.32851091  1
  Te2-  Te145  1  -0.00424278  0.49603669  0.67472605  1
  Te2-  Te146  1  0.00866349  0.82985885  -0.00379521  1
  Te2-  Te147  1  -0.00568952  0.83116634  0.32932130  1
  Te2-  Te148  1  0.00390919  0.83093231  0.66729216  1
  Te2-  Te149  1  0.32738492  0.17050307  -0.00225959  1
  Te2-  Te150  1  0.33137228  0.17132847  0.33441116  1
  Te2-  Te151  1  0.33443111  0.15738252  0.66483745  1
  Te2-  Te152  1  0.32208403  0.49317277  -0.01130457  1
  Te2-  Te153  1  0.33160962  0.50206332  0.34360206  1
  Te2-  Te154  1  0.33265855  0.50739201  0.67718671  1
  Te2-  Te155  1  0.33179721  0.83983768  -0.00638344  1
  Te2-  Te156  1  0.34180887  0.82933410  0.33770171  1
  Te2-  Te157  1  0.33100005  0.83171836  0.66466671  1
  Te2-  Te158  1  0.66341588  0.15765918  -0.00227984  1
  Te2-  Te159  1  0.67288121  0.15910968  0.33499753  1
  Te2-  Te160  1  0.66985068  0.15973070  0.67276506  1
  Te2-  Te161  1  0.66818744  0.50928530  -0.01100266  1
  Te2-  Te162  1  0.66430682  0.49751798  0.32808677  1
  Te2-  Te163  1  0.67024647  0.49984905  0.67517543  1
  Te2-  Te164  1  0.66240389  0.83448595  -0.00872869  1
  Te2-  Te165  1  0.66899488  0.84155980  0.33578467  1
  Te2-  Te166  1  0.66460593  0.84811581  0.67798986  1
  Te2-  Te167  1  0.01348427  0.00503854  0.16859808  1
  Te2-  Te168  1  0.00644900  0.00116857  0.49556947  1
  Te2-  Te169  1  -0.00170418  -0.00479898  0.83076868  1
  Te2-  Te170  1  0.00001948  0.33499115  0.16253251  1
  Te2-  Te171  1  0.00547987  0.32632155  0.50335065  1
  Te2-  Te172  1  0.00607989  0.33353091  0.82683991  1
  Te2-  Te173  1  0.00535209  0.66326807  0.17116181  1
  Te2-  Te174  1  -0.00580557  0.67182792  0.49722108  1
  Te2-  Te175  1  0.00568902  0.66885892  0.83224230  1
  Te2-  Te176  1  0.32455150  0.00508241  0.16684185  1
  Te2-  Te177  1  0.33270912  0.00021107  0.50249446  1
  Te2-  Te178  1  0.32961883  0.01284335  0.83033494  1
  Te2-  Te179  1  0.33460651  0.33929306  0.17707376  1
  Te2-  Te180  1  0.33303279  0.33149954  0.50187140  1
  Te2-  Te181  1  0.33159090  0.31908183  0.83120889  1
  Te2-  Te182  1  0.33366052  0.66016385  0.17422593  1
  Te2-  Te183  1  0.34217270  0.66725325  0.50185487  1
  Te2-  Te184  1  0.32860758  0.66461990  0.83262231  1
  Te2-  Te185  1  0.66497180  0.00003854  0.15235283  1
  Te2-  Te186  1  0.66413931  0.00092959  0.50393233  1
  Te2-  Te187  1  0.67241611  -0.00605679  0.84639471  1
  Te2-  Te188  1  0.66798748  0.33397231  0.15395291  1
  Te2-  Te189  1  0.65973517  0.33946781  0.49856383  1
  Te2-  Te190  1  0.66307899  0.33363873  0.84815986  1
  Te2-  Te191  1  0.66074820  0.66657003  0.16313893  1
  Te2-  Te192  1  0.66720301  0.66886731  0.50763701  1
  Te2-  Te193  1  0.66703271  0.68137604  0.82346390  1
  Pb2+  Pb194  1  0.83576489  0.32964057  0.83104463  1
  Pb2+  Pb195  1  0.00002810  0.00177151  -0.00091160  1
  Pb2+  Pb196  1  0.83228087  0.50479285  0.33258837  1
  Pb2+  Pb197  1  0.17006124  0.66387159  0.50085574  1
  Pb2+  Pb198  1  -0.00862313  0.00371327  0.66334858  1
  Pb2+  Pb199  1  0.00163193  0.66097713  0.00257998  1
  Pb2+  Pb200  1  0.16512163  0.49682320  0.66723267  1
  Pb2+  Pb201  1  0.50325769  0.00197768  0.82817610  1
  Pb2+  Pb202  1  0.83497685  -0.00947671  0.17245547  1
  Pb2+  Pb203  1  0.50283623  0.16609767  0.34173143  1
  Pb2+  Pb204  1  0.82923987  0.16386545  0.00220804  1
  Pb2+  Pb205  1  0.50191810  0.33165473  0.16093859  1
  Pb2+  Pb206  1  0.83281438  0.66617725  0.83301670  1
  Pb2+  Pb207  1  0.16798898  0.33059910  0.16777962  1
  Pb2+  Pb208  1  0.83339159  0.83335710  0.66741116  1
  Pb2+  Pb209  1  0.83305496  0.33932525  0.16979250  1
  Pb2+  Pb210  1  0.49990305  0.50498241  0.67010690  1
  Pb2+  Pb211  1  0.65978256  0.32768075  0.67029239  1
  Pb2+  Pb212  1  0.50325618  0.66749646  0.83752993  1
  Pb2+  Pb213  1  0.33352719  0.83314611  0.16430609  1
  Pb2+  Pb214  1  0.66771071  0.66975196  0.33282976  1
  Pb2+  Pb215  1  0.33956381  0.00020915  0.33332028  1
