# generated using pymatgen
data_In22Ag21Sn22Bi21(Te54Pb11)2
_symmetry_space_group_name_H-M   'P 1'
_cell_length_a   19.19340632
_cell_length_b   19.14592839
_cell_length_c   19.18990430
_cell_angle_alpha   90.00234905
_cell_angle_beta   89.99563831
_cell_angle_gamma   90.01276336
_symmetry_Int_Tables_number   1
_chemical_formula_structural   In22Ag21Sn22Bi21(Te54Pb11)2
_chemical_formula_sum   'In22 Ag21 Sn22 Bi21 Te108 Pb22'
_cell_volume   7051.82106752
_cell_formula_units_Z   1
loop_
 _symmetry_equiv_pos_site_id
 _symmetry_equiv_pos_as_xyz
  1  'x, y, z'
loop_
 _atom_type_symbol
 _atom_type_oxidation_number
  In3+  3.0
  Ag+  1.0
  Sn2+  2.0
  Bi3+  3.0
  Te2-  -2.0
  Pb2+  2.0
loop_
 _atom_site_type_symbol
 _atom_site_label
 _atom_site_symmetry_multiplicity
 _atom_site_fract_x
 _atom_site_fract_y
 _atom_site_fract_z
 _atom_site_occupancy
  In3+  In0  1  -0.00488685  0.68934857  0.32361395  1
  In3+  In1  1  0.18026363  0.15887356  0.67131720  1
  In3+  In2  1  0.34590737  -0.00786953  0.66200833  1
  In3+  In3  1  0.16734413  -0.00300263  0.83848729  1
  In3+  In4  1  0.67861812  0.00105832  0.69493998  1
  In3+  In5  1  0.00322842  0.16439307  0.50598366  1
  In3+  In6  1  0.68088698  0.83103616  0.16128480  1
  In3+  In7  1  0.83408584  0.67786396  0.16052401  1
  In3+  In8  1  0.81743671  0.34389036  0.83473555  1
  In3+  In9  1  0.51267602  -0.00788178  0.50082807  1
  In3+  In10  1  0.64916180  0.17008433  0.16256239  1
  In3+  In11  1  -0.00085053  0.33064265  0.68699931  1
  In3+  In12  1  0.65735509  0.67130399  0.34669234  1
  In3+  In13  1  0.13607019  0.83394045  0.64833580  1
  In3+  In14  1  0.81634385  -0.01418652  0.50074811  1
  In3+  In15  1  0.16945971  0.15899322  0.32718081  1
  In3+  In16  1  0.34338166  0.51270321  0.49071749  1
  In3+  In17  1  0.66264403  0.50501747  0.84572331  1
  In3+  In18  1  0.48979755  0.48828322  0.32647419  1
  In3+  In19  1  0.18680826  0.67040647  0.15444970  1
  In3+  In20  1  0.01250963  0.34471534  0.33292480  1
  In3+  In21  1  0.51018527  0.68200634  0.15884248  1
  Ag+  Ag22  1  0.82402780  0.81332768  0.34869741  1
  Ag+  Ag23  1  0.66421681  0.80695354  0.53140564  1
  Ag+  Ag24  1  0.49519304  0.69330609  0.52598462  1
  Ag+  Ag25  1  0.52669748  0.16164286  -0.02288112  1
  Ag+  Ag26  1  0.69866726  0.66827421  0.01860194  1
  Ag+  Ag27  1  0.52426071  0.30514778  0.87092423  1
  Ag+  Ag28  1  0.82515650  0.80506857  0.64448831  1
  Ag+  Ag29  1  0.35982998  0.14557284  0.85136803  1
  Ag+  Ag30  1  0.47745463  0.15685739  0.68491102  1
  Ag+  Ag31  1  0.80697310  0.68368059  0.86795767  1
  Ag+  Ag32  1  0.19119064  0.80409899  0.33670198  1
  Ag+  Ag33  1  0.35767403  0.67160711  0.31255618  1
  Ag+  Ag34  1  0.36000631  0.64403647  -0.02865950  1
  Ag+  Ag35  1  0.00547216  0.69518838  0.02299635  1
  Ag+  Ag36  1  0.86056438  0.69262611  0.48771979  1
  Ag+  Ag37  1  0.53071722  0.33942742  0.14667878  1
  Ag+  Ag38  1  0.69303587  0.01467381  0.00502080  1
  Ag+  Ag39  1  0.62703633  0.30941327  -0.00806983  1
  Ag+  Ag40  1  0.80469366  0.80084957  -0.00583989  1
  Ag+  Ag41  1  0.33305051  0.30908704  0.30622350  1
  Ag+  Ag42  1  -0.02224655  0.83190146  0.18244085  1
  Sn2+  Sn43  1  0.16505519  0.33966520  0.17609079  1
  Sn2+  Sn44  1  0.16946324  0.83042323  0.00944101  1
  Sn2+  Sn45  1  0.83710338  0.17080328  0.33068179  1
  Sn2+  Sn46  1  0.17663412  0.33253552  0.82939378  1
  Sn2+  Sn47  1  0.83584523  0.16822504  0.00324351  1
  Sn2+  Sn48  1  0.33632492  0.17760520  0.49864906  1
  Sn2+  Sn49  1  0.50275543  0.84408262  0.00095689  1
  Sn2+  Sn50  1  0.83277303  0.33537487  0.16340048  1
  Sn2+  Sn51  1  -0.00588670  0.51072244  0.83449755  1
  Sn2+  Sn52  1  0.82676719  -0.00304168  0.17184031  1
  Sn2+  Sn53  1  0.16959364  0.16756404  -0.00467700  1
  Sn2+  Sn54  1  0.50057562  0.48960355  0.66240137  1
  Sn2+  Sn55  1  0.16873837  0.50571075  0.33751601  1
  Sn2+  Sn56  1  -0.00633606  -0.00713216  0.00033605  1
  Sn2+  Sn57  1  0.00202176  0.00017032  0.66517748  1
  Sn2+  Sn58  1  0.83116376  0.51097509  0.33560139  1
  Sn2+  Sn59  1  0.33534579  0.17051349  0.15788926  1
  Sn2+  Sn60  1  0.50909758  0.82720185  0.33085649  1
  Sn2+  Sn61  1  0.17767807  0.66870279  0.49322760  1
  Sn2+  Sn62  1  0.32905276  -0.01239220  0.33909553  1
  Sn2+  Sn63  1  0.34178404  0.66944879  0.66661607  1
  Sn2+  Sn64  1  0.50581447  0.66311149  0.84254804  1
  Bi3+  Bi65  1  -0.00419298  0.33071984  0.00508455  1
  Bi3+  Bi66  1  0.49706096  0.33184787  0.50063274  1
  Bi3+  Bi67  1  -0.00002223  0.66472211  0.66461922  1
  Bi3+  Bi68  1  0.16928260  0.33279525  0.49686891  1
  Bi3+  Bi69  1  0.66299951  0.50090503  0.49955424  1
  Bi3+  Bi70  1  0.16555341  0.00066929  0.50097986  1
  Bi3+  Bi71  1  0.83115790  0.16852232  0.66483674  1
  Bi3+  Bi72  1  0.66833324  0.16984412  0.49345744  1
  Bi3+  Bi73  1  0.83595726  0.33152912  0.49369887  1
  Bi3+  Bi74  1  0.33287357  0.33301148  0.66492652  1
  Bi3+  Bi75  1  0.49475622  0.16783673  0.33546359  1
  Bi3+  Bi76  1  0.83307553  0.49713846  0.00110865  1
  Bi3+  Bi77  1  0.33625737  0.49999638  0.83013485  1
  Bi3+  Bi78  1  0.32920010  0.83502498  0.16891585  1
  Bi3+  Bi79  1  -0.00264781  0.83189644  0.83103296  1
  Bi3+  Bi80  1  0.00113651  0.16045674  0.16988920  1
  Bi3+  Bi81  1  0.32983901  -0.00019115  0.00154982  1
  Bi3+  Bi82  1  0.66904892  0.83015352  0.84110990  1
  Bi3+  Bi83  1  0.83406053  0.49963102  0.66796639  1
  Bi3+  Bi84  1  0.32547985  0.33256074  -0.00581155  1
  Bi3+  Bi85  1  -0.00486931  0.00391472  0.33358550  1
  Te2-  Te86  1  0.16315545  0.16627060  0.17117683  1
  Te2-  Te87  1  0.16411731  0.16846198  0.50269346  1
  Te2-  Te88  1  0.16385394  0.16419010  0.82304758  1
  Te2-  Te89  1  0.16499387  0.51265838  0.17075318  1
  Te2-  Te90  1  0.16772863  0.49666029  0.49768548  1
  Te2-  Te91  1  0.16926660  0.50157229  0.83134491  1
  Te2-  Te92  1  0.16908547  0.82216406  0.18297348  1
  Te2-  Te93  1  0.16510414  0.83617364  0.48881624  1
  Te2-  Te94  1  0.16206130  0.84195226  0.82831303  1
  Te2-  Te95  1  0.49711390  0.17770202  0.17471075  1
  Te2-  Te96  1  0.50389474  0.16814502  0.49562435  1
  Te2-  Te97  1  0.50276190  0.16616905  0.82971374  1
  Te2-  Te98  1  0.50011277  0.48371860  0.17345580  1
  Te2-  Te99  1  0.50053565  0.49580381  0.49349591  1
  Te2-  Te100  1  0.50114032  0.50261695  0.83135700  1
  Te2-  Te101  1  0.49397835  0.83597347  0.16869264  1
  Te2-  Te102  1  0.51535557  0.83718650  0.49677911  1
  Te2-  Te103  1  0.50374608  0.83191697  0.83494321  1
  Te2-  Te104  1  0.84037418  0.16441890  0.16977878  1
  Te2-  Te105  1  0.83311982  0.17072351  0.49807260  1
  Te2-  Te106  1  0.83292637  0.17088448  0.82885248  1
  Te2-  Te107  1  0.83158065  0.50354622  0.16716057  1
  Te2-  Te108  1  0.82749752  0.49300542  0.50241824  1
  Te2-  Te109  1  0.82775587  0.50225721  0.83061066  1
  Te2-  Te110  1  0.83405170  0.83023087  0.14469329  1
  Te2-  Te111  1  0.81213011  0.83287410  0.49764020  1
  Te2-  Te112  1  0.83262576  0.82803504  0.84667320  1
  Te2-  Te113  1  0.16752984  0.00098362  -0.00402103  1
  Te2-  Te114  1  0.16185002  0.00269602  0.33798433  1
  Te2-  Te115  1  0.16236056  -0.00136330  0.66181718  1
  Te2-  Te116  1  0.16148661  0.33247829  0.00168669  1
  Te2-  Te117  1  0.18065265  0.33280766  0.33495046  1
  Te2-  Te118  1  0.16404696  0.32776634  0.66006888  1
  Te2-  Te119  1  0.15140748  0.67056164  0.00616075  1
  Te2-  Te120  1  0.14705667  0.66546069  0.33961926  1
  Te2-  Te121  1  0.16563526  0.67585319  0.66092351  1
  Te2-  Te122  1  0.48855334  0.01434238  0.00095377  1
  Te2-  Te123  1  0.49538152  0.00172488  0.33977237  1
  Te2-  Te124  1  0.49631067  0.00992543  0.65844127  1
  Te2-  Te125  1  0.48225621  0.32513530  0.00826852  1
  Te2-  Te126  1  0.48109662  0.33335318  0.33808112  1
  Te2-  Te127  1  0.49639373  0.32585673  0.66257862  1
  Te2-  Te128  1  0.49721880  0.66926172  0.00737093  1
  Te2-  Te129  1  0.50640839  0.66454256  0.31544569  1
  Te2-  Te130  1  0.50054005  0.66331034  0.66976540  1
  Te2-  Te131  1  0.83890600  0.00897124  0.00074791  1
  Te2-  Te132  1  0.83407617  0.00602997  0.34159357  1
  Te2-  Te133  1  0.83353803  0.00742047  0.65857838  1
  Te2-  Te134  1  0.83487288  0.33597135  -0.00514036  1
  Te2-  Te135  1  0.82832637  0.33550616  0.33269114  1
  Te2-  Te136  1  0.83774370  0.33368165  0.66179401  1
  Te2-  Te137  1  0.84800861  0.65828435  0.00708325  1
  Te2-  Te138  1  0.84061090  0.66661966  0.34088185  1
  Te2-  Te139  1  0.83827820  0.65824600  0.65191996  1
  Te2-  Te140  1  0.00337475  0.16684270  0.00600877  1
  Te2-  Te141  1  0.00717583  0.16784479  0.33189745  1
  Te2-  Te142  1  -0.00520436  0.16963704  0.66236371  1
  Te2-  Te143  1  -0.00454845  0.49299111  -0.00202073  1
  Te2-  Te144  1  -0.00160269  0.49561019  0.33150504  1
  Te2-  Te145  1  -0.00013776  0.49517304  0.66825651  1
  Te2-  Te146  1  0.01155163  0.83902862  -0.00868645  1
  Te2-  Te147  1  -0.02207376  0.84055289  0.33033151  1
  Te2-  Te148  1  -0.02258115  0.83135748  0.66605706  1
  Te2-  Te149  1  0.32556979  0.16659377  -0.00720382  1
  Te2-  Te150  1  0.32940238  0.16169913  0.33221708  1
  Te2-  Te151  1  0.33273784  0.16990482  0.66431253  1
  Te2-  Te152  1  0.33289611  0.50169109  -0.00287047  1
  Te2-  Te153  1  0.33643224  0.52230080  0.33863529  1
  Te2-  Te154  1  0.33640081  0.49889305  0.66679653  1
  Te2-  Te155  1  0.33139763  0.83748363  0.00546142  1
  Te2-  Te156  1  0.33751064  0.82412140  0.33394626  1
  Te2-  Te157  1  0.34076726  0.83960508  0.66671185  1
  Te2-  Te158  1  0.66946442  0.16660893  0.00954094  1
  Te2-  Te159  1  0.66299908  0.16577894  0.32608614  1
  Te2-  Te160  1  0.66981183  0.16039448  0.65879171  1
  Te2-  Te161  1  0.67105453  0.51689225  -0.00215977  1
  Te2-  Te162  1  0.66608145  0.50479680  0.33578576  1
  Te2-  Te163  1  0.66825369  0.49518638  0.66491547  1
  Te2-  Te164  1  0.65769826  0.81765736  0.00525630  1
  Te2-  Te165  1  0.67675247  0.82484617  0.31740542  1
  Te2-  Te166  1  0.67966106  0.84368378  0.67470550  1
  Te2-  Te167  1  -0.00438894  -0.00526020  0.17041291  1
  Te2-  Te168  1  0.00164491  0.00421088  0.49891730  1
  Te2-  Te169  1  0.00552166  -0.00146483  0.82889581  1
  Te2-  Te170  1  -0.00061174  0.32980681  0.17106257  1
  Te2-  Te171  1  0.00202985  0.32845806  0.48696775  1
  Te2-  Te172  1  0.00792279  0.33800741  0.84056755  1
  Te2-  Te173  1  -0.01083517  0.68058256  0.17028673  1
  Te2-  Te174  1  0.00500400  0.66787419  0.50230981  1
  Te2-  Te175  1  -0.00235095  0.66957642  0.82542607  1
  Te2-  Te176  1  0.32847454  0.00086312  0.16811451  1
  Te2-  Te177  1  0.32760749  0.00606425  0.50574860  1
  Te2-  Te178  1  0.32375385  0.00422214  0.82888667  1
  Te2-  Te179  1  0.32161035  0.33203804  0.16149620  1
  Te2-  Te180  1  0.33182872  0.34364950  0.50230692  1
  Te2-  Te181  1  0.33387896  0.33820858  0.82930267  1
  Te2-  Te182  1  0.33634272  0.67104452  0.16637976  1
  Te2-  Te183  1  0.34637983  0.66596396  0.50804993  1
  Te2-  Te184  1  0.33147809  0.66592544  0.83045776  1
  Te2-  Te185  1  0.66817237  -0.00471390  0.15325505  1
  Te2-  Te186  1  0.66497280  0.00784663  0.49323062  1
  Te2-  Te187  1  0.66839673  -0.00491529  0.85448194  1
  Te2-  Te188  1  0.67492693  0.32484283  0.15542164  1
  Te2-  Te189  1  0.66579208  0.33362518  0.49617918  1
  Te2-  Te190  1  0.66275798  0.34029376  0.84575948  1
  Te2-  Te191  1  0.66617049  0.67303142  0.16466366  1
  Te2-  Te192  1  0.64945506  0.66284817  0.49604611  1
  Te2-  Te193  1  0.66575865  0.66672620  0.83086004  1
  Pb2+  Pb194  1  0.33597683  0.83610235  0.50073705  1
  Pb2+  Pb195  1  0.16537814  0.50150803  -0.00025469  1
  Pb2+  Pb196  1  0.49770155  -0.00044385  0.83475483  1
  Pb2+  Pb197  1  0.50339058  0.49637093  -0.00013677  1
  Pb2+  Pb198  1  0.65652984  0.33458401  0.32461613  1
  Pb2+  Pb199  1  0.66547952  -0.00689160  0.32370818  1
  Pb2+  Pb200  1  -0.00134158  0.16944554  0.83567754  1
  Pb2+  Pb201  1  -0.00246262  0.50905557  0.16538435  1
  Pb2+  Pb202  1  0.17011570  0.50301527  0.66511867  1
  Pb2+  Pb203  1  0.67313494  0.66645389  0.66415202  1
  Pb2+  Pb204  1  0.66354771  0.32784052  0.67052423  1
  Pb2+  Pb205  1  0.51100219  0.83455190  0.66655748  1
  Pb2+  Pb206  1  0.16075961  -0.00823536  0.16634052  1
  Pb2+  Pb207  1  0.66799014  0.16694071  0.83329028  1
  Pb2+  Pb208  1  -0.01170509  0.83384802  0.49520110  1
  Pb2+  Pb209  1  0.49867540  0.00650857  0.16507796  1
  Pb2+  Pb210  1  0.66485522  0.50161112  0.16611971  1
  Pb2+  Pb211  1  0.33081832  0.83512100  0.83608305  1
  Pb2+  Pb212  1  0.33427362  0.50079035  0.17104948  1
  Pb2+  Pb213  1  0.16271827  0.67282115  0.83500352  1
  Pb2+  Pb214  1  0.83636049  -0.00721595  0.83271088  1
  Pb2+  Pb215  1  -0.00415624  0.50172704  0.49826809  1
