# generated using pymatgen
data_In22Ag21Sn22Bi21(Te54Pb11)2
_symmetry_space_group_name_H-M   'P 1'
_cell_length_a   19.11287634
_cell_length_b   19.11992168
_cell_length_c   19.11528337
_cell_angle_alpha   89.98638632
_cell_angle_beta   89.99771510
_cell_angle_gamma   89.97610204
_symmetry_Int_Tables_number   1
_chemical_formula_structural   In22Ag21Sn22Bi21(Te54Pb11)2
_chemical_formula_sum   'In22 Ag21 Sn22 Bi21 Te108 Pb22'
_cell_volume   6985.42523902
_cell_formula_units_Z   1
loop_
 _symmetry_equiv_pos_site_id
 _symmetry_equiv_pos_as_xyz
  1  'x, y, z'
loop_
 _atom_type_symbol
 _atom_type_oxidation_number
  In3+  3.0
  Ag+  1.0
  Sn2+  2.0
  Bi3+  3.0
  Te2-  -2.0
  Pb2+  2.0
loop_
 _atom_site_type_symbol
 _atom_site_label
 _atom_site_symmetry_multiplicity
 _atom_site_fract_x
 _atom_site_fract_y
 _atom_site_fract_z
 _atom_site_occupancy
  In3+  In0  1  0.82121018  0.00468837  0.17408114  1
  In3+  In1  1  0.00882989  -0.02087139  0.33494377  1
  In3+  In2  1  0.66740282  -0.00581075  0.01869610  1
  In3+  In3  1  0.32710365  -0.00202155  0.02048440  1
  In3+  In4  1  0.66268976  0.49961901  0.82652128  1
  In3+  In5  1  0.66732595  0.51260001  0.50004135  1
  In3+  In6  1  0.01173367  0.15163269  0.49997584  1
  In3+  In7  1  0.16948007  0.30700813  0.17306131  1
  In3+  In8  1  0.00521702  0.15660366  0.18991026  1
  In3+  In9  1  0.83164403  0.51676160  0.34514433  1
  In3+  In10  1  0.66532215  0.66979802  -0.01731076  1
  In3+  In11  1  0.00221238  0.50337344  0.49690788  1
  In3+  In12  1  0.00380744  0.50093912  0.83013543  1
  In3+  In13  1  0.83914740  0.16597736  -0.01949875  1
  In3+  In14  1  0.82355364  0.50863446  0.66907902  1
  In3+  In15  1  0.14654257  0.67574521  0.50415723  1
  In3+  In16  1  0.82314846  0.18256962  0.66633279  1
  In3+  In17  1  0.17472072  0.51583494  0.00075392  1
  In3+  In18  1  0.83463773  0.49522438  -0.00768041  1
  In3+  In19  1  0.16567034  0.16677120  -0.01455796  1
  In3+  In20  1  0.47882186  0.14387369  0.33140653  1
  In3+  In21  1  0.00485024  0.83511306  0.50079980  1
  Ag+  Ag22  1  0.16189212  0.83743312  0.30843799  1
  Ag+  Ag23  1  0.18531109  0.67608699  0.80528439  1
  Ag+  Ag24  1  0.84373857  0.35325717  0.82883187  1
  Ag+  Ag25  1  0.52610990  0.67244612  0.85440111  1
  Ag+  Ag26  1  0.18050767  0.13725440  0.33613764  1
  Ag+  Ag27  1  0.51727415  0.66730637  0.14837503  1
  Ag+  Ag28  1  0.16834665  0.14353598  0.68461736  1
  Ag+  Ag29  1  0.19120423  0.85314726  0.69112323  1
  Ag+  Ag30  1  0.66866961  0.69083027  0.68520199  1
  Ag+  Ag31  1  0.16956576  0.00214807  0.18940427  1
  Ag+  Ag32  1  0.84506291  0.66428080  0.49407031  1
  Ag+  Ag33  1  0.66386983  0.86123739  0.81977982  1
  Ag+  Ag34  1  0.31766520  0.83273225  0.18981062  1
  Ag+  Ag35  1  0.47233137  -0.02269082  0.50568264  1
  Ag+  Ag36  1  0.53176479  0.50406145  0.31056126  1
  Ag+  Ag37  1  0.64200894  0.00130453  0.33727002  1
  Ag+  Ag38  1  -0.00352302  0.02757334  0.68795675  1
  Ag+  Ag39  1  0.31396251  -0.01123972  0.34091033  1
  Ag+  Ag40  1  0.68820247  0.34191058  0.67241853  1
  Ag+  Ag41  1  0.32672614  0.13995900  0.81359526  1
  Ag+  Ag42  1  0.02503852  0.65912575  0.31773561  1
  Sn2+  Sn43  1  0.49783901  -0.00658067  0.82354402  1
  Sn2+  Sn44  1  0.83732438  0.66750763  0.82450555  1
  Sn2+  Sn45  1  0.50034731  0.16430742  -0.00041632  1
  Sn2+  Sn46  1  -0.00647356  0.83118051  0.82213421  1
  Sn2+  Sn47  1  0.82970497  -0.00332293  0.50293394  1
  Sn2+  Sn48  1  0.33134563  0.15263433  0.16490048  1
  Sn2+  Sn49  1  0.49310101  0.34599519  0.17446933  1
  Sn2+  Sn50  1  0.00181405  0.32753752  0.66629340  1
  Sn2+  Sn51  1  0.33331941  0.32687894  0.67416435  1
  Sn2+  Sn52  1  0.33303922  0.32034559  -0.00069701  1
  Sn2+  Sn53  1  0.33217667  0.66942971  0.32929719  1
  Sn2+  Sn54  1  -0.00550557  0.66855922  0.00876380  1
  Sn2+  Sn55  1  0.66411264  0.32051009  0.34000617  1
  Sn2+  Sn56  1  0.32875355  0.83006310  0.49292282  1
  Sn2+  Sn57  1  0.83296478  0.33174942  0.15893515  1
  Sn2+  Sn58  1  0.67537865  0.00108971  0.65665133  1
  Sn2+  Sn59  1  0.49945513  0.83069833  0.66992937  1
  Sn2+  Sn60  1  0.33353562  0.16462367  0.50215282  1
  Sn2+  Sn61  1  0.16975247  0.83648432  -0.00003259  1
  Sn2+  Sn62  1  0.33836760  0.83311554  0.82936402  1
  Sn2+  Sn63  1  0.50687681  0.33952579  0.83148774  1
  Sn2+  Sn64  1  0.33900085  0.32937784  0.33099192  1
  Bi3+  Bi65  1  0.50247165  0.50075957  0.66613936  1
  Bi3+  Bi66  1  0.16416491  0.50676055  0.33161293  1
  Bi3+  Bi67  1  0.83154620  0.83252744  -0.00241009  1
  Bi3+  Bi68  1  0.16745584  -0.01072805  0.83154166  1
  Bi3+  Bi69  1  0.33194149  0.50403501  0.83395825  1
  Bi3+  Bi70  1  0.83604307  0.16873159  0.33818854  1
  Bi3+  Bi71  1  0.16715523  -0.00412808  0.50470639  1
  Bi3+  Bi72  1  0.66235651  0.67310705  0.33648223  1
  Bi3+  Bi73  1  0.67086806  0.16488520  0.49761861  1
  Bi3+  Bi74  1  0.16719084  0.67125021  0.17005983  1
  Bi3+  Bi75  1  0.66710501  0.33053774  -0.00514756  1
  Bi3+  Bi76  1  0.50049052  0.33188253  0.49772105  1
  Bi3+  Bi77  1  0.16241180  0.50190136  0.66751023  1
  Bi3+  Bi78  1  0.65585428  0.16473851  0.83375713  1
  Bi3+  Bi79  1  -0.00091845  0.33273199  -0.00033493  1
  Bi3+  Bi80  1  0.50054529  0.66723389  0.50030335  1
  Bi3+  Bi81  1  0.50168856  0.83864128  -0.00398067  1
  Bi3+  Bi82  1  -0.01240873  0.66295861  0.67171473  1
  Bi3+  Bi83  1  0.66200179  0.83341682  0.16868930  1
  Bi3+  Bi84  1  0.83290684  0.83394696  0.66738931  1
  Bi3+  Bi85  1  0.49577163  0.82695599  0.33266649  1
  Te2-  Te86  1  0.16192477  0.15634014  0.18416029  1
  Te2-  Te87  1  0.16400609  0.16367638  0.48458709  1
  Te2-  Te88  1  0.17786407  0.16468990  0.83139298  1
  Te2-  Te89  1  0.16331070  0.50696465  0.16447300  1
  Te2-  Te90  1  0.16247579  0.50574068  0.49919119  1
  Te2-  Te91  1  0.16482082  0.51018024  0.83412357  1
  Te2-  Te92  1  0.17202601  0.83568318  0.16037235  1
  Te2-  Te93  1  0.16027193  0.83021328  0.50917909  1
  Te2-  Te94  1  0.16331643  0.82531207  0.83273375  1
  Te2-  Te95  1  0.49905835  0.16805444  0.17705571  1
  Te2-  Te96  1  0.50370566  0.17080753  0.48763763  1
  Te2-  Te97  1  0.49277630  0.16709636  0.83159495  1
  Te2-  Te98  1  0.49788357  0.51068427  0.16649553  1
  Te2-  Te99  1  0.50569600  0.49772918  0.50396153  1
  Te2-  Te100  1  0.50065390  0.51100971  0.82823165  1
  Te2-  Te101  1  0.49984207  0.82600061  0.16596128  1
  Te2-  Te102  1  0.49956865  0.83261514  0.49775671  1
  Te2-  Te103  1  0.51116220  0.82446005  0.83373132  1
  Te2-  Te104  1  0.84215732  0.15998322  0.17201038  1
  Te2-  Te105  1  0.83887957  0.16757416  0.50648378  1
  Te2-  Te106  1  0.82838136  0.16620127  0.82191884  1
  Te2-  Te107  1  0.83378884  0.49779124  0.16317240  1
  Te2-  Te108  1  0.82942233  0.50766860  0.50353868  1
  Te2-  Te109  1  0.82777101  0.49864242  0.82855386  1
  Te2-  Te110  1  0.83121521  0.84183783  0.16345048  1
  Te2-  Te111  1  0.84060017  0.82628945  0.50434886  1
  Te2-  Te112  1  0.81982567  0.83316389  0.83472628  1
  Te2-  Te113  1  0.17290327  0.00540469  -0.00749524  1
  Te2-  Te114  1  0.16327078  -0.01216179  0.33947170  1
  Te2-  Te115  1  0.15185201  -0.00528942  0.66770076  1
  Te2-  Te116  1  0.16394168  0.32195806  0.00811368  1
  Te2-  Te117  1  0.16709521  0.34455514  0.32580886  1
  Te2-  Te118  1  0.16521652  0.34105089  0.66801908  1
  Te2-  Te119  1  0.15815946  0.67099797  0.00551415  1
  Te2-  Te120  1  0.16984265  0.67150374  0.33876795  1
  Te2-  Te121  1  0.15842551  0.66234777  0.66098154  1
  Te2-  Te122  1  0.50080663  0.00101052  -0.00227568  1
  Te2-  Te123  1  0.49304254  -0.00580539  0.34277837  1
  Te2-  Te124  1  0.50147568  -0.00277817  0.65347455  1
  Te2-  Te125  1  0.50446139  0.32922380  0.00272049  1
  Te2-  Te126  1  0.50684400  0.35272994  0.33336886  1
  Te2-  Te127  1  0.49478406  0.33564545  0.66404259  1
  Te2-  Te128  1  0.50535414  0.67074184  0.00085144  1
  Te2-  Te129  1  0.50037378  0.66031893  0.33835173  1
  Te2-  Te130  1  0.51785388  0.66431910  0.66142522  1
  Te2-  Te131  1  0.82845839  -0.00007147  0.00693080  1
  Te2-  Te132  1  0.85125294  0.00404121  0.32986641  1
  Te2-  Te133  1  0.84799287  -0.00395209  0.66264713  1
  Te2-  Te134  1  0.83202875  0.33334665  -0.00915024  1
  Te2-  Te135  1  0.82980131  0.33058300  0.32740139  1
  Te2-  Te136  1  0.83418743  0.33409067  0.67550993  1
  Te2-  Te137  1  0.82747380  0.66724439  -0.00048400  1
  Te2-  Te138  1  0.82725380  0.66919224  0.34291195  1
  Te2-  Te139  1  0.81997466  0.66144067  0.66031803  1
  Te2-  Te140  1  0.00237577  0.16992548  -0.00579619  1
  Te2-  Te141  1  -0.00085912  0.17265840  0.34268759  1
  Te2-  Te142  1  0.01795282  0.17055061  0.65519846  1
  Te2-  Te143  1  -0.00869512  0.49748456  -0.00663552  1
  Te2-  Te144  1  -0.00543136  0.51373091  0.33770456  1
  Te2-  Te145  1  -0.00402802  0.49999546  0.67087312  1
  Te2-  Te146  1  -0.00660685  0.83285318  -0.00609735  1
  Te2-  Te147  1  0.01281194  0.82412449  0.34214987  1
  Te2-  Te148  1  -0.00652459  0.82331644  0.66268921  1
  Te2-  Te149  1  0.33062690  0.15965324  0.00392307  1
  Te2-  Te150  1  0.32875363  0.17081348  0.33104504  1
  Te2-  Te151  1  0.32101783  0.16800305  0.66825042  1
  Te2-  Te152  1  0.33274066  0.49889966  -0.00322369  1
  Te2-  Te153  1  0.32479132  0.49908550  0.33367337  1
  Te2-  Te154  1  0.33057978  0.49852047  0.66989780  1
  Te2-  Te155  1  0.34013987  0.84399384  -0.00561815  1
  Te2-  Te156  1  0.33297341  0.84007467  0.33620920  1
  Te2-  Te157  1  0.33451170  0.83213405  0.66420838  1
  Te2-  Te158  1  0.66973640  0.16566397  -0.00352051  1
  Te2-  Te159  1  0.67379914  0.15545219  0.33543886  1
  Te2-  Te160  1  0.66853943  0.16588796  0.66584126  1
  Te2-  Te161  1  0.67321967  0.49544774  -0.00766615  1
  Te2-  Te162  1  0.67657120  0.49905527  0.33941354  1
  Te2-  Te163  1  0.66847183  0.48881792  0.66756103  1
  Te2-  Te164  1  0.66720768  0.83114236  0.00451914  1
  Te2-  Te165  1  0.66315857  0.84212461  0.33145518  1
  Te2-  Te166  1  0.67001098  0.83915594  0.67167316  1
  Te2-  Te167  1  0.01766121  0.00473030  0.17163239  1
  Te2-  Te168  1  0.00061332  -0.00293713  0.49382730  1
  Te2-  Te169  1  0.00323390  -0.00004659  0.83324551  1
  Te2-  Te170  1  0.00258135  0.32449953  0.16068558  1
  Te2-  Te171  1  -0.00209864  0.34866376  0.50090902  1
  Te2-  Te172  1  -0.00669903  0.33999868  0.83653205  1
  Te2-  Te173  1  -0.00168520  0.67013548  0.17225158  1
  Te2-  Te174  1  -0.00743016  0.65933308  0.50679476  1
  Te2-  Te175  1  -0.00391534  0.66016076  0.83544074  1
  Te2-  Te176  1  0.32237393  -0.00807711  0.17285176  1
  Te2-  Te177  1  0.32842403  0.00416976  0.49018051  1
  Te2-  Te178  1  0.33219565  -0.00602690  0.83021067  1
  Te2-  Te179  1  0.32904873  0.32996739  0.16436958  1
  Te2-  Te180  1  0.33629313  0.32913640  0.49886393  1
  Te2-  Te181  1  0.33652955  0.34145605  0.83971711  1
  Te2-  Te182  1  0.32655508  0.68010616  0.16802547  1
  Te2-  Te183  1  0.33687857  0.66907479  0.49996585  1
  Te2-  Te184  1  0.32888621  0.66828990  0.83420389  1
  Te2-  Te185  1  0.66383997  -0.00171117  0.18051968  1
  Te2-  Te186  1  0.67171094  0.00428217  0.49049612  1
  Te2-  Te187  1  0.65832657  0.00609255  0.82708600  1
  Te2-  Te188  1  0.66715059  0.33333235  0.16137376  1
  Te2-  Te189  1  0.66419256  0.32708237  0.50858821  1
  Te2-  Te190  1  0.66588873  0.32691863  0.82902272  1
  Te2-  Te191  1  0.66254208  0.66941805  0.17372146  1
  Te2-  Te192  1  0.66561676  0.66526998  0.49768483  1
  Te2-  Te193  1  0.66955271  0.65374264  0.82827910  1
  Pb2+  Pb194  1  0.33526145  0.50056929  0.49819118  1
  Pb2+  Pb195  1  0.33057800  0.67419919  0.00071110  1
  Pb2+  Pb196  1  0.66667460  0.50079261  0.16504967  1
  Pb2+  Pb197  1  0.32989064  -0.00023158  0.66195090  1
  Pb2+  Pb198  1  0.48997260  -0.00571894  0.16972459  1
  Pb2+  Pb199  1  0.66981416  0.83480968  0.50308389  1
  Pb2+  Pb200  1  0.16761405  0.33990539  0.83779623  1
  Pb2+  Pb201  1  0.82767155  -0.00007393  0.83089108  1
  Pb2+  Pb202  1  0.34554397  0.66668293  0.66866184  1
  Pb2+  Pb203  1  0.00593542  0.83790207  0.16672687  1
  Pb2+  Pb204  1  0.82884604  0.66766728  0.17025220  1
  Pb2+  Pb205  1  0.00030814  0.00164942  0.00301320  1
  Pb2+  Pb206  1  0.33073408  0.50433672  0.16874333  1
  Pb2+  Pb207  1  0.50297209  0.49757520  -0.00221949  1
  Pb2+  Pb208  1  0.16682816  0.33058745  0.49751093  1
  Pb2+  Pb209  1  -0.00005063  0.34038919  0.33095168  1
  Pb2+  Pb210  1  0.66846842  0.16821261  0.16731154  1
  Pb2+  Pb211  1  -0.00140637  0.49694022  0.16375460  1
  Pb2+  Pb212  1  0.49551952  0.16423751  0.66114426  1
  Pb2+  Pb213  1  0.00375397  0.17113913  0.82455629  1
  Pb2+  Pb214  1  0.83047092  0.33776860  0.49931776  1
  Pb2+  Pb215  1  0.83828026  0.83731344  0.33664911  1
