# generated using pymatgen
data_In22Ag21Sn22Bi21(Te54Pb11)2
_symmetry_space_group_name_H-M   'P 1'
_cell_length_a   19.12236553
_cell_length_b   19.10334012
_cell_length_c   19.12022520
_cell_angle_alpha   89.99415456
_cell_angle_beta   89.99907790
_cell_angle_gamma   90.00081580
_symmetry_Int_Tables_number   1
_chemical_formula_structural   In22Ag21Sn22Bi21(Te54Pb11)2
_chemical_formula_sum   'In22 Ag21 Sn22 Bi21 Te108 Pb22'
_cell_volume   6984.63835501
_cell_formula_units_Z   1
loop_
 _symmetry_equiv_pos_site_id
 _symmetry_equiv_pos_as_xyz
  1  'x, y, z'
loop_
 _atom_type_symbol
 _atom_type_oxidation_number
  In3+  3.0
  Ag+  1.0
  Sn2+  2.0
  Bi3+  3.0
  Te2-  -2.0
  Pb2+  2.0
loop_
 _atom_site_type_symbol
 _atom_site_label
 _atom_site_symmetry_multiplicity
 _atom_site_fract_x
 _atom_site_fract_y
 _atom_site_fract_z
 _atom_site_occupancy
  In3+  In0  1  0.83096559  0.66266338  0.17554099  1
  In3+  In1  1  0.16788955  0.68448626  0.17297413  1
  In3+  In2  1  0.18119058  0.32643588  0.50693624  1
  In3+  In3  1  0.84685507  0.30831870  0.83200040  1
  In3+  In4  1  0.34403892  0.33719751  0.33211249  1
  In3+  In5  1  0.17185162  0.85793136  0.33012424  1
  In3+  In6  1  0.16980145  0.50285684  -0.00819326  1
  In3+  In7  1  0.65229216  0.16157861  0.83512332  1
  In3+  In8  1  0.50837026  0.83691500  -0.00953082  1
  In3+  In9  1  0.33271841  0.32774263  -0.01115603  1
  In3+  In10  1  0.01963627  0.32556463  0.33247263  1
  In3+  In11  1  0.33291942  0.50976716  0.49894760  1
  In3+  In12  1  0.66244454  0.15725769  0.16426169  1
  In3+  In13  1  0.65659158  0.67781448  0.33289998  1
  In3+  In14  1  0.81151174  0.50056135  0.34188196  1
  In3+  In15  1  0.17745466  0.31493954  0.83940674  1
  In3+  In16  1  0.00668281  0.15936747  0.85863645  1
  In3+  In17  1  0.16636830  0.32476955  0.15683871  1
  In3+  In18  1  0.32138200  0.17632609  0.16568113  1
  In3+  In19  1  0.34560573  0.83239999  0.15326712  1
  In3+  In20  1  0.19680876  0.00558861  0.50152198  1
  In3+  In21  1  0.83600686  0.50602458  0.68403614  1
  Ag+  Ag22  1  0.49379187  0.49017109  0.31484721  1
  Ag+  Ag23  1  0.33513787  0.34596374  0.68908316  1
  Ag+  Ag24  1  0.47931571  0.30753906  0.16015791  1
  Ag+  Ag25  1  -0.01744397  0.17186179  0.16223495  1
  Ag+  Ag26  1  0.19451492  0.01580412  0.85769831  1
  Ag+  Ag27  1  0.66242776  0.02035147  0.67891957  1
  Ag+  Ag28  1  0.81279815  0.68802461  0.49473260  1
  Ag+  Ag29  1  0.33135081  0.51959172  0.85774243  1
  Ag+  Ag30  1  0.49977256  -0.00060062  0.85412568  1
  Ag+  Ag31  1  0.65263961  0.12914239  0.53317172  1
  Ag+  Ag32  1  0.81057285  0.16203135  -0.02535970  1
  Ag+  Ag33  1  0.80502327  0.00495962  0.84023131  1
  Ag+  Ag34  1  0.18870143  0.17024238  0.32643932  1
  Ag+  Ag35  1  0.50846861  0.02643438  0.52054132  1
  Ag+  Ag36  1  0.35947115  0.69682005  0.33152859  1
  Ag+  Ag37  1  0.64619996  0.83454083  0.16416729  1
  Ag+  Ag38  1  0.63708479  0.85146156  0.53146299  1
  Ag+  Ag39  1  0.35408960  0.87150210  0.81283554  1
  Ag+  Ag40  1  0.17160413  0.16528093  -0.01955282  1
  Ag+  Ag41  1  0.35241442  0.16867254  0.80764052  1
  Ag+  Ag42  1  0.66700825  0.02069012  -0.01935816  1
  Sn2+  Sn43  1  0.50218404  0.33632069  0.83808556  1
  Sn2+  Sn44  1  0.82443110  0.84288639  -0.00295060  1
  Sn2+  Sn45  1  0.83666504  0.48627165  0.00378807  1
  Sn2+  Sn46  1  0.33842183  0.83360749  0.51112862  1
  Sn2+  Sn47  1  0.50202960  0.66549064  0.16820855  1
  Sn2+  Sn48  1  0.50113771  0.33219250  0.49410709  1
  Sn2+  Sn49  1  0.33916933  0.00421789  -0.00480397  1
  Sn2+  Sn50  1  0.50449134  0.84187843  0.66642031  1
  Sn2+  Sn51  1  -0.00729950  0.00142101  0.66953366  1
  Sn2+  Sn52  1  0.16964350  0.01081522  0.16231524  1
  Sn2+  Sn53  1  0.83016970  0.32715742  0.16263154  1
  Sn2+  Sn54  1  0.65943515  0.33007222  0.65991392  1
  Sn2+  Sn55  1  0.50250447  0.83225915  0.33460973  1
  Sn2+  Sn56  1  0.00111920  0.32484502  0.01044367  1
  Sn2+  Sn57  1  0.17064295  0.85075447  -0.00811630  1
  Sn2+  Sn58  1  0.66400447  0.50346807  0.49847095  1
  Sn2+  Sn59  1  0.50046904  0.16978995  0.33706088  1
  Sn2+  Sn60  1  0.83015604  0.83864412  0.66394860  1
  Sn2+  Sn61  1  0.33726459  0.16454636  0.50038752  1
  Sn2+  Sn62  1  0.34077019  0.00546177  0.67635604  1
  Sn2+  Sn63  1  0.50225935  0.00161946  0.16354367  1
  Sn2+  Sn64  1  0.66483381  0.84400799  0.83883205  1
  Bi3+  Bi65  1  0.00095410  0.83895383  0.16600018  1
  Bi3+  Bi66  1  0.66432447  -0.00167124  0.32717816  1
  Bi3+  Bi67  1  0.17060080  0.48577066  0.33125101  1
  Bi3+  Bi68  1  0.33888646  0.00118244  0.33049137  1
  Bi3+  Bi69  1  0.66907775  0.66341244  0.66272350  1
  Bi3+  Bi70  1  0.82898277  0.17059865  0.33022526  1
  Bi3+  Bi71  1  0.66262280  0.33296739  0.33042737  1
  Bi3+  Bi72  1  -0.00035060  0.66053570  0.33269395  1
  Bi3+  Bi73  1  0.83721164  0.82879943  0.32872112  1
  Bi3+  Bi74  1  0.66625682  0.33095500  -0.00012965  1
  Bi3+  Bi75  1  0.16505666  0.16216843  0.66210144  1
  Bi3+  Bi76  1  0.83499027  0.16449329  0.66542983  1
  Bi3+  Bi77  1  0.82973539  0.33056202  0.50087393  1
  Bi3+  Bi78  1  0.50014556  0.49302035  0.66399660  1
  Bi3+  Bi79  1  0.16903668  0.83692632  0.66518949  1
  Bi3+  Bi80  1  -0.00081160  0.66824090  0.66465344  1
  Bi3+  Bi81  1  0.00024858  0.83444642  0.49975007  1
  Bi3+  Bi82  1  0.50210544  0.66132721  0.49825213  1
  Bi3+  Bi83  1  0.00308201  0.84170186  0.83363532  1
  Bi3+  Bi84  1  0.83119716  0.00080054  0.15955670  1
  Bi3+  Bi85  1  0.66996947  0.66886199  0.00280756  1
  Te2-  Te86  1  0.17066892  0.17275908  0.17874267  1
  Te2-  Te87  1  0.16424285  0.16523474  0.50003787  1
  Te2-  Te88  1  0.16086956  0.16050372  0.82878941  1
  Te2-  Te89  1  0.16767023  0.47857545  0.16543914  1
  Te2-  Te90  1  0.17253006  0.49022637  0.49648429  1
  Te2-  Te91  1  0.17941325  0.49489535  0.83922417  1
  Te2-  Te92  1  0.16248620  0.83894318  0.16612880  1
  Te2-  Te93  1  0.16642564  0.84171890  0.49909723  1
  Te2-  Te94  1  0.16488315  0.84592217  0.82973155  1
  Te2-  Te95  1  0.50407503  0.16322411  0.16890990  1
  Te2-  Te96  1  0.51174164  0.17277156  0.49827307  1
  Te2-  Te97  1  0.49884262  0.16281341  0.83550606  1
  Te2-  Te98  1  0.49801504  0.50836764  0.16914941  1
  Te2-  Te99  1  0.49366229  0.49797280  0.50185953  1
  Te2-  Te100  1  0.48409351  0.49544218  0.82994963  1
  Te2-  Te101  1  0.49805888  0.82881534  0.17068887  1
  Te2-  Te102  1  0.49818135  0.82222538  0.49605607  1
  Te2-  Te103  1  0.49613295  0.84475805  0.83821262  1
  Te2-  Te104  1  0.83231348  0.16402368  0.16790573  1
  Te2-  Te105  1  0.81736213  0.16810516  0.49998287  1
  Te2-  Te106  1  0.84194066  0.15537229  0.82991847  1
  Te2-  Te107  1  0.83387039  0.50123891  0.16842521  1
  Te2-  Te108  1  0.82844453  0.49275306  0.49434487  1
  Te2-  Te109  1  0.83349499  0.50214930  0.83513933  1
  Te2-  Te110  1  0.84048166  0.83470280  0.16510885  1
  Te2-  Te111  1  0.83703918  0.83269387  0.49260399  1
  Te2-  Te112  1  0.83748134  0.84706563  0.83597158  1
  Te2-  Te113  1  0.16968083  0.00986917  0.00196296  1
  Te2-  Te114  1  0.17209106  0.01643552  0.33998035  1
  Te2-  Te115  1  0.16879655  -0.00132213  0.65680910  1
  Te2-  Te116  1  0.17159599  0.32272651  -0.00513297  1
  Te2-  Te117  1  0.17228945  0.32237923  0.34080400  1
  Te2-  Te118  1  0.17659603  0.32664102  0.66564849  1
  Te2-  Te119  1  0.16766290  0.65579719  0.01105471  1
  Te2-  Te120  1  0.16140145  0.64889636  0.32423330  1
  Te2-  Te121  1  0.16560764  0.66916883  0.66324622  1
  Te2-  Te122  1  0.51078542  -0.00858500  0.00312042  1
  Te2-  Te123  1  0.50187028  -0.00304525  0.32988093  1
  Te2-  Te124  1  0.51079966  -0.00571549  0.66560852  1
  Te2-  Te125  1  0.49957230  0.33185748  0.01088788  1
  Te2-  Te126  1  0.50052709  0.33978108  0.32025860  1
  Te2-  Te127  1  0.49194663  0.33223328  0.66940804  1
  Te2-  Te128  1  0.50332386  0.67157881  0.00172636  1
  Te2-  Te129  1  0.50254810  0.66037749  0.33410798  1
  Te2-  Te130  1  0.50335766  0.66326196  0.66326922  1
  Te2-  Te131  1  0.81990463  0.00882035  -0.00485493  1
  Te2-  Te132  1  0.83014451  -0.00020738  0.32841701  1
  Te2-  Te133  1  0.81782344  0.00163339  0.67548828  1
  Te2-  Te134  1  0.83037865  0.31853943  -0.00915614  1
  Te2-  Te135  1  0.82542121  0.33773086  0.33300517  1
  Te2-  Te136  1  0.83124438  0.33174655  0.67053754  1
  Te2-  Te137  1  0.82958843  0.66535554  0.00015144  1
  Te2-  Te138  1  0.83594058  0.66205585  0.34022419  1
  Te2-  Te139  1  0.83452734  0.66412803  0.65411444  1
  Te2-  Te140  1  0.01699228  0.16896533  0.01091914  1
  Te2-  Te141  1  -0.00966579  0.17254979  0.32370820  1
  Te2-  Te142  1  -0.00139651  0.16353795  0.66288939  1
  Te2-  Te143  1  0.00148396  0.49381318  -0.00022221  1
  Te2-  Te144  1  0.00508012  0.49383754  0.33145232  1
  Te2-  Te145  1  -0.00134825  0.50219055  0.66696348  1
  Te2-  Te146  1  0.00206703  0.83385692  -0.00035183  1
  Te2-  Te147  1  0.00448497  0.82749218  0.33249219  1
  Te2-  Te148  1  0.00062732  0.83139884  0.66676391  1
  Te2-  Te149  1  0.32187029  0.17289074  0.01306848  1
  Te2-  Te150  1  0.33903229  0.16243027  0.32884698  1
  Te2-  Te151  1  0.32810717  0.16423764  0.66095219  1
  Te2-  Te152  1  0.32721371  0.48644733  0.00277003  1
  Te2-  Te153  1  0.33745960  0.49171933  0.34051487  1
  Te2-  Te154  1  0.33712207  0.48892211  0.65420949  1
  Te2-  Te155  1  0.32947409  0.83413920  0.00131136  1
  Te2-  Te156  1  0.32684006  0.84002786  0.33925222  1
  Te2-  Te157  1  0.33150471  0.83371694  0.67103947  1
  Te2-  Te158  1  0.66502260  0.16820136  0.00376207  1
  Te2-  Te159  1  0.66779754  0.16829964  0.32527474  1
  Te2-  Te160  1  0.67067479  0.16872606  0.67556534  1
  Te2-  Te161  1  0.66931927  0.49819722  -0.00240594  1
  Te2-  Te162  1  0.65603999  0.49962207  0.33467419  1
  Te2-  Te163  1  0.66642336  0.49838119  0.66557574  1
  Te2-  Te164  1  0.66330694  0.82859574  0.00788353  1
  Te2-  Te165  1  0.67503956  0.82894652  0.31970068  1
  Te2-  Te166  1  0.67129298  0.82285370  0.67074935  1
  Te2-  Te167  1  -0.00050125  0.00268644  0.16611103  1
  Te2-  Te168  1  -0.00902783  -0.00463783  0.50162705  1
  Te2-  Te169  1  0.00501270  0.00388765  0.82995165  1
  Te2-  Te170  1  0.00185416  0.32198869  0.17152172  1
  Te2-  Te171  1  -0.00645985  0.33147650  0.49485477  1
  Te2-  Te172  1  -0.00033435  0.32354028  0.83493181  1
  Te2-  Te173  1  0.00168787  0.67080412  0.17015262  1
  Te2-  Te174  1  0.00104548  0.66895250  0.49994281  1
  Te2-  Te175  1  0.00108360  0.66954583  0.82925098  1
  Te2-  Te176  1  0.33310651  -0.01130477  0.16745228  1
  Te2-  Te177  1  0.35298147  0.00003293  0.49843516  1
  Te2-  Te178  1  0.34050972  0.01475166  0.83666211  1
  Te2-  Te179  1  0.33396097  0.32929495  0.17563877  1
  Te2-  Te180  1  0.33297433  0.32344977  0.48845507  1
  Te2-  Te181  1  0.33104884  0.31526693  0.83482265  1
  Te2-  Te182  1  0.32819891  0.67906880  0.18168554  1
  Te2-  Te183  1  0.33559888  0.66610634  0.48540723  1
  Te2-  Te184  1  0.33163627  0.66548185  0.83513238  1
  Te2-  Te185  1  0.66978303  -0.00716621  0.16556870  1
  Te2-  Te186  1  0.65184044  -0.00969191  0.48721395  1
  Te2-  Te187  1  0.65512989  0.00285382  0.83276006  1
  Te2-  Te188  1  0.66981232  0.33082306  0.16463227  1
  Te2-  Te189  1  0.66725282  0.33506766  0.49558377  1
  Te2-  Te190  1  0.66481293  0.32336101  0.83626681  1
  Te2-  Te191  1  0.67079746  0.67604878  0.16731472  1
  Te2-  Te192  1  0.66699603  0.66847211  0.49568839  1
  Te2-  Te193  1  0.66552809  0.66725004  0.83192449  1
  Pb2+  Pb194  1  -0.00989835  0.00318874  -0.00220188  1
  Pb2+  Pb195  1  0.17274677  0.49613049  0.67052941  1
  Pb2+  Pb196  1  0.16866613  0.66884698  0.48939591  1
  Pb2+  Pb197  1  0.49851866  0.49809622  0.00228099  1
  Pb2+  Pb198  1  0.49731946  0.67188267  0.83196522  1
  Pb2+  Pb199  1  0.00714585  0.49257286  0.83478140  1
  Pb2+  Pb200  1  -0.00350006  0.66648347  0.00157586  1
  Pb2+  Pb201  1  0.33448339  0.66540811  0.00413775  1
  Pb2+  Pb202  1  -0.00296533  0.49946324  0.49690928  1
  Pb2+  Pb203  1  0.66061807  0.49299371  0.83065817  1
  Pb2+  Pb204  1  0.33557627  0.66193921  0.66410603  1
  Pb2+  Pb205  1  0.81634628  -0.00206552  0.50738994  1
  Pb2+  Pb206  1  0.00132701  0.49476608  0.16657647  1
  Pb2+  Pb207  1  -0.00772943  0.16317055  0.49339446  1
  Pb2+  Pb208  1  0.33231408  0.50632274  0.17358964  1
  Pb2+  Pb209  1  0.49743914  0.16124035  0.66673432  1
  Pb2+  Pb210  1  0.83137571  0.67809832  0.82935019  1
  Pb2+  Pb211  1  0.16907252  0.67663661  0.83916659  1
  Pb2+  Pb212  1  0.66569268  0.50403236  0.16763300  1
  Pb2+  Pb213  1  0.00221405  0.32989592  0.66514543  1
  Pb2+  Pb214  1  0.00218892  0.00209870  0.33360426  1
  Pb2+  Pb215  1  0.49084932  0.16320312  0.00162997  1
