# generated using pymatgen
data_In22Ag21Sn22Bi21(Te54Pb11)2
_symmetry_space_group_name_H-M   'P 1'
_cell_length_a   19.11987957
_cell_length_b   19.13645618
_cell_length_c   19.12189706
_cell_angle_alpha   90.01014974
_cell_angle_beta   89.99312564
_cell_angle_gamma   90.01433650
_symmetry_Int_Tables_number   1
_chemical_formula_structural   In22Ag21Sn22Bi21(Te54Pb11)2
_chemical_formula_sum   'In22 Ag21 Sn22 Bi21 Te108 Pb22'
_cell_volume   6996.44815221
_cell_formula_units_Z   1
loop_
 _symmetry_equiv_pos_site_id
 _symmetry_equiv_pos_as_xyz
  1  'x, y, z'
loop_
 _atom_type_symbol
 _atom_type_oxidation_number
  In3+  3.0
  Ag+  1.0
  Sn2+  2.0
  Bi3+  3.0
  Te2-  -2.0
  Pb2+  2.0
loop_
 _atom_site_type_symbol
 _atom_site_label
 _atom_site_symmetry_multiplicity
 _atom_site_fract_x
 _atom_site_fract_y
 _atom_site_fract_z
 _atom_site_occupancy
  In3+  In0  1  0.67430123  0.67714440  0.00031488  1
  In3+  In1  1  0.82520059  0.00687256  0.15614777  1
  In3+  In2  1  0.00087253  0.00275146  0.65769165  1
  In3+  In3  1  0.83231842  0.17105296  0.65608981  1
  In3+  In4  1  0.83052482  0.86608411  0.00643176  1
  In3+  In5  1  -0.00378570  0.68258284  -0.00842089  1
  In3+  In6  1  0.49844504  0.48942106  0.00104790  1
  In3+  In7  1  -0.00829060  0.83160897  0.50467353  1
  In3+  In8  1  0.16863402  0.85345620  -0.00123799  1
  In3+  In9  1  0.66237932  0.48478020  0.84183154  1
  In3+  In10  1  0.83086164  0.50900900  0.00002287  1
  In3+  In11  1  0.34484701  0.00422670  -0.00114575  1
  In3+  In12  1  0.32770170  0.48263997  0.83069846  1
  In3+  In13  1  0.15631004  0.01815428  0.16675380  1
  In3+  In14  1  0.16091563  0.83342521  0.65161446  1
  In3+  In15  1  0.66702716  0.03343366  0.31645059  1
  In3+  In16  1  0.66975091  0.85392964  0.49496425  1
  In3+  In17  1  0.01743957  0.48738818  0.83154294  1
  In3+  In18  1  0.31854177  0.32815671  0.34135316  1
  In3+  In19  1  0.83487177  0.33120687  0.83525256  1
  In3+  In20  1  0.51580638  -0.00155706  0.83423974  1
  In3+  In21  1  0.35123106  0.66894222  0.00088198  1
  Ag+  Ag22  1  -0.00399303  0.30843792  0.65246057  1
  Ag+  Ag23  1  0.15079833  0.16127571  0.35496529  1
  Ag+  Ag24  1  0.52107587  0.14256996  0.00080974  1
  Ag+  Ag25  1  0.19306180  0.31391746  0.19088187  1
  Ag+  Ag26  1  0.17894354  -0.00086614  0.81856838  1
  Ag+  Ag27  1  0.64940239  0.17377796  0.14066670  1
  Ag+  Ag28  1  0.00942120  0.64957670  0.68747534  1
  Ag+  Ag29  1  0.63823516  0.15293912  0.49108393  1
  Ag+  Ag30  1  0.84129841  0.64398023  0.49967420  1
  Ag+  Ag31  1  0.16662523  0.35792546  0.52684636  1
  Ag+  Ag32  1  0.64945348  0.52755244  0.13894592  1
  Ag+  Ag33  1  0.14476181  0.47089909  0.66083380  1
  Ag+  Ag34  1  0.50440740  0.35231964  0.82978921  1
  Ag+  Ag35  1  0.47368637  0.86268147  0.66203940  1
  Ag+  Ag36  1  0.81633855  0.16697508  -0.02520842  1
  Ag+  Ag37  1  0.64263350  0.32918581  0.31229306  1
  Ag+  Ag38  1  0.52302522  0.00074981  0.18905421  1
  Ag+  Ag39  1  0.64510708  0.01389561  0.01180123  1
  Ag+  Ag40  1  0.15381349  -0.00337064  0.51942609  1
  Ag+  Ag41  1  0.80852660  0.00516953  0.47364390  1
  Ag+  Ag42  1  0.00312695  0.02162367  0.00751222  1
  Sn2+  Sn43  1  0.67462496  0.66843923  0.66591620  1
  Sn2+  Sn44  1  0.82998099  0.83251124  0.34211775  1
  Sn2+  Sn45  1  0.33153765  0.00371330  0.32545458  1
  Sn2+  Sn46  1  -0.00388395  0.16901282  0.16329867  1
  Sn2+  Sn47  1  0.16898616  0.16481303  0.65880921  1
  Sn2+  Sn48  1  0.84330931  0.50505808  0.67400414  1
  Sn2+  Sn49  1  0.66280813  0.16165895  0.83573014  1
  Sn2+  Sn50  1  0.51004149  0.49265950  0.32272669  1
  Sn2+  Sn51  1  0.16885690  0.16864067  -0.00342445  1
  Sn2+  Sn52  1  0.50914614  0.16991216  0.67759628  1
  Sn2+  Sn53  1  0.50625607  0.17455323  0.32206462  1
  Sn2+  Sn54  1  0.00534670  0.33316992  0.34169410  1
  Sn2+  Sn55  1  0.16178277  0.50045081  0.00052658  1
  Sn2+  Sn56  1  0.83638867  0.32340518  0.50183271  1
  Sn2+  Sn57  1  0.50480695  0.31581132  0.15785412  1
  Sn2+  Sn58  1  0.83115642  0.66236885  0.81681099  1
  Sn2+  Sn59  1  0.33195649  0.65077648  0.33648465  1
  Sn2+  Sn60  1  0.66134366  0.84249341  0.17104260  1
  Sn2+  Sn61  1  0.00035187  0.16068696  0.83783790  1
  Sn2+  Sn62  1  0.32941074  0.50014752  0.50596537  1
  Sn2+  Sn63  1  0.49652924  0.00104686  0.49850804  1
  Sn2+  Sn64  1  0.50707920  0.49577371  0.66530064  1
  Bi3+  Bi65  1  0.33235590  0.16463679  0.49629169  1
  Bi3+  Bi66  1  0.83823774  0.00402353  0.83429188  1
  Bi3+  Bi67  1  0.66561011  0.49526088  0.50466707  1
  Bi3+  Bi68  1  0.33139920  0.83455394  0.83671422  1
  Bi3+  Bi69  1  -0.00444810  0.49651335  0.16129123  1
  Bi3+  Bi70  1  0.50945153  0.66551972  0.50354652  1
  Bi3+  Bi71  1  0.33309877  0.16286283  0.83488396  1
  Bi3+  Bi72  1  0.33221891  0.33281626  0.00043672  1
  Bi3+  Bi73  1  0.33878369  0.16323840  0.16504809  1
  Bi3+  Bi74  1  0.00535883  0.16528704  0.50095291  1
  Bi3+  Bi75  1  0.83633050  0.16895922  0.33484459  1
  Bi3+  Bi76  1  -0.00225312  0.66879903  0.33309712  1
  Bi3+  Bi77  1  0.67509536  0.33478432  0.66993475  1
  Bi3+  Bi78  1  0.16480434  0.65902472  0.16421826  1
  Bi3+  Bi79  1  0.83108547  0.32615985  0.16492412  1
  Bi3+  Bi80  1  -0.00183635  0.84009810  0.83173063  1
  Bi3+  Bi81  1  0.66802229  0.82978193  0.83128018  1
  Bi3+  Bi82  1  0.83501399  0.83475118  0.66756797  1
  Bi3+  Bi83  1  0.00046013  0.33127702  0.00147737  1
  Bi3+  Bi84  1  0.83230096  0.49544818  0.33301114  1
  Bi3+  Bi85  1  0.33406824  0.83618313  0.16694485  1
  Te2-  Te86  1  0.17255323  0.17189978  0.15951051  1
  Te2-  Te87  1  0.17007425  0.15151914  0.50072980  1
  Te2-  Te88  1  0.17142676  0.15281237  0.83005228  1
  Te2-  Te89  1  0.16125547  0.49723451  0.16924374  1
  Te2-  Te90  1  0.17019007  0.50463035  0.51357913  1
  Te2-  Te91  1  0.17042581  0.49948139  0.82364077  1
  Te2-  Te92  1  0.17008831  0.82454460  0.15736001  1
  Te2-  Te93  1  0.16664027  0.84700274  0.49827234  1
  Te2-  Te94  1  0.16408180  0.84750305  0.84427099  1
  Te2-  Te95  1  0.50225937  0.15273175  0.15583946  1
  Te2-  Te96  1  0.49173114  0.16824686  0.50306622  1
  Te2-  Te97  1  0.49585361  0.15242852  0.84345402  1
  Te2-  Te98  1  0.50716778  0.49700294  0.16134207  1
  Te2-  Te99  1  0.49865718  0.50016762  0.49759614  1
  Te2-  Te100  1  0.50689798  0.50036160  0.83902068  1
  Te2-  Te101  1  0.49755204  0.84774211  0.16593971  1
  Te2-  Te102  1  0.51109978  0.82982716  0.51562842  1
  Te2-  Te103  1  0.49969461  0.83995285  0.81882289  1
  Te2-  Te104  1  0.83100819  0.16253239  0.17391850  1
  Te2-  Te105  1  0.84324910  0.15542171  0.50071803  1
  Te2-  Te106  1  0.83333010  0.17008358  0.82696849  1
  Te2-  Te107  1  0.83076403  0.49309937  0.16531839  1
  Te2-  Te108  1  0.83218290  0.49402448  0.50003722  1
  Te2-  Te109  1  0.82315965  0.49269867  0.83971390  1
  Te2-  Te110  1  0.83029126  0.83916074  0.16072163  1
  Te2-  Te111  1  0.83033550  0.85471084  0.50328716  1
  Te2-  Te112  1  0.83358093  0.83395150  0.83723035  1
  Te2-  Te113  1  0.15406082  0.00351138  0.01115954  1
  Te2-  Te114  1  0.16939792  0.01267382  0.32028005  1
  Te2-  Te115  1  0.15860835  -0.00628632  0.66977638  1
  Te2-  Te116  1  0.16751172  0.33871024  -0.00098444  1
  Te2-  Te117  1  0.16619527  0.32030628  0.33346740  1
  Te2-  Te118  1  0.15413672  0.32481545  0.66976996  1
  Te2-  Te119  1  0.15333288  0.65995833  0.00232004  1
  Te2-  Te120  1  0.16425691  0.66807037  0.33125881  1
  Te2-  Te121  1  0.15423619  0.68043866  0.66741008  1
  Te2-  Te122  1  0.49968843  -0.00328342  -0.00845133  1
  Te2-  Te123  1  0.51226095  0.00503380  0.33584884  1
  Te2-  Te124  1  0.50352151  0.00672802  0.67166474  1
  Te2-  Te125  1  0.49459356  0.33730353  -0.00659501  1
  Te2-  Te126  1  0.49632357  0.33314433  0.33068164  1
  Te2-  Te127  1  0.50579627  0.33297893  0.67661835  1
  Te2-  Te128  1  0.50877047  0.66311342  0.00122845  1
  Te2-  Te129  1  0.49940678  0.66442080  0.33743171  1
  Te2-  Te130  1  0.50224607  0.65824666  0.66333143  1
  Te2-  Te131  1  0.84572316  0.01773149  0.00149758  1
  Te2-  Te132  1  0.82183139  0.00242469  0.32623469  1
  Te2-  Te133  1  0.84091176  -0.00009156  0.67239829  1
  Te2-  Te134  1  0.83639844  0.31713082  -0.00188053  1
  Te2-  Te135  1  0.83895414  0.33210411  0.33402004  1
  Te2-  Te136  1  0.84390421  0.33195841  0.67175414  1
  Te2-  Te137  1  0.83365292  0.66194982  -0.00345435  1
  Te2-  Te138  1  0.83513367  0.66223111  0.34161731  1
  Te2-  Te139  1  0.84347950  0.67368090  0.65336073  1
  Te2-  Te140  1  0.00531284  0.17115980  0.00034023  1
  Te2-  Te141  1  0.00232037  0.16720622  0.33315448  1
  Te2-  Te142  1  -0.00258024  0.16170106  0.66723598  1
  Te2-  Te143  1  -0.00759910  0.49495597  -0.00548838  1
  Te2-  Te144  1  -0.00298096  0.50304183  0.33253082  1
  Te2-  Te145  1  0.00133167  0.50426996  0.67773664  1
  Te2-  Te146  1  -0.00771645  0.83352489  -0.00368659  1
  Te2-  Te147  1  -0.00239257  0.83271669  0.33479936  1
  Te2-  Te148  1  0.00033786  0.83995654  0.66662576  1
  Te2-  Te149  1  0.33560074  0.16656709  -0.00021065  1
  Te2-  Te150  1  0.33994047  0.16941060  0.32765903  1
  Te2-  Te151  1  0.33819802  0.16699308  0.66915367  1
  Te2-  Te152  1  0.33543473  0.49975959  -0.00882697  1
  Te2-  Te153  1  0.33493702  0.49257785  0.33353181  1
  Te2-  Te154  1  0.33961685  0.49913775  0.67597829  1
  Te2-  Te155  1  0.33023820  0.83453202  0.00080477  1
  Te2-  Te156  1  0.33647243  0.83485899  0.32948572  1
  Te2-  Te157  1  0.32838363  0.83355398  0.67232869  1
  Te2-  Te158  1  0.66888157  0.15942704  -0.00547323  1
  Te2-  Te159  1  0.67174384  0.18013195  0.34894363  1
  Te2-  Te160  1  0.67649694  0.17078005  0.66582589  1
  Te2-  Te161  1  0.67044271  0.49806357  -0.00302863  1
  Te2-  Te162  1  0.67033684  0.48208775  0.33885267  1
  Te2-  Te163  1  0.67385776  0.49979200  0.67178126  1
  Te2-  Te164  1  0.67363119  0.83209555  -0.00249433  1
  Te2-  Te165  1  0.67113210  0.82720249  0.33984240  1
  Te2-  Te166  1  0.67309312  0.83114341  0.66939316  1
  Te2-  Te167  1  0.00025531  0.00308502  0.16087417  1
  Te2-  Te168  1  0.00681398  -0.00046966  0.50255585  1
  Te2-  Te169  1  -0.00318533  -0.00013180  0.84544926  1
  Te2-  Te170  1  -0.00415276  0.33622212  0.16634828  1
  Te2-  Te171  1  0.01040843  0.32979815  0.50614032  1
  Te2-  Te172  1  -0.00524488  0.33538039  0.83654070  1
  Te2-  Te173  1  -0.00045289  0.66124761  0.16522942  1
  Te2-  Te174  1  -0.01044125  0.67686762  0.49349563  1
  Te2-  Te175  1  -0.00605886  0.67285048  0.83541292  1
  Te2-  Te176  1  0.32669678  -0.00029478  0.15874073  1
  Te2-  Te177  1  0.33667612  0.00217451  0.49540781  1
  Te2-  Te178  1  0.32692669  -0.00221803  0.84246084  1
  Te2-  Te179  1  0.33844761  0.33005849  0.16306520  1
  Te2-  Te180  1  0.31994720  0.33039527  0.49671399  1
  Te2-  Te181  1  0.34458101  0.32873027  0.83556965  1
  Te2-  Te182  1  0.33059770  0.66797777  0.16457896  1
  Te2-  Te183  1  0.33778152  0.66621089  0.49819225  1
  Te2-  Te184  1  0.33142467  0.67330076  0.84063861  1
  Te2-  Te185  1  0.66867880  0.00205598  0.16034410  1
  Te2-  Te186  1  0.66288831  0.00789765  0.50185852  1
  Te2-  Te187  1  0.67447935  -0.00667663  0.84693185  1
  Te2-  Te188  1  0.66770173  0.31857623  0.16767313  1
  Te2-  Te189  1  0.67076607  0.33387182  0.51133648  1
  Te2-  Te190  1  0.65654981  0.33031922  0.83119492  1
  Te2-  Te191  1  0.66692638  0.67070294  0.16070713  1
  Te2-  Te192  1  0.67218736  0.65728137  0.50429153  1
  Te2-  Te193  1  0.67089010  0.66831643  0.83846496  1
  Pb2+  Pb194  1  0.33968681  0.83465665  0.50064950  1
  Pb2+  Pb195  1  -0.00474811  0.00121147  0.33456000  1
  Pb2+  Pb196  1  0.16676171  0.32216650  0.83432835  1
  Pb2+  Pb197  1  0.67157416  0.00081915  0.67223373  1
  Pb2+  Pb198  1  0.32665302  0.33385359  0.66413586  1
  Pb2+  Pb199  1  0.66723706  0.65155818  0.33656825  1
  Pb2+  Pb200  1  0.66636926  0.32672783  0.00219120  1
  Pb2+  Pb201  1  0.32724730  0.66474895  0.66847560  1
  Pb2+  Pb202  1  0.00053335  0.83616444  0.16378378  1
  Pb2+  Pb203  1  0.15828794  0.67470531  0.50146233  1
  Pb2+  Pb204  1  0.33640278  0.49773542  0.16211046  1
  Pb2+  Pb205  1  0.50139989  0.66855365  0.82955291  1
  Pb2+  Pb206  1  0.49923705  0.67302410  0.16925941  1
  Pb2+  Pb207  1  0.83257032  0.66612642  0.16707829  1
  Pb2+  Pb208  1  0.50520245  0.83752780  0.34110959  1
  Pb2+  Pb209  1  -0.00060044  0.50028407  0.50654178  1
  Pb2+  Pb210  1  0.16262593  0.67494857  0.83509434  1
  Pb2+  Pb211  1  0.32986617  0.00110607  0.66895805  1
  Pb2+  Pb212  1  0.16882741  0.84533390  0.32709398  1
  Pb2+  Pb213  1  0.49980455  0.33326758  0.50184362  1
  Pb2+  Pb214  1  0.50307953  0.83128521  -0.00706989  1
  Pb2+  Pb215  1  0.16690799  0.49123195  0.33991004  1
