# generated using pymatgen
data_In22Ag21Sn22Bi21(Te54Pb11)2
_symmetry_space_group_name_H-M   'P 1'
_cell_length_a   19.14180637
_cell_length_b   19.14830997
_cell_length_c   19.13854813
_cell_angle_alpha   90.00220429
_cell_angle_beta   90.00896707
_cell_angle_gamma   89.99569543
_symmetry_Int_Tables_number   1
_chemical_formula_structural   In22Ag21Sn22Bi21(Te54Pb11)2
_chemical_formula_sum   'In22 Ag21 Sn22 Bi21 Te108 Pb22'
_cell_volume   7014.91398037
_cell_formula_units_Z   1
loop_
 _symmetry_equiv_pos_site_id
 _symmetry_equiv_pos_as_xyz
  1  'x, y, z'
loop_
 _atom_type_symbol
 _atom_type_oxidation_number
  In3+  3.0
  Ag+  1.0
  Sn2+  2.0
  Bi3+  3.0
  Te2-  -2.0
  Pb2+  2.0
loop_
 _atom_site_type_symbol
 _atom_site_label
 _atom_site_symmetry_multiplicity
 _atom_site_fract_x
 _atom_site_fract_y
 _atom_site_fract_z
 _atom_site_occupancy
  In3+  In0  1  0.69306850  -0.00596922  0.32083389  1
  In3+  In1  1  0.50146980  0.15808754  0.67233032  1
  In3+  In2  1  0.32776170  0.85879659  0.82980030  1
  In3+  In3  1  0.15000211  0.00026852  0.50399487  1
  In3+  In4  1  0.66562994  0.31599698  0.66781900  1
  In3+  In5  1  0.68668013  0.16234035  0.50445551  1
  In3+  In6  1  0.31281282  0.49927376  0.51996111  1
  In3+  In7  1  0.49254702  0.84197867  0.34678741  1
  In3+  In8  1  0.31464661  0.17339778  0.81371049  1
  In3+  In9  1  0.16365227  0.68060037  0.18477805  1
  In3+  In10  1  -0.01609254  0.66210302  0.34788115  1
  In3+  In11  1  0.31571507  0.49639135  0.17760994  1
  In3+  In12  1  -0.00645906  0.84053427  0.18214616  1
  In3+  In13  1  0.49563950  0.32677063  0.50241157  1
  In3+  In14  1  0.69097292  -0.01652437  0.66703557  1
  In3+  In15  1  0.16166918  0.33362524  0.14631297  1
  In3+  In16  1  0.33285338  0.01087717  0.00779387  1
  In3+  In17  1  0.84823771  0.66415521  0.80702176  1
  In3+  In18  1  -0.00894590  0.16686714  0.52592133  1
  In3+  In19  1  -0.00318942  0.01902722  0.36141835  1
  In3+  In20  1  0.53079541  0.16308410  0.33492388  1
  In3+  In21  1  0.14949630  0.00311105  0.81690122  1
  Ag+  Ag22  1  0.14769234  0.16316943  0.67122735  1
  Ag+  Ag23  1  -0.00009541  0.30606839  -0.02448634  1
  Ag+  Ag24  1  0.02449837  0.83068883  0.81485455  1
  Ag+  Ag25  1  0.14564164  0.51454851  0.33595782  1
  Ag+  Ag26  1  0.81486963  0.50194524  0.31261689  1
  Ag+  Ag27  1  0.16481595  0.35508856  0.80213225  1
  Ag+  Ag28  1  0.84044094  0.14173464  0.30922438  1
  Ag+  Ag29  1  0.15128047  0.85587664  0.33465064  1
  Ag+  Ag30  1  0.47009853  0.86179418  0.64270761  1
  Ag+  Ag31  1  0.00153994  0.47855846  0.81458274  1
  Ag+  Ag32  1  0.83262913  0.00114387  0.14005448  1
  Ag+  Ag33  1  -0.00380304  0.01927200  0.67294737  1
  Ag+  Ag34  1  0.82287121  -0.01424404  0.50510369  1
  Ag+  Ag35  1  0.85816559  0.68861207  0.50439634  1
  Ag+  Ag36  1  0.85917241  0.49964479  -0.02104999  1
  Ag+  Ag37  1  0.02832249  0.68950362  0.69108164  1
  Ag+  Ag38  1  0.84661190  0.15802563  0.66924364  1
  Ag+  Ag39  1  0.30699198  0.32646959  0.66841173  1
  Ag+  Ag40  1  0.15525221  0.51593028  0.68934706  1
  Ag+  Ag41  1  0.69647520  0.81531337  0.18452938  1
  Ag+  Ag42  1  -0.02048270  0.18648708  0.84293496  1
  Sn2+  Sn43  1  0.67543878  0.17219794  0.83130512  1
  Sn2+  Sn44  1  0.66047692  0.82970260  0.84009566  1
  Sn2+  Sn45  1  0.16227721  0.66488603  0.49640749  1
  Sn2+  Sn46  1  0.33093026  0.66152320  0.66794279  1
  Sn2+  Sn47  1  0.32515499  0.83500614  0.49755141  1
  Sn2+  Sn48  1  0.67883534  0.66496642  0.00258670  1
  Sn2+  Sn49  1  0.32624553  0.33194672  0.34074135  1
  Sn2+  Sn50  1  -0.00363838  0.34151603  0.32989421  1
  Sn2+  Sn51  1  0.49944982  0.67206402  0.16405838  1
  Sn2+  Sn52  1  0.84827705  0.33447008  0.83811386  1
  Sn2+  Sn53  1  0.16046328  0.49896723  0.00074093  1
  Sn2+  Sn54  1  0.84174578  0.83423968  0.66861204  1
  Sn2+  Sn55  1  0.15115842  -0.00091495  0.16177803  1
  Sn2+  Sn56  1  0.16178006  0.83058377  0.00507876  1
  Sn2+  Sn57  1  0.50360342  0.50053684  0.33576536  1
  Sn2+  Sn58  1  -0.00049159  0.49326842  0.50535029  1
  Sn2+  Sn59  1  0.50480766  0.00494491  0.50118978  1
  Sn2+  Sn60  1  0.67398103  0.50615169  0.16428993  1
  Sn2+  Sn61  1  0.49108256  0.32892447  0.82709950  1
  Sn2+  Sn62  1  0.68497756  0.49482176  0.83418980  1
  Sn2+  Sn63  1  0.67445983  0.49724295  0.50506279  1
  Sn2+  Sn64  1  0.50511300  0.17082128  -0.00431005  1
  Bi3+  Bi65  1  0.49708674  0.49877204  0.00159776  1
  Bi3+  Bi66  1  -0.00285457  0.33592004  0.66796184  1
  Bi3+  Bi67  1  0.33680399  0.66286417  0.33381587  1
  Bi3+  Bi68  1  0.66608974  0.66962793  0.66826336  1
  Bi3+  Bi69  1  0.66932420  0.16595649  0.17160762  1
  Bi3+  Bi70  1  0.00021394  0.50180356  0.16728671  1
  Bi3+  Bi71  1  0.50247342  0.66361690  0.83032703  1
  Bi3+  Bi72  1  0.16730831  0.32853841  0.50168690  1
  Bi3+  Bi73  1  0.00139212  0.66779466  -0.00211577  1
  Bi3+  Bi74  1  0.49843475  0.65966104  0.49983586  1
  Bi3+  Bi75  1  0.33495367  0.66701088  -0.00085356  1
  Bi3+  Bi76  1  0.00393567  -0.00700240  -0.00740675  1
  Bi3+  Bi77  1  0.83323707  0.33609014  0.50389534  1
  Bi3+  Bi78  1  0.33334265  0.16924021  0.17107605  1
  Bi3+  Bi79  1  0.33229290  0.16819244  0.49810134  1
  Bi3+  Bi80  1  0.83834765  0.49595575  0.67004419  1
  Bi3+  Bi81  1  0.15744352  0.16936446  0.33893390  1
  Bi3+  Bi82  1  0.49945254  0.83228652  -0.00106462  1
  Bi3+  Bi83  1  0.66607441  0.66880771  0.33665673  1
  Bi3+  Bi84  1  0.83515771  -0.00457317  0.82602917  1
  Bi3+  Bi85  1  0.33069646  0.49492403  0.83385811  1
  Te2-  Te86  1  0.17025914  0.16734040  0.17178079  1
  Te2-  Te87  1  0.16801520  0.15989165  0.50174942  1
  Te2-  Te88  1  0.16683641  0.15470111  0.82183126  1
  Te2-  Te89  1  0.16457045  0.49204970  0.17555661  1
  Te2-  Te90  1  0.16729645  0.49192897  0.48588276  1
  Te2-  Te91  1  0.16628652  0.49857084  0.83492359  1
  Te2-  Te92  1  0.16138359  0.83670426  0.17985625  1
  Te2-  Te93  1  0.16848762  0.84350150  0.48707431  1
  Te2-  Te94  1  0.17375261  0.83830019  0.83276429  1
  Te2-  Te95  1  0.49958309  0.16718318  0.17245525  1
  Te2-  Te96  1  0.49431007  0.17138172  0.49501824  1
  Te2-  Te97  1  0.50386876  0.17076444  0.83131142  1
  Te2-  Te98  1  0.50822840  0.50352267  0.16428212  1
  Te2-  Te99  1  0.50469634  0.49639060  0.49861514  1
  Te2-  Te100  1  0.49672310  0.49769995  0.83510465  1
  Te2-  Te101  1  0.49493017  0.83334477  0.16124251  1
  Te2-  Te102  1  0.49478743  0.82906902  0.50133297  1
  Te2-  Te103  1  0.49856866  0.82691382  0.83479952  1
  Te2-  Te104  1  0.83167026  0.15823103  0.16277955  1
  Te2-  Te105  1  0.83688560  0.17367147  0.51636052  1
  Te2-  Te106  1  0.83352385  0.16382972  0.82244469  1
  Te2-  Te107  1  0.83494884  0.50035616  0.16745630  1
  Te2-  Te108  1  0.83470802  0.49605286  0.50917783  1
  Te2-  Te109  1  0.84904316  0.50606502  0.83245144  1
  Te2-  Te110  1  0.83900428  0.84387540  0.16840712  1
  Te2-  Te111  1  0.83217409  0.83473453  0.50341767  1
  Te2-  Te112  1  0.82075196  0.82982757  0.82924441  1
  Te2-  Te113  1  0.17110038  -0.00566181  -0.00029291  1
  Te2-  Te114  1  0.15166983  0.00439278  0.33637095  1
  Te2-  Te115  1  0.15516982  0.00682166  0.66187385  1
  Te2-  Te116  1  0.15361011  0.33007146  -0.00371114  1
  Te2-  Te117  1  0.16480741  0.32862661  0.33996909  1
  Te2-  Te118  1  0.15867330  0.31502398  0.66076779  1
  Te2-  Te119  1  0.17225955  0.66909466  0.00504706  1
  Te2-  Te120  1  0.17701418  0.65962233  0.33379583  1
  Te2-  Te121  1  0.16952781  0.66080213  0.65958079  1
  Te2-  Te122  1  0.49428561  -0.00165979  0.00136637  1
  Te2-  Te123  1  0.50067967  -0.00044157  0.33969888  1
  Te2-  Te124  1  0.49741347  0.00298618  0.66336046  1
  Te2-  Te125  1  0.49844160  0.33618008  -0.00141959  1
  Te2-  Te126  1  0.49858574  0.32900159  0.34334746  1
  Te2-  Te127  1  0.51059330  0.33171869  0.66180698  1
  Te2-  Te128  1  0.49986551  0.66565125  -0.00346114  1
  Te2-  Te129  1  0.50066578  0.67316839  0.33365681  1
  Te2-  Te130  1  0.49987409  0.66746093  0.66554730  1
  Te2-  Te131  1  0.83611490  -0.00258858  -0.00989853  1
  Te2-  Te132  1  0.84268421  -0.00106179  0.35288489  1
  Te2-  Te133  1  0.83912599  0.00704217  0.66194729  1
  Te2-  Te134  1  0.84741550  0.34388329  -0.00633590  1
  Te2-  Te135  1  0.83602866  0.34926720  0.34082640  1
  Te2-  Te136  1  0.82900502  0.33330179  0.67028327  1
  Te2-  Te137  1  0.83624938  0.65480102  0.00210440  1
  Te2-  Te138  1  0.82970879  0.65721989  0.34778760  1
  Te2-  Te139  1  0.82831413  0.66140414  0.65481693  1
  Te2-  Te140  1  0.00223505  0.15737449  -0.01118443  1
  Te2-  Te141  1  -0.00828040  0.16755816  0.33154264  1
  Te2-  Te142  1  -0.00270329  0.16948250  0.67751941  1
  Te2-  Te143  1  0.00441940  0.50777790  0.00619391  1
  Te2-  Te144  1  -0.00037159  0.51019084  0.33026764  1
  Te2-  Te145  1  0.00471857  0.49927517  0.66911192  1
  Te2-  Te146  1  0.00218485  0.83186842  -0.00524578  1
  Te2-  Te147  1  0.00889940  0.81548382  0.33293683  1
  Te2-  Te148  1  -0.00137864  0.83055025  0.66826968  1
  Te2-  Te149  1  0.33836941  0.16653670  0.00700573  1
  Te2-  Te150  1  0.32493172  0.16653504  0.33460286  1
  Te2-  Te151  1  0.34579252  0.17798855  0.66254676  1
  Te2-  Te152  1  0.33180478  0.50228781  0.00054364  1
  Te2-  Te153  1  0.34225824  0.49918835  0.32787749  1
  Te2-  Te154  1  0.32107357  0.49032884  0.67082697  1
  Te2-  Te155  1  0.33382158  0.82977789  -0.01028037  1
  Te2-  Te156  1  0.33529798  0.82754024  0.33287553  1
  Te2-  Te157  1  0.33135696  0.83359503  0.67192183  1
  Te2-  Te158  1  0.66495037  0.16702477  0.00461428  1
  Te2-  Te159  1  0.68881341  0.16012043  0.33618020  1
  Te2-  Te160  1  0.65640337  0.16429919  0.66221118  1
  Te2-  Te161  1  0.66007685  0.50228632  0.00102666  1
  Te2-  Te162  1  0.66780571  0.50563288  0.33505815  1
  Te2-  Te163  1  0.67095744  0.50602527  0.67071824  1
  Te2-  Te164  1  0.66230432  0.83168807  0.00822415  1
  Te2-  Te165  1  0.66184781  0.83813912  0.32734332  1
  Te2-  Te166  1  0.66728999  0.83310254  0.66813444  1
  Te2-  Te167  1  -0.00985791  -0.00639064  0.15844949  1
  Te2-  Te168  1  -0.00645476  0.00779869  0.51556198  1
  Te2-  Te169  1  -0.00191156  -0.01426185  0.82649517  1
  Te2-  Te170  1  0.00576120  0.33632814  0.16610673  1
  Te2-  Te171  1  0.00044449  0.32543183  0.50063716  1
  Te2-  Te172  1  0.00978359  0.33304020  0.83095824  1
  Te2-  Te173  1  0.00939560  0.67053067  0.16194071  1
  Te2-  Te174  1  0.00289105  0.66049581  0.50014123  1
  Te2-  Te175  1  -0.00287562  0.68023373  0.83454967  1
  Te2-  Te176  1  0.32827412  0.00352272  0.16562124  1
  Te2-  Te177  1  0.33618544  0.00319005  0.50066318  1
  Te2-  Te178  1  0.33313847  0.01330158  0.83730886  1
  Te2-  Te179  1  0.32578938  0.33431344  0.16693700  1
  Te2-  Te180  1  0.33415240  0.33476064  0.51133646  1
  Te2-  Te181  1  0.31943141  0.32983407  0.82321507  1
  Te2-  Te182  1  0.32853923  0.65845425  0.16508621  1
  Te2-  Te183  1  0.33633406  0.65972351  0.49925443  1
  Te2-  Te184  1  0.33737552  0.65930910  0.83426484  1
  Te2-  Te185  1  0.67940278  0.00499666  0.17022776  1
  Te2-  Te186  1  0.67486042  0.00877161  0.50776467  1
  Te2-  Te187  1  0.66950289  0.00308971  0.82366572  1
  Te2-  Te188  1  0.66720487  0.33015242  0.16860481  1
  Te2-  Te189  1  0.66631788  0.32618793  0.50634288  1
  Te2-  Te190  1  0.66740230  0.33337902  0.82809837  1
  Te2-  Te191  1  0.66973334  0.67088725  0.17341991  1
  Te2-  Te192  1  0.65939302  0.66573060  0.49965584  1
  Te2-  Te193  1  0.66476189  0.66209536  0.83250565  1
  Pb2+  Pb194  1  0.32489278  0.33412374  -0.00733604  1
  Pb2+  Pb195  1  0.50589431  -0.00163197  0.17271011  1
  Pb2+  Pb196  1  0.49630421  0.33707187  0.17367391  1
  Pb2+  Pb197  1  0.32845419  -0.00223669  0.33492657  1
  Pb2+  Pb198  1  0.83321307  0.82305118  -0.00286743  1
  Pb2+  Pb199  1  0.66459764  0.83752159  0.49871421  1
  Pb2+  Pb200  1  0.32939236  0.83066559  0.15992466  1
  Pb2+  Pb201  1  0.16683982  0.66522275  0.83463637  1
  Pb2+  Pb202  1  0.84055815  0.66796779  0.17092525  1
  Pb2+  Pb203  1  0.50061961  -0.00277182  0.83115589  1
  Pb2+  Pb204  1  0.66652367  -0.00321575  -0.00424465  1
  Pb2+  Pb205  1  0.49480645  0.49825801  0.66485829  1
  Pb2+  Pb206  1  0.83700516  0.33145271  0.17023047  1
  Pb2+  Pb207  1  -0.00084593  0.83202765  0.50298195  1
  Pb2+  Pb208  1  0.16526708  0.83244655  0.66069571  1
  Pb2+  Pb209  1  0.67025720  0.33323131  0.33799191  1
  Pb2+  Pb210  1  0.83716043  0.82771424  0.33623595  1
  Pb2+  Pb211  1  0.00103969  0.16416068  0.16208523  1
  Pb2+  Pb212  1  0.32504417  0.00661648  0.66624633  1
  Pb2+  Pb213  1  0.67539577  0.33803543  -0.00246182  1
  Pb2+  Pb214  1  0.83545275  0.17443603  -0.00718644  1
  Pb2+  Pb215  1  0.16880708  0.16411275  -0.00799251  1
