# generated using pymatgen
data_In22Ag21Sn22Bi21(Te54Pb11)2
_symmetry_space_group_name_H-M   'P 1'
_cell_length_a   19.15855540
_cell_length_b   19.13255181
_cell_length_c   19.15075314
_cell_angle_alpha   89.98550206
_cell_angle_beta   89.98479340
_cell_angle_gamma   89.98781503
_symmetry_Int_Tables_number   1
_chemical_formula_structural   In22Ag21Sn22Bi21(Te54Pb11)2
_chemical_formula_sum   'In22 Ag21 Sn22 Bi21 Te108 Pb22'
_cell_volume   7019.74726488
_cell_formula_units_Z   1
loop_
 _symmetry_equiv_pos_site_id
 _symmetry_equiv_pos_as_xyz
  1  'x, y, z'
loop_
 _atom_type_symbol
 _atom_type_oxidation_number
  In3+  3.0
  Ag+  1.0
  Sn2+  2.0
  Bi3+  3.0
  Te2-  -2.0
  Pb2+  2.0
loop_
 _atom_site_type_symbol
 _atom_site_label
 _atom_site_symmetry_multiplicity
 _atom_site_fract_x
 _atom_site_fract_y
 _atom_site_fract_z
 _atom_site_occupancy
  In3+  In0  1  0.01111477  0.18614783  0.49749448  1
  In3+  In1  1  0.49071145  0.32914735  0.16110202  1
  In3+  In2  1  0.83827913  0.50934272  0.33257847  1
  In3+  In3  1  0.83536081  0.18534988  0.66061041  1
  In3+  In4  1  0.84868748  0.33648853  0.16292454  1
  In3+  In5  1  0.66870391  0.17628083  0.49708197  1
  In3+  In6  1  0.66141290  0.63844410  -0.00059900  1
  In3+  In7  1  0.66511938  0.17960660  0.16066398  1
  In3+  In8  1  0.32962351  -0.00781619  0.00146598  1
  In3+  In9  1  0.83010298  0.50089014  0.68347231  1
  In3+  In10  1  0.18347938  0.85711112  0.66801492  1
  In3+  In11  1  0.49538293  -0.01785890  0.16577916  1
  In3+  In12  1  0.14983470  0.31622803  0.85890958  1
  In3+  In13  1  0.19505656  0.17187934  0.33052028  1
  In3+  In14  1  -0.00132292  0.33407010  0.01369762  1
  In3+  In15  1  0.50102951  0.01734608  0.51153732  1
  In3+  In16  1  0.16938596  0.66755474  0.15996113  1
  In3+  In17  1  0.82897809  0.64537409  0.16121244  1
  In3+  In18  1  0.52429003  0.66828859  0.50601502  1
  In3+  In19  1  0.32458845  0.33082777  0.68268532  1
  In3+  In20  1  0.16095936  0.66176550  0.51970293  1
  In3+  In21  1  -0.00675434  0.50832597  0.50672568  1
  Ag+  Ag22  1  0.15009667  0.32039550  0.17477408  1
  Ag+  Ag23  1  0.02838935  0.35530186  0.66267526  1
  Ag+  Ag24  1  0.69201930  0.66767263  0.34694287  1
  Ag+  Ag25  1  0.02438460  0.63291155  0.00167374  1
  Ag+  Ag26  1  0.18405373  0.16815444  0.69061196  1
  Ag+  Ag27  1  0.30374879  0.33271758  0.02040273  1
  Ag+  Ag28  1  0.19440898  0.02617025  0.16482739  1
  Ag+  Ag29  1  0.49745764  0.14552845  0.30657102  1
  Ag+  Ag30  1  0.47029577  -0.03070428  0.86758742  1
  Ag+  Ag31  1  0.48748366  0.31257834  0.46295402  1
  Ag+  Ag32  1  0.48190145  0.85704575  0.66622615  1
  Ag+  Ag33  1  0.82220193  0.65750651  0.52336190  1
  Ag+  Ag34  1  0.64753139  0.16547211  0.80087914  1
  Ag+  Ag35  1  0.19410159  0.15806698  0.03473903  1
  Ag+  Ag36  1  0.83357186  0.52176891  -0.01536323  1
  Ag+  Ag37  1  0.00229339  0.51484541  0.14635944  1
  Ag+  Ag38  1  0.65765129  0.33661148  0.01852762  1
  Ag+  Ag39  1  0.36070366  0.84309216  0.85182729  1
  Ag+  Ag40  1  0.33013411  0.81618212  0.14436611  1
  Ag+  Ag41  1  0.64466737  0.68512463  0.70019466  1
  Ag+  Ag42  1  0.36088401  0.69388288  0.01199943  1
  Sn2+  Sn43  1  0.83055294  -0.01333155  0.50349868  1
  Sn2+  Sn44  1  0.33824485  0.82633873  0.50431225  1
  Sn2+  Sn45  1  -0.00510221  0.16874914  0.82524078  1
  Sn2+  Sn46  1  0.16687445  0.48231363  0.66315529  1
  Sn2+  Sn47  1  0.33625637  0.16625328  0.15644720  1
  Sn2+  Sn48  1  0.33204156  0.49783993  0.50130863  1
  Sn2+  Sn49  1  0.82994780  0.83088340  0.33243587  1
  Sn2+  Sn50  1  0.66594440  0.83038055  0.16843525  1
  Sn2+  Sn51  1  0.16535918  0.50251167  -0.00038812  1
  Sn2+  Sn52  1  0.16003942  0.50198589  0.32118775  1
  Sn2+  Sn53  1  0.33127064  0.00404568  0.66752032  1
  Sn2+  Sn54  1  0.00223296  0.66179042  0.31805904  1
  Sn2+  Sn55  1  0.33412329  0.33461016  0.32738362  1
  Sn2+  Sn56  1  0.83018505  0.82714121  0.65872496  1
  Sn2+  Sn57  1  0.66391935  0.82871604  0.50331341  1
  Sn2+  Sn58  1  0.49420598  0.49500738  0.00113455  1
  Sn2+  Sn59  1  0.49813353  0.17445502  -0.00329783  1
  Sn2+  Sn60  1  0.17011372  -0.00067267  0.84342789  1
  Sn2+  Sn61  1  0.83447094  0.32783327  0.83895956  1
  Sn2+  Sn62  1  0.49782203  0.17230217  0.67101328  1
  Sn2+  Sn63  1  0.01020088  0.81879588  0.16483407  1
  Sn2+  Sn64  1  0.67243099  0.49781493  0.16408007  1
  Bi3+  Bi65  1  0.82917777  0.00039915  0.16683229  1
  Bi3+  Bi66  1  0.82301787  0.16706801  0.33593965  1
  Bi3+  Bi67  1  0.50073713  0.33016941  0.83194337  1
  Bi3+  Bi68  1  0.82949043  0.83169310  0.00463679  1
  Bi3+  Bi69  1  0.33685193  0.16880556  0.49746696  1
  Bi3+  Bi70  1  0.32922441  0.66658786  0.32908034  1
  Bi3+  Bi71  1  0.16498662  0.83323170  0.33105953  1
  Bi3+  Bi72  1  0.33176112  0.50373720  0.83693399  1
  Bi3+  Bi73  1  0.16826338  0.66385568  0.83804918  1
  Bi3+  Bi74  1  0.00172773  0.83143861  0.83374712  1
  Bi3+  Bi75  1  0.66072512  0.33448666  0.66508539  1
  Bi3+  Bi76  1  -0.00138759  -0.00103874  0.66656585  1
  Bi3+  Bi77  1  0.00067407  0.82811132  0.50060421  1
  Bi3+  Bi78  1  0.49947024  0.50525414  0.33270331  1
  Bi3+  Bi79  1  0.66719810  -0.00709594  0.33165973  1
  Bi3+  Bi80  1  0.66684351  0.50088330  0.49345182  1
  Bi3+  Bi81  1  0.83402103  0.16984247  -0.00033085  1
  Bi3+  Bi82  1  0.83188102  0.00520975  0.83133828  1
  Bi3+  Bi83  1  0.50279856  0.49909540  0.66382917  1
  Bi3+  Bi84  1  0.00375160  0.00745995  -0.00088494  1
  Bi3+  Bi85  1  0.50024236  0.66573489  0.17077428  1
  Te2-  Te86  1  0.16618090  0.17252103  0.17792211  1
  Te2-  Te87  1  0.16937316  0.16400518  0.48528026  1
  Te2-  Te88  1  0.16507259  0.16957501  0.83538551  1
  Te2-  Te89  1  0.15501468  0.50900393  0.16304970  1
  Te2-  Te90  1  0.16101165  0.50372994  0.49826402  1
  Te2-  Te91  1  0.17103940  0.49542857  0.83066354  1
  Te2-  Te92  1  0.17467308  0.82550424  0.16723641  1
  Te2-  Te93  1  0.16410008  0.82724484  0.50217941  1
  Te2-  Te94  1  0.16206438  0.83080477  0.82552528  1
  Te2-  Te95  1  0.50755360  0.17621054  0.16447753  1
  Te2-  Te96  1  0.49942065  0.17069090  0.50216201  1
  Te2-  Te97  1  0.50304860  0.16766400  0.83103827  1
  Te2-  Te98  1  0.50209160  0.50371866  0.16656464  1
  Te2-  Te99  1  0.50119158  0.50670041  0.49793154  1
  Te2-  Te100  1  0.49649147  0.49766942  0.83156468  1
  Te2-  Te101  1  0.48894572  0.82982370  0.16787075  1
  Te2-  Te102  1  0.49740074  0.82273957  0.51645484  1
  Te2-  Te103  1  0.50208237  0.83724785  0.81719256  1
  Te2-  Te104  1  0.82699748  0.16643567  0.16973310  1
  Te2-  Te105  1  0.82421484  0.16236029  0.49929860  1
  Te2-  Te106  1  0.83231372  0.16681326  0.83352043  1
  Te2-  Te107  1  0.84435313  0.49334936  0.17473396  1
  Te2-  Te108  1  0.83419250  0.50874693  0.48791780  1
  Te2-  Te109  1  0.83441917  0.49424736  0.83855183  1
  Te2-  Te110  1  0.83469231  0.83873007  0.16582655  1
  Te2-  Te111  1  0.83853030  0.81879772  0.49722317  1
  Te2-  Te112  1  0.83640305  0.83927869  0.83651721  1
  Te2-  Te113  1  0.16620875  0.01243133  0.01228740  1
  Te2-  Te114  1  0.16851088  -0.00161126  0.31799716  1
  Te2-  Te115  1  0.16237048  0.01362387  0.66738576  1
  Te2-  Te116  1  0.15648766  0.33109731  0.00703538  1
  Te2-  Te117  1  0.17095462  0.33383000  0.32273674  1
  Te2-  Te118  1  0.17153594  0.32082374  0.65999720  1
  Te2-  Te119  1  0.16842091  0.66552945  0.00201270  1
  Te2-  Te120  1  0.16783629  0.66933568  0.32087917  1
  Te2-  Te121  1  0.16546250  0.65511340  0.67275135  1
  Te2-  Te122  1  0.49389617  0.00502687  0.00775805  1
  Te2-  Te123  1  0.50488807  -0.00028939  0.32351304  1
  Te2-  Te124  1  0.49686251  0.00473044  0.66268410  1
  Te2-  Te125  1  0.50971100  0.33813010  -0.00249361  1
  Te2-  Te126  1  0.49794092  0.34438730  0.32098995  1
  Te2-  Te127  1  0.49722508  0.33727815  0.66763189  1
  Te2-  Te128  1  0.50397862  0.66300334  0.00508169  1
  Te2-  Te129  1  0.49139370  0.66685423  0.33678960  1
  Te2-  Te130  1  0.50508800  0.65997781  0.66037118  1
  Te2-  Te131  1  0.83716143  0.00361515  0.00048365  1
  Te2-  Te132  1  0.82963490  0.00119362  0.33314032  1
  Te2-  Te133  1  0.83399942  -0.00280305  0.66735341  1
  Te2-  Te134  1  0.84356581  0.32954317  0.00754410  1
  Te2-  Te135  1  0.83162886  0.33001032  0.32770522  1
  Te2-  Te136  1  0.82623602  0.33945180  0.66601676  1
  Te2-  Te137  1  0.82479325  0.66810541  0.00961356  1
  Te2-  Te138  1  0.83475545  0.66516798  0.31420133  1
  Te2-  Te139  1  0.83129595  0.65532182  0.66960131  1
  Te2-  Te140  1  -0.00338335  0.17280827  -0.00203837  1
  Te2-  Te141  1  -0.01146551  0.16770175  0.34330616  1
  Te2-  Te142  1  -0.01255479  0.15952845  0.65065039  1
  Te2-  Te143  1  -0.00993583  0.48862161  0.00114920  1
  Te2-  Te144  1  -0.00393364  0.50275485  0.34092400  1
  Te2-  Te145  1  -0.00577642  0.50017050  0.66153737  1
  Te2-  Te146  1  -0.00612772  0.84061255  -0.00296890  1
  Te2-  Te147  1  0.00248252  0.82988367  0.33456360  1
  Te2-  Te148  1  -0.00276627  0.83568501  0.66760510  1
  Te2-  Te149  1  0.33441330  0.18187000  0.00104197  1
  Te2-  Te150  1  0.34904584  0.16749342  0.33240446  1
  Te2-  Te151  1  0.32984065  0.16985105  0.66080134  1
  Te2-  Te152  1  0.32959744  0.48493202  -0.00292410  1
  Te2-  Te153  1  0.33139532  0.50445020  0.33332631  1
  Te2-  Te154  1  0.33597752  0.49582670  0.66773987  1
  Te2-  Te155  1  0.33063657  0.83804160  -0.00356222  1
  Te2-  Te156  1  0.32753376  0.82909066  0.33848326  1
  Te2-  Te157  1  0.33577796  0.83551855  0.66494776  1
  Te2-  Te158  1  0.67190798  0.18256302  0.00671260  1
  Te2-  Te159  1  0.65888002  0.16207621  0.34114797  1
  Te2-  Te160  1  0.67099629  0.16895468  0.65431780  1
  Te2-  Te161  1  0.68387707  0.48733119  0.00363684  1
  Te2-  Te162  1  0.66500340  0.51542096  0.33196403  1
  Te2-  Te163  1  0.66907347  0.49891532  0.65892487  1
  Te2-  Te164  1  0.66823614  0.84321840  0.00268630  1
  Te2-  Te165  1  0.66655357  0.82540692  0.33424604  1
  Te2-  Te166  1  0.67468285  0.82444706  0.66373218  1
  Te2-  Te167  1  -0.00795594  -0.00380377  0.16100616  1
  Te2-  Te168  1  -0.00219680  -0.00937848  0.50209885  1
  Te2-  Te169  1  0.00018780  -0.00071015  0.83336122  1
  Te2-  Te170  1  0.00329582  0.33819653  0.16980297  1
  Te2-  Te171  1  -0.00196748  0.33740013  0.51239285  1
  Te2-  Te172  1  0.00436015  0.32758153  0.81187427  1
  Te2-  Te173  1  -0.00259672  0.66262052  0.15168735  1
  Te2-  Te174  1  0.00578727  0.66455854  0.49618783  1
  Te2-  Te175  1  0.00372995  0.66757660  0.84979367  1
  Te2-  Te176  1  0.33859148  0.00063076  0.15707336  1
  Te2-  Te177  1  0.33965653  0.00252305  0.49993207  1
  Te2-  Te178  1  0.32813871  -0.00857627  0.83813315  1
  Te2-  Te179  1  0.33850358  0.33321770  0.16391498  1
  Te2-  Te180  1  0.34290899  0.33204655  0.49349785  1
  Te2-  Te181  1  0.33562884  0.33543510  0.83271864  1
  Te2-  Te182  1  0.33473290  0.66908549  0.15893696  1
  Te2-  Te183  1  0.31718574  0.66309909  0.49714011  1
  Te2-  Te184  1  0.32941206  0.66774535  0.84266502  1
  Te2-  Te185  1  0.66448333  0.00055188  0.16967064  1
  Te2-  Te186  1  0.66058842  -0.00686861  0.49383537  1
  Te2-  Te187  1  0.67102485  0.01423621  0.83039643  1
  Te2-  Te188  1  0.66403142  0.33548718  0.16671174  1
  Te2-  Te189  1  0.65616273  0.33558713  0.50014760  1
  Te2-  Te190  1  0.66556436  0.32098700  0.82527673  1
  Te2-  Te191  1  0.66282594  0.66862364  0.15771963  1
  Te2-  Te192  1  0.67794500  0.66317371  0.49348410  1
  Te2-  Te193  1  0.66586962  0.66264914  0.84366027  1
  Pb2+  Pb194  1  0.82893293  0.33719574  0.49740190  1
  Pb2+  Pb195  1  0.49895290  0.83442659  0.34640102  1
  Pb2+  Pb196  1  0.33395189  -0.00169490  0.32849231  1
  Pb2+  Pb197  1  0.66391658  -0.00401670  0.66479236  1
  Pb2+  Pb198  1  0.66345084  0.01619057  -0.00328289  1
  Pb2+  Pb199  1  0.33571987  0.16296841  0.83599483  1
  Pb2+  Pb200  1  0.00417649  0.49435449  0.83683537  1
  Pb2+  Pb201  1  0.00214778  0.33572665  0.34062717  1
  Pb2+  Pb202  1  0.16943121  -0.00427483  0.49482589  1
  Pb2+  Pb203  1  0.66495003  0.48810666  0.83320189  1
  Pb2+  Pb204  1  0.66676492  0.84158798  0.83452795  1
  Pb2+  Pb205  1  0.83437586  0.66897473  0.83715836  1
  Pb2+  Pb206  1  0.49543422  0.67126309  0.83194720  1
  Pb2+  Pb207  1  0.16122008  0.83791874  -0.00133116  1
  Pb2+  Pb208  1  0.50260222  0.83448829  -0.00391782  1
  Pb2+  Pb209  1  0.32791995  0.50106440  0.16303316  1
  Pb2+  Pb210  1  -0.00325278  0.66813396  0.67230990  1
  Pb2+  Pb211  1  0.00338580  0.00041913  0.33089210  1
  Pb2+  Pb212  1  0.66475850  0.33871041  0.33197176  1
  Pb2+  Pb213  1  0.33323366  0.66667554  0.66990787  1
  Pb2+  Pb214  1  0.17647124  0.33607643  0.49353023  1
  Pb2+  Pb215  1  -0.00185608  0.16512082  0.16708416  1
