# generated using pymatgen
data_In22Ag21Sn22Bi21(Te54Pb11)2
_symmetry_space_group_name_H-M   'P 1'
_cell_length_a   19.14037442
_cell_length_b   19.12230074
_cell_length_c   19.12375578
_cell_angle_alpha   89.99488169
_cell_angle_beta   90.00739376
_cell_angle_gamma   89.99980683
_symmetry_Int_Tables_number   1
_chemical_formula_structural   In22Ag21Sn22Bi21(Te54Pb11)2
_chemical_formula_sum   'In22 Ag21 Sn22 Bi21 Te108 Pb22'
_cell_volume   6999.44743913
_cell_formula_units_Z   1
loop_
 _symmetry_equiv_pos_site_id
 _symmetry_equiv_pos_as_xyz
  1  'x, y, z'
loop_
 _atom_type_symbol
 _atom_type_oxidation_number
  In3+  3.0
  Ag+  1.0
  Sn2+  2.0
  Bi3+  3.0
  Te2-  -2.0
  Pb2+  2.0
loop_
 _atom_site_type_symbol
 _atom_site_label
 _atom_site_symmetry_multiplicity
 _atom_site_fract_x
 _atom_site_fract_y
 _atom_site_fract_z
 _atom_site_occupancy
  In3+  In0  1  0.50204439  0.16440344  0.66284759  1
  In3+  In1  1  0.65723262  0.16963945  0.83883480  1
  In3+  In2  1  0.67873812  0.65973397  -0.00409437  1
  In3+  In3  1  0.50053406  0.01620745  0.83932709  1
  In3+  In4  1  0.15520145  0.35498187  0.15243374  1
  In3+  In5  1  0.36004752  0.00445087  -0.00044082  1
  In3+  In6  1  0.84303080  0.32386271  0.49824852  1
  In3+  In7  1  0.83056520  0.00408377  0.84214923  1
  In3+  In8  1  0.16648898  0.17524987  0.33878685  1
  In3+  In9  1  0.16496870  -0.01499482  0.51798441  1
  In3+  In10  1  0.85373766  0.83469170  0.64700784  1
  In3+  In11  1  0.66899134  0.67574277  0.33453697  1
  In3+  In12  1  0.50188544  0.81376914  -0.00395185  1
  In3+  In13  1  0.51159873  0.33423527  0.49756080  1
  In3+  In14  1  0.00596983  0.32986002  0.32918778  1
  In3+  In15  1  -0.00356026  0.18686590  0.83080202  1
  In3+  In16  1  0.84354848  0.49043546  0.33699952  1
  In3+  In17  1  0.33310924  0.49729492  0.52378113  1
  In3+  In18  1  0.36137819  0.35285064  -0.00346165  1
  In3+  In19  1  0.66976999  0.16433890  0.15578804  1
  In3+  In20  1  0.51086843  0.67217921  0.16858665  1
  In3+  In21  1  0.66641106  0.48377028  0.84552302  1
  Ag+  Ag22  1  -0.02123466  0.49918855  0.15427755  1
  Ag+  Ag23  1  0.50877801  0.51437695  -0.01674478  1
  Ag+  Ag24  1  0.85083568  0.85761678  0.33023585  1
  Ag+  Ag25  1  0.35897682  0.64521168  0.65106940  1
  Ag+  Ag26  1  0.13339308  0.47465057  -0.02540959  1
  Ag+  Ag27  1  -0.02460005  0.63070131  0.02429866  1
  Ag+  Ag28  1  0.14230266  0.17232614  0.64172555  1
  Ag+  Ag29  1  0.17007380  0.80896535  0.69043292  1
  Ag+  Ag30  1  0.49870300  0.33912849  0.81047965  1
  Ag+  Ag31  1  0.14510986  0.47814427  0.33308732  1
  Ag+  Ag32  1  0.14702384  0.84386970  0.32807664  1
  Ag+  Ag33  1  0.84678239  0.18302200  0.66874543  1
  Ag+  Ag34  1  0.67126378  0.30870264  0.35559156  1
  Ag+  Ag35  1  0.66624890  0.31903736  0.01190132  1
  Ag+  Ag36  1  0.02265337  0.33894757  -0.02589206  1
  Ag+  Ag37  1  -0.00061950  0.15192845  0.52949270  1
  Ag+  Ag38  1  0.32193183  0.49490378  0.83242331  1
  Ag+  Ag39  1  0.67012170  -0.01933924  -0.01513533  1
  Ag+  Ag40  1  0.50397473  -0.02709626  0.18467755  1
  Ag+  Ag41  1  0.50161494  0.85858371  0.35736416  1
  Ag+  Ag42  1  0.02769790  0.48170848  0.86192414  1
  Sn2+  Sn43  1  0.16798854  0.81893405  0.00356967  1
  Sn2+  Sn44  1  0.32790258  0.83109381  0.50121634  1
  Sn2+  Sn45  1  0.82324294  0.49699801  0.66391709  1
  Sn2+  Sn46  1  0.00026708  0.17415000  0.15684525  1
  Sn2+  Sn47  1  0.00570191  0.66667005  0.32216142  1
  Sn2+  Sn48  1  0.67045089  -0.00284563  0.66857115  1
  Sn2+  Sn49  1  0.17630202  0.33765984  0.83852675  1
  Sn2+  Sn50  1  0.66649719  0.33006865  0.67219379  1
  Sn2+  Sn51  1  0.16530470  0.66555376  0.83339534  1
  Sn2+  Sn52  1  0.17419690  0.00391902  0.16949604  1
  Sn2+  Sn53  1  0.66198020  0.50042182  0.49044492  1
  Sn2+  Sn54  1  0.83603263  0.66250631  0.49418506  1
  Sn2+  Sn55  1  0.49878161  0.16657873  0.32789646  1
  Sn2+  Sn56  1  0.83574333  0.66528254  0.17604966  1
  Sn2+  Sn57  1  0.66634127  0.48868362  0.16937623  1
  Sn2+  Sn58  1  0.33057826  0.83442286  0.17654502  1
  Sn2+  Sn59  1  0.33131971  0.66333117  0.33504448  1
  Sn2+  Sn60  1  0.50442002  0.49696064  0.68102555  1
  Sn2+  Sn61  1  0.32609527  -0.01339846  0.32794165  1
  Sn2+  Sn62  1  0.00143118  0.00919440  0.00200768  1
  Sn2+  Sn63  1  0.32168568  0.16931582  0.50299212  1
  Sn2+  Sn64  1  0.83113986  0.33440375  0.16488421  1
  Bi3+  Bi65  1  0.33088147  0.00019197  0.66837123  1
  Bi3+  Bi66  1  0.00069894  0.49878480  0.50016483  1
  Bi3+  Bi67  1  0.49791161  0.17357373  0.00256007  1
  Bi3+  Bi68  1  0.66590291  0.83445410  0.16793548  1
  Bi3+  Bi69  1  0.16685264  0.33499842  0.50252770  1
  Bi3+  Bi70  1  0.83294279  0.00091633  0.50143651  1
  Bi3+  Bi71  1  0.50151906  0.50040119  0.32980574  1
  Bi3+  Bi72  1  0.17406545  0.66500677  0.16733487  1
  Bi3+  Bi73  1  0.32953395  0.66573784  -0.00285109  1
  Bi3+  Bi74  1  0.16617327  0.66758494  0.49462774  1
  Bi3+  Bi75  1  0.33610925  0.49915278  0.16253157  1
  Bi3+  Bi76  1  0.00279369  0.66898741  0.66808870  1
  Bi3+  Bi77  1  0.16559441  0.00625047  0.83790461  1
  Bi3+  Bi78  1  0.00124251  0.83012704  0.83576181  1
  Bi3+  Bi79  1  0.16480446  0.16455617  0.00392126  1
  Bi3+  Bi80  1  0.33232509  0.16456318  0.17002463  1
  Bi3+  Bi81  1  0.50051759  0.33547924  0.16960077  1
  Bi3+  Bi82  1  0.82589454  0.49513049  0.00254801  1
  Bi3+  Bi83  1  0.66499506  0.83535937  0.49820856  1
  Bi3+  Bi84  1  0.66294387  0.00004750  0.32770504  1
  Bi3+  Bi85  1  0.33133264  0.82863674  0.83601446  1
  Te2-  Te86  1  0.16874680  0.16735415  0.16731291  1
  Te2-  Te87  1  0.15459301  0.17150679  0.49366208  1
  Te2-  Te88  1  0.15834596  0.16885500  0.84086808  1
  Te2-  Te89  1  0.17541393  0.50078942  0.18461243  1
  Te2-  Te90  1  0.16702864  0.50129220  0.48655210  1
  Te2-  Te91  1  0.17225371  0.49629553  0.83098385  1
  Te2-  Te92  1  0.17053382  0.83317285  0.17453861  1
  Te2-  Te93  1  0.16882957  0.83471554  0.48255926  1
  Te2-  Te94  1  0.16738010  0.84114832  0.83726613  1
  Te2-  Te95  1  0.49534279  0.17224366  0.16551708  1
  Te2-  Te96  1  0.49585122  0.17606229  0.49922842  1
  Te2-  Te97  1  0.49869015  0.17630776  0.83638757  1
  Te2-  Te98  1  0.49918205  0.49901611  0.16592670  1
  Te2-  Te99  1  0.49221546  0.49299888  0.49801304  1
  Te2-  Te100  1  0.51325747  0.48906618  0.83650215  1
  Te2-  Te101  1  0.50218600  0.82949555  0.15302558  1
  Te2-  Te102  1  0.49895493  0.83358311  0.50370767  1
  Te2-  Te103  1  0.49558934  0.83810949  0.83955391  1
  Te2-  Te104  1  0.83114344  0.16953455  0.16518766  1
  Te2-  Te105  1  0.84135904  0.16729609  0.51178928  1
  Te2-  Te106  1  0.83839789  0.15922052  0.81974370  1
  Te2-  Te107  1  0.83071623  0.50097885  0.17027433  1
  Te2-  Te108  1  0.83460018  0.49441065  0.49768221  1
  Te2-  Te109  1  0.81987873  0.50120940  0.83398377  1
  Te2-  Te110  1  0.82782216  0.83091971  0.17853468  1
  Te2-  Te111  1  0.82804619  0.83559848  0.48465312  1
  Te2-  Te112  1  0.83664466  0.84404820  0.83339446  1
  Te2-  Te113  1  0.16503786  0.00108683  0.00070017  1
  Te2-  Te114  1  0.17078103  -0.00652390  0.32943222  1
  Te2-  Te115  1  0.16884534  0.02015990  0.66683525  1
  Te2-  Te116  1  0.16974688  0.33352599  0.00154051  1
  Te2-  Te117  1  0.16814539  0.33089980  0.33833511  1
  Te2-  Te118  1  0.16764315  0.32273557  0.66624010  1
  Te2-  Te119  1  0.16829483  0.66110603  0.00435400  1
  Te2-  Te120  1  0.17185316  0.68002950  0.33224322  1
  Te2-  Te121  1  0.16418456  0.66455324  0.66015470  1
  Te2-  Te122  1  0.51194495  0.01179492  -0.00703654  1
  Te2-  Te123  1  0.49813454  0.00545910  0.33077489  1
  Te2-  Te124  1  0.49684654  0.00739425  0.67180584  1
  Te2-  Te125  1  0.51281077  0.33386342  0.00740290  1
  Te2-  Te126  1  0.51610548  0.33526878  0.33521884  1
  Te2-  Te127  1  0.50242689  0.33109694  0.65954767  1
  Te2-  Te128  1  0.49664978  0.65925638  0.00329429  1
  Te2-  Te129  1  0.50580791  0.66410751  0.32369938  1
  Te2-  Te130  1  0.50215043  0.66407140  0.66515417  1
  Te2-  Te131  1  0.82230595  0.00250212  -0.00332704  1
  Te2-  Te132  1  0.83101971  0.00446285  0.33676126  1
  Te2-  Te133  1  0.83029757  -0.00753634  0.66129820  1
  Te2-  Te134  1  0.81757526  0.33650329  0.00132514  1
  Te2-  Te135  1  0.81785965  0.33920852  0.33763956  1
  Te2-  Te136  1  0.82822346  0.32961035  0.65907673  1
  Te2-  Te137  1  0.83460909  0.66497592  0.00176554  1
  Te2-  Te138  1  0.82953067  0.65374710  0.33365450  1
  Te2-  Te139  1  0.83699257  0.67368123  0.66130132  1
  Te2-  Te140  1  0.00300889  0.18569440  -0.00247047  1
  Te2-  Te141  1  0.00589306  0.17459353  0.32237006  1
  Te2-  Te142  1  -0.00339146  0.16779087  0.67629298  1
  Te2-  Te143  1  -0.01223229  0.48669286  0.00367470  1
  Te2-  Te144  1  -0.00225891  0.49765936  0.33923186  1
  Te2-  Te145  1  -0.00799648  0.50635060  0.66288879  1
  Te2-  Te146  1  0.00131331  0.83662155  -0.00267233  1
  Te2-  Te147  1  -0.00507174  0.82993892  0.33020433  1
  Te2-  Te148  1  0.01825286  0.83196809  0.66909105  1
  Te2-  Te149  1  0.32923220  0.16533643  0.00414298  1
  Te2-  Te150  1  0.32683173  0.16447715  0.33323470  1
  Te2-  Te151  1  0.34464668  0.16444485  0.66824526  1
  Te2-  Te152  1  0.33776392  0.50334578  -0.00314172  1
  Te2-  Te153  1  0.34102486  0.50198663  0.32784560  1
  Te2-  Te154  1  0.33570992  0.50268605  0.67940609  1
  Te2-  Te155  1  0.33828160  0.83404745  -0.00053959  1
  Te2-  Te156  1  0.35457937  0.83066904  0.33498766  1
  Te2-  Te157  1  0.31754432  0.83891322  0.67102091  1
  Te2-  Te158  1  0.66420628  0.17052075  -0.00341912  1
  Te2-  Te159  1  0.66498547  0.16184658  0.33257877  1
  Te2-  Te160  1  0.65742787  0.16086984  0.67567987  1
  Te2-  Te161  1  0.66045506  0.50562755  -0.00092662  1
  Te2-  Te162  1  0.66304212  0.51441875  0.33169606  1
  Te2-  Te163  1  0.66676347  0.49893697  0.65946998  1
  Te2-  Te164  1  0.65926099  0.83475530  0.00438793  1
  Te2-  Te165  1  0.65076258  0.83333241  0.33089756  1
  Te2-  Te166  1  0.66064648  0.83707936  0.66190086  1
  Te2-  Te167  1  -0.00071564  0.00264066  0.16089689  1
  Te2-  Te168  1  -0.00082977  0.00727315  0.49962342  1
  Te2-  Te169  1  0.00154764  -0.00320863  0.84050641  1
  Te2-  Te170  1  0.00301761  0.34688314  0.17734384  1
  Te2-  Te171  1  -0.00083158  0.33351055  0.48920034  1
  Te2-  Te172  1  -0.00297675  0.34152962  0.82876637  1
  Te2-  Te173  1  0.00799247  0.65206061  0.16467117  1
  Te2-  Te174  1  0.00194529  0.66436953  0.49739714  1
  Te2-  Te175  1  0.00502877  0.66867673  0.83131634  1
  Te2-  Te176  1  0.34691185  0.00292536  0.16078425  1
  Te2-  Te177  1  0.32411768  0.00188448  0.50302378  1
  Te2-  Te178  1  0.33140143  -0.00084321  0.83593646  1
  Te2-  Te179  1  0.33237341  0.33126207  0.16081757  1
  Te2-  Te180  1  0.32851795  0.33745968  0.49902841  1
  Te2-  Te181  1  0.34548451  0.34395827  0.84143140  1
  Te2-  Te182  1  0.33688666  0.66566942  0.16372478  1
  Te2-  Te183  1  0.32813095  0.66127309  0.50682102  1
  Te2-  Te184  1  0.32875333  0.66719528  0.83445722  1
  Te2-  Te185  1  0.65421291  0.00440076  0.16669941  1
  Te2-  Te186  1  0.66614880  -0.00052150  0.49731418  1
  Te2-  Te187  1  0.66525530  0.01090607  0.83848764  1
  Te2-  Te188  1  0.66380853  0.32654201  0.16415159  1
  Te2-  Te189  1  0.66543131  0.33579803  0.50022966  1
  Te2-  Te190  1  0.65441346  0.32882842  0.83168973  1
  Te2-  Te191  1  0.66581885  0.66776554  0.15628886  1
  Te2-  Te192  1  0.66791854  0.67130039  0.49542461  1
  Te2-  Te193  1  0.66588550  0.67370944  0.84123919  1
  Pb2+  Pb194  1  0.83653120  0.17218893  0.33777843  1
  Pb2+  Pb195  1  0.49303327  0.00664902  0.49807577  1
  Pb2+  Pb196  1  0.00614633  0.00344751  0.33075785  1
  Pb2+  Pb197  1  0.83796855  0.66801578  0.83043365  1
  Pb2+  Pb198  1  0.49634611  0.66065917  0.83270992  1
  Pb2+  Pb199  1  0.83441800  0.16983925  -0.00811807  1
  Pb2+  Pb200  1  -0.00071748  0.33847765  0.66089993  1
  Pb2+  Pb201  1  0.33463144  0.33410536  0.67090196  1
  Pb2+  Pb202  1  0.00253530  0.82534642  0.16278709  1
  Pb2+  Pb203  1  0.48645640  0.83441685  0.67022822  1
  Pb2+  Pb204  1  0.66971356  0.66569234  0.66898670  1
  Pb2+  Pb205  1  0.32968874  0.17176195  0.83569549  1
  Pb2+  Pb206  1  -0.00009421  0.83483872  0.49813351  1
  Pb2+  Pb207  1  0.16281086  0.49777156  0.66108746  1
  Pb2+  Pb208  1  -0.00021032  -0.00167265  0.67176903  1
  Pb2+  Pb209  1  0.66809775  0.84136982  0.83087630  1
  Pb2+  Pb210  1  0.83429040  0.83485214  0.00251243  1
  Pb2+  Pb211  1  0.34126103  0.33411292  0.32986844  1
  Pb2+  Pb212  1  0.82632957  0.00003565  0.16536174  1
  Pb2+  Pb213  1  0.82611099  0.33223397  0.83280324  1
  Pb2+  Pb214  1  0.67047141  0.16913216  0.50721737  1
  Pb2+  Pb215  1  0.49699195  0.66252594  0.49166330  1
