# generated using pymatgen
data_In22Ag21Sn22Bi21(Te54Pb11)2
_symmetry_space_group_name_H-M   'P 1'
_cell_length_a   19.21963324
_cell_length_b   19.27168436
_cell_length_c   19.22612825
_cell_angle_alpha   89.99032089
_cell_angle_beta   90.00432946
_cell_angle_gamma   90.01978415
_symmetry_Int_Tables_number   1
_chemical_formula_structural   In22Ag21Sn22Bi21(Te54Pb11)2
_chemical_formula_sum   'In22 Ag21 Sn22 Bi21 Te108 Pb22'
_cell_volume   7121.25556236
_cell_formula_units_Z   1
loop_
 _symmetry_equiv_pos_site_id
 _symmetry_equiv_pos_as_xyz
  1  'x, y, z'
loop_
 _atom_type_symbol
 _atom_type_oxidation_number
  In3+  3.0
  Ag+  1.0
  Sn2+  2.0
  Bi3+  3.0
  Te2-  -2.0
  Pb2+  2.0
loop_
 _atom_site_type_symbol
 _atom_site_label
 _atom_site_symmetry_multiplicity
 _atom_site_fract_x
 _atom_site_fract_y
 _atom_site_fract_z
 _atom_site_occupancy
  In3+  In0  1  0.48463111  0.18114317  -0.00193854  1
  In3+  In1  1  0.51104286  0.50810114  0.34757970  1
  In3+  In2  1  -0.00246568  0.84237391  0.17165677  1
  In3+  In3  1  0.84026987  0.15787166  0.00346305  1
  In3+  In4  1  0.33408817  0.49893449  0.13786217  1
  In3+  In5  1  0.69740749  0.14723383  0.49023280  1
  In3+  In6  1  -0.00472071  0.83604315  0.51851215  1
  In3+  In7  1  0.16582716  0.83380671  0.64429758  1
  In3+  In8  1  0.51858012  0.01984222  0.50050164  1
  In3+  In9  1  0.83791217  -0.01578354  0.50160972  1
  In3+  In10  1  0.15616039  0.49798255  -0.00767404  1
  In3+  In11  1  0.49172105  0.64818797  0.83273292  1
  In3+  In12  1  0.81399732  0.82864921  0.66800992  1
  In3+  In13  1  0.35039198  0.84873944  0.83756926  1
  In3+  In14  1  0.33406231  0.85792377  0.13898558  1
  In3+  In15  1  0.63138028  0.01405863  -0.00514087  1
  In3+  In16  1  0.83762800  0.34993323  0.83641652  1
  In3+  In17  1  0.00251031  0.15113301  0.83097352  1
  In3+  In18  1  0.49494821  0.14755583  0.68384578  1
  In3+  In19  1  0.18286589  0.83605145  0.32066104  1
  In3+  In20  1  0.35321855  0.50121168  0.83504945  1
  In3+  In21  1  0.83182488  0.00827473  0.84273058  1
  Ag+  Ag22  1  0.63926871  0.29333684  0.03054616  1
  Ag+  Ag23  1  0.33230126  0.00663955  -0.02780772  1
  Ag+  Ag24  1  0.35341693  0.66199725  0.02553655  1
  Ag+  Ag25  1  -0.00328191  0.20230686  0.53326967  1
  Ag+  Ag26  1  0.53828405  0.69395326  0.46693272  1
  Ag+  Ag27  1  0.64637315  0.80083451  0.46880416  1
  Ag+  Ag28  1  0.12649022  0.29463993  0.52879866  1
  Ag+  Ag29  1  0.63794421  0.69870853  0.65774205  1
  Ag+  Ag30  1  0.68916658  -0.02655907  0.29840345  1
  Ag+  Ag31  1  0.19344675  0.19831144  -0.00115931  1
  Ag+  Ag32  1  0.65887170  0.68481771  0.37086187  1
  Ag+  Ag33  1  0.35853479  0.20580322  0.12808958  1
  Ag+  Ag34  1  0.30186541  0.30204923  0.02128259  1
  Ag+  Ag35  1  0.47372055  0.00335414  0.86242711  1
  Ag+  Ag36  1  0.85683091  0.53196719  0.68681791  1
  Ag+  Ag37  1  -0.03052637  0.53912089  0.52719021  1
  Ag+  Ag38  1  0.63517576  0.52855322  0.16413240  1
  Ag+  Ag39  1  0.28892316  0.21695323  0.87123735  1
  Ag+  Ag40  1  0.02646729  -0.02075242  0.69393715  1
  Ag+  Ag41  1  0.15082693  0.02303374  0.14665247  1
  Ag+  Ag42  1  0.01839766  0.52489497  0.80855293  1
  Sn2+  Sn43  1  0.67583143  0.49776353  0.83947598  1
  Sn2+  Sn44  1  -0.00920283  0.33018191  -0.00767989  1
  Sn2+  Sn45  1  0.83587400  0.83300099  0.33519200  1
  Sn2+  Sn46  1  0.51389166  0.49962419  0.66231859  1
  Sn2+  Sn47  1  0.17848905  0.66087012  0.50115256  1
  Sn2+  Sn48  1  0.49623094  0.83396537  0.34290748  1
  Sn2+  Sn49  1  0.82926587  0.49864306  0.34008364  1
  Sn2+  Sn50  1  0.02580991  0.00095175  0.00253592  1
  Sn2+  Sn51  1  0.33727772  0.65537013  0.33317751  1
  Sn2+  Sn52  1  0.49355435  0.82879790  0.66459530  1
  Sn2+  Sn53  1  0.66708011  0.83034636  0.17301160  1
  Sn2+  Sn54  1  0.50615895  0.49952795  0.00326002  1
  Sn2+  Sn55  1  0.16246506  0.33386933  0.82636633  1
  Sn2+  Sn56  1  0.66270980  0.82897989  0.83908181  1
  Sn2+  Sn57  1  0.83181230  0.34076954  0.16028330  1
  Sn2+  Sn58  1  0.33164001  0.33193103  0.33553587  1
  Sn2+  Sn59  1  0.16987894  0.66509400  0.83810075  1
  Sn2+  Sn60  1  -0.00331397  -0.00410503  0.33442223  1
  Sn2+  Sn61  1  0.00437253  0.82341410  0.84198735  1
  Sn2+  Sn62  1  0.00921326  0.66382769  0.00263658  1
  Sn2+  Sn63  1  0.83283404  0.66393936  0.49544627  1
  Sn2+  Sn64  1  0.49588565  0.33430994  0.49965891  1
  Bi3+  Bi65  1  0.33460126  0.49800476  0.50126001  1
  Bi3+  Bi66  1  0.33485848  0.66426270  0.66372756  1
  Bi3+  Bi67  1  0.00039122  0.49881811  0.16960941  1
  Bi3+  Bi68  1  0.49810644  -0.00158880  0.17589940  1
  Bi3+  Bi69  1  0.66737434  0.33183481  0.67067995  1
  Bi3+  Bi70  1  0.83161342  0.16155356  0.66657517  1
  Bi3+  Bi71  1  0.00387688  0.16714290  0.16214648  1
  Bi3+  Bi72  1  0.82616607  0.67202598  0.83349732  1
  Bi3+  Bi73  1  0.16794550  0.16357944  0.32405589  1
  Bi3+  Bi74  1  0.33720753  -0.00481572  0.33714543  1
  Bi3+  Bi75  1  0.33103376  0.16800183  0.49935146  1
  Bi3+  Bi76  1  0.33519947  -0.00348233  0.66255089  1
  Bi3+  Bi77  1  0.83019804  0.33214469  0.49930571  1
  Bi3+  Bi78  1  -0.00566803  0.33146320  0.66960599  1
  Bi3+  Bi79  1  0.67264759  0.00322680  0.66759246  1
  Bi3+  Bi80  1  0.16817455  0.82679845  0.00191611  1
  Bi3+  Bi81  1  0.66946444  0.16377777  0.82741660  1
  Bi3+  Bi82  1  0.66522977  0.66484372  -0.00586294  1
  Bi3+  Bi83  1  0.00313325  0.33252676  0.33175712  1
  Bi3+  Bi84  1  0.66466633  0.33465616  0.33347167  1
  Bi3+  Bi85  1  0.16554636  0.66429199  0.16927556  1
  Te2-  Te86  1  0.16414730  0.16752049  0.15839968  1
  Te2-  Te87  1  0.16800618  0.16123333  0.49330839  1
  Te2-  Te88  1  0.15640658  0.16453184  0.84084493  1
  Te2-  Te89  1  0.16787157  0.50304766  0.16237395  1
  Te2-  Te90  1  0.17421269  0.50433584  0.50012320  1
  Te2-  Te91  1  0.15866106  0.50267683  0.83904763  1
  Te2-  Te92  1  0.17104393  0.82545807  0.16689278  1
  Te2-  Te93  1  0.15877318  0.82958971  0.49098848  1
  Te2-  Te94  1  0.16361969  0.82561347  0.84126855  1
  Te2-  Te95  1  0.49634484  0.16272943  0.15784748  1
  Te2-  Te96  1  0.49307502  0.17034747  0.50212023  1
  Te2-  Te97  1  0.50689807  0.15128433  0.84518123  1
  Te2-  Te98  1  0.48996927  0.50200492  0.16028226  1
  Te2-  Te99  1  0.49957197  0.50277297  0.49974744  1
  Te2-  Te100  1  0.50878699  0.49362372  0.83294563  1
  Te2-  Te101  1  0.49430856  0.83700846  0.17207550  1
  Te2-  Te102  1  0.50253874  0.83274027  0.50131555  1
  Te2-  Te103  1  0.50050762  0.85468260  0.83383347  1
  Te2-  Te104  1  0.83792837  0.16706035  0.16095844  1
  Te2-  Te105  1  0.85215249  0.17025387  0.50325717  1
  Te2-  Te106  1  0.83573499  0.16151425  0.82845261  1
  Te2-  Te107  1  0.83876034  0.49919395  0.17021765  1
  Te2-  Te108  1  0.83440259  0.49564063  0.49722592  1
  Te2-  Te109  1  0.83449762  0.50434844  0.82907312  1
  Te2-  Te110  1  0.83930827  0.83414880  0.16677775  1
  Te2-  Te111  1  0.83832208  0.83333656  0.50531319  1
  Te2-  Te112  1  0.83552771  0.83368951  0.82257266  1
  Te2-  Te113  1  0.18346112  -0.01279707  0.00826352  1
  Te2-  Te114  1  0.17127966  -0.00645505  0.32358716  1
  Te2-  Te115  1  0.16913822  -0.00952456  0.66569498  1
  Te2-  Te116  1  0.16075223  0.34268296  -0.00849571  1
  Te2-  Te117  1  0.16616205  0.32945766  0.33352197  1
  Te2-  Te118  1  0.15981044  0.33192569  0.66650929  1
  Te2-  Te119  1  0.16633128  0.66040408  0.00359563  1
  Te2-  Te120  1  0.16638764  0.67417795  0.33196725  1
  Te2-  Te121  1  0.17057720  0.67436793  0.66705239  1
  Te2-  Te122  1  0.48187954  -0.00434414  0.01057777  1
  Te2-  Te123  1  0.50124854  -0.00032233  0.34125197  1
  Te2-  Te124  1  0.50163114  -0.00387468  0.65854495  1
  Te2-  Te125  1  0.50306732  0.33056900  -0.00487511  1
  Te2-  Te126  1  0.50031814  0.33577728  0.33258693  1
  Te2-  Te127  1  0.50447457  0.33390928  0.66474741  1
  Te2-  Te128  1  0.49707503  0.66573492  -0.01290364  1
  Te2-  Te129  1  0.50907215  0.66080295  0.32866308  1
  Te2-  Te130  1  0.49707495  0.66793520  0.67762890  1
  Te2-  Te131  1  0.84469756  0.00242389  -0.00501159  1
  Te2-  Te132  1  0.82695763  -0.00154939  0.33814558  1
  Te2-  Te133  1  0.83416224  -0.00052432  0.65564422  1
  Te2-  Te134  1  0.83269495  0.32992494  -0.00941539  1
  Te2-  Te135  1  0.83369723  0.33190745  0.33456114  1
  Te2-  Te136  1  0.83208425  0.32620390  0.66416915  1
  Te2-  Te137  1  0.83374079  0.66828384  -0.00482045  1
  Te2-  Te138  1  0.81523624  0.66737018  0.33981492  1
  Te2-  Te139  1  0.83243427  0.67512580  0.66989820  1
  Te2-  Te140  1  -0.00665880  0.16290711  -0.00244389  1
  Te2-  Te141  1  0.00684019  0.16729355  0.32568468  1
  Te2-  Te142  1  -0.00305285  0.16532188  0.67570302  1
  Te2-  Te143  1  0.00090950  0.49882422  0.00718779  1
  Te2-  Te144  1  -0.00049092  0.49641227  0.33026933  1
  Te2-  Te145  1  -0.00156845  0.49454852  0.66544845  1
  Te2-  Te146  1  0.00450380  0.83356695  0.00966914  1
  Te2-  Te147  1  -0.00594847  0.83520214  0.32393090  1
  Te2-  Te148  1  0.01049176  0.83661019  0.66946892  1
  Te2-  Te149  1  0.33491265  0.15344869  -0.00610354  1
  Te2-  Te150  1  0.32813287  0.16504529  0.33487936  1
  Te2-  Te151  1  0.33427680  0.16013420  0.66503132  1
  Te2-  Te152  1  0.33604880  0.51288405  -0.01161434  1
  Te2-  Te153  1  0.34099461  0.49663535  0.33999434  1
  Te2-  Te154  1  0.33882990  0.50146955  0.66889087  1
  Te2-  Te155  1  0.33171390  0.80883332  -0.01089629  1
  Te2-  Te156  1  0.33430786  0.82897098  0.33711583  1
  Te2-  Te157  1  0.32602855  0.83075159  0.67564606  1
  Te2-  Te158  1  0.68219185  0.15958647  -0.00826195  1
  Te2-  Te159  1  0.66643697  0.17087529  0.33813523  1
  Te2-  Te160  1  0.66560258  0.16551330  0.66258617  1
  Te2-  Te161  1  0.66448776  0.50533666  0.01161621  1
  Te2-  Te162  1  0.65998539  0.49401829  0.31569347  1
  Te2-  Te163  1  0.66872229  0.48983733  0.67265249  1
  Te2-  Te164  1  0.66905058  0.82996801  0.00056017  1
  Te2-  Te165  1  0.66619567  0.83297250  0.32870749  1
  Te2-  Te166  1  0.66380959  0.84201071  0.67047419  1
  Te2-  Te167  1  0.00486636  0.00050442  0.16706157  1
  Te2-  Te168  1  -0.00784957  -0.01140404  0.49312828  1
  Te2-  Te169  1  -0.00487561  -0.00300372  0.83439299  1
  Te2-  Te170  1  -0.00377720  0.33193723  0.16652798  1
  Te2-  Te171  1  -0.00636383  0.34296865  0.49417463  1
  Te2-  Te172  1  -0.00770385  0.33469692  0.83053124  1
  Te2-  Te173  1  0.00086872  0.66367114  0.16804496  1
  Te2-  Te174  1  0.00393245  0.67664085  0.49779796  1
  Te2-  Te175  1  -0.00682999  0.66615683  0.83606030  1
  Te2-  Te176  1  0.33740975  -0.00029802  0.17983801  1
  Te2-  Te177  1  0.33509644  0.00087503  0.50093643  1
  Te2-  Te178  1  0.33131401  0.00027578  0.82317948  1
  Te2-  Te179  1  0.33296385  0.34568231  0.15987900  1
  Te2-  Te180  1  0.33330074  0.33277565  0.49969931  1
  Te2-  Te181  1  0.33178968  0.34839718  0.83148941  1
  Te2-  Te182  1  0.32852918  0.65388358  0.17396357  1
  Te2-  Te183  1  0.34021902  0.66250744  0.50180762  1
  Te2-  Te184  1  0.33739250  0.65645969  0.82430354  1
  Te2-  Te185  1  0.66268639  -0.00233553  0.15709051  1
  Te2-  Te186  1  0.66904393  -0.00437203  0.50572271  1
  Te2-  Te187  1  0.67716194  0.00050883  0.83269147  1
  Te2-  Te188  1  0.67345264  0.32867922  0.16827651  1
  Te2-  Te189  1  0.66582680  0.33096917  0.49902210  1
  Te2-  Te190  1  0.67560388  0.32604491  0.83140011  1
  Te2-  Te191  1  0.66446667  0.67196902  0.15752077  1
  Te2-  Te192  1  0.67392434  0.66343038  0.51966390  1
  Te2-  Te193  1  0.66451280  0.66653611  0.83300931  1
  Pb2+  Pb194  1  0.49641669  0.16659637  0.33359999  1
  Pb2+  Pb195  1  -0.00270144  0.66808510  0.66603245  1
  Pb2+  Pb196  1  0.16089624  -0.00317030  0.48930376  1
  Pb2+  Pb197  1  0.66428455  0.16371977  0.16661827  1
  Pb2+  Pb198  1  0.83365641  0.83640367  -0.00787351  1
  Pb2+  Pb199  1  0.33400869  0.32926932  0.66787579  1
  Pb2+  Pb200  1  0.33312384  0.83055224  0.50378749  1
  Pb2+  Pb201  1  0.50277200  0.83267456  0.00073861  1
  Pb2+  Pb202  1  0.83487788  -0.00093966  0.16556555  1
  Pb2+  Pb203  1  0.82971977  0.49817302  0.00107698  1
  Pb2+  Pb204  1  0.83746967  0.16477139  0.33257261  1
  Pb2+  Pb205  1  0.82862285  0.66509277  0.16965088  1
  Pb2+  Pb206  1  0.50061984  0.31948774  0.83006075  1
  Pb2+  Pb207  1  -0.01038595  0.66609283  0.33446610  1
  Pb2+  Pb208  1  0.16619052  -0.00694810  0.84292330  1
  Pb2+  Pb209  1  0.66842567  0.49673691  0.49504238  1
  Pb2+  Pb210  1  0.17014968  0.50228148  0.33477191  1
  Pb2+  Pb211  1  0.16515667  0.33255199  0.16607079  1
  Pb2+  Pb212  1  0.50580780  0.33661989  0.16355859  1
  Pb2+  Pb213  1  0.16713466  0.16122880  0.67042734  1
  Pb2+  Pb214  1  0.16992232  0.50411397  0.66718648  1
  Pb2+  Pb215  1  0.49798610  0.67011740  0.16124293  1
