# generated using pymatgen
data_In22Ag21Sn22Bi21(Te54Pb11)2
_symmetry_space_group_name_H-M   'P 1'
_cell_length_a   19.19686654
_cell_length_b   19.16666177
_cell_length_c   19.18724460
_cell_angle_alpha   89.99245779
_cell_angle_beta   89.99369652
_cell_angle_gamma   89.96757289
_symmetry_Int_Tables_number   1
_chemical_formula_structural   In22Ag21Sn22Bi21(Te54Pb11)2
_chemical_formula_sum   'In22 Ag21 Sn22 Bi21 Te108 Pb22'
_cell_volume   7059.75062745
_cell_formula_units_Z   1
loop_
 _symmetry_equiv_pos_site_id
 _symmetry_equiv_pos_as_xyz
  1  'x, y, z'
loop_
 _atom_type_symbol
 _atom_type_oxidation_number
  In3+  3.0
  Ag+  1.0
  Sn2+  2.0
  Bi3+  3.0
  Te2-  -2.0
  Pb2+  2.0
loop_
 _atom_site_type_symbol
 _atom_site_label
 _atom_site_symmetry_multiplicity
 _atom_site_fract_x
 _atom_site_fract_y
 _atom_site_fract_z
 _atom_site_occupancy
  In3+  In0  1  0.84843883  0.36906247  0.82785213  1
  In3+  In1  1  -0.00896266  0.64931689  0.67173031  1
  In3+  In2  1  0.33140137  0.30477594  0.00369365  1
  In3+  In3  1  0.33100923  0.80522163  0.16166888  1
  In3+  In4  1  0.15648162  0.82507993  0.65124100  1
  In3+  In5  1  0.15567543  0.01148936  0.50531612  1
  In3+  In6  1  -0.00590924  0.66436745  -0.00701034  1
  In3+  In7  1  0.33959020  0.48946683  0.15379158  1
  In3+  In8  1  0.81665779  0.66976643  0.50861598  1
  In3+  In9  1  0.17041708  0.15642952  -0.00204863  1
  In3+  In10  1  0.50191099  0.16542573  0.34930110  1
  In3+  In11  1  -0.00318097  0.15280696  0.17095058  1
  In3+  In12  1  0.51506898  0.66533833  0.51109702  1
  In3+  In13  1  0.65575349  -0.03133887  -0.00434403  1
  In3+  In14  1  0.13615458  0.33860500  0.15923649  1
  In3+  In15  1  0.33845110  0.68344355  -0.00750015  1
  In3+  In16  1  0.50278751  0.81242074  0.32817267  1
  In3+  In17  1  -0.01929297  0.33969551  0.01954554  1
  In3+  In18  1  0.35998910  0.17012703  0.15955742  1
  In3+  In19  1  -0.02912853  0.50980421  0.18636523  1
  In3+  In20  1  0.34081027  0.82291652  0.50328273  1
  In3+  In21  1  0.50134399  0.50264775  0.01877851  1
  Ag+  Ag22  1  0.68764283  0.47840353  0.50411673  1
  Ag+  Ag23  1  0.67057278  0.52608268  0.14206978  1
  Ag+  Ag24  1  -0.02059701  0.51946643  0.49738147  1
  Ag+  Ag25  1  0.68968297  0.83287644  0.81142542  1
  Ag+  Ag26  1  -0.00401814  0.04095445  0.02146459  1
  Ag+  Ag27  1  -0.02534548  0.64861018  0.37467683  1
  Ag+  Ag28  1  0.36280644  0.16934947  0.80903090  1
  Ag+  Ag29  1  0.79932665  0.80716351  0.67469292  1
  Ag+  Ag30  1  0.52373811  0.66824938  0.14206862  1
  Ag+  Ag31  1  0.52497405  0.14291969  -0.00139304  1
  Ag+  Ag32  1  0.80791495  0.66798058  0.85786277  1
  Ag+  Ag33  1  0.69688318  0.67674377  -0.03408159  1
  Ag+  Ag34  1  0.00185864  0.51371552  0.85464395  1
  Ag+  Ag35  1  0.66532381  0.18788170  0.52086506  1
  Ag+  Ag36  1  0.83145916  0.35730440  0.19013053  1
  Ag+  Ag37  1  0.33576752  0.69626831  0.69379955  1
  Ag+  Ag38  1  0.83410782  0.30309298  0.48246194  1
  Ag+  Ag39  1  -0.00136781  0.31013162  0.35421542  1
  Ag+  Ag40  1  0.69703463  0.83649281  0.52244608  1
  Ag+  Ag41  1  0.35334326  0.00449400  -0.02673852  1
  Ag+  Ag42  1  0.69286213  0.67494738  0.64645976  1
  Sn2+  Sn43  1  -0.00014970  0.82570079  0.49540310  1
  Sn2+  Sn44  1  0.66563611  0.66004015  0.33222169  1
  Sn2+  Sn45  1  0.16808468  -0.00126668  0.83711663  1
  Sn2+  Sn46  1  0.51816864  0.33902008  0.16423768  1
  Sn2+  Sn47  1  0.50039821  0.82801203  0.66863424  1
  Sn2+  Sn48  1  0.82605902  -0.00265097  0.50100714  1
  Sn2+  Sn49  1  0.82944241  0.67099642  0.17914196  1
  Sn2+  Sn50  1  0.49847288  0.82593229  -0.00297749  1
  Sn2+  Sn51  1  0.15929859  0.33717392  0.49758386  1
  Sn2+  Sn52  1  0.16304305  0.33277423  0.83967678  1
  Sn2+  Sn53  1  0.51907715  0.34108209  0.49676570  1
  Sn2+  Sn54  1  0.67632290  -0.00811962  0.66391078  1
  Sn2+  Sn55  1  0.82896071  0.17652734  0.33011686  1
  Sn2+  Sn56  1  0.16618695  0.66837088  0.49867168  1
  Sn2+  Sn57  1  0.82873662  0.49702317  0.66261756  1
  Sn2+  Sn58  1  -0.00781864  0.82820166  0.83008947  1
  Sn2+  Sn59  1  0.82770525  0.15871243  -0.00116914  1
  Sn2+  Sn60  1  -0.01016974  0.17769236  0.49518258  1
  Sn2+  Sn61  1  0.00440840  0.82606729  0.16675086  1
  Sn2+  Sn62  1  0.16389375  0.65869767  0.16719290  1
  Sn2+  Sn63  1  0.82972369  0.49575406  0.34430306  1
  Sn2+  Sn64  1  0.50784315  0.66705785  0.82867301  1
  Bi3+  Bi65  1  0.16849610  0.66821106  0.83532868  1
  Bi3+  Bi66  1  0.32812513  0.33612436  0.33072941  1
  Bi3+  Bi67  1  0.16916196  0.83352147  0.33302322  1
  Bi3+  Bi68  1  0.33074620  0.49872024  0.49658048  1
  Bi3+  Bi69  1  -0.00424914  0.33616121  0.65783505  1
  Bi3+  Bi70  1  0.33457720  0.00100384  0.33794337  1
  Bi3+  Bi71  1  0.83037386  0.00130263  0.16253467  1
  Bi3+  Bi72  1  0.50277651  0.49664249  0.33407661  1
  Bi3+  Bi73  1  0.49710182  0.33549645  0.83630946  1
  Bi3+  Bi74  1  0.32908815  0.33490097  0.66507972  1
  Bi3+  Bi75  1  0.00132430  -0.00411851  0.66692950  1
  Bi3+  Bi76  1  0.66673158  0.34207217  0.66743104  1
  Bi3+  Bi77  1  0.66380554  0.34127384  -0.00242820  1
  Bi3+  Bi78  1  0.83581489  -0.01093278  0.83280904  1
  Bi3+  Bi79  1  0.49967580  0.50213492  0.66411515  1
  Bi3+  Bi80  1  0.83243644  0.16256593  0.66365533  1
  Bi3+  Bi81  1  0.67326757  0.16800415  0.16299914  1
  Bi3+  Bi82  1  0.33509101  0.00075001  0.66737911  1
  Bi3+  Bi83  1  0.32917415  0.66895132  0.33555556  1
  Bi3+  Bi84  1  0.66496860  0.83148299  0.16874503  1
  Bi3+  Bi85  1  0.16655807  0.83774174  0.00068451  1
  Te2-  Te86  1  0.14938239  0.17871628  0.15838052  1
  Te2-  Te87  1  0.16215733  0.16638542  0.49904293  1
  Te2-  Te88  1  0.15924474  0.17084655  0.84402018  1
  Te2-  Te89  1  0.17663567  0.48823423  0.16401364  1
  Te2-  Te90  1  0.16964794  0.49664702  0.49751775  1
  Te2-  Te91  1  0.15880875  0.50304148  0.83367281  1
  Te2-  Te92  1  0.17045777  0.83347929  0.16641140  1
  Te2-  Te93  1  0.16665886  0.83830432  0.49490587  1
  Te2-  Te94  1  0.16445914  0.83200754  0.83876749  1
  Te2-  Te95  1  0.51035286  0.16982553  0.14817679  1
  Te2-  Te96  1  0.51310027  0.17027896  0.50227166  1
  Te2-  Te97  1  0.50250653  0.17205428  0.84971932  1
  Te2-  Te98  1  0.51428281  0.50976343  0.17362572  1
  Te2-  Te99  1  0.49381294  0.50218568  0.49982571  1
  Te2-  Te100  1  0.49736557  0.49786896  0.82540407  1
  Te2-  Te101  1  0.49866997  0.81851111  0.16826539  1
  Te2-  Te102  1  0.49175861  0.82480649  0.49204438  1
  Te2-  Te103  1  0.49083881  0.83048139  0.83916007  1
  Te2-  Te104  1  0.83890638  0.16428050  0.16474671  1
  Te2-  Te105  1  0.82205044  0.15733376  0.50028074  1
  Te2-  Te106  1  0.83153799  0.15522152  0.82891687  1
  Te2-  Te107  1  0.81866868  0.50379544  0.17208459  1
  Te2-  Te108  1  0.83172962  0.51687314  0.50200952  1
  Te2-  Te109  1  0.84107535  0.51985936  0.83108214  1
  Te2-  Te110  1  0.83315284  0.83863297  0.16685983  1
  Te2-  Te111  1  0.84305282  0.82600481  0.50647796  1
  Te2-  Te112  1  0.83460940  0.82218925  0.82494360  1
  Te2-  Te113  1  0.14629529  0.00241202  -0.00176738  1
  Te2-  Te114  1  0.17030342  -0.00124238  0.33643268  1
  Te2-  Te115  1  0.16842199  -0.00582202  0.66500103  1
  Te2-  Te116  1  0.18263435  0.33153877  0.00600616  1
  Te2-  Te117  1  0.16279874  0.33304414  0.32787011  1
  Te2-  Te118  1  0.16552459  0.33324786  0.66594495  1
  Te2-  Te119  1  0.18137012  0.67249527  0.00083316  1
  Te2-  Te120  1  0.16692868  0.67276397  0.32901625  1
  Te2-  Te121  1  0.18523062  0.67749195  0.67194735  1
  Te2-  Te122  1  0.49865552  -0.00322236  0.00121434  1
  Te2-  Te123  1  0.49659953  0.01018143  0.33240402  1
  Te2-  Te124  1  0.49948836  -0.00092625  0.66846856  1
  Te2-  Te125  1  0.49822431  0.34485071  -0.00096131  1
  Te2-  Te126  1  0.49650118  0.33187164  0.33177569  1
  Te2-  Te127  1  0.49915682  0.33422910  0.66549906  1
  Te2-  Te128  1  0.48891947  0.65896905  0.00073468  1
  Te2-  Te129  1  0.49215897  0.66125517  0.34236776  1
  Te2-  Te130  1  0.48086541  0.66445713  0.66089923  1
  Te2-  Te131  1  0.84840203  -0.00023368  -0.00240986  1
  Te2-  Te132  1  0.83353992  0.00173159  0.32916489  1
  Te2-  Te133  1  0.83612101  -0.00274635  0.66815271  1
  Te2-  Te134  1  0.83052781  0.33171443  -0.01757828  1
  Te2-  Te135  1  0.84344275  0.33266246  0.33815353  1
  Te2-  Te136  1  0.82929288  0.32946942  0.67300920  1
  Te2-  Te137  1  0.84015495  0.66407906  0.00517942  1
  Te2-  Te138  1  0.83488670  0.66836671  0.33592535  1
  Te2-  Te139  1  0.83806609  0.66623844  0.66148280  1
  Te2-  Te140  1  -0.00444827  0.18781852  0.00605054  1
  Te2-  Te141  1  -0.00227809  0.16660382  0.33029333  1
  Te2-  Te142  1  -0.00485771  0.16809795  0.66327810  1
  Te2-  Te143  1  -0.00012792  0.48868163  -0.00125991  1
  Te2-  Te144  1  -0.00299310  0.51109710  0.33460257  1
  Te2-  Te145  1  -0.00311115  0.49743574  0.65001581  1
  Te2-  Te146  1  0.00510003  0.81940254  -0.00149167  1
  Te2-  Te147  1  0.00600826  0.82646331  0.32730239  1
  Te2-  Te148  1  0.00707693  0.83484560  0.66463418  1
  Te2-  Te149  1  0.32191497  0.15143139  0.00884178  1
  Te2-  Te150  1  0.33938149  0.17200303  0.32829389  1
  Te2-  Te151  1  0.33186084  0.16928296  0.66440622  1
  Te2-  Te152  1  0.34264652  0.50261622  0.00391767  1
  Te2-  Te153  1  0.33622744  0.49826744  0.33216650  1
  Te2-  Te154  1  0.33373869  0.49491816  0.66197152  1
  Te2-  Te155  1  0.32826412  0.85325309  0.00762452  1
  Te2-  Te156  1  0.33496499  0.83588062  0.32648025  1
  Te2-  Te157  1  0.33414371  0.84082908  0.66095799  1
  Te2-  Te158  1  0.66969973  0.17589753  0.00202369  1
  Te2-  Te159  1  0.66111133  0.17014981  0.32376569  1
  Te2-  Te160  1  0.67005643  0.16779970  0.66758644  1
  Te2-  Te161  1  0.65691830  0.50317264  -0.00309708  1
  Te2-  Te162  1  0.66145786  0.50163844  0.35671866  1
  Te2-  Te163  1  0.66217878  0.50480140  0.65188074  1
  Te2-  Te164  1  0.66272712  0.81411848  0.00736071  1
  Te2-  Te165  1  0.65687621  0.83285518  0.32874199  1
  Te2-  Te166  1  0.65494854  0.82691047  0.66635214  1
  Te2-  Te167  1  -0.00325091  -0.00191964  0.16465328  1
  Te2-  Te168  1  0.00076960  0.00118226  0.50518234  1
  Te2-  Te169  1  -0.00081233  -0.00306123  0.82602049  1
  Te2-  Te170  1  -0.01704906  0.35194415  0.17112292  1
  Te2-  Te171  1  -0.01249844  0.33423212  0.49794450  1
  Te2-  Te172  1  -0.00111841  0.34246641  0.82010453  1
  Te2-  Te173  1  0.00350981  0.65696515  0.15517923  1
  Te2-  Te174  1  0.01016338  0.66182265  0.51611232  1
  Te2-  Te175  1  0.00830360  0.65925501  0.82653588  1
  Te2-  Te176  1  0.33270604  0.01825271  0.17767954  1
  Te2-  Te177  1  0.33051533  -0.00260907  0.50122872  1
  Te2-  Te178  1  0.32904142  0.01699768  0.82801542  1
  Te2-  Te179  1  0.34538544  0.33070472  0.16859912  1
  Te2-  Te180  1  0.33126066  0.33331295  0.49746263  1
  Te2-  Te181  1  0.33295417  0.32103655  0.82968037  1
  Te2-  Te182  1  0.33159197  0.65386014  0.17367198  1
  Te2-  Te183  1  0.32598283  0.66507904  0.49597667  1
  Te2-  Te184  1  0.33221816  0.66480102  0.83930024  1
  Te2-  Te185  1  0.66807448  -0.00198917  0.15813251  1
  Te2-  Te186  1  0.66792300  -0.01764029  0.50467781  1
  Te2-  Te187  1  0.67368098  -0.01613957  0.83771090  1
  Te2-  Te188  1  0.68280443  0.33185759  0.15918118  1
  Te2-  Te189  1  0.67954012  0.33211286  0.50378760  1
  Te2-  Te190  1  0.66179086  0.33967720  0.82957250  1
  Te2-  Te191  1  0.66732267  0.66994581  0.17298577  1
  Te2-  Te192  1  0.66576065  0.68595814  0.50125123  1
  Te2-  Te193  1  0.66163862  0.67731838  0.82452958  1
  Pb2+  Pb194  1  0.67108343  0.33815895  0.32807216  1
  Pb2+  Pb195  1  0.66789042  0.16200795  0.83499247  1
  Pb2+  Pb196  1  0.16904844  0.50210293  -0.00002033  1
  Pb2+  Pb197  1  0.32808842  0.84107860  0.83576687  1
  Pb2+  Pb198  1  0.82899562  0.49795284  0.00361636  1
  Pb2+  Pb199  1  0.50061972  -0.00785520  0.50182571  1
  Pb2+  Pb200  1  0.82971933  0.83258055  0.33887364  1
  Pb2+  Pb201  1  0.50280251  0.16575262  0.67408445  1
  Pb2+  Pb202  1  0.16861369  0.16849771  0.32717912  1
  Pb2+  Pb203  1  0.66762851  0.00200628  0.33501804  1
  Pb2+  Pb204  1  0.83413721  0.83304365  -0.00487714  1
  Pb2+  Pb205  1  0.16322027  0.16400528  0.67395626  1
  Pb2+  Pb206  1  0.66943480  0.51176993  0.82362181  1
  Pb2+  Pb207  1  0.32993037  0.49119936  0.83591422  1
  Pb2+  Pb208  1  0.16420959  0.50827195  0.66526520  1
  Pb2+  Pb209  1  -0.00047902  -0.00518495  0.33661653  1
  Pb2+  Pb210  1  0.16960431  0.00512401  0.16323818  1
  Pb2+  Pb211  1  0.50345868  -0.00224579  0.83463547  1
  Pb2+  Pb212  1  0.49608596  -0.01019179  0.16618818  1
  Pb2+  Pb213  1  0.33653855  0.16471079  0.49593333  1
  Pb2+  Pb214  1  -0.00616518  0.17255191  0.83742502  1
  Pb2+  Pb215  1  0.16059579  0.50165336  0.33020293  1
