# generated using pymatgen
data_In22Ag21Sn22Bi21(Te54Pb11)2
_symmetry_space_group_name_H-M   'P 1'
_cell_length_a   19.15179007
_cell_length_b   19.16309199
_cell_length_c   19.16292987
_cell_angle_alpha   89.99088382
_cell_angle_beta   90.00454863
_cell_angle_gamma   90.00363613
_symmetry_Int_Tables_number   1
_chemical_formula_structural   In22Ag21Sn22Bi21(Te54Pb11)2
_chemical_formula_sum   'In22 Ag21 Sn22 Bi21 Te108 Pb22'
_cell_volume   7032.93914812
_cell_formula_units_Z   1
loop_
 _symmetry_equiv_pos_site_id
 _symmetry_equiv_pos_as_xyz
  1  'x, y, z'
loop_
 _atom_type_symbol
 _atom_type_oxidation_number
  In3+  3.0
  Ag+  1.0
  Sn2+  2.0
  Bi3+  3.0
  Te2-  -2.0
  Pb2+  2.0
loop_
 _atom_site_type_symbol
 _atom_site_label
 _atom_site_symmetry_multiplicity
 _atom_site_fract_x
 _atom_site_fract_y
 _atom_site_fract_z
 _atom_site_occupancy
  In3+  In0  1  -0.00326132  0.48526680  0.15783922  1
  In3+  In1  1  0.17099339  0.84968557  0.68592996  1
  In3+  In2  1  0.69259886  0.16834275  0.50936680  1
  In3+  In3  1  0.16361597  0.66759879  0.82510252  1
  In3+  In4  1  0.83203112  0.50510509  0.33654292  1
  In3+  In5  1  0.49078262  0.18315095  0.33979280  1
  In3+  In6  1  0.66564690  0.85339841  0.15677576  1
  In3+  In7  1  0.00443798  0.02108653  0.67955907  1
  In3+  In8  1  0.16984830  0.68519442  0.15981431  1
  In3+  In9  1  0.00083494  0.48297564  0.49580564  1
  In3+  In10  1  0.64869407  0.50386939  0.49376492  1
  In3+  In11  1  0.00160026  0.31512519  0.33460584  1
  In3+  In12  1  0.16391968  0.00771912  0.84102550  1
  In3+  In13  1  -0.00090008  0.83595923  0.51999886  1
  In3+  In14  1  0.14458533  0.16494993  0.33569107  1
  In3+  In15  1  0.32297693  0.66691640  -0.02075225  1
  In3+  In16  1  -0.00183282  0.49106120  0.84129773  1
  In3+  In17  1  0.02641166  0.66102305  0.33721185  1
  In3+  In18  1  0.48478128  0.16915721  0.68530468  1
  In3+  In19  1  0.81804876  0.32930647  0.16019907  1
  In3+  In20  1  0.34581384  -0.00584370  0.66888665  1
  In3+  In21  1  0.68900135  0.16377480  0.15413186  1
  Ag+  Ag22  1  0.70529253  0.03270922  0.68325999  1
  Ag+  Ag23  1  0.01693109  0.18753584  0.14518753  1
  Ag+  Ag24  1  0.85043448  0.13826695  -0.01618145  1
  Ag+  Ag25  1  0.00894540  0.18049772  0.52257525  1
  Ag+  Ag26  1  0.16337918  -0.01568234  0.14156044  1
  Ag+  Ag27  1  0.47750264  0.52359946  0.00038952  1
  Ag+  Ag28  1  0.52309736  -0.00207461  0.80350377  1
  Ag+  Ag29  1  0.83727376  0.13816799  0.69423426  1
  Ag+  Ag30  1  0.14766792  0.83862196  -0.01648406  1
  Ag+  Ag31  1  0.35246858  0.49400581  0.52974504  1
  Ag+  Ag32  1  0.52874836  0.80629445  0.69624402  1
  Ag+  Ag33  1  -0.01141842  0.85045446  0.81756296  1
  Ag+  Ag34  1  0.18522573  0.18584433  0.69205317  1
  Ag+  Ag35  1  0.51907266  0.35773487  0.83627544  1
  Ag+  Ag36  1  0.16720367  0.36301823  0.81690122  1
  Ag+  Ag37  1  0.81967020  0.50135047  0.02498241  1
  Ag+  Ag38  1  0.69440085  0.33107873  -0.02174535  1
  Ag+  Ag39  1  -0.00017541  0.18761930  0.81569815  1
  Ag+  Ag40  1  0.30468870  0.31108372  0.66488177  1
  Ag+  Ag41  1  0.33516816  0.64663175  0.30568341  1
  Ag+  Ag42  1  0.30792678  0.64430937  0.67021932  1
  Sn2+  Sn43  1  0.16257237  0.50272233  -0.00089764  1
  Sn2+  Sn44  1  0.84133358  0.82250870  0.00033715  1
  Sn2+  Sn45  1  0.83076824  0.83624058  0.67027241  1
  Sn2+  Sn46  1  0.16762431  0.83805955  0.33249233  1
  Sn2+  Sn47  1  0.17630054  0.66535565  0.49837961  1
  Sn2+  Sn48  1  0.66474275  0.64602998  0.00396738  1
  Sn2+  Sn49  1  0.49792017  0.67576416  0.83079040  1
  Sn2+  Sn50  1  0.66936172  0.50063975  0.15648045  1
  Sn2+  Sn51  1  0.83677575  0.82868061  0.33075641  1
  Sn2+  Sn52  1  0.66462811  0.00165902  0.34558303  1
  Sn2+  Sn53  1  0.33642597  0.83451788  0.16698802  1
  Sn2+  Sn54  1  0.33229067  0.34396628  0.34473957  1
  Sn2+  Sn55  1  0.49708316  0.66165030  0.16108230  1
  Sn2+  Sn56  1  0.00131665  0.66370863  0.00022553  1
  Sn2+  Sn57  1  0.33229088  -0.00675317  0.33362071  1
  Sn2+  Sn58  1  0.33299794  -0.00788095  -0.00193560  1
  Sn2+  Sn59  1  -0.00527525  0.32324138  0.00168644  1
  Sn2+  Sn60  1  0.84808622  0.00461555  0.16537324  1
  Sn2+  Sn61  1  0.34260673  0.48527955  0.83018666  1
  Sn2+  Sn62  1  0.66929740  0.49972465  0.83818197  1
  Sn2+  Sn63  1  0.49280526  0.33064347  0.52264797  1
  Sn2+  Sn64  1  0.50074782  0.82906271  -0.00878362  1
  Bi3+  Bi65  1  -0.00004512  -0.00841779  0.33099693  1
  Bi3+  Bi66  1  -0.00326258  0.33368539  0.66865257  1
  Bi3+  Bi67  1  0.32933623  0.33501344  -0.00890117  1
  Bi3+  Bi68  1  0.00144723  0.66527416  0.66472443  1
  Bi3+  Bi69  1  0.49842417  0.00584108  0.49704563  1
  Bi3+  Bi70  1  0.49811856  0.83348660  0.33364640  1
  Bi3+  Bi71  1  0.32410122  0.16516593  0.83777689  1
  Bi3+  Bi72  1  0.32826278  0.82877173  0.50163657  1
  Bi3+  Bi73  1  0.82801276  0.16931590  0.33019165  1
  Bi3+  Bi74  1  0.32816689  0.16659054  0.16838155  1
  Bi3+  Bi75  1  0.66703568  0.33561517  0.66682295  1
  Bi3+  Bi76  1  0.16588965  -0.00283713  0.49546574  1
  Bi3+  Bi77  1  0.16461417  0.50022953  0.33286920  1
  Bi3+  Bi78  1  0.16835367  0.33308028  0.16382922  1
  Bi3+  Bi79  1  0.66923883  0.66537066  0.67011301  1
  Bi3+  Bi80  1  0.83725290  0.49969698  0.66241891  1
  Bi3+  Bi81  1  0.49798343  0.16646634  0.00053705  1
  Bi3+  Bi82  1  0.33077439  0.83326667  0.83503869  1
  Bi3+  Bi83  1  -0.00220848  0.83349547  0.16757818  1
  Bi3+  Bi84  1  0.49127740  0.00082997  0.16744770  1
  Bi3+  Bi85  1  0.66748519  0.32925637  0.33524806  1
  Te2-  Te86  1  0.16284371  0.17065541  0.17532734  1
  Te2-  Te87  1  0.15495553  0.16234536  0.49071786  1
  Te2-  Te88  1  0.15569492  0.15777324  0.83299369  1
  Te2-  Te89  1  0.15397364  0.49773638  0.17035715  1
  Te2-  Te90  1  0.16105355  0.50071538  0.49429609  1
  Te2-  Te91  1  0.16227664  0.50966539  0.83648707  1
  Te2-  Te92  1  0.16713036  0.83868729  0.17033302  1
  Te2-  Te93  1  0.16601050  0.83387093  0.49720355  1
  Te2-  Te94  1  0.16583707  0.82520522  0.83870713  1
  Te2-  Te95  1  0.49194632  0.16260393  0.16901224  1
  Te2-  Te96  1  0.49372372  0.16809698  0.49402861  1
  Te2-  Te97  1  0.49071761  0.14676753  0.83607734  1
  Te2-  Te98  1  0.49906063  0.50187971  0.15115674  1
  Te2-  Te99  1  0.49458005  0.49843090  0.49807654  1
  Te2-  Te100  1  0.49952819  0.50564901  0.84758980  1
  Te2-  Te101  1  0.50443786  0.83669813  0.16861754  1
  Te2-  Te102  1  0.49293624  0.84099745  0.49882332  1
  Te2-  Te103  1  0.49351144  0.84919716  0.83034638  1
  Te2-  Te104  1  0.84034609  0.17314940  0.16675717  1
  Te2-  Te105  1  0.84620778  0.16713962  0.49318950  1
  Te2-  Te106  1  0.84176720  0.16758320  0.84047427  1
  Te2-  Te107  1  0.84172494  0.49462967  0.17282592  1
  Te2-  Te108  1  0.84058456  0.50003408  0.49589927  1
  Te2-  Te109  1  0.84241679  0.49698701  0.82602845  1
  Te2-  Te110  1  0.82885277  0.83463205  0.16654250  1
  Te2-  Te111  1  0.83507995  0.83446200  0.49586450  1
  Te2-  Te112  1  0.84323828  0.83187579  0.84024808  1
  Te2-  Te113  1  0.16985253  -0.01259737  -0.00454921  1
  Te2-  Te114  1  0.16619559  0.00545106  0.33358692  1
  Te2-  Te115  1  0.15395116  -0.00092827  0.65816538  1
  Te2-  Te116  1  0.16718330  0.33611002  0.00269846  1
  Te2-  Te117  1  0.16605103  0.33451440  0.33094439  1
  Te2-  Te118  1  0.15824403  0.32928128  0.67235031  1
  Te2-  Te119  1  0.17211762  0.67179726  0.00575410  1
  Te2-  Te120  1  0.18001695  0.66431145  0.32542440  1
  Te2-  Te121  1  0.16174884  0.67360439  0.66909169  1
  Te2-  Te122  1  0.49594091  0.00039478  0.00620639  1
  Te2-  Te123  1  0.49895977  -0.00177927  0.33160115  1
  Te2-  Te124  1  0.49647176  0.01474247  0.65901877  1
  Te2-  Te125  1  0.48761531  0.32617139  -0.01746616  1
  Te2-  Te126  1  0.50145116  0.33501471  0.33053118  1
  Te2-  Te127  1  0.50580705  0.32548962  0.68642738  1
  Te2-  Te128  1  0.49734088  0.67006891  -0.00159372  1
  Te2-  Te129  1  0.48720870  0.66915308  0.32854939  1
  Te2-  Te130  1  0.50808936  0.66487041  0.67076190  1
  Te2-  Te131  1  0.82653158  -0.00418674  0.00891663  1
  Te2-  Te132  1  0.83074085  0.00011704  0.32603992  1
  Te2-  Te133  1  0.84644853  -0.00639659  0.66381801  1
  Te2-  Te134  1  0.83812718  0.34718641  0.00979146  1
  Te2-  Te135  1  0.83423129  0.33544782  0.32615727  1
  Te2-  Te136  1  0.83386480  0.33785831  0.66521591  1
  Te2-  Te137  1  0.83259077  0.65256892  0.00142336  1
  Te2-  Te138  1  0.82691308  0.66079249  0.33055614  1
  Te2-  Te139  1  0.83575272  0.66577255  0.66569410  1
  Te2-  Te140  1  -0.00620440  0.16603140  0.00266290  1
  Te2-  Te141  1  -0.00938393  0.15660477  0.32971819  1
  Te2-  Te142  1  -0.01315883  0.16925672  0.66887436  1
  Te2-  Te143  1  0.00047015  0.50029289  0.00181052  1
  Te2-  Te144  1  -0.00187442  0.51098947  0.33459550  1
  Te2-  Te145  1  0.00032761  0.50108470  0.66124259  1
  Te2-  Te146  1  0.00100652  0.82558881  0.00614889  1
  Te2-  Te147  1  -0.00204496  0.82664322  0.32914285  1
  Te2-  Te148  1  0.00265495  0.82608700  0.67322304  1
  Te2-  Te149  1  0.33018752  0.16489789  0.00218960  1
  Te2-  Te150  1  0.33613927  0.17204511  0.33068995  1
  Te2-  Te151  1  0.32945856  0.16554745  0.66991236  1
  Te2-  Te152  1  0.33009132  0.50215092  -0.00571911  1
  Te2-  Te153  1  0.32818676  0.50087995  0.33238520  1
  Te2-  Te154  1  0.33502206  0.49952835  0.67435017  1
  Te2-  Te155  1  0.33569768  0.82575120  -0.00296797  1
  Te2-  Te156  1  0.33511613  0.83098653  0.33811144  1
  Te2-  Te157  1  0.32507154  0.84039838  0.66775088  1
  Te2-  Te158  1  0.66227705  0.18102569  0.00475484  1
  Te2-  Te159  1  0.66644589  0.16779594  0.33428089  1
  Te2-  Te160  1  0.68289800  0.17514957  0.66258535  1
  Te2-  Te161  1  0.67485986  0.48479738  -0.00068995  1
  Te2-  Te162  1  0.67123008  0.49348458  0.33190199  1
  Te2-  Te163  1  0.67350589  0.50028985  0.66435110  1
  Te2-  Te164  1  0.66899590  0.83155577  0.00484121  1
  Te2-  Te165  1  0.66368467  0.83466949  0.33012753  1
  Te2-  Te166  1  0.67126384  0.82828460  0.66648127  1
  Te2-  Te167  1  0.01340976  -0.00449969  0.16967895  1
  Te2-  Te168  1  0.00280348  -0.01198503  0.49152435  1
  Te2-  Te169  1  0.00804382  -0.00524879  0.83080138  1
  Te2-  Te170  1  0.00579899  0.33205172  0.17319033  1
  Te2-  Te171  1  -0.00000743  0.32636867  0.49773585  1
  Te2-  Te172  1  0.01534623  0.33574468  0.83251388  1
  Te2-  Te173  1  0.01109653  0.67240233  0.17254448  1
  Te2-  Te174  1  0.00715450  0.67696093  0.49735288  1
  Te2-  Te175  1  0.00929747  0.66026354  0.83239391  1
  Te2-  Te176  1  0.32583009  0.00283885  0.16780104  1
  Te2-  Te177  1  0.33126709  -0.00108072  0.50231280  1
  Te2-  Te178  1  0.32083511  -0.00052983  0.82819501  1
  Te2-  Te179  1  0.33176162  0.33178691  0.16498918  1
  Te2-  Te180  1  0.33568773  0.34329692  0.51437225  1
  Te2-  Te181  1  0.31459265  0.32506495  0.82845895  1
  Te2-  Te182  1  0.32710927  0.67101181  0.16008310  1
  Te2-  Te183  1  0.32979784  0.66804927  0.52082158  1
  Te2-  Te184  1  0.33024203  0.67117873  0.82494116  1
  Te2-  Te185  1  0.65968556  0.00491034  0.17043664  1
  Te2-  Te186  1  0.66158368  0.01001304  0.51001741  1
  Te2-  Te187  1  0.66920981  0.00102622  0.82409050  1
  Te2-  Te188  1  0.66581486  0.33075373  0.17352410  1
  Te2-  Te189  1  0.65815084  0.33053875  0.49948973  1
  Te2-  Te190  1  0.66684054  0.33646913  0.83215825  1
  Te2-  Te191  1  0.66463641  0.65935396  0.16233062  1
  Te2-  Te192  1  0.66515735  0.66425749  0.50173060  1
  Te2-  Te193  1  0.66654952  0.66370657  0.83438970  1
  Pb2+  Pb194  1  0.49418069  0.66928693  0.50127692  1
  Pb2+  Pb195  1  0.32464983  0.50348665  0.16213281  1
  Pb2+  Pb196  1  0.83667257  0.00212866  0.83674888  1
  Pb2+  Pb197  1  0.83987245  0.66785461  0.49642731  1
  Pb2+  Pb198  1  0.66470480  0.16918432  0.83403382  1
  Pb2+  Pb199  1  0.50006653  0.33317987  0.14899317  1
  Pb2+  Pb200  1  -0.00237876  -0.00330320  0.00212056  1
  Pb2+  Pb201  1  0.84117726  0.66436670  0.83634281  1
  Pb2+  Pb202  1  0.82766942  0.33307073  0.49615004  1
  Pb2+  Pb203  1  0.66143694  0.83815585  0.49943172  1
  Pb2+  Pb204  1  0.49802446  0.50084458  0.32365416  1
  Pb2+  Pb205  1  0.15922903  0.16582713  0.00086963  1
  Pb2+  Pb206  1  0.16977092  0.49980982  0.66506573  1
  Pb2+  Pb207  1  0.66855609  0.83261042  0.83593720  1
  Pb2+  Pb208  1  0.65745734  0.66626548  0.32920952  1
  Pb2+  Pb209  1  0.32591054  0.17127655  0.49803818  1
  Pb2+  Pb210  1  0.84087555  0.32995318  0.83832752  1
  Pb2+  Pb211  1  0.66068741  0.00560205  -0.00397432  1
  Pb2+  Pb212  1  0.16851359  0.33224873  0.50087047  1
  Pb2+  Pb213  1  0.50275897  0.49691334  0.67644258  1
  Pb2+  Pb214  1  0.83332510  0.00249599  0.49515701  1
  Pb2+  Pb215  1  0.84024296  0.66539583  0.16487700  1
