# generated using pymatgen
data_In22Ag21Sn22Bi21(Te54Pb11)2
_symmetry_space_group_name_H-M   'P 1'
_cell_length_a   19.16205086
_cell_length_b   19.14583641
_cell_length_c   19.16399499
_cell_angle_alpha   89.98072203
_cell_angle_beta   89.99425249
_cell_angle_gamma   90.00521576
_symmetry_Int_Tables_number   1
_chemical_formula_structural   In22Ag21Sn22Bi21(Te54Pb11)2
_chemical_formula_sum   'In22 Ag21 Sn22 Bi21 Te108 Pb22'
_cell_volume   7030.76128450
_cell_formula_units_Z   1
loop_
 _symmetry_equiv_pos_site_id
 _symmetry_equiv_pos_as_xyz
  1  'x, y, z'
loop_
 _atom_type_symbol
 _atom_type_oxidation_number
  In3+  3.0
  Ag+  1.0
  Sn2+  2.0
  Bi3+  3.0
  Te2-  -2.0
  Pb2+  2.0
loop_
 _atom_site_type_symbol
 _atom_site_label
 _atom_site_symmetry_multiplicity
 _atom_site_fract_x
 _atom_site_fract_y
 _atom_site_fract_z
 _atom_site_occupancy
  In3+  In0  1  -0.01270981  0.83067661  0.83524684  1
  In3+  In1  1  0.49446686  0.66561298  0.48237318  1
  In3+  In2  1  0.34017606  0.49646764  0.82922880  1
  In3+  In3  1  0.47925015  0.66793547  0.85176791  1
  In3+  In4  1  0.31821268  0.65561947  0.33357894  1
  In3+  In5  1  0.15156507  0.36576677  0.50112532  1
  In3+  In6  1  -0.01060232  0.33460462  0.00115147  1
  In3+  In7  1  0.83637061  0.84181046  0.01481306  1
  In3+  In8  1  0.49184417  0.51096183  0.66278820  1
  In3+  In9  1  0.64472279  0.16421145  0.17224787  1
  In3+  In10  1  0.67116116  0.32907487  0.34159431  1
  In3+  In11  1  0.49664070  0.33738470  0.51583665  1
  In3+  In12  1  0.84072873  0.69843715  0.84946292  1
  In3+  In13  1  0.00423355  0.81258399  0.18243239  1
  In3+  In14  1  0.80572313  0.15736170  0.66817155  1
  In3+  In15  1  0.18586341  0.82854738  0.66307926  1
  In3+  In16  1  0.66967229  0.84232544  0.48762243  1
  In3+  In17  1  0.83193698  0.33299502  0.19092190  1
  In3+  In18  1  0.48202561  0.35835450  0.16365810  1
  In3+  In19  1  0.33007586  0.82560721  0.85744034  1
  In3+  In20  1  0.66960219  0.15610843  0.49778643  1
  In3+  In21  1  0.83499205  0.16689410  0.31807034  1
  Ag+  Ag22  1  0.36324194  0.82938054  0.18204294  1
  Ag+  Ag23  1  0.19775937  0.67155394  0.47138619  1
  Ag+  Ag24  1  0.82098853  0.01727499  0.49681500  1
  Ag+  Ag25  1  0.19092579  0.65524128  0.14656822  1
  Ag+  Ag26  1  0.48002751  0.69482708  0.18590958  1
  Ag+  Ag27  1  0.85646155  0.30857962  0.48825967  1
  Ag+  Ag28  1  0.31591117  0.66684147  0.64913845  1
  Ag+  Ag29  1  0.83638396  0.80990368  0.31290820  1
  Ag+  Ag30  1  0.47489796  0.83075354  -0.00237694  1
  Ag+  Ag31  1  0.30583267  0.66018226  0.03686678  1
  Ag+  Ag32  1  0.02988836  0.35906673  0.29849351  1
  Ag+  Ag33  1  0.34927740  0.19332614  0.14769064  1
  Ag+  Ag34  1  0.30820498  0.49975580  0.48530428  1
  Ag+  Ag35  1  0.49936811  0.30396175  0.81174200  1
  Ag+  Ag36  1  0.49936969  0.13818944  0.69355499  1
  Ag+  Ag37  1  0.32039344  0.53719436  0.13538714  1
  Ag+  Ag38  1  0.01982325  0.64667587  0.32577849  1
  Ag+  Ag39  1  0.83156678  0.69362317  0.18887602  1
  Ag+  Ag40  1  0.69507354  -0.02151003  0.32800284  1
  Ag+  Ag41  1  0.80701404  0.00234726  0.85400689  1
  Ag+  Ag42  1  -0.02647443  0.51060283  0.85260260  1
  Sn2+  Sn43  1  0.01292851  0.16427809  0.17049295  1
  Sn2+  Sn44  1  0.66624550  0.82747463  0.16419513  1
  Sn2+  Sn45  1  0.49839344  -0.00684405  0.16727908  1
  Sn2+  Sn46  1  0.66897518  -0.00026840  0.65870635  1
  Sn2+  Sn47  1  0.66073523  0.82789054  0.83136394  1
  Sn2+  Sn48  1  0.16696646  0.66423865  0.83604423  1
  Sn2+  Sn49  1  0.33809483  -0.01296546  0.00733989  1
  Sn2+  Sn50  1  0.33828247  0.33253572  0.33446357  1
  Sn2+  Sn51  1  0.16944156  0.83480727  0.00009956  1
  Sn2+  Sn52  1  0.00738140  0.50803716  0.16689972  1
  Sn2+  Sn53  1  0.50310142  0.83788655  0.32734993  1
  Sn2+  Sn54  1  0.49530125  0.16255776  0.00412207  1
  Sn2+  Sn55  1  0.83125974  0.16769903  -0.00038492  1
  Sn2+  Sn56  1  0.17185404  -0.01113648  0.16710672  1
  Sn2+  Sn57  1  0.66857089  0.49831817  0.83068006  1
  Sn2+  Sn58  1  0.49827702  0.82372847  0.66920049  1
  Sn2+  Sn59  1  0.49527100  0.49724509  0.33436158  1
  Sn2+  Sn60  1  0.83688501  0.50306134  0.33102912  1
  Sn2+  Sn61  1  0.15994818  -0.01012020  0.49694672  1
  Sn2+  Sn62  1  -0.00730954  0.50905452  0.50309754  1
  Sn2+  Sn63  1  0.16345996  0.17123356  0.33476479  1
  Sn2+  Sn64  1  0.50514072  -0.00985045  0.83614077  1
  Bi3+  Bi65  1  0.83080337  0.83291245  0.66185992  1
  Bi3+  Bi66  1  0.49730135  0.16892278  0.33240796  1
  Bi3+  Bi67  1  0.66977145  0.66559253  0.33107459  1
  Bi3+  Bi68  1  0.66455585  0.50138016  0.49800277  1
  Bi3+  Bi69  1  0.66604934  0.33453020  0.66666834  1
  Bi3+  Bi70  1  -0.00063639  0.00458397  0.33256583  1
  Bi3+  Bi71  1  -0.00078540  0.33454215  0.66747691  1
  Bi3+  Bi72  1  0.17188813  -0.00598769  0.83281093  1
  Bi3+  Bi73  1  0.33576285  0.33940458  0.66518246  1
  Bi3+  Bi74  1  -0.00553003  0.83063980  0.49879495  1
  Bi3+  Bi75  1  0.33512302  -0.00405785  0.33105664  1
  Bi3+  Bi76  1  0.33637457  0.17552837  0.49850431  1
  Bi3+  Bi77  1  -0.00122580  0.66498139  0.00319213  1
  Bi3+  Bi78  1  0.83361863  0.49718546  0.66550309  1
  Bi3+  Bi79  1  0.17365802  0.33344191  0.83028774  1
  Bi3+  Bi80  1  0.66604252  0.32952087  0.00074300  1
  Bi3+  Bi81  1  0.66810716  0.66890097  0.66985355  1
  Bi3+  Bi82  1  0.66980515  0.66828972  0.00117097  1
  Bi3+  Bi83  1  0.82890793  0.66625532  0.49858606  1
  Bi3+  Bi84  1  0.50131804  0.51097424  0.00101277  1
  Bi3+  Bi85  1  0.16760470  0.16576622  0.00344411  1
  Te2-  Te86  1  0.16958018  0.16411958  0.16527671  1
  Te2-  Te87  1  0.17416425  0.16133889  0.49753263  1
  Te2-  Te88  1  0.16938608  0.16623367  0.83416613  1
  Te2-  Te89  1  0.17463720  0.50676829  0.16567058  1
  Te2-  Te90  1  0.16324060  0.51957663  0.50107672  1
  Te2-  Te91  1  0.18089748  0.49423449  0.83429082  1
  Te2-  Te92  1  0.15219299  0.82407063  0.16421705  1
  Te2-  Te93  1  0.16146831  0.81909570  0.50598354  1
  Te2-  Te94  1  0.17665164  0.83345625  0.83017178  1
  Te2-  Te95  1  0.49150799  0.16110375  0.16732096  1
  Te2-  Te96  1  0.50083333  0.17758124  0.49190408  1
  Te2-  Te97  1  0.49975851  0.16002142  0.84066772  1
  Te2-  Te98  1  0.49021156  0.50859804  0.16353179  1
  Te2-  Te99  1  0.50369472  0.50337156  0.50337539  1
  Te2-  Te100  1  0.49977336  0.51074178  0.83892592  1
  Te2-  Te101  1  0.51031144  0.83431100  0.15538628  1
  Te2-  Te102  1  0.50854701  0.82842479  0.49482619  1
  Te2-  Te103  1  0.49359648  0.82540333  0.84384165  1
  Te2-  Te104  1  0.84236683  0.17668915  0.16421183  1
  Te2-  Te105  1  0.82241866  0.16850813  0.51455296  1
  Te2-  Te106  1  0.83288146  0.15065215  0.82379363  1
  Te2-  Te107  1  0.83519522  0.48423598  0.16928885  1
  Te2-  Te108  1  0.82803757  0.50171285  0.50222584  1
  Te2-  Te109  1  0.83026838  0.49389406  0.82896837  1
  Te2-  Te110  1  0.83336495  0.84125543  0.16877295  1
  Te2-  Te111  1  0.82792116  0.82979627  0.50074016  1
  Te2-  Te112  1  0.83417188  0.85338113  0.82205481  1
  Te2-  Te113  1  0.17117378  0.00223906  -0.00240255  1
  Te2-  Te114  1  0.16614178  0.00142996  0.33320461  1
  Te2-  Te115  1  0.16965302  -0.00918228  0.66705438  1
  Te2-  Te116  1  0.17116665  0.32807004  -0.00533329  1
  Te2-  Te117  1  0.16561393  0.33120798  0.34332151  1
  Te2-  Te118  1  0.17091307  0.33398518  0.66486071  1
  Te2-  Te119  1  0.15918563  0.67043294  0.00190761  1
  Te2-  Te120  1  0.16455496  0.66822295  0.32795689  1
  Te2-  Te121  1  0.17219799  0.67446451  0.67470486  1
  Te2-  Te122  1  0.49587409  -0.01355092  -0.00015428  1
  Te2-  Te123  1  0.49777149  0.00255450  0.33234236  1
  Te2-  Te124  1  0.50463806  -0.00681250  0.66521938  1
  Te2-  Te125  1  0.50550844  0.33635379  0.01063652  1
  Te2-  Te126  1  0.50518969  0.33062136  0.31695956  1
  Te2-  Te127  1  0.50086977  0.34484560  0.67177506  1
  Te2-  Te128  1  0.51120711  0.67573212  0.00106046  1
  Te2-  Te129  1  0.50973611  0.67025574  0.32851425  1
  Te2-  Te130  1  0.51025614  0.66401447  0.67931586  1
  Te2-  Te131  1  0.83327147  -0.00103304  -0.00029011  1
  Te2-  Te132  1  0.83601308  0.01724527  0.34532615  1
  Te2-  Te133  1  0.82618427  0.00186073  0.64947589  1
  Te2-  Te134  1  0.83159387  0.32880488  -0.01042837  1
  Te2-  Te135  1  0.82720933  0.32592512  0.34602322  1
  Te2-  Te136  1  0.83003069  0.33170675  0.65921322  1
  Te2-  Te137  1  0.83637136  0.67072948  0.00363382  1
  Te2-  Te138  1  0.82925628  0.66387965  0.33448270  1
  Te2-  Te139  1  0.83251801  0.66459196  0.66428956  1
  Te2-  Te140  1  0.00184683  0.17259841  -0.00010335  1
  Te2-  Te141  1  -0.00641835  0.16981444  0.33371834  1
  Te2-  Te142  1  0.00865112  0.17033636  0.66493928  1
  Te2-  Te143  1  0.00035424  0.49842339  -0.00332480  1
  Te2-  Te144  1  -0.00439717  0.49657655  0.33403320  1
  Te2-  Te145  1  -0.00318233  0.49862339  0.66928143  1
  Te2-  Te146  1  -0.00780110  0.82723619  -0.00694554  1
  Te2-  Te147  1  -0.01436796  0.84054265  0.33264128  1
  Te2-  Te148  1  -0.00610302  0.83092773  0.66571798  1
  Te2-  Te149  1  0.33319092  0.16388032  0.00534944  1
  Te2-  Te150  1  0.33344168  0.16306629  0.33711598  1
  Te2-  Te151  1  0.35153685  0.17085795  0.66129113  1
  Te2-  Te152  1  0.34053048  0.51657301  -0.00848398  1
  Te2-  Te153  1  0.33860836  0.50178920  0.34098122  1
  Te2-  Te154  1  0.33869159  0.50749744  0.67282351  1
  Te2-  Te155  1  0.32753655  0.81606910  0.00823989  1
  Te2-  Te156  1  0.33654424  0.83472904  0.32859933  1
  Te2-  Te157  1  0.33916179  0.81941289  0.65833425  1
  Te2-  Te158  1  0.66552275  0.16659007  0.00773708  1
  Te2-  Te159  1  0.66460881  0.17563168  0.33255414  1
  Te2-  Te160  1  0.64739945  0.17165611  0.65942145  1
  Te2-  Te161  1  0.66513724  0.49782514  -0.00014640  1
  Te2-  Te162  1  0.66417717  0.49761528  0.33514790  1
  Te2-  Te163  1  0.66789888  0.50040345  0.66459284  1
  Te2-  Te164  1  0.68326838  0.82972995  -0.00387895  1
  Te2-  Te165  1  0.67389864  0.83158241  0.33285390  1
  Te2-  Te166  1  0.66737557  0.83106924  0.66477023  1
  Te2-  Te167  1  0.00353956  0.00203612  0.17022879  1
  Te2-  Te168  1  0.00037389  -0.00441897  0.49696948  1
  Te2-  Te169  1  0.01083185  -0.00767115  0.83382562  1
  Te2-  Te170  1  -0.00504820  0.33689299  0.15917860  1
  Te2-  Te171  1  0.00084901  0.33698662  0.50629801  1
  Te2-  Te172  1  0.00927732  0.34130984  0.83242047  1
  Te2-  Te173  1  -0.01627218  0.66340742  0.17331781  1
  Te2-  Te174  1  -0.00917778  0.66967908  0.48411777  1
  Te2-  Te175  1  -0.00459554  0.65959665  0.83720384  1
  Te2-  Te176  1  0.32967578  -0.02106169  0.17020494  1
  Te2-  Te177  1  0.33142242  0.00120319  0.49729292  1
  Te2-  Te178  1  0.33408238  -0.01226521  0.83451178  1
  Te2-  Te179  1  0.33115268  0.33569412  0.17088405  1
  Te2-  Te180  1  0.33661714  0.34507322  0.50323862  1
  Te2-  Te181  1  0.34311918  0.33476030  0.82985908  1
  Te2-  Te182  1  0.33535843  0.67522089  0.18365179  1
  Te2-  Te183  1  0.34176703  0.65437350  0.50150663  1
  Te2-  Te184  1  0.33052803  0.67336803  0.83145664  1
  Te2-  Te185  1  0.66699091  0.01051400  0.18073886  1
  Te2-  Te186  1  0.67045168  0.00102543  0.48462813  1
  Te2-  Te187  1  0.66169860  -0.00380421  0.83189874  1
  Te2-  Te188  1  0.68025830  0.32335165  0.16246168  1
  Te2-  Te189  1  0.65466501  0.33839347  0.50138134  1
  Te2-  Te190  1  0.65416539  0.33127992  0.83254272  1
  Te2-  Te191  1  0.68189419  0.66395130  0.16647567  1
  Te2-  Te192  1  0.66155673  0.66634444  0.50242291  1
  Te2-  Te193  1  0.67969371  0.66735410  0.83455323  1
  Pb2+  Pb194  1  0.83204016  0.32777307  0.82375667  1
  Pb2+  Pb195  1  0.33850967  -0.00736465  0.66680137  1
  Pb2+  Pb196  1  0.50190474  0.00319811  0.49842100  1
  Pb2+  Pb197  1  0.33555014  0.16012368  0.83639851  1
  Pb2+  Pb198  1  0.66247115  -0.00352467  0.01092654  1
  Pb2+  Pb199  1  0.66103303  0.49541318  0.16862501  1
  Pb2+  Pb200  1  0.00245115  -0.00069462  0.00113416  1
  Pb2+  Pb201  1  0.66692431  0.16410584  0.83259360  1
  Pb2+  Pb202  1  0.16867293  0.50580174  0.66910842  1
  Pb2+  Pb203  1  0.16175970  0.33399030  0.16772463  1
  Pb2+  Pb204  1  0.16073193  0.83295052  0.33364637  1
  Pb2+  Pb205  1  0.00002874  0.16718844  0.49940920  1
  Pb2+  Pb206  1  -0.00191410  0.17117590  0.83177189  1
  Pb2+  Pb207  1  0.17899980  0.16399752  0.66184937  1
  Pb2+  Pb208  1  0.16921185  0.50088418  0.00089609  1
  Pb2+  Pb209  1  0.83372372  0.50094727  0.00325522  1
  Pb2+  Pb210  1  0.00329866  0.66624548  0.66074792  1
  Pb2+  Pb211  1  0.33630636  0.82579819  0.49224886  1
  Pb2+  Pb212  1  -0.00453695  -0.00039736  0.66869393  1
  Pb2+  Pb213  1  0.33910760  0.34340380  -0.00052211  1
  Pb2+  Pb214  1  0.16662675  0.50085029  0.33056896  1
  Pb2+  Pb215  1  0.83432589  0.00802689  0.17511424  1
