# generated using pymatgen
data_In22Ag21Sn22Bi21(Te54Pb11)2
_symmetry_space_group_name_H-M   'P 1'
_cell_length_a   19.13280895
_cell_length_b   19.14279605
_cell_length_c   19.13686287
_cell_angle_alpha   90.01502812
_cell_angle_beta   90.00774929
_cell_angle_gamma   90.00313863
_symmetry_Int_Tables_number   1
_chemical_formula_structural   In22Ag21Sn22Bi21(Te54Pb11)2
_chemical_formula_sum   'In22 Ag21 Sn22 Bi21 Te108 Pb22'
_cell_volume   7008.98018935
_cell_formula_units_Z   1
loop_
 _symmetry_equiv_pos_site_id
 _symmetry_equiv_pos_as_xyz
  1  'x, y, z'
loop_
 _atom_type_symbol
 _atom_type_oxidation_number
  In3+  3.0
  Ag+  1.0
  Sn2+  2.0
  Bi3+  3.0
  Te2-  -2.0
  Pb2+  2.0
loop_
 _atom_site_type_symbol
 _atom_site_label
 _atom_site_symmetry_multiplicity
 _atom_site_fract_x
 _atom_site_fract_y
 _atom_site_fract_z
 _atom_site_occupancy
  In3+  In0  1  -0.00294976  0.49499239  0.83079183  1
  In3+  In1  1  0.68067613  0.31630599  -0.00343153  1
  In3+  In2  1  -0.00290934  0.47363829  0.49923054  1
  In3+  In3  1  0.67398375  0.83999241  0.83405098  1
  In3+  In4  1  0.31481223  0.17209336  0.82506224  1
  In3+  In5  1  0.16406795  -0.00019843  0.48170290  1
  In3+  In6  1  0.16309541  -0.00643069  0.16648935  1
  In3+  In7  1  0.67166853  0.47104049  0.49572477  1
  In3+  In8  1  0.31192472  0.67184392  0.00280030  1
  In3+  In9  1  0.00168470  0.16832856  0.81652676  1
  In3+  In10  1  0.33434063  0.14876181  0.16733393  1
  In3+  In11  1  0.30844771  0.49854055  0.83862966  1
  In3+  In12  1  0.01178394  0.30499594  0.32947085  1
  In3+  In13  1  0.16618545  0.31205242  0.49782410  1
  In3+  In14  1  -0.00577226  0.82558275  0.85494388  1
  In3+  In15  1  0.01432035  0.15896584  0.16882555  1
  In3+  In16  1  0.33209363  0.16326205  0.49170256  1
  In3+  In17  1  0.67915779  -0.00057001  0.00383788  1
  In3+  In18  1  0.66075025  0.83362672  0.17842285  1
  In3+  In19  1  -0.01917484  0.83854090  0.17596209  1
  In3+  In20  1  0.66609541  0.17962342  0.16840302  1
  In3+  In21  1  0.33542485  0.01051219  0.32504506  1
  Ag+  Ag22  1  -0.01849937  0.00285079  0.02307825  1
  Ag+  Ag23  1  0.14903171  0.51976015  0.01921234  1
  Ag+  Ag24  1  0.69251123  0.15724855  0.47127519  1
  Ag+  Ag25  1  -0.01423676  0.63867668  -0.01799228  1
  Ag+  Ag26  1  0.00060522  0.64206064  0.69357527  1
  Ag+  Ag27  1  0.81102615  0.86163969  0.33219256  1
  Ag+  Ag28  1  -0.01266775  0.17731495  0.51769309  1
  Ag+  Ag29  1  0.17278201  0.17903248  0.64221603  1
  Ag+  Ag30  1  0.16419153  0.16322828  0.33923111  1
  Ag+  Ag31  1  0.51760987  0.01791102  0.16889555  1
  Ag+  Ag32  1  0.31912413  0.84820931  0.18522790  1
  Ag+  Ag33  1  0.35936321  0.86324370  0.47185300  1
  Ag+  Ag34  1  0.51891443  0.69009547  0.16174388  1
  Ag+  Ag35  1  -0.00552070  0.31320309  0.68584253  1
  Ag+  Ag36  1  0.80896972  0.31201788  0.50600324  1
  Ag+  Ag37  1  0.81466800  0.00096344  0.17322330  1
  Ag+  Ag38  1  0.83603604  0.69409522  0.85547679  1
  Ag+  Ag39  1  0.15910376  0.33108404  0.85147587  1
  Ag+  Ag40  1  -0.01992121  -0.00246840  0.31879606  1
  Ag+  Ag41  1  0.35702623  0.30567109  0.35624527  1
  Ag+  Ag42  1  0.67241384  0.14026883  0.80853079  1
  Sn2+  Sn43  1  0.50124244  0.16830555  0.67592446  1
  Sn2+  Sn44  1  0.49453940  0.32464775  0.16802191  1
  Sn2+  Sn45  1  0.16092235  0.83364539  0.00234500  1
  Sn2+  Sn46  1  0.83507462  0.32390449  0.18354310  1
  Sn2+  Sn47  1  0.66381678  0.84139997  0.50552573  1
  Sn2+  Sn48  1  0.49643264  0.50474330  -0.00011592  1
  Sn2+  Sn49  1  0.33095106  0.50525980  0.50076042  1
  Sn2+  Sn50  1  0.68442594  0.66485685  0.66524884  1
  Sn2+  Sn51  1  0.49898670  0.66663514  0.49110857  1
  Sn2+  Sn52  1  0.49904910  0.83465678  0.32738845  1
  Sn2+  Sn53  1  -0.00643199  0.51143551  0.16710019  1
  Sn2+  Sn54  1  0.49997289  0.16579242  -0.00921430  1
  Sn2+  Sn55  1  0.49894692  0.83575567  0.00810521  1
  Sn2+  Sn56  1  0.33061658  0.00285196  0.66223363  1
  Sn2+  Sn57  1  0.84330664  0.00906859  0.83694158  1
  Sn2+  Sn58  1  0.83685904  0.50323491  -0.00327408  1
  Sn2+  Sn59  1  0.33481479  0.83104300  0.83184342  1
  Sn2+  Sn60  1  0.65796099  0.50326681  0.15987953  1
  Sn2+  Sn61  1  0.67040271  0.33398722  0.32891119  1
  Sn2+  Sn62  1  0.49275716  0.50276896  0.32997770  1
  Sn2+  Sn63  1  0.50874722  0.66359615  0.84359758  1
  Sn2+  Sn64  1  0.50012778  0.50943204  0.66513001  1
  Bi3+  Bi65  1  0.84112479  0.17008926  0.32948923  1
  Bi3+  Bi66  1  0.17076811  0.16515181  0.00350933  1
  Bi3+  Bi67  1  0.83605895  0.49749185  0.66175209  1
  Bi3+  Bi68  1  0.16678978  0.84039858  0.66911550  1
  Bi3+  Bi69  1  0.33598580  0.33442821  0.00184584  1
  Bi3+  Bi70  1  0.16914905  0.66967826  0.16724791  1
  Bi3+  Bi71  1  0.16630868  0.00456802  0.83547325  1
  Bi3+  Bi72  1  0.16327402  0.49480255  0.66247406  1
  Bi3+  Bi73  1  0.00203591  0.67395558  0.33231687  1
  Bi3+  Bi74  1  0.33566291  0.66512056  0.32942962  1
  Bi3+  Bi75  1  0.66940478  0.66747285  -0.00307100  1
  Bi3+  Bi76  1  0.67329658  0.50517857  0.83120469  1
  Bi3+  Bi77  1  0.16472380  0.67110913  0.50355001  1
  Bi3+  Bi78  1  0.32473913  0.33299828  0.66418616  1
  Bi3+  Bi79  1  0.83387536  0.49697440  0.33308827  1
  Bi3+  Bi80  1  0.00308649  0.00214419  0.66529262  1
  Bi3+  Bi81  1  0.83606111  0.66956847  0.49972749  1
  Bi3+  Bi82  1  0.00352617  0.84025148  0.49750047  1
  Bi3+  Bi83  1  0.33512343  -0.00409756  -0.00035007  1
  Bi3+  Bi84  1  0.33485831  0.50061248  0.16244767  1
  Bi3+  Bi85  1  0.49820060  0.83174941  0.66955291  1
  Te2-  Te86  1  0.17000354  0.16037324  0.16811794  1
  Te2-  Te87  1  0.17590118  0.15754643  0.49317101  1
  Te2-  Te88  1  0.15781600  0.17166123  0.83976594  1
  Te2-  Te89  1  0.16467321  0.50397488  0.16492553  1
  Te2-  Te90  1  0.16152812  0.50846923  0.50189067  1
  Te2-  Te91  1  0.15412948  0.48826939  0.82612312  1
  Te2-  Te92  1  0.17433283  0.83357524  0.16293910  1
  Te2-  Te93  1  0.17022458  0.83648368  0.50622769  1
  Te2-  Te94  1  0.16343000  0.83798137  0.83125423  1
  Te2-  Te95  1  0.50534673  0.16557346  0.16442972  1
  Te2-  Te96  1  0.48443137  0.16671830  0.50431256  1
  Te2-  Te97  1  0.52134978  0.16525963  0.83326138  1
  Te2-  Te98  1  0.49804841  0.49663753  0.16517852  1
  Te2-  Te99  1  0.50707680  0.50716528  0.49983739  1
  Te2-  Te100  1  0.51048192  0.50404474  0.83071546  1
  Te2-  Te101  1  0.50664477  0.83499015  0.16669915  1
  Te2-  Te102  1  0.49903360  0.83246082  0.50530026  1
  Te2-  Te103  1  0.50188518  0.82804869  0.83183655  1
  Te2-  Te104  1  0.82350099  0.15862585  0.17111583  1
  Te2-  Te105  1  0.84027518  0.16807849  0.49384278  1
  Te2-  Te106  1  0.82024326  0.16647876  0.83354652  1
  Te2-  Te107  1  0.83261143  0.49611682  0.16990972  1
  Te2-  Te108  1  0.83129868  0.50546289  0.49804677  1
  Te2-  Te109  1  0.84047178  0.50051536  0.82763793  1
  Te2-  Te110  1  0.82838090  0.84509440  0.17948312  1
  Te2-  Te111  1  0.83329408  0.83454797  0.48663181  1
  Te2-  Te112  1  0.83753198  0.83926655  0.83165473  1
  Te2-  Te113  1  0.17348409  0.00170599  -0.00145384  1
  Te2-  Te114  1  0.17949813  0.00799380  0.32553635  1
  Te2-  Te115  1  0.16866907  0.00532316  0.67406333  1
  Te2-  Te116  1  0.17278300  0.32886056  -0.00079080  1
  Te2-  Te117  1  0.16396537  0.31975293  0.33780988  1
  Te2-  Te118  1  0.16282224  0.32977288  0.65226061  1
  Te2-  Te119  1  0.15834707  0.66526807  0.00086688  1
  Te2-  Te120  1  0.16804315  0.66563919  0.33358805  1
  Te2-  Te121  1  0.15503357  0.66700300  0.66687745  1
  Te2-  Te122  1  0.49514742  0.00081065  0.01371013  1
  Te2-  Te123  1  0.49059341  -0.00023384  0.31937733  1
  Te2-  Te124  1  0.49426226  -0.00233923  0.67018001  1
  Te2-  Te125  1  0.49696954  0.33567288  0.00046951  1
  Te2-  Te126  1  0.49827288  0.33531300  0.33327826  1
  Te2-  Te127  1  0.49125831  0.33647226  0.66871224  1
  Te2-  Te128  1  0.50796036  0.66602141  0.00728084  1
  Te2-  Te129  1  0.49697184  0.66780656  0.32029940  1
  Te2-  Te130  1  0.50088785  0.66916994  0.66766386  1
  Te2-  Te131  1  0.83333739  -0.00018512  0.00729979  1
  Te2-  Te132  1  0.83321631  0.00772637  0.32197729  1
  Te2-  Te133  1  0.83635491  0.00024771  0.66797678  1
  Te2-  Te134  1  0.83349975  0.33624151  0.00507257  1
  Te2-  Te135  1  0.83516453  0.33411031  0.34922403  1
  Te2-  Te136  1  0.84713966  0.33551517  0.65365614  1
  Te2-  Te137  1  0.83883986  0.66416772  0.00140834  1
  Te2-  Te138  1  0.83692360  0.66244692  0.33470036  1
  Te2-  Te139  1  0.85046788  0.66150627  0.66088466  1
  Te2-  Te140  1  0.00569827  0.15384520  0.01547128  1
  Te2-  Te141  1  0.00773507  0.15153844  0.32237417  1
  Te2-  Te142  1  0.01457790  0.16787441  0.66209539  1
  Te2-  Te143  1  0.00514273  0.49529841  -0.00197976  1
  Te2-  Te144  1  -0.00465894  0.50796532  0.33456322  1
  Te2-  Te145  1  0.00101849  0.49656580  0.67193309  1
  Te2-  Te146  1  0.00053960  0.85079476  0.00423634  1
  Te2-  Te147  1  0.00211150  0.84318998  0.33202632  1
  Te2-  Te148  1  0.00484317  0.84110935  0.66155234  1
  Te2-  Te149  1  0.33433312  0.16732971  0.00462022  1
  Te2-  Te150  1  0.32402841  0.16608365  0.32751399  1
  Te2-  Te151  1  0.32597810  0.17233621  0.66667119  1
  Te2-  Te152  1  0.32776502  0.49843196  -0.00468251  1
  Te2-  Te153  1  0.33139495  0.50250977  0.33034818  1
  Te2-  Te154  1  0.32994901  0.49753695  0.67019870  1
  Te2-  Te155  1  0.33298941  0.83028609  -0.00741117  1
  Te2-  Te156  1  0.33739408  0.82733376  0.33140026  1
  Te2-  Te157  1  0.33216004  0.83333746  0.67033408  1
  Te2-  Te158  1  0.66579429  0.16316074  0.01041438  1
  Te2-  Te159  1  0.66864680  0.17047708  0.32618794  1
  Te2-  Te160  1  0.66131203  0.16981950  0.66443537  1
  Te2-  Te161  1  0.66954452  0.50577697  -0.00254493  1
  Te2-  Te162  1  0.66786248  0.49509273  0.33416880  1
  Te2-  Te163  1  0.67001332  0.49917877  0.66333077  1
  Te2-  Te164  1  0.66564658  0.83073428  -0.01056512  1
  Te2-  Te165  1  0.66598002  0.83250510  0.33488508  1
  Te2-  Te166  1  0.66479592  0.83448243  0.67285755  1
  Te2-  Te167  1  0.01071558  -0.00796158  0.17053646  1
  Te2-  Te168  1  0.01092606  0.00446052  0.49991607  1
  Te2-  Te169  1  0.00313433  0.00982060  0.83081065  1
  Te2-  Te170  1  -0.00401528  0.33503712  0.17536145  1
  Te2-  Te171  1  0.01179354  0.31915739  0.48421708  1
  Te2-  Te172  1  0.00653799  0.32347368  0.83245019  1
  Te2-  Te173  1  0.00600565  0.67965779  0.16836228  1
  Te2-  Te174  1  0.00182213  0.67807530  0.49362804  1
  Te2-  Te175  1  -0.00962787  0.67589894  0.83967883  1
  Te2-  Te176  1  0.33147488  -0.00671042  0.16361039  1
  Te2-  Te177  1  0.32657880  0.00355369  0.49543374  1
  Te2-  Te178  1  0.33155592  0.00811817  0.83619515  1
  Te2-  Te179  1  0.33405614  0.33926425  0.16529408  1
  Te2-  Te180  1  0.32304987  0.33710995  0.49700938  1
  Te2-  Te181  1  0.32100556  0.33567937  0.83294840  1
  Te2-  Te182  1  0.33095731  0.66251126  0.15844434  1
  Te2-  Te183  1  0.33034605  0.66493590  0.49591419  1
  Te2-  Te184  1  0.33259596  0.65893715  0.84214682  1
  Te2-  Te185  1  0.66405313  -0.01257612  0.15628581  1
  Te2-  Te186  1  0.66499591  0.01068216  0.49731118  1
  Te2-  Te187  1  0.67037482  -0.00385423  0.84498650  1
  Te2-  Te188  1  0.66836607  0.33373947  0.15711222  1
  Te2-  Te189  1  0.66208078  0.31948440  0.49965575  1
  Te2-  Te190  1  0.66844815  0.34244893  0.84429908  1
  Te2-  Te191  1  0.66646864  0.67181077  0.16281322  1
  Te2-  Te192  1  0.67004249  0.67772105  0.50503457  1
  Te2-  Te193  1  0.68313315  0.66697739  0.83273759  1
  Pb2+  Pb194  1  0.16244718  0.48993317  0.33420384  1
  Pb2+  Pb195  1  0.49637051  0.16819872  0.33505920  1
  Pb2+  Pb196  1  0.49228003  0.33224738  0.83541136  1
  Pb2+  Pb197  1  0.66349647  0.00093762  0.32944892  1
  Pb2+  Pb198  1  0.83812438  0.16702205  0.00008738  1
  Pb2+  Pb199  1  0.83487973  0.66765573  0.16861940  1
  Pb2+  Pb200  1  0.66527579  0.66266033  0.33754576  1
  Pb2+  Pb201  1  0.33020678  0.66628207  0.66926125  1
  Pb2+  Pb202  1  0.15987537  0.66452204  0.83327726  1
  Pb2+  Pb203  1  0.67010490  0.33246184  0.67334145  1
  Pb2+  Pb204  1  0.83730973  0.82946265  0.65945546  1
  Pb2+  Pb205  1  0.66359433  0.00399843  0.66684593  1
  Pb2+  Pb206  1  0.16753709  0.33136386  0.16733771  1
  Pb2+  Pb207  1  0.83794411  0.16863173  0.66503670  1
  Pb2+  Pb208  1  0.49751139  0.00035606  0.49533790  1
  Pb2+  Pb209  1  0.49410658  0.33575087  0.50148573  1
  Pb2+  Pb210  1  0.84108445  0.00118279  0.49535284  1
  Pb2+  Pb211  1  0.83296010  0.83342601  0.00763968  1
  Pb2+  Pb212  1  0.83801962  0.33410429  0.82792066  1
  Pb2+  Pb213  1  0.50093279  -0.00283105  0.84430185  1
  Pb2+  Pb214  1  0.00506894  0.32651782  0.00347065  1
  Pb2+  Pb215  1  0.16772483  0.83731507  0.33323509  1
