# generated using pymatgen
data_In22Ag21Sn22Bi21(Te54Pb11)2
_symmetry_space_group_name_H-M   'P 1'
_cell_length_a   19.15982035
_cell_length_b   19.14502364
_cell_length_c   19.15492107
_cell_angle_alpha   90.00481106
_cell_angle_beta   89.99592695
_cell_angle_gamma   89.99576054
_symmetry_Int_Tables_number   1
_chemical_formula_structural   In22Ag21Sn22Bi21(Te54Pb11)2
_chemical_formula_sum   'In22 Ag21 Sn22 Bi21 Te108 Pb22'
_cell_volume   7026.31640304
_cell_formula_units_Z   1
loop_
 _symmetry_equiv_pos_site_id
 _symmetry_equiv_pos_as_xyz
  1  'x, y, z'
loop_
 _atom_type_symbol
 _atom_type_oxidation_number
  In3+  3.0
  Ag+  1.0
  Sn2+  2.0
  Bi3+  3.0
  Te2-  -2.0
  Pb2+  2.0
loop_
 _atom_site_type_symbol
 _atom_site_label
 _atom_site_symmetry_multiplicity
 _atom_site_fract_x
 _atom_site_fract_y
 _atom_site_fract_z
 _atom_site_occupancy
  In3+  In0  1  -0.00017116  0.84554744  0.16196791  1
  In3+  In1  1  0.51443374  0.49154575  -0.01297004  1
  In3+  In2  1  0.82152453  0.33841273  0.83207817  1
  In3+  In3  1  0.31812684  0.00433458  0.00350148  1
  In3+  In4  1  0.47815791  0.33589309  0.50655479  1
  In3+  In5  1  0.00298333  0.66684782  0.00071469  1
  In3+  In6  1  0.32838256  0.63542842  0.34255266  1
  In3+  In7  1  0.34324099  0.16404298  0.80920347  1
  In3+  In8  1  0.00161766  -0.00614362  0.67260506  1
  In3+  In9  1  0.35513897  0.02033201  0.33537538  1
  In3+  In10  1  0.00030094  0.84144349  0.49010699  1
  In3+  In11  1  0.67344039  0.51540464  0.51995668  1
  In3+  In12  1  0.66910100  0.50144506  0.18608801  1
  In3+  In13  1  0.65322082  0.33400236  0.35229756  1
  In3+  In14  1  0.67255945  0.02069090  0.34345854  1
  In3+  In15  1  -0.00632836  0.33496149  -0.01197486  1
  In3+  In16  1  0.34667505  0.48009109  0.83221028  1
  In3+  In17  1  0.83854809  0.31868232  0.48539890  1
  In3+  In18  1  0.16222012  0.82080984  0.66778264  1
  In3+  In19  1  0.31260895  0.50164567  0.50438736  1
  In3+  In20  1  0.15483736  0.82707359  -0.00316691  1
  In3+  In21  1  0.84741498  0.84079103  -0.00812371  1
  Ag+  Ag22  1  0.35612012  0.13827279  0.51487885  1
  Ag+  Ag23  1  0.63968642  0.17420417  0.51906701  1
  Ag+  Ag24  1  0.14761853  0.52109114  0.33598834  1
  Ag+  Ag25  1  0.85551288  0.50169296  0.36431237  1
  Ag+  Ag26  1  0.64679015  0.52725140  0.82513452  1
  Ag+  Ag27  1  0.64728307  0.64253659  0.67686212  1
  Ag+  Ag28  1  0.13826529  0.68831879  0.49924795  1
  Ag+  Ag29  1  -0.03262970  0.50366641  0.47035047  1
  Ag+  Ag30  1  0.52820804  0.16285822  0.63118076  1
  Ag+  Ag31  1  0.01845159  -0.00880751  0.36295203  1
  Ag+  Ag32  1  0.00168626  0.14215698  0.52274626  1
  Ag+  Ag33  1  0.53041882  0.15557912  0.34589320  1
  Ag+  Ag34  1  0.52641830  0.31934279  0.80382473  1
  Ag+  Ag35  1  0.00419512  0.47435893  0.81162780  1
  Ag+  Ag36  1  0.49766612  0.04045096  0.52542992  1
  Ag+  Ag37  1  0.16779589  0.67533236  0.20115957  1
  Ag+  Ag38  1  0.01839989  -0.00212088  0.00303199  1
  Ag+  Ag39  1  0.35425960  0.32522997  0.35410916  1
  Ag+  Ag40  1  -0.00475740  0.81520930  0.82729222  1
  Ag+  Ag41  1  0.85581511  0.02488792  0.20030427  1
  Ag+  Ag42  1  0.63785657  0.18081949  0.80734374  1
  Sn2+  Sn43  1  0.66947394  0.84457246  0.49949089  1
  Sn2+  Sn44  1  0.15801136  0.65961156  0.82241025  1
  Sn2+  Sn45  1  0.83989779  0.50245036  0.67033952  1
  Sn2+  Sn46  1  0.82135355  0.00361256  0.49674698  1
  Sn2+  Sn47  1  0.83255622  0.16544582  0.66219958  1
  Sn2+  Sn48  1  0.17701305  0.00564416  0.49639598  1
  Sn2+  Sn49  1  0.15827062  0.50228994  0.65587678  1
  Sn2+  Sn50  1  0.83394914  0.33378585  0.17299979  1
  Sn2+  Sn51  1  0.84100845  0.16942964  0.33649672  1
  Sn2+  Sn52  1  0.33412219  0.83144249  0.49115277  1
  Sn2+  Sn53  1  0.16082267  0.16548558  0.65866627  1
  Sn2+  Sn54  1  0.16696884  0.16660825  -0.00714930  1
  Sn2+  Sn55  1  -0.00478041  0.66413361  0.67051328  1
  Sn2+  Sn56  1  -0.00304768  0.33422491  0.65917276  1
  Sn2+  Sn57  1  0.83512535  0.65870870  0.82956467  1
  Sn2+  Sn58  1  0.66378605  0.00018668  0.66564207  1
  Sn2+  Sn59  1  0.84123119  0.66735848  0.50194259  1
  Sn2+  Sn60  1  0.83152451  0.82369998  0.32661384  1
  Sn2+  Sn61  1  0.16698268  0.34672380  0.17325328  1
  Sn2+  Sn62  1  0.66442363  0.33156131  -0.00143218  1
  Sn2+  Sn63  1  0.50544232  0.01176579  0.82771117  1
  Sn2+  Sn64  1  0.16059183  -0.00264223  0.82854113  1
  Bi3+  Bi65  1  0.50461331  0.33418481  0.16649155  1
  Bi3+  Bi66  1  0.67297628  0.83143907  0.16802593  1
  Bi3+  Bi67  1  0.49869338  0.83346450  -0.00119936  1
  Bi3+  Bi68  1  0.83568837  0.00423142  0.82998230  1
  Bi3+  Bi69  1  0.66565750  0.00025271  0.00181330  1
  Bi3+  Bi70  1  0.32678706  0.33383368  0.00300795  1
  Bi3+  Bi71  1  0.50166196  0.49788608  0.33284008  1
  Bi3+  Bi72  1  0.32997765  0.66883790  -0.00038691  1
  Bi3+  Bi73  1  0.00293371  0.16341308  0.83473163  1
  Bi3+  Bi74  1  0.32868188  0.83907612  0.83286201  1
  Bi3+  Bi75  1  -0.00043246  0.32796300  0.33012605  1
  Bi3+  Bi76  1  0.83312564  0.49949357  -0.00391368  1
  Bi3+  Bi77  1  0.50476068  0.00182954  0.16246731  1
  Bi3+  Bi78  1  0.50349134  0.66180851  0.50037278  1
  Bi3+  Bi79  1  0.16324161  0.16695739  0.33390597  1
  Bi3+  Bi80  1  0.15621102  0.33310776  0.49729724  1
  Bi3+  Bi81  1  -0.00029203  0.16559197  0.16491328  1
  Bi3+  Bi82  1  0.00027496  0.50234638  0.16307479  1
  Bi3+  Bi83  1  0.32997832  0.16816464  0.17351491  1
  Bi3+  Bi84  1  0.83739822  0.66366189  0.16464916  1
  Bi3+  Bi85  1  0.83975416  0.83318063  0.66530800  1
  Te2-  Te86  1  0.16438597  0.16780687  0.16495665  1
  Te2-  Te87  1  0.14922054  0.16907227  0.49731846  1
  Te2-  Te88  1  0.16896825  0.16252880  0.83167594  1
  Te2-  Te89  1  0.16189008  0.51113793  0.17922806  1
  Te2-  Te90  1  0.16488122  0.49331604  0.48915347  1
  Te2-  Te91  1  0.15421003  0.50379783  0.82877555  1
  Te2-  Te92  1  0.15279323  0.82300483  0.16692289  1
  Te2-  Te93  1  0.15982518  0.83611927  0.50932300  1
  Te2-  Te94  1  0.16715238  0.83526005  0.82978269  1
  Te2-  Te95  1  0.49549721  0.16795419  0.17325005  1
  Te2-  Te96  1  0.49316645  0.18481097  0.48606751  1
  Te2-  Te97  1  0.49515014  0.17376294  0.83314566  1
  Te2-  Te98  1  0.50632318  0.49885159  0.16707073  1
  Te2-  Te99  1  0.51511192  0.49090168  0.49622812  1
  Te2-  Te100  1  0.50311189  0.48623398  0.83145510  1
  Te2-  Te101  1  0.50137208  0.83496064  0.16429989  1
  Te2-  Te102  1  0.50287900  0.82522506  0.50242164  1
  Te2-  Te103  1  0.49617364  0.83838341  0.83461474  1
  Te2-  Te104  1  0.83672415  0.16649507  0.16657396  1
  Te2-  Te105  1  0.85314338  0.16621117  0.49825114  1
  Te2-  Te106  1  0.83946285  0.16867282  0.82937881  1
  Te2-  Te107  1  0.83132160  0.50181301  0.15826274  1
  Te2-  Te108  1  0.82535562  0.49880486  0.50980179  1
  Te2-  Te109  1  0.84980250  0.49226984  0.83611264  1
  Te2-  Te110  1  0.83802495  0.82496767  0.15999199  1
  Te2-  Te111  1  0.83986707  0.83174822  0.50171418  1
  Te2-  Te112  1  0.84486172  0.83561996  0.83267843  1
  Te2-  Te113  1  0.16564292  -0.00797271  0.00186110  1
  Te2-  Te114  1  0.16226657  0.00176668  0.33695944  1
  Te2-  Te115  1  0.15804341  -0.00126677  0.66145910  1
  Te2-  Te116  1  0.16507788  0.33638098  0.00418414  1
  Te2-  Te117  1  0.16038065  0.32939042  0.33280908  1
  Te2-  Te118  1  0.16166017  0.33518305  0.66134998  1
  Te2-  Te119  1  0.16609658  0.67412437  -0.00470104  1
  Te2-  Te120  1  0.17602632  0.66581594  0.34905755  1
  Te2-  Te121  1  0.16366489  0.66841132  0.64995664  1
  Te2-  Te122  1  0.50192181  -0.00315262  -0.00135025  1
  Te2-  Te123  1  0.51002751  0.00956326  0.32423624  1
  Te2-  Te124  1  0.49933496  0.01562038  0.67002089  1
  Te2-  Te125  1  0.49335141  0.33878219  0.00435210  1
  Te2-  Te126  1  0.50170145  0.33369914  0.32899584  1
  Te2-  Te127  1  0.50079013  0.31800381  0.65873615  1
  Te2-  Te128  1  0.49625187  0.66598003  -0.00041143  1
  Te2-  Te129  1  0.49288386  0.66313298  0.33483418  1
  Te2-  Te130  1  0.50165540  0.66550526  0.66488582  1
  Te2-  Te131  1  0.82676863  -0.00742464  -0.00601248  1
  Te2-  Te132  1  0.82354941  -0.00338289  0.33838839  1
  Te2-  Te133  1  0.84019694  -0.00476103  0.66548823  1
  Te2-  Te134  1  0.83714539  0.33550711  -0.00214173  1
  Te2-  Te135  1  0.83797356  0.34807834  0.33269655  1
  Te2-  Te136  1  0.83863047  0.33263130  0.67840321  1
  Te2-  Te137  1  0.84095396  0.66647863  -0.00157300  1
  Te2-  Te138  1  0.83290034  0.65203788  0.32979211  1
  Te2-  Te139  1  0.83562698  0.67298488  0.66987661  1
  Te2-  Te140  1  0.00428428  0.16323418  0.00136525  1
  Te2-  Te141  1  -0.00065408  0.15891534  0.32546646  1
  Te2-  Te142  1  0.00156559  0.16129450  0.67018268  1
  Te2-  Te143  1  -0.00204262  0.49574167  0.00188490  1
  Te2-  Te144  1  0.00125631  0.49643528  0.32462648  1
  Te2-  Te145  1  0.00063129  0.50327834  0.66964226  1
  Te2-  Te146  1  0.00239450  0.84175093  -0.00669307  1
  Te2-  Te147  1  -0.00511929  0.84369819  0.33748047  1
  Te2-  Te148  1  0.00383216  0.83305083  0.67816012  1
  Te2-  Te149  1  0.32824715  0.16625320  0.00768078  1
  Te2-  Te150  1  0.32521380  0.17224982  0.33491516  1
  Te2-  Te151  1  0.32276564  0.16600073  0.65609765  1
  Te2-  Te152  1  0.33394044  0.50310067  -0.00648641  1
  Te2-  Te153  1  0.34024929  0.48401881  0.33612342  1
  Te2-  Te154  1  0.32975187  0.49913747  0.67144818  1
  Te2-  Te155  1  0.33504971  0.83503366  -0.00254587  1
  Te2-  Te156  1  0.33462444  0.84314938  0.33542263  1
  Te2-  Te157  1  0.32801576  0.83546818  0.66687429  1
  Te2-  Te158  1  0.66605054  0.16417287  0.00207462  1
  Te2-  Te159  1  0.67621795  0.17539915  0.33521098  1
  Te2-  Te160  1  0.67391168  0.15936352  0.66322599  1
  Te2-  Te161  1  0.66837250  0.49775642  -0.02348593  1
  Te2-  Te162  1  0.66555049  0.49039707  0.34253017  1
  Te2-  Te163  1  0.66953633  0.49753169  0.67538162  1
  Te2-  Te164  1  0.66189248  0.83174617  0.00315991  1
  Te2-  Te165  1  0.67116407  0.82849800  0.33163943  1
  Te2-  Te166  1  0.67407766  0.84186315  0.66301071  1
  Te2-  Te167  1  -0.00871976  -0.00277914  0.15267856  1
  Te2-  Te168  1  -0.00259540  -0.00684289  0.50742045  1
  Te2-  Te169  1  -0.00178594  0.00325404  0.83942451  1
  Te2-  Te170  1  -0.00012999  0.33255107  0.16491336  1
  Te2-  Te171  1  -0.00877600  0.34950817  0.49430236  1
  Te2-  Te172  1  0.00364814  0.32616777  0.83399373  1
  Te2-  Te173  1  0.00300089  0.66756347  0.16086558  1
  Te2-  Te174  1  -0.00455911  0.65487162  0.49906441  1
  Te2-  Te175  1  0.00033858  0.67026129  0.84568279  1
  Te2-  Te176  1  0.33650072  0.00314149  0.16947748  1
  Te2-  Te177  1  0.34883781  -0.00466713  0.49144895  1
  Te2-  Te178  1  0.33196200  0.00514375  0.83907959  1
  Te2-  Te179  1  0.33494838  0.33216491  0.16406056  1
  Te2-  Te180  1  0.32439663  0.34261255  0.49715600  1
  Te2-  Te181  1  0.33613322  0.32183725  0.84087335  1
  Te2-  Te182  1  0.31843625  0.66811025  0.16447801  1
  Te2-  Te183  1  0.34201324  0.65944534  0.49727901  1
  Te2-  Te184  1  0.32748917  0.67595575  0.83674216  1
  Te2-  Te185  1  0.66712872  -0.00732553  0.16762129  1
  Te2-  Te186  1  0.65107725  0.00721689  0.49544107  1
  Te2-  Te187  1  0.67243833  0.00875134  0.83575203  1
  Te2-  Te188  1  0.66674808  0.33999789  0.16291833  1
  Te2-  Te189  1  0.68541383  0.31664739  0.49800792  1
  Te2-  Te190  1  0.66861746  0.32079891  0.83862528  1
  Te2-  Te191  1  0.66926110  0.66568846  0.16773843  1
  Te2-  Te192  1  0.66666364  0.66839513  0.51264470  1
  Te2-  Te193  1  0.66720328  0.67279808  0.82450356  1
  Pb2+  Pb194  1  0.17029741  0.33699466  0.83344688  1
  Pb2+  Pb195  1  0.16611041  0.50534164  0.00000551  1
  Pb2+  Pb196  1  0.32669794  0.00037446  0.66601594  1
  Pb2+  Pb197  1  0.49216184  0.66522265  0.16690141  1
  Pb2+  Pb198  1  0.67230122  0.66256462  -0.00447169  1
  Pb2+  Pb199  1  0.33083376  0.33240792  0.66563910  1
  Pb2+  Pb200  1  0.32538908  0.83354493  0.16789067  1
  Pb2+  Pb201  1  0.33110954  0.50061009  0.16703248  1
  Pb2+  Pb202  1  0.66572114  0.16703894  0.16823780  1
  Pb2+  Pb203  1  0.16839608  0.83381106  0.33902435  1
  Pb2+  Pb204  1  0.33040000  0.66717442  0.66700091  1
  Pb2+  Pb205  1  -0.00019381  0.67009223  0.33299697  1
  Pb2+  Pb206  1  0.15916007  -0.00125207  0.17035345  1
  Pb2+  Pb207  1  0.49849133  0.16752481  0.00065047  1
  Pb2+  Pb208  1  0.83360621  0.16290817  -0.00549252  1
  Pb2+  Pb209  1  0.50150954  0.84076388  0.33837202  1
  Pb2+  Pb210  1  0.50209742  0.84266111  0.66597845  1
  Pb2+  Pb211  1  0.66710290  0.65988926  0.34319845  1
  Pb2+  Pb212  1  0.49773344  0.49389305  0.66177847  1
  Pb2+  Pb213  1  0.49566488  0.66289232  0.83238731  1
  Pb2+  Pb214  1  0.67395956  0.84121988  0.83169785  1
  Pb2+  Pb215  1  0.67077526  0.33122739  0.66438463  1
