# generated using pymatgen
data_In22Ag21Sn22Bi21(Te54Pb11)2
_symmetry_space_group_name_H-M   'P 1'
_cell_length_a   19.15301541
_cell_length_b   19.17216327
_cell_length_c   19.18182597
_cell_angle_alpha   90.00382828
_cell_angle_beta   90.00823495
_cell_angle_gamma   89.99590325
_symmetry_Int_Tables_number   1
_chemical_formula_structural   In22Ag21Sn22Bi21(Te54Pb11)2
_chemical_formula_sum   'In22 Ag21 Sn22 Bi21 Te108 Pb22'
_cell_volume   7043.65728718
_cell_formula_units_Z   1
loop_
 _symmetry_equiv_pos_site_id
 _symmetry_equiv_pos_as_xyz
  1  'x, y, z'
loop_
 _atom_type_symbol
 _atom_type_oxidation_number
  In3+  3.0
  Ag+  1.0
  Sn2+  2.0
  Bi3+  3.0
  Te2-  -2.0
  Pb2+  2.0
loop_
 _atom_site_type_symbol
 _atom_site_label
 _atom_site_symmetry_multiplicity
 _atom_site_fract_x
 _atom_site_fract_y
 _atom_site_fract_z
 _atom_site_occupancy
  In3+  In0  1  0.82646604  0.50662782  0.65422687  1
  In3+  In1  1  0.65339549  0.14860450  0.83188318  1
  In3+  In2  1  0.33801854  0.51884470  0.16349249  1
  In3+  In3  1  0.00214135  0.34058955  0.67756752  1
  In3+  In4  1  0.00161100  0.35275269  0.33746995  1
  In3+  In5  1  0.67129868  0.16328092  0.19340578  1
  In3+  In6  1  0.35196220  0.15221404  0.50184470  1
  In3+  In7  1  0.17186041  0.35037595  0.82613797  1
  In3+  In8  1  0.50319863  -0.01534180  0.83411221  1
  In3+  In9  1  0.35875029  0.16315318  0.14973738  1
  In3+  In10  1  -0.02017109  -0.00582447  0.33560152  1
  In3+  In11  1  0.00085036  0.13796741  0.84020904  1
  In3+  In12  1  0.83496555  0.81473014  0.32407147  1
  In3+  In13  1  0.00575290  0.16343766  0.49596999  1
  In3+  In14  1  0.81273651  0.50223983  -0.00775066  1
  In3+  In15  1  0.65258508  0.50368204  0.49802538  1
  In3+  In16  1  0.63624171  0.31730399  0.67274434  1
  In3+  In17  1  0.64420388  0.66912428  0.66800685  1
  In3+  In18  1  0.82973043  0.50905727  0.31481912  1
  In3+  In19  1  0.48897103  0.49538948  0.66883731  1
  In3+  In20  1  0.33638100  0.65704165  0.33632435  1
  In3+  In21  1  0.66731514  0.82480506  0.85583139  1
  Ag+  Ag22  1  0.50009328  0.67039526  0.18884202  1
  Ag+  Ag23  1  0.69388669  0.00530278  0.02173341  1
  Ag+  Ag24  1  0.19522644  0.85010928  -0.01904097  1
  Ag+  Ag25  1  0.35467689  -0.03455747  -0.02610388  1
  Ag+  Ag26  1  0.31942637  0.85273972  0.52160496  1
  Ag+  Ag27  1  -0.02363269  0.48250515  0.83355680  1
  Ag+  Ag28  1  0.66243868  0.79778296  0.19640614  1
  Ag+  Ag29  1  0.01861840  0.83433622  0.85077663  1
  Ag+  Ag30  1  0.33147076  0.54171828  0.81322049  1
  Ag+  Ag31  1  0.32993685  0.34996810  0.64225645  1
  Ag+  Ag32  1  0.33509703  0.64514147  0.69924479  1
  Ag+  Ag33  1  0.64231827  -0.03399191  0.68291697  1
  Ag+  Ag34  1  0.33046829  0.50329227  0.51590185  1
  Ag+  Ag35  1  0.85144817  0.66593592  0.15500560  1
  Ag+  Ag36  1  0.19563236  0.50405893  0.34980677  1
  Ag+  Ag37  1  0.31878668  0.84398633  0.81915911  1
  Ag+  Ag38  1  0.68530545  -0.02174010  0.31017939  1
  Ag+  Ag39  1  0.68745376  0.35135845  0.30647757  1
  Ag+  Ag40  1  0.66641092  0.68535064  0.30642932  1
  Ag+  Ag41  1  0.47859976  0.14129665  0.66700041  1
  Ag+  Ag42  1  0.51231418  -0.02572460  0.47019923  1
  Sn2+  Sn43  1  0.16807626  0.83015968  0.67388767  1
  Sn2+  Sn44  1  0.83032009  0.17425199  0.33284156  1
  Sn2+  Sn45  1  -0.01143511  0.83152387  0.15239104  1
  Sn2+  Sn46  1  0.84129426  0.67064768  0.83626675  1
  Sn2+  Sn47  1  0.33398617  0.66307660  -0.00286012  1
  Sn2+  Sn48  1  0.82843333  0.33580454  0.49749153  1
  Sn2+  Sn49  1  0.82693910  0.82760293  0.00222372  1
  Sn2+  Sn50  1  0.50768946  0.50307491  0.33466852  1
  Sn2+  Sn51  1  0.00145986  0.50213343  0.15331313  1
  Sn2+  Sn52  1  0.16220853  0.17514435  0.33188515  1
  Sn2+  Sn53  1  0.33410978  0.33208455  0.33744393  1
  Sn2+  Sn54  1  0.49999178  0.83276606  0.00829097  1
  Sn2+  Sn55  1  -0.00321030  0.16508480  0.17187260  1
  Sn2+  Sn56  1  0.49912050  0.66680175  0.83256490  1
  Sn2+  Sn57  1  0.00516857  -0.00472960  0.00522252  1
  Sn2+  Sn58  1  0.17023474  0.82815678  0.33000128  1
  Sn2+  Sn59  1  0.66404338  0.49803643  0.17328510  1
  Sn2+  Sn60  1  0.66429231  0.68108263  0.01174960  1
  Sn2+  Sn61  1  0.00768507  0.49711420  0.51134023  1
  Sn2+  Sn62  1  0.84125268  0.83064990  0.66459997  1
  Sn2+  Sn63  1  0.33282071  0.16792763  0.82536888  1
  Sn2+  Sn64  1  -0.00897561  0.00422916  0.66236577  1
  Bi3+  Bi65  1  0.33267833  0.32846514  0.00597046  1
  Bi3+  Bi66  1  0.16838547  0.16521981  0.66783535  1
  Bi3+  Bi67  1  0.16505215  0.33243996  0.16940419  1
  Bi3+  Bi68  1  0.16722473  0.33598229  0.49828371  1
  Bi3+  Bi69  1  0.84142241  0.17294010  0.66461265  1
  Bi3+  Bi70  1  0.49650831  0.66708667  0.49783232  1
  Bi3+  Bi71  1  0.49799651  0.33616654  0.50010780  1
  Bi3+  Bi72  1  0.49571709  0.50347841  -0.00270335  1
  Bi3+  Bi73  1  0.00864211  0.66738748  0.66759206  1
  Bi3+  Bi74  1  0.33306130  0.00153668  0.32824441  1
  Bi3+  Bi75  1  0.66447611  0.83830820  0.50064600  1
  Bi3+  Bi76  1  0.17325377  0.66691511  0.49546347  1
  Bi3+  Bi77  1  0.33514129  0.83844855  0.17149819  1
  Bi3+  Bi78  1  0.16497093  -0.00366112  0.17028468  1
  Bi3+  Bi79  1  0.16701367  0.50443159  -0.00059087  1
  Bi3+  Bi80  1  0.49153086  0.33566512  0.83460609  1
  Bi3+  Bi81  1  0.49944097  0.83078897  0.66790356  1
  Bi3+  Bi82  1  0.33361835  -0.00200808  0.66778811  1
  Bi3+  Bi83  1  0.82041319  0.00011595  0.50210148  1
  Bi3+  Bi84  1  0.66932808  0.16667939  0.50711954  1
  Bi3+  Bi85  1  0.16711352  0.66797859  0.83486052  1
  Te2-  Te86  1  0.15842680  0.16680528  0.17074795  1
  Te2-  Te87  1  0.16280715  0.17239306  0.50124105  1
  Te2-  Te88  1  0.15766537  0.16753844  0.82969385  1
  Te2-  Te89  1  0.16065338  0.49546024  0.16166863  1
  Te2-  Te90  1  0.17250017  0.49999892  0.49540057  1
  Te2-  Te91  1  0.18682741  0.50440754  0.83622128  1
  Te2-  Te92  1  0.16300538  0.83511226  0.17159784  1
  Te2-  Te93  1  0.17632972  0.82911934  0.49824109  1
  Te2-  Te94  1  0.16913633  0.83189143  0.83664397  1
  Te2-  Te95  1  0.51290226  0.17017549  0.16523877  1
  Te2-  Te96  1  0.50423229  0.17533928  0.51863501  1
  Te2-  Te97  1  0.50239665  0.17616208  0.81442512  1
  Te2-  Te98  1  0.49591768  0.51025584  0.16102823  1
  Te2-  Te99  1  0.49663952  0.50123542  0.50460738  1
  Te2-  Te100  1  0.48098353  0.49949980  0.83215200  1
  Te2-  Te101  1  0.50838580  0.82395293  0.16595975  1
  Te2-  Te102  1  0.49995516  0.82950271  0.50395016  1
  Te2-  Te103  1  0.51066033  0.83056358  0.83013225  1
  Te2-  Te104  1  0.82988614  0.16583099  0.16784456  1
  Te2-  Te105  1  0.83485433  0.16528812  0.50264678  1
  Te2-  Te106  1  0.84827983  0.16894304  0.82719744  1
  Te2-  Te107  1  0.83476652  0.51072972  0.16228395  1
  Te2-  Te108  1  0.84691404  0.49893930  0.50561228  1
  Te2-  Te109  1  0.83078859  0.50574655  0.84018867  1
  Te2-  Te110  1  0.81994259  0.81804237  0.17229843  1
  Te2-  Te111  1  0.83147691  0.83800010  0.49630682  1
  Te2-  Te112  1  0.81973901  0.82996235  0.83016694  1
  Te2-  Te113  1  0.16174690  -0.00869652  0.00723238  1
  Te2-  Te114  1  0.17002038  0.00065064  0.33317905  1
  Te2-  Te115  1  0.16478155  0.00108921  0.66456566  1
  Te2-  Te116  1  0.17034394  0.33446819  0.00459400  1
  Te2-  Te117  1  0.16205337  0.34645298  0.33325389  1
  Te2-  Te118  1  0.17967260  0.32900109  0.66357376  1
  Te2-  Te119  1  0.16587880  0.66742007  -0.00100922  1
  Te2-  Te120  1  0.17036235  0.65472726  0.33395781  1
  Te2-  Te121  1  0.17731019  0.66879624  0.66405694  1
  Te2-  Te122  1  0.49621612  -0.00118933  -0.01203730  1
  Te2-  Te123  1  0.49506582  0.00411939  0.32880932  1
  Te2-  Te124  1  0.49811287  -0.00420569  0.67552674  1
  Te2-  Te125  1  0.49791077  0.33622445  -0.00034445  1
  Te2-  Te126  1  0.50120112  0.33695393  0.33929938  1
  Te2-  Te127  1  0.48178591  0.33971675  0.66842082  1
  Te2-  Te128  1  0.50251464  0.66431776  -0.00950545  1
  Te2-  Te129  1  0.51531253  0.66043215  0.33737335  1
  Te2-  Te130  1  0.48476582  0.66426115  0.66527837  1
  Te2-  Te131  1  0.83908022  -0.00258037  0.00043895  1
  Te2-  Te132  1  0.82646847  0.00753344  0.33887932  1
  Te2-  Te133  1  0.83273383  0.00308086  0.66254973  1
  Te2-  Te134  1  0.83351249  0.34316957  -0.00106956  1
  Te2-  Te135  1  0.83299483  0.33796124  0.33843438  1
  Te2-  Te136  1  0.84684371  0.33892683  0.66467249  1
  Te2-  Te137  1  0.82319193  0.66027174  0.00837674  1
  Te2-  Te138  1  0.81807570  0.66212204  0.33138965  1
  Te2-  Te139  1  0.84544204  0.66159777  0.66817246  1
  Te2-  Te140  1  -0.00098039  0.16579590  -0.00479590  1
  Te2-  Te141  1  -0.00225073  0.15872842  0.33840664  1
  Te2-  Te142  1  0.00425285  0.17173729  0.66494833  1
  Te2-  Te143  1  0.00526593  0.50162712  -0.01453163  1
  Te2-  Te144  1  -0.01375298  0.50249539  0.33038832  1
  Te2-  Te145  1  0.00138627  0.50146872  0.68187906  1
  Te2-  Te146  1  -0.01215166  0.83493299  -0.00491043  1
  Te2-  Te147  1  -0.00649402  0.83787450  0.33060652  1
  Te2-  Te148  1  0.00064352  0.83325500  0.66562678  1
  Te2-  Te149  1  0.33184218  0.16502000  -0.00520757  1
  Te2-  Te150  1  0.32900422  0.16519667  0.34647115  1
  Te2-  Te151  1  0.32970103  0.16203037  0.65978659  1
  Te2-  Te152  1  0.33244181  0.49406470  0.00862909  1
  Te2-  Te153  1  0.33755304  0.50208784  0.31499691  1
  Te2-  Te154  1  0.33677860  0.49993891  0.66662607  1
  Te2-  Te155  1  0.33564832  0.82786097  0.01355392  1
  Te2-  Te156  1  0.33206033  0.83539351  0.33106706  1
  Te2-  Te157  1  0.33621674  0.83835766  0.66702030  1
  Te2-  Te158  1  0.66701145  0.15462508  -0.01555881  1
  Te2-  Te159  1  0.66689102  0.18102629  0.34588239  1
  Te2-  Te160  1  0.67987007  0.17083095  0.67309629  1
  Te2-  Te161  1  0.65878573  0.50092450  -0.00121003  1
  Te2-  Te162  1  0.67629045  0.49275428  0.34511751  1
  Te2-  Te163  1  0.67414338  0.51239158  0.66115205  1
  Te2-  Te164  1  0.66906318  0.85257857  0.00251211  1
  Te2-  Te165  1  0.67245355  0.83516351  0.33901943  1
  Te2-  Te166  1  0.66864905  0.82310231  0.66006202  1
  Te2-  Te167  1  -0.00059175  -0.00135275  0.17596190  1
  Te2-  Te168  1  -0.00317638  0.00257423  0.49579848  1
  Te2-  Te169  1  -0.00160631  -0.01343877  0.83221589  1
  Te2-  Te170  1  0.00148912  0.33298527  0.17618153  1
  Te2-  Te171  1  0.00511485  0.33357384  0.49311761  1
  Te2-  Te172  1  0.01415063  0.34002487  0.82933790  1
  Te2-  Te173  1  -0.00085846  0.67121055  0.16678786  1
  Te2-  Te174  1  0.00531942  0.66543042  0.50316736  1
  Te2-  Te175  1  0.00604630  0.68320552  0.82730728  1
  Te2-  Te176  1  0.32776003  0.00375744  0.16482801  1
  Te2-  Te177  1  0.34616645  -0.00289425  0.49822932  1
  Te2-  Te178  1  0.33741180  -0.00533766  0.83138417  1
  Te2-  Te179  1  0.32717382  0.32015433  0.17010693  1
  Te2-  Te180  1  0.33192082  0.34981011  0.49372319  1
  Te2-  Te181  1  0.32833199  0.32733844  0.84234361  1
  Te2-  Te182  1  0.34340222  0.67454938  0.17302586  1
  Te2-  Te183  1  0.33467126  0.65236821  0.48754004  1
  Te2-  Te184  1  0.33004710  0.69203433  0.83934216  1
  Te2-  Te185  1  0.66583673  0.01268543  0.16978948  1
  Te2-  Te186  1  0.65713729  0.00342552  0.50215860  1
  Te2-  Te187  1  0.65912000  -0.00315592  0.82529315  1
  Te2-  Te188  1  0.66564736  0.33203419  0.16353220  1
  Te2-  Te189  1  0.66120886  0.33854647  0.51994636  1
  Te2-  Te190  1  0.66127290  0.34114881  0.82450529  1
  Te2-  Te191  1  0.65088558  0.65492138  0.16403647  1
  Te2-  Te192  1  0.66248928  0.66491292  0.51041637  1
  Te2-  Te193  1  0.66834748  0.67273801  0.82723622  1
  Pb2+  Pb194  1  0.82974053  0.66623123  0.50000407  1
  Pb2+  Pb195  1  0.50005887  0.83370839  0.33266816  1
  Pb2+  Pb196  1  0.49526803  0.34310972  0.17223383  1
  Pb2+  Pb197  1  0.16638285  0.49994264  0.66512791  1
  Pb2+  Pb198  1  -0.00560706  0.66625757  -0.00532885  1
  Pb2+  Pb199  1  0.17108538  0.66715075  0.16599155  1
  Pb2+  Pb200  1  0.83682405  0.33699473  0.82874681  1
  Pb2+  Pb201  1  0.00282373  0.33670954  0.00098786  1
  Pb2+  Pb202  1  -0.00217352  0.66739064  0.33323537  1
  Pb2+  Pb203  1  0.83131951  0.33876125  0.17091377  1
  Pb2+  Pb204  1  0.49912343  0.16342435  -0.01333291  1
  Pb2+  Pb205  1  0.82949033  -0.01266735  0.16764219  1
  Pb2+  Pb206  1  0.00747555  0.83464906  0.50009679  1
  Pb2+  Pb207  1  0.83105069  0.16569517  -0.00129000  1
  Pb2+  Pb208  1  0.66685432  0.32591262  -0.00592659  1
  Pb2+  Pb209  1  0.16602449  0.16014539  0.00137185  1
  Pb2+  Pb210  1  0.49851299  0.16781966  0.34128608  1
  Pb2+  Pb211  1  0.82778819  -0.00237972  0.83290436  1
  Pb2+  Pb212  1  0.50024077  -0.00570341  0.15907355  1
  Pb2+  Pb213  1  0.17063650  0.00045251  0.83533374  1
  Pb2+  Pb214  1  0.17515623  0.00068905  0.49852598  1
  Pb2+  Pb215  1  0.65467464  0.50736402  0.82837083  1
