# generated using pymatgen
data_In22Ag21Sn22Bi21(Te54Pb11)2
_symmetry_space_group_name_H-M   'P 1'
_cell_length_a   19.13062960
_cell_length_b   19.14327390
_cell_length_c   19.11658544
_cell_angle_alpha   90.00335033
_cell_angle_beta   89.99613218
_cell_angle_gamma   90.00618891
_symmetry_Int_Tables_number   1
_chemical_formula_structural   In22Ag21Sn22Bi21(Te54Pb11)2
_chemical_formula_sum   'In22 Ag21 Sn22 Bi21 Te108 Pb22'
_cell_volume   7000.93095154
_cell_formula_units_Z   1
loop_
 _symmetry_equiv_pos_site_id
 _symmetry_equiv_pos_as_xyz
  1  'x, y, z'
loop_
 _atom_type_symbol
 _atom_type_oxidation_number
  In3+  3.0
  Ag+  1.0
  Sn2+  2.0
  Bi3+  3.0
  Te2-  -2.0
  Pb2+  2.0
loop_
 _atom_site_type_symbol
 _atom_site_label
 _atom_site_symmetry_multiplicity
 _atom_site_fract_x
 _atom_site_fract_y
 _atom_site_fract_z
 _atom_site_occupancy
  In3+  In0  1  0.85765417  0.16373810  -0.00294480  1
  In3+  In1  1  0.50282784  0.33256258  0.83387581  1
  In3+  In2  1  0.15630267  0.50193137  0.33377119  1
  In3+  In3  1  0.31589842  0.33236321  0.67124219  1
  In3+  In4  1  0.50356469  0.17737061  0.33433026  1
  In3+  In5  1  0.50053779  0.18013154  0.68338726  1
  In3+  In6  1  0.50051483  0.67258263  0.81610244  1
  In3+  In7  1  0.00812773  0.33267867  0.34514985  1
  In3+  In8  1  0.14446730  0.33240245  0.82686781  1
  In3+  In9  1  0.15186871  0.01578494  0.16753667  1
  In3+  In10  1  0.15683134  0.84994475  -0.00516129  1
  In3+  In11  1  0.49813221  0.49831741  0.35834596  1
  In3+  In12  1  0.83549956  0.66472652  0.49547377  1
  In3+  In13  1  0.66796956  0.83559180  0.50491225  1
  In3+  In14  1  0.32689669  0.32834105  0.34009945  1
  In3+  In15  1  0.85090421  0.50114329  0.01364410  1
  In3+  In16  1  0.66473416  0.83353530  0.81796190  1
  In3+  In17  1  0.49978080  0.33121099  0.16133399  1
  In3+  In18  1  0.47385869  -0.00383288  0.50042412  1
  In3+  In19  1  0.17321974  0.67541893  0.16529247  1
  In3+  In20  1  0.49896230  0.84567843  0.01704404  1
  In3+  In21  1  0.49254375  0.01740348  0.17270049  1
  Ag+  Ag22  1  0.50202779  0.14436210  -0.01522408  1
  Ag+  Ag23  1  0.47324687  0.52751863  0.66629433  1
  Ag+  Ag24  1  0.31864888  0.85128017  0.15036917  1
  Ag+  Ag25  1  -0.02405224  0.17287894  0.16900897  1
  Ag+  Ag26  1  0.00224806  0.02055943  -0.01819516  1
  Ag+  Ag27  1  0.01318330  0.15479281  0.80870100  1
  Ag+  Ag28  1  0.64355047  0.13947111  0.84402225  1
  Ag+  Ag29  1  0.02232159  0.48268731  0.49884188  1
  Ag+  Ag30  1  0.19909040  0.15574652  0.69965721  1
  Ag+  Ag31  1  0.14854444  0.86596349  0.63464030  1
  Ag+  Ag32  1  0.47698777  0.84721866  0.67770679  1
  Ag+  Ag33  1  0.02006098  0.31254764  0.00944228  1
  Ag+  Ag34  1  0.81946595  0.82341640  0.30728758  1
  Ag+  Ag35  1  0.33913382  0.18820488  0.15362978  1
  Ag+  Ag36  1  0.64760385  0.68617692  0.67136170  1
  Ag+  Ag37  1  0.31694522  0.69269933  0.66816751  1
  Ag+  Ag38  1  0.15978875  0.32382815  0.52040865  1
  Ag+  Ag39  1  0.16978718  -0.02597881  0.81525213  1
  Ag+  Ag40  1  0.86776720  0.30183899  0.46983929  1
  Ag+  Ag41  1  0.86161510  0.66517548  0.19363712  1
  Ag+  Ag42  1  0.16330037  -0.02967048  0.52663922  1
  Sn2+  Sn43  1  0.66663546  0.49903144  0.82619714  1
  Sn2+  Sn44  1  0.66558198  0.67346038  -0.00301900  1
  Sn2+  Sn45  1  0.67676459  0.00976006  -0.00091620  1
  Sn2+  Sn46  1  0.32833959  0.50362819  0.50113121  1
  Sn2+  Sn47  1  0.49610597  0.66042699  0.15869572  1
  Sn2+  Sn48  1  0.82646288  0.66767924  0.82938141  1
  Sn2+  Sn49  1  0.16664851  0.50116481  0.66611103  1
  Sn2+  Sn50  1  0.84557225  -0.00518812  0.49847754  1
  Sn2+  Sn51  1  0.33726012  0.83480408  0.83261788  1
  Sn2+  Sn52  1  0.16577385  0.65865903  0.50736237  1
  Sn2+  Sn53  1  -0.00580620  0.33362585  0.67376449  1
  Sn2+  Sn54  1  0.66040590  0.16804509  0.15228924  1
  Sn2+  Sn55  1  0.83016547  0.82626418  0.00438555  1
  Sn2+  Sn56  1  0.66837332  0.33328608  0.33939544  1
  Sn2+  Sn57  1  0.34081313  0.83199184  0.50256490  1
  Sn2+  Sn58  1  0.16415298  0.83467866  0.33174306  1
  Sn2+  Sn59  1  0.66266338  0.50148345  0.16053956  1
  Sn2+  Sn60  1  0.33670125  0.67685556  -0.00479114  1
  Sn2+  Sn61  1  0.84131476  0.82519911  0.66791002  1
  Sn2+  Sn62  1  0.32887271  0.00390179  0.00526566  1
  Sn2+  Sn63  1  0.66682271  0.66767267  0.33854453  1
  Sn2+  Sn64  1  0.83762696  0.33745178  0.16374334  1
  Bi3+  Bi65  1  0.82966049  0.33309713  0.83292724  1
  Bi3+  Bi66  1  0.83282498  0.49924817  0.66696687  1
  Bi3+  Bi67  1  0.66659929  0.33448091  0.00286510  1
  Bi3+  Bi68  1  0.83127776  0.16750878  0.67240419  1
  Bi3+  Bi69  1  0.66617794  -0.00121788  0.33185652  1
  Bi3+  Bi70  1  0.50448673  0.50260805  -0.00867940  1
  Bi3+  Bi71  1  0.66848573  0.33395265  0.66854863  1
  Bi3+  Bi72  1  0.66340510  0.82995193  0.16623202  1
  Bi3+  Bi73  1  0.33322473  -0.00085015  0.66708952  1
  Bi3+  Bi74  1  0.33631831  0.49956242  0.16684066  1
  Bi3+  Bi75  1  -0.00147101  0.66589689  -0.00137026  1
  Bi3+  Bi76  1  0.33317278  -0.00288442  0.33317481  1
  Bi3+  Bi77  1  0.33109561  0.16697159  0.49349526  1
  Bi3+  Bi78  1  -0.00037066  0.83132709  0.50024695  1
  Bi3+  Bi79  1  0.17029505  0.49937760  0.00371478  1
  Bi3+  Bi80  1  0.17090925  0.16782521  0.33200594  1
  Bi3+  Bi81  1  0.83986903  0.00535586  0.83607187  1
  Bi3+  Bi82  1  0.17112047  0.16593926  0.00211234  1
  Bi3+  Bi83  1  0.00221087  0.00397775  0.33458829  1
  Bi3+  Bi84  1  0.50259235  0.66960073  0.50306416  1
  Bi3+  Bi85  1  0.66646544  0.50309695  0.50208879  1
  Te2-  Te86  1  0.18613630  0.16594615  0.16688147  1
  Te2-  Te87  1  0.17213478  0.17868222  0.49141500  1
  Te2-  Te88  1  0.15794801  0.17868083  0.83959104  1
  Te2-  Te89  1  0.17003179  0.49922696  0.16991744  1
  Te2-  Te90  1  0.16992218  0.50021183  0.49234504  1
  Te2-  Te91  1  0.16794526  0.48889779  0.83690917  1
  Te2-  Te92  1  0.17457419  0.82934686  0.16516184  1
  Te2-  Te93  1  0.16626463  0.82087097  0.49367459  1
  Te2-  Te94  1  0.16882181  0.83151186  0.84456228  1
  Te2-  Te95  1  0.49218730  0.17112666  0.17160128  1
  Te2-  Te96  1  0.49671104  0.15979534  0.49038741  1
  Te2-  Te97  1  0.49858009  0.16503334  0.83788796  1
  Te2-  Te98  1  0.49858425  0.49295956  0.15813064  1
  Te2-  Te99  1  0.50101963  0.50236724  0.51536012  1
  Te2-  Te100  1  0.50475979  0.50421097  0.82675676  1
  Te2-  Te101  1  0.50072407  0.82543283  0.16650926  1
  Te2-  Te102  1  0.51031280  0.83432369  0.50409873  1
  Te2-  Te103  1  0.50733485  0.82852638  0.82189953  1
  Te2-  Te104  1  0.82670136  0.16519869  0.15323205  1
  Te2-  Te105  1  0.83308133  0.16398390  0.50475929  1
  Te2-  Te106  1  0.83552999  0.16782328  0.84044164  1
  Te2-  Te107  1  0.83142339  0.51571458  0.16660503  1
  Te2-  Te108  1  0.82791368  0.50887847  0.50252140  1
  Te2-  Te109  1  0.83268312  0.49697685  0.83124983  1
  Te2-  Te110  1  0.82965890  0.81724011  0.16161791  1
  Te2-  Te111  1  0.83483883  0.83044537  0.50730462  1
  Te2-  Te112  1  0.82397559  0.83913956  0.83804217  1
  Te2-  Te113  1  0.15821929  0.00182069  0.00830968  1
  Te2-  Te114  1  0.16819941  0.00257741  0.32694860  1
  Te2-  Te115  1  0.17138604  0.01201573  0.67292792  1
  Te2-  Te116  1  0.16644107  0.33596223  -0.00461163  1
  Te2-  Te117  1  0.16596336  0.33665954  0.33230666  1
  Te2-  Te118  1  0.16442218  0.33301554  0.66721796  1
  Te2-  Te119  1  0.16843588  0.66027623  0.00542666  1
  Te2-  Te120  1  0.16801541  0.65894613  0.33096603  1
  Te2-  Te121  1  0.17372330  0.65824253  0.66777108  1
  Te2-  Te122  1  0.49957600  -0.00091810  0.00483747  1
  Te2-  Te123  1  0.49999269  0.00030907  0.33397434  1
  Te2-  Te124  1  0.49493492  -0.00548519  0.66216822  1
  Te2-  Te125  1  0.50323482  0.33831542  -0.00036333  1
  Te2-  Te126  1  0.50185009  0.33320431  0.33008574  1
  Te2-  Te127  1  0.50690874  0.33283068  0.67402302  1
  Te2-  Te128  1  0.49964919  0.66380545  -0.00863438  1
  Te2-  Te129  1  0.50026254  0.65787699  0.33716612  1
  Te2-  Te130  1  0.50234011  0.67001016  0.66484606  1
  Te2-  Te131  1  0.84647406  0.00018735  -0.00271144  1
  Te2-  Te132  1  0.83427211  -0.00267373  0.33363156  1
  Te2-  Te133  1  0.83239856  0.00220255  0.67073752  1
  Te2-  Te134  1  0.82646518  0.34227671  -0.00207760  1
  Te2-  Te135  1  0.83505840  0.33205819  0.33078052  1
  Te2-  Te136  1  0.83065436  0.33261198  0.66695586  1
  Te2-  Te137  1  0.83431889  0.65992420  -0.00724055  1
  Te2-  Te138  1  0.82791676  0.67593046  0.33711971  1
  Te2-  Te139  1  0.83486297  0.66319236  0.66906822  1
  Te2-  Te140  1  0.00638160  0.16587246  0.01896399  1
  Te2-  Te141  1  0.00465923  0.17015672  0.32059841  1
  Te2-  Te142  1  -0.00696144  0.17478431  0.66445364  1
  Te2-  Te143  1  0.00537578  0.50163938  -0.00111696  1
  Te2-  Te144  1  0.00114377  0.49357726  0.34519329  1
  Te2-  Te145  1  -0.00093553  0.49507996  0.65187820  1
  Te2-  Te146  1  0.00396228  0.82891750  0.00293594  1
  Te2-  Te147  1  -0.00281719  0.83869608  0.33725251  1
  Te2-  Te148  1  0.00832315  0.83450223  0.66581351  1
  Te2-  Te149  1  0.33745017  0.16388580  0.00683109  1
  Te2-  Te150  1  0.33823813  0.16442210  0.32931751  1
  Te2-  Te151  1  0.33915839  0.16980069  0.65944962  1
  Te2-  Te152  1  0.33497608  0.50288367  0.00034775  1
  Te2-  Te153  1  0.34437063  0.49110004  0.33191515  1
  Te2-  Te154  1  0.33233781  0.48505802  0.66179183  1
  Te2-  Te155  1  0.34225805  0.83310467  0.00607426  1
  Te2-  Te156  1  0.33312832  0.83490090  0.33733094  1
  Te2-  Te157  1  0.32995497  0.83960639  0.66288306  1
  Te2-  Te158  1  0.65152919  0.16931626  -0.00707851  1
  Te2-  Te159  1  0.66278892  0.16350698  0.33047323  1
  Te2-  Te160  1  0.66423558  0.16821647  0.67723375  1
  Te2-  Te161  1  0.66547086  0.50132043  -0.00376139  1
  Te2-  Te162  1  0.65703038  0.49938137  0.33574833  1
  Te2-  Te163  1  0.67082038  0.49654173  0.66407246  1
  Te2-  Te164  1  0.65872174  0.83695475  0.00429761  1
  Te2-  Te165  1  0.67392931  0.83620948  0.33239928  1
  Te2-  Te166  1  0.67570687  0.83094630  0.66375848  1
  Te2-  Te167  1  -0.00075771  0.00608340  0.17260499  1
  Te2-  Te168  1  0.01422262  -0.00386292  0.49636296  1
  Te2-  Te169  1  0.00501077  0.00823309  0.83610259  1
  Te2-  Te170  1  -0.00791052  0.32653849  0.15772274  1
  Te2-  Te171  1  0.00670136  0.33599384  0.49771221  1
  Te2-  Te172  1  -0.00788529  0.32498437  0.84600260  1
  Te2-  Te173  1  0.00693866  0.66541707  0.16320833  1
  Te2-  Te174  1  -0.00537579  0.67004467  0.49752435  1
  Te2-  Te175  1  -0.00062393  0.66536337  0.83643352  1
  Te2-  Te176  1  0.34198429  -0.00561509  0.17134975  1
  Te2-  Te177  1  0.31272192  0.00054224  0.49851172  1
  Te2-  Te178  1  0.32075436  -0.00402631  0.83471452  1
  Te2-  Te179  1  0.34015561  0.33665510  0.17247786  1
  Te2-  Te180  1  0.33045421  0.33092073  0.49444286  1
  Te2-  Te181  1  0.34464863  0.33122997  0.82561795  1
  Te2-  Te182  1  0.33140159  0.66104070  0.16830977  1
  Te2-  Te183  1  0.33932094  0.66921075  0.51426458  1
  Te2-  Te184  1  0.34211797  0.67306265  0.81998144  1
  Te2-  Te185  1  0.65854472  -0.00228243  0.16731988  1
  Te2-  Te186  1  0.67553134  -0.00642036  0.49357896  1
  Te2-  Te187  1  0.66860377  -0.00556537  0.83838886  1
  Te2-  Te188  1  0.66656054  0.33383170  0.16648060  1
  Te2-  Te189  1  0.66523708  0.33621872  0.50090882  1
  Te2-  Te190  1  0.66440181  0.33129834  0.83602080  1
  Te2-  Te191  1  0.65787344  0.66862737  0.16653911  1
  Te2-  Te192  1  0.66693577  0.66933871  0.50700099  1
  Te2-  Te193  1  0.66264323  0.67346871  0.82434143  1
  Pb2+  Pb194  1  -0.00552796  0.83867108  0.83578996  1
  Pb2+  Pb195  1  0.17111022  0.66558987  0.83666627  1
  Pb2+  Pb196  1  0.66279050  -0.00113592  0.66441223  1
  Pb2+  Pb197  1  -0.00095864  0.49256879  0.17100880  1
  Pb2+  Pb198  1  0.00146132  0.00647558  0.66938755  1
  Pb2+  Pb199  1  0.33239566  0.66409560  0.34239413  1
  Pb2+  Pb200  1  -0.00123318  0.49222545  0.82379114  1
  Pb2+  Pb201  1  0.82763389  0.50016684  0.33622880  1
  Pb2+  Pb202  1  0.00477459  0.66410372  0.66478097  1
  Pb2+  Pb203  1  0.33815634  0.50326605  0.82868723  1
  Pb2+  Pb204  1  0.50230798  0.83125472  0.33561725  1
  Pb2+  Pb205  1  0.32643531  0.16382234  0.83464674  1
  Pb2+  Pb206  1  0.83354059  0.16437056  0.32646617  1
  Pb2+  Pb207  1  0.00679686  0.16610935  0.49456901  1
  Pb2+  Pb208  1  0.66545789  0.16558971  0.50480388  1
  Pb2+  Pb209  1  0.00027441  0.66773974  0.33157124  1
  Pb2+  Pb210  1  0.16127784  0.33051780  0.16590817  1
  Pb2+  Pb211  1  0.33400997  0.33187403  -0.00285155  1
  Pb2+  Pb212  1  0.49237304  -0.00570894  0.83406723  1
  Pb2+  Pb213  1  0.82917427  -0.00732010  0.16442121  1
  Pb2+  Pb214  1  0.00584433  0.83865224  0.16993830  1
  Pb2+  Pb215  1  0.49671596  0.33017931  0.50370468  1
