# generated using pymatgen
data_In22Ag21Sn22Bi21(Te54Pb11)2
_symmetry_space_group_name_H-M   'P 1'
_cell_length_a   19.17513361
_cell_length_b   19.17597652
_cell_length_c   19.20513916
_cell_angle_alpha   89.99957246
_cell_angle_beta   89.99780196
_cell_angle_gamma   89.99710707
_symmetry_Int_Tables_number   1
_chemical_formula_structural   In22Ag21Sn22Bi21(Te54Pb11)2
_chemical_formula_sum   'In22 Ag21 Sn22 Bi21 Te108 Pb22'
_cell_volume   7061.76637394
_cell_formula_units_Z   1
loop_
 _symmetry_equiv_pos_site_id
 _symmetry_equiv_pos_as_xyz
  1  'x, y, z'
loop_
 _atom_type_symbol
 _atom_type_oxidation_number
  In3+  3.0
  Ag+  1.0
  Sn2+  2.0
  Bi3+  3.0
  Te2-  -2.0
  Pb2+  2.0
loop_
 _atom_site_type_symbol
 _atom_site_label
 _atom_site_symmetry_multiplicity
 _atom_site_fract_x
 _atom_site_fract_y
 _atom_site_fract_z
 _atom_site_occupancy
  In3+  In0  1  -0.01863290  0.68819769  0.00477544  1
  In3+  In1  1  0.83300944  -0.02739725  0.50144748  1
  In3+  In2  1  0.19420737  0.67186776  0.48384764  1
  In3+  In3  1  0.68176768  0.15245681  0.49339591  1
  In3+  In4  1  0.67108308  0.68431887  0.34585131  1
  In3+  In5  1  0.84516917  0.81108333  0.67596247  1
  In3+  In6  1  0.35292117  0.00014975  -0.00870489  1
  In3+  In7  1  0.50414142  0.82735869  0.68520039  1
  In3+  In8  1  0.52313527  0.51402168  0.33638114  1
  In3+  In9  1  0.31379019  -0.01360507  0.32862204  1
  In3+  In10  1  -0.00009936  0.52004425  0.49785043  1
  In3+  In11  1  0.83387129  0.36334457  0.49582875  1
  In3+  In12  1  -0.00058375  0.33982492  -0.01992913  1
  In3+  In13  1  -0.00902029  0.16265968  0.49937316  1
  In3+  In14  1  0.65407930  0.15372115  0.14802152  1
  In3+  In15  1  0.52559818  0.82902726  -0.01350632  1
  In3+  In16  1  0.00373991  0.33094424  0.66645347  1
  In3+  In17  1  0.66854104  0.82179130  0.50162693  1
  In3+  In18  1  0.49163539  0.82405112  0.33128354  1
  In3+  In19  1  0.49894099  0.16034405  0.33033189  1
  In3+  In20  1  0.15783244  0.66717844  0.84103818  1
  In3+  In21  1  0.32413815  0.68669898  0.67121140  1
  Ag+  Ag22  1  0.64856391  0.00371890  -0.02896122  1
  Ag+  Ag23  1  0.48769697  0.19398966  -0.02966578  1
  Ag+  Ag24  1  0.13424077  0.68207153  0.13881141  1
  Ag+  Ag25  1  0.84655983  0.69702777  0.19413358  1
  Ag+  Ag26  1  0.00373231  0.80555679  0.18583369  1
  Ag+  Ag27  1  0.19738172  0.02686481  0.51996569  1
  Ag+  Ag28  1  0.35475817  0.15875417  0.14370237  1
  Ag+  Ag29  1  0.80792050  0.68297464  0.85405984  1
  Ag+  Ag30  1  0.64930418  -0.01758461  0.32600372  1
  Ag+  Ag31  1  0.14356436  0.84133350  0.36313057  1
  Ag+  Ag32  1  0.18534069  0.30667848  0.81127942  1
  Ag+  Ag33  1  0.68941322  0.82974022  0.85239594  1
  Ag+  Ag34  1  -0.01504517  0.80930388  0.82711132  1
  Ag+  Ag35  1  0.49555604  0.69856878  0.51793882  1
  Ag+  Ag36  1  0.31265638  -0.01984838  0.69564482  1
  Ag+  Ag37  1  0.47964794  0.66354594  0.81498128  1
  Ag+  Ag38  1  0.84644015  0.84364220  0.01915789  1
  Ag+  Ag39  1  0.16120457  0.01378562  0.86116836  1
  Ag+  Ag40  1  0.81682986  0.52682723  0.30073252  1
  Ag+  Ag41  1  0.30768886  0.69185971  0.30057457  1
  Ag+  Ag42  1  0.85615314  0.67158594  0.48574735  1
  Sn2+  Sn43  1  0.66839764  0.51998228  0.83595467  1
  Sn2+  Sn44  1  0.32062012  0.82980922  0.83658523  1
  Sn2+  Sn45  1  0.66872890  0.50132840  0.16357345  1
  Sn2+  Sn46  1  0.17016863  0.15657926  0.66351548  1
  Sn2+  Sn47  1  0.00512614  0.66239638  0.67205407  1
  Sn2+  Sn48  1  0.16799894  0.83835616  0.67085948  1
  Sn2+  Sn49  1  -0.00151020  0.83308107  0.50388419  1
  Sn2+  Sn50  1  0.50296999  0.50736780  -0.00178029  1
  Sn2+  Sn51  1  0.00324440  0.49745556  0.16828694  1
  Sn2+  Sn52  1  0.83781057  0.51263506  0.00526746  1
  Sn2+  Sn53  1  0.33109095  0.16363997  0.49657924  1
  Sn2+  Sn54  1  0.16477413  -0.01456869  0.16847777  1
  Sn2+  Sn55  1  0.83181716  0.34624033  0.83207877  1
  Sn2+  Sn56  1  0.83224634  0.16568459  0.33573581  1
  Sn2+  Sn57  1  0.83685657  0.83767153  0.32458465  1
  Sn2+  Sn58  1  0.17015314  0.34029098  0.16936530  1
  Sn2+  Sn59  1  0.49945299  0.34627289  0.83465505  1
  Sn2+  Sn60  1  0.33383605  0.67405437  0.00269453  1
  Sn2+  Sn61  1  -0.00326163  0.50425246  0.83031329  1
  Sn2+  Sn62  1  0.17468519  0.15400510  0.32943816  1
  Sn2+  Sn63  1  0.50359554  0.00133749  0.50086605  1
  Sn2+  Sn64  1  0.83288584  -0.00440798  0.16491261  1
  Bi3+  Bi65  1  0.66410061  -0.00093767  0.66128962  1
  Bi3+  Bi66  1  0.83351303  0.50021949  0.67063609  1
  Bi3+  Bi67  1  0.83441810  0.16655040  0.66609824  1
  Bi3+  Bi68  1  0.33206894  0.32875127  0.66702139  1
  Bi3+  Bi69  1  0.66783100  0.66848074  0.00456622  1
  Bi3+  Bi70  1  0.83561352  0.32659291  0.16791243  1
  Bi3+  Bi71  1  -0.00116983  0.16504961  0.83264572  1
  Bi3+  Bi72  1  0.66738359  0.32865014  0.33591699  1
  Bi3+  Bi73  1  0.50747889  0.66344292  0.16836955  1
  Bi3+  Bi74  1  0.16522688  0.49883376  0.00321849  1
  Bi3+  Bi75  1  0.50144698  0.33097763  0.17085721  1
  Bi3+  Bi76  1  0.16105904  0.83367671  -0.00270441  1
  Bi3+  Bi77  1  -0.00024980  0.16533232  0.16736974  1
  Bi3+  Bi78  1  -0.00396986  -0.00053955  0.33130949  1
  Bi3+  Bi79  1  0.49882387  -0.00557437  0.17430883  1
  Bi3+  Bi80  1  0.50293506  0.33039924  0.50013744  1
  Bi3+  Bi81  1  0.16360024  0.49960741  0.33352226  1
  Bi3+  Bi82  1  0.33154384  0.33276548  0.33322940  1
  Bi3+  Bi83  1  -0.00304906  0.33332946  0.33685834  1
  Bi3+  Bi84  1  -0.00175359  0.00185643  -0.00149690  1
  Bi3+  Bi85  1  0.49810516  0.16140978  0.66357772  1
  Te2-  Te86  1  0.16054748  0.16560132  0.17117261  1
  Te2-  Te87  1  0.15774138  0.16441996  0.49851202  1
  Te2-  Te88  1  0.16096286  0.16357677  0.83447755  1
  Te2-  Te89  1  0.16479149  0.50717008  0.16829879  1
  Te2-  Te90  1  0.15874141  0.50584763  0.49955332  1
  Te2-  Te91  1  0.16157524  0.50673788  0.84096608  1
  Te2-  Te92  1  0.15402006  0.82511880  0.15890550  1
  Te2-  Te93  1  0.16505444  0.82032579  0.50484952  1
  Te2-  Te94  1  0.16351935  0.82512533  0.83453574  1
  Te2-  Te95  1  0.50085519  0.16566817  0.16960272  1
  Te2-  Te96  1  0.50479838  0.16954057  0.50242159  1
  Te2-  Te97  1  0.50173412  0.16689667  0.82721554  1
  Te2-  Te98  1  0.50366870  0.49507506  0.17059871  1
  Te2-  Te99  1  0.50202933  0.49142550  0.49508940  1
  Te2-  Te100  1  0.50128622  0.51084096  0.83559805  1
  Te2-  Te101  1  0.50052040  0.83242219  0.17577076  1
  Te2-  Te102  1  0.50804010  0.84206488  0.48396857  1
  Te2-  Te103  1  0.49279996  0.82092922  0.83722484  1
  Te2-  Te104  1  0.83407053  0.16483165  0.16868658  1
  Te2-  Te105  1  0.83622710  0.16801581  0.50519956  1
  Te2-  Te106  1  0.83415924  0.17086057  0.83019481  1
  Te2-  Te107  1  0.83404538  0.48811571  0.16240095  1
  Te2-  Te108  1  0.84128758  0.51943735  0.50688027  1
  Te2-  Te109  1  0.83296539  0.50372075  0.83322578  1
  Te2-  Te110  1  0.84675057  0.83776302  0.16337974  1
  Te2-  Te111  1  0.82702826  0.81955377  0.50045758  1
  Te2-  Te112  1  0.83583645  0.82513174  0.82264404  1
  Te2-  Te113  1  0.16309798  -0.00230770  0.00642570  1
  Te2-  Te114  1  0.16042468  -0.01432317  0.33540040  1
  Te2-  Te115  1  0.17227798  -0.00244657  0.65942553  1
  Te2-  Te116  1  0.16103399  0.33664874  0.00733382  1
  Te2-  Te117  1  0.16477958  0.33389611  0.33444965  1
  Te2-  Te118  1  0.16531152  0.33118291  0.66777937  1
  Te2-  Te119  1  0.16894660  0.66561876  -0.00256443  1
  Te2-  Te120  1  0.16981673  0.66237326  0.33678861  1
  Te2-  Te121  1  0.17119431  0.67107760  0.67286703  1
  Te2-  Te122  1  0.50649487  -0.01559458  0.00920423  1
  Te2-  Te123  1  0.50530974  0.00767946  0.33214329  1
  Te2-  Te124  1  0.50077944  -0.00028900  0.66579364  1
  Te2-  Te125  1  0.50130227  0.33534443  0.00496850  1
  Te2-  Te126  1  0.49929056  0.32665818  0.33432049  1
  Te2-  Te127  1  0.49761611  0.32932589  0.66784259  1
  Te2-  Te128  1  0.50270113  0.67140099  0.00606978  1
  Te2-  Te129  1  0.50841137  0.66851022  0.32916517  1
  Te2-  Te130  1  0.49670639  0.67386788  0.66807058  1
  Te2-  Te131  1  0.83754721  -0.00766425  -0.00295282  1
  Te2-  Te132  1  0.83730229  0.00134933  0.34118281  1
  Te2-  Te133  1  0.82973902  0.00385950  0.65811542  1
  Te2-  Te134  1  0.83907851  0.33458937  0.00239503  1
  Te2-  Te135  1  0.83387300  0.33300153  0.33394582  1
  Te2-  Te136  1  0.83871095  0.33229863  0.66447946  1
  Te2-  Te137  1  0.83188979  0.67414825  -0.00131361  1
  Te2-  Te138  1  0.82495775  0.66853389  0.33524281  1
  Te2-  Te139  1  0.83590004  0.66214522  0.66826578  1
  Te2-  Te140  1  0.00061507  0.16979571  0.00079592  1
  Te2-  Te141  1  0.00209912  0.16600647  0.33342912  1
  Te2-  Te142  1  -0.00116337  0.16891059  0.66589433  1
  Te2-  Te143  1  0.00312597  0.49535328  0.00010146  1
  Te2-  Te144  1  -0.00237181  0.49651790  0.34059341  1
  Te2-  Te145  1  -0.00361489  0.49187553  0.66054914  1
  Te2-  Te146  1  -0.00305384  0.83551777  -0.01788903  1
  Te2-  Te147  1  0.00029159  0.83309363  0.33230773  1
  Te2-  Te148  1  -0.00427136  0.83152579  0.67474162  1
  Te2-  Te149  1  0.34781212  0.15524910  -0.00209834  1
  Te2-  Te150  1  0.33502171  0.17250925  0.33764786  1
  Te2-  Te151  1  0.33493670  0.16612625  0.66109955  1
  Te2-  Te152  1  0.33135816  0.50026837  0.00280302  1
  Te2-  Te153  1  0.32640094  0.49384266  0.33388593  1
  Te2-  Te154  1  0.33201747  0.49141637  0.66702990  1
  Te2-  Te155  1  0.32585093  0.84244768  0.00146518  1
  Te2-  Te156  1  0.33742043  0.83076103  0.33276230  1
  Te2-  Te157  1  0.34384753  0.84002903  0.66647719  1
  Te2-  Te158  1  0.65988130  0.15116765  -0.00241220  1
  Te2-  Te159  1  0.66627818  0.16881305  0.34047280  1
  Te2-  Te160  1  0.66728745  0.16284909  0.66148380  1
  Te2-  Te161  1  0.66844092  0.50315140  -0.00136744  1
  Te2-  Te162  1  0.67723254  0.49115800  0.33161905  1
  Te2-  Te163  1  0.66855084  0.50071648  0.66881945  1
  Te2-  Te164  1  0.67448903  0.83535214  -0.00189613  1
  Te2-  Te165  1  0.67453720  0.83724447  0.33500269  1
  Te2-  Te166  1  0.65723111  0.83793410  0.65227304  1
  Te2-  Te167  1  -0.00131946  0.00395063  0.16519387  1
  Te2-  Te168  1  -0.00826042  -0.00064722  0.49437225  1
  Te2-  Te169  1  0.01198677  0.00498416  0.83432791  1
  Te2-  Te170  1  -0.00096766  0.32964363  0.17446755  1
  Te2-  Te171  1  -0.00699386  0.32372113  0.49747059  1
  Te2-  Te172  1  0.00024623  0.33102845  0.82753733  1
  Te2-  Te173  1  -0.01059518  0.66198780  0.15746516  1
  Te2-  Te174  1  0.00178138  0.67281554  0.50408489  1
  Te2-  Te175  1  0.00433789  0.66259082  0.83562434  1
  Te2-  Te176  1  0.33481919  0.01054516  0.17821421  1
  Te2-  Te177  1  0.33505007  0.00302581  0.48068380  1
  Te2-  Te178  1  0.32446042  -0.00235115  0.83930467  1
  Te2-  Te179  1  0.33767064  0.31685983  0.16999774  1
  Te2-  Te180  1  0.33577288  0.33188452  0.50128733  1
  Te2-  Te181  1  0.32823466  0.33285137  0.83211374  1
  Te2-  Te182  1  0.34471875  0.66721070  0.16282896  1
  Te2-  Te183  1  0.34546564  0.66981239  0.51410757  1
  Te2-  Te184  1  0.33205714  0.66944990  0.82913703  1
  Te2-  Te185  1  0.66617267  0.00372167  0.17914532  1
  Te2-  Te186  1  0.67562796  -0.00144559  0.49573672  1
  Te2-  Te187  1  0.66787440  -0.01710149  0.82640567  1
  Te2-  Te188  1  0.66715775  0.32373203  0.17046985  1
  Te2-  Te189  1  0.66866046  0.33257019  0.49783642  1
  Te2-  Te190  1  0.66182847  0.33652116  0.83593124  1
  Te2-  Te191  1  0.67026909  0.66430347  0.16706087  1
  Te2-  Te192  1  0.64221339  0.67082778  0.49637433  1
  Te2-  Te193  1  0.66289564  0.67840292  0.83995852  1
  Pb2+  Pb194  1  0.16513189  0.50501378  0.67261256  1
  Pb2+  Pb195  1  0.67061021  0.32748731  0.00118653  1
  Pb2+  Pb196  1  0.66840914  0.67022849  0.67207497  1
  Pb2+  Pb197  1  0.50073304  -0.00852379  0.83352217  1
  Pb2+  Pb198  1  0.66644332  0.15846916  0.83082631  1
  Pb2+  Pb199  1  0.67157257  0.50435315  0.49767021  1
  Pb2+  Pb200  1  0.49792638  0.50517273  0.66408062  1
  Pb2+  Pb201  1  0.67109766  0.33147659  0.66855785  1
  Pb2+  Pb202  1  0.83110721  0.15838152  0.00176822  1
  Pb2+  Pb203  1  0.16317108  0.33193390  0.50268767  1
  Pb2+  Pb204  1  0.33124133  0.33024015  0.00131787  1
  Pb2+  Pb205  1  0.32295401  0.83763698  0.16463240  1
  Pb2+  Pb206  1  0.33380913  0.83806145  0.50127648  1
  Pb2+  Pb207  1  0.00428807  -0.00162081  0.66421157  1
  Pb2+  Pb208  1  0.33233816  0.50410880  0.49765567  1
  Pb2+  Pb209  1  0.33158005  0.16335823  0.82825583  1
  Pb2+  Pb210  1  0.33356978  0.49559398  0.17043324  1
  Pb2+  Pb211  1  0.67308867  0.83447625  0.16520234  1
  Pb2+  Pb212  1  0.00170763  0.66508619  0.33078841  1
  Pb2+  Pb213  1  0.84046228  -0.00780588  0.82915207  1
  Pb2+  Pb214  1  0.17204286  0.16571944  0.00518308  1
  Pb2+  Pb215  1  0.33023158  0.50270457  0.83484471  1
