# generated using pymatgen
data_In22Ag21Sn22Bi21(Te54Pb11)2
_symmetry_space_group_name_H-M   'P 1'
_cell_length_a   19.16018410
_cell_length_b   19.16764303
_cell_length_c   19.14691779
_cell_angle_alpha   89.98632148
_cell_angle_beta   90.01355096
_cell_angle_gamma   90.00109746
_symmetry_Int_Tables_number   1
_chemical_formula_structural   In22Ag21Sn22Bi21(Te54Pb11)2
_chemical_formula_sum   'In22 Ag21 Sn22 Bi21 Te108 Pb22'
_cell_volume   7031.81179449
_cell_formula_units_Z   1
loop_
 _symmetry_equiv_pos_site_id
 _symmetry_equiv_pos_as_xyz
  1  'x, y, z'
loop_
 _atom_type_symbol
 _atom_type_oxidation_number
  In3+  3.0
  Ag+  1.0
  Sn2+  2.0
  Bi3+  3.0
  Te2-  -2.0
  Pb2+  2.0
loop_
 _atom_site_type_symbol
 _atom_site_label
 _atom_site_symmetry_multiplicity
 _atom_site_fract_x
 _atom_site_fract_y
 _atom_site_fract_z
 _atom_site_occupancy
  In3+  In0  1  0.66655597  -0.00871942  0.67801194  1
  In3+  In1  1  0.16310861  -0.00392272  0.16283156  1
  In3+  In2  1  0.49993580  0.00085564  0.14585256  1
  In3+  In3  1  0.33147819  -0.00520810  0.32868710  1
  In3+  In4  1  0.82763486  0.51370035  -0.01324190  1
  In3+  In5  1  0.66570369  0.66306420  0.65200098  1
  In3+  In6  1  0.33559522  0.33424613  0.01586706  1
  In3+  In7  1  0.32955977  0.52274906  0.50791755  1
  In3+  In8  1  0.01776172  -0.00417229  0.67882000  1
  In3+  In9  1  0.83548559  0.68325690  0.82421608  1
  In3+  In10  1  0.32002565  0.34699759  0.66196519  1
  In3+  In11  1  0.33500118  0.15957538  0.50976565  1
  In3+  In12  1  0.66490102  0.34595874  -0.00005520  1
  In3+  In13  1  0.01515626  0.33833844  0.33605473  1
  In3+  In14  1  0.00047062  0.82237363  0.14933712  1
  In3+  In15  1  0.64838698  0.83384196  0.16437081  1
  In3+  In16  1  0.17733734  0.16683565  0.33037590  1
  In3+  In17  1  0.49760932  0.65434106  0.18230892  1
  In3+  In18  1  0.33722506  0.33201050  0.33124246  1
  In3+  In19  1  0.83159757  -0.03164873  0.51917569  1
  In3+  In20  1  0.69383461  -0.00399663  -0.01317311  1
  In3+  In21  1  0.15793928  0.50123633  0.01225996  1
  Ag+  Ag22  1  0.48002937  0.35732372  0.13455137  1
  Ag+  Ag23  1  0.03334534  0.64350089  0.63718306  1
  Ag+  Ag24  1  0.47324980  0.66602209  0.52734099  1
  Ag+  Ag25  1  -0.02281441  0.52446329  0.16956467  1
  Ag+  Ag26  1  0.14249016  0.52862133  0.66282174  1
  Ag+  Ag27  1  0.31542922  0.63751879  0.34177779  1
  Ag+  Ag28  1  0.83718435  0.81536143  0.00622500  1
  Ag+  Ag29  1  0.81241402  0.66590764  0.47911264  1
  Ag+  Ag30  1  0.14736642  0.35862430  0.18003201  1
  Ag+  Ag31  1  0.01520007  -0.02178535  -0.02237247  1
  Ag+  Ag32  1  0.47114605  0.01672381  0.80345467  1
  Ag+  Ag33  1  0.35152258  0.81140861  0.17081880  1
  Ag+  Ag34  1  0.00136462  0.64057503  -0.02022788  1
  Ag+  Ag35  1  0.66301985  0.51715674  0.82056632  1
  Ag+  Ag36  1  0.14744101  0.64496395  0.53603990  1
  Ag+  Ag37  1  0.18723361  0.81926470  0.65484681  1
  Ag+  Ag38  1  0.64464796  0.83342371  0.52587334  1
  Ag+  Ag39  1  -0.02496762  0.36053474  0.63685059  1
  Ag+  Ag40  1  0.31783219  -0.00689607  0.69425559  1
  Ag+  Ag41  1  0.83656165  -0.01855450  0.81981139  1
  Ag+  Ag42  1  0.48306680  0.47704049  0.66828112  1
  Sn2+  Sn43  1  0.66683209  0.66730864  0.34414301  1
  Sn2+  Sn44  1  0.50242123  0.83256513  -0.00689547  1
  Sn2+  Sn45  1  0.16344416  0.17329541  0.00394331  1
  Sn2+  Sn46  1  0.00964811  0.66906125  0.33483793  1
  Sn2+  Sn47  1  0.83748917  0.33667553  0.16797351  1
  Sn2+  Sn48  1  0.84201243  0.82485868  0.67191918  1
  Sn2+  Sn49  1  0.50765268  0.66292751  0.83056361  1
  Sn2+  Sn50  1  0.50159828  0.16454194  0.33877321  1
  Sn2+  Sn51  1  0.16162632  0.66157744  0.83736930  1
  Sn2+  Sn52  1  0.16934507  0.34329813  0.83829718  1
  Sn2+  Sn53  1  0.49772867  0.17509372  0.66416158  1
  Sn2+  Sn54  1  0.50028400  0.33238548  0.82742091  1
  Sn2+  Sn55  1  0.32993483  -0.00260578  0.00312386  1
  Sn2+  Sn56  1  0.67303879  0.33727575  0.67456700  1
  Sn2+  Sn57  1  0.16664239  -0.00807519  0.49819667  1
  Sn2+  Sn58  1  -0.00322996  0.00086378  0.32914147  1
  Sn2+  Sn59  1  0.33591695  0.83322982  0.49296343  1
  Sn2+  Sn60  1  0.16450153  0.00162136  0.83545706  1
  Sn2+  Sn61  1  0.83405148  -0.00251136  0.15477391  1
  Sn2+  Sn62  1  0.49993451  -0.00708545  0.50478797  1
  Sn2+  Sn63  1  0.49754305  0.35246288  0.49990489  1
  Sn2+  Sn64  1  0.33753485  0.17129877  0.82060581  1
  Bi3+  Bi65  1  0.66277359  0.16178284  0.16758234  1
  Bi3+  Bi66  1  0.33325432  0.16472063  0.16384308  1
  Bi3+  Bi67  1  0.16462473  0.83339029  -0.00181049  1
  Bi3+  Bi68  1  0.49527891  0.83771754  0.66711803  1
  Bi3+  Bi69  1  0.00222494  0.33535440  0.00290326  1
  Bi3+  Bi70  1  0.83270726  0.33081427  0.83805415  1
  Bi3+  Bi71  1  0.66614714  -0.00393701  0.33416149  1
  Bi3+  Bi72  1  0.83852070  0.16670704  0.33468368  1
  Bi3+  Bi73  1  0.66947815  0.82853721  0.83530348  1
  Bi3+  Bi74  1  0.66791551  0.67405409  0.00094929  1
  Bi3+  Bi75  1  0.00555420  0.83443033  0.50480728  1
  Bi3+  Bi76  1  0.33503324  0.50034455  0.16787460  1
  Bi3+  Bi77  1  0.00208778  0.16205149  0.49935890  1
  Bi3+  Bi78  1  0.00285479  0.83053818  0.83224333  1
  Bi3+  Bi79  1  0.83235915  0.17113354  0.00240070  1
  Bi3+  Bi80  1  0.66164325  0.33159579  0.33326205  1
  Bi3+  Bi81  1  0.83247938  0.50390978  0.66981496  1
  Bi3+  Bi82  1  0.16996496  0.16429298  0.66716474  1
  Bi3+  Bi83  1  0.83446985  0.50091573  0.33311976  1
  Bi3+  Bi84  1  0.16923504  0.66946012  0.16787376  1
  Bi3+  Bi85  1  0.00195556  0.16642131  0.16832977  1
  Te2-  Te86  1  0.16781814  0.16182524  0.17096304  1
  Te2-  Te87  1  0.16719799  0.16380075  0.49482289  1
  Te2-  Te88  1  0.16966763  0.16551677  0.83371238  1
  Te2-  Te89  1  0.17405319  0.50308472  0.16643187  1
  Te2-  Te90  1  0.17574157  0.50372901  0.51170060  1
  Te2-  Te91  1  0.16653376  0.49956139  0.81679841  1
  Te2-  Te92  1  0.15942787  0.83505524  0.16316558  1
  Te2-  Te93  1  0.16808094  0.83486716  0.50906218  1
  Te2-  Te94  1  0.16478084  0.83641826  0.83747462  1
  Te2-  Te95  1  0.49867595  0.15862730  0.16811507  1
  Te2-  Te96  1  0.49432589  0.16246913  0.50087806  1
  Te2-  Te97  1  0.49875658  0.15885824  0.83120953  1
  Te2-  Te98  1  0.49896791  0.49959881  0.16425825  1
  Te2-  Te99  1  0.49132940  0.51267438  0.51483421  1
  Te2-  Te100  1  0.51018591  0.50189023  0.81964238  1
  Te2-  Te101  1  0.49458692  0.84442945  0.16217447  1
  Te2-  Te102  1  0.49838834  0.82377608  0.50541315  1
  Te2-  Te103  1  0.50767052  0.83644576  0.82981314  1
  Te2-  Te104  1  0.83215966  0.16675353  0.16877917  1
  Te2-  Te105  1  0.83682447  0.16861911  0.49691319  1
  Te2-  Te106  1  0.83326314  0.16957387  0.83758911  1
  Te2-  Te107  1  0.83258530  0.49859364  0.16889080  1
  Te2-  Te108  1  0.83294191  0.51240646  0.49975768  1
  Te2-  Te109  1  0.82494837  0.49361188  0.83480765  1
  Te2-  Te110  1  0.84638925  0.83917674  0.15645272  1
  Te2-  Te111  1  0.84200689  0.81863984  0.50263265  1
  Te2-  Te112  1  0.83506333  0.83678628  0.84605689  1
  Te2-  Te113  1  0.16037256  -0.00153877  0.00366513  1
  Te2-  Te114  1  0.16878673  0.00723229  0.33183251  1
  Te2-  Te115  1  0.17060238  0.00246742  0.66641532  1
  Te2-  Te116  1  0.16693535  0.34049816  0.00444543  1
  Te2-  Te117  1  0.17433379  0.33092679  0.32402891  1
  Te2-  Te118  1  0.17261008  0.32311656  0.66946412  1
  Te2-  Te119  1  0.15390756  0.66432735  0.00295237  1
  Te2-  Te120  1  0.17220333  0.66957302  0.32929548  1
  Te2-  Te121  1  0.17175934  0.67579428  0.68097054  1
  Te2-  Te122  1  0.49594515  -0.00696486  -0.00445811  1
  Te2-  Te123  1  0.50447558  0.00297508  0.34139381  1
  Te2-  Te124  1  0.51296388  -0.00105061  0.66430842  1
  Te2-  Te125  1  0.50029383  0.33294583  -0.00730751  1
  Te2-  Te126  1  0.50022898  0.33047705  0.33692923  1
  Te2-  Te127  1  0.50824388  0.33270704  0.66802432  1
  Te2-  Te128  1  0.50219774  0.67215783  -0.00239559  1
  Te2-  Te129  1  0.50861396  0.66742114  0.33226900  1
  Te2-  Te130  1  0.50856161  0.67536912  0.67004081  1
  Te2-  Te131  1  0.84359280  0.01078853  -0.00256426  1
  Te2-  Te132  1  0.82988377  0.00500940  0.32868572  1
  Te2-  Te133  1  0.82303832  -0.00475937  0.67154086  1
  Te2-  Te134  1  0.83232564  0.33508500  0.00154890  1
  Te2-  Te135  1  0.82580790  0.33421359  0.33419757  1
  Te2-  Te136  1  0.83507219  0.33569308  0.67146911  1
  Te2-  Te137  1  0.83752018  0.66575303  0.00275024  1
  Te2-  Te138  1  0.83555657  0.66350099  0.33229341  1
  Te2-  Te139  1  0.83063651  0.66502812  0.67272532  1
  Te2-  Te140  1  -0.00199624  0.17122864  0.00601860  1
  Te2-  Te141  1  0.00080356  0.17148723  0.33397395  1
  Te2-  Te142  1  0.00528126  0.15657840  0.66180995  1
  Te2-  Te143  1  -0.00013073  0.49772825  0.01602307  1
  Te2-  Te144  1  -0.00323568  0.49567134  0.32149989  1
  Te2-  Te145  1  -0.00325162  0.50128642  0.66629649  1
  Te2-  Te146  1  -0.00330104  0.83392544  -0.00233467  1
  Te2-  Te147  1  0.00274592  0.83925137  0.33915731  1
  Te2-  Te148  1  0.00188292  0.84119571  0.66921666  1
  Te2-  Te149  1  0.32709091  0.17575328  0.00159471  1
  Te2-  Te150  1  0.33217294  0.17118943  0.32877612  1
  Te2-  Te151  1  0.33177707  0.14155893  0.66183101  1
  Te2-  Te152  1  0.33029408  0.49538222  0.00158892  1
  Te2-  Te153  1  0.33476477  0.49112931  0.33426717  1
  Te2-  Te154  1  0.33768925  0.49957769  0.66032943  1
  Te2-  Te155  1  0.32664530  0.83324028  0.01529132  1
  Te2-  Te156  1  0.33534282  0.84373076  0.31988106  1
  Te2-  Te157  1  0.33217504  0.84578222  0.66608960  1
  Te2-  Te158  1  0.66756615  0.15207230  0.00656476  1
  Te2-  Te159  1  0.67176982  0.16604332  0.33305581  1
  Te2-  Te160  1  0.66713889  0.16737447  0.66607483  1
  Te2-  Te161  1  0.66950741  0.50774010  -0.00394260  1
  Te2-  Te162  1  0.66897996  0.49706134  0.33511779  1
  Te2-  Te163  1  0.67156339  0.50891591  0.67200114  1
  Te2-  Te164  1  0.67874464  0.83743252  0.00247404  1
  Te2-  Te165  1  0.67074785  0.83386467  0.31919914  1
  Te2-  Te166  1  0.66946651  0.83147947  0.67315436  1
  Te2-  Te167  1  0.00686909  0.00573866  0.16955746  1
  Te2-  Te168  1  -0.00876292  -0.00023712  0.49905608  1
  Te2-  Te169  1  -0.00779774  -0.00320727  0.83220544  1
  Te2-  Te170  1  0.00420972  0.32832416  0.16764902  1
  Te2-  Te171  1  0.00504755  0.32934434  0.49696774  1
  Te2-  Te172  1  0.00053796  0.33442432  0.83969979  1
  Te2-  Te173  1  0.00554072  0.66963450  0.17186810  1
  Te2-  Te174  1  0.00680967  0.67165160  0.49359551  1
  Te2-  Te175  1  -0.00900981  0.66801730  0.83637972  1
  Te2-  Te176  1  0.32882610  0.00705548  0.17005261  1
  Te2-  Te177  1  0.33330061  0.00157134  0.48469158  1
  Te2-  Te178  1  0.33161387  0.00140224  0.84269031  1
  Te2-  Te179  1  0.33875431  0.33210190  0.16886511  1
  Te2-  Te180  1  0.33997072  0.31915848  0.50670634  1
  Te2-  Te181  1  0.33666108  0.33129877  0.81749231  1
  Te2-  Te182  1  0.33938210  0.66350772  0.17386186  1
  Te2-  Te183  1  0.33263528  0.67262541  0.48583796  1
  Te2-  Te184  1  0.33618732  0.66708304  0.83509180  1
  Te2-  Te185  1  0.66049823  -0.00365503  0.16961995  1
  Te2-  Te186  1  0.67497305  -0.01892330  0.49542583  1
  Te2-  Te187  1  0.67888678  -0.00587444  0.83360669  1
  Te2-  Te188  1  0.66399197  0.32377011  0.16741453  1
  Te2-  Te189  1  0.66254845  0.33158401  0.49943569  1
  Te2-  Te190  1  0.66845683  0.33573502  0.83839739  1
  Te2-  Te191  1  0.65731944  0.67270484  0.16261606  1
  Te2-  Te192  1  0.66869715  0.68190323  0.50070262  1
  Te2-  Te193  1  0.67628916  0.66539486  0.84039106  1
  Pb2+  Pb194  1  0.17455213  0.33469102  0.49845701  1
  Pb2+  Pb195  1  0.00007849  0.50411595  0.49465324  1
  Pb2+  Pb196  1  0.83589612  0.16200519  0.66590918  1
  Pb2+  Pb197  1  0.50022387  0.83502915  0.33547829  1
  Pb2+  Pb198  1  0.66704012  0.49465219  0.16454262  1
  Pb2+  Pb199  1  0.49967402  0.50020187  0.34334341  1
  Pb2+  Pb200  1  0.49491819  0.16168618  -0.00154240  1
  Pb2+  Pb201  1  0.00319217  0.16765171  0.83326308  1
  Pb2+  Pb202  1  0.33468906  0.49920673  0.83000164  1
  Pb2+  Pb203  1  0.66540964  0.16921846  0.83414565  1
  Pb2+  Pb204  1  -0.00044022  0.50030399  0.83861122  1
  Pb2+  Pb205  1  0.66279933  0.15194055  0.50336369  1
  Pb2+  Pb206  1  0.33802686  0.67602946  0.66073312  1
  Pb2+  Pb207  1  0.83699264  0.83605454  0.33196489  1
  Pb2+  Pb208  1  0.83038107  0.34046905  0.50094611  1
  Pb2+  Pb209  1  0.50103514  0.50384684  -0.01440807  1
  Pb2+  Pb210  1  0.32755829  0.66733771  0.00273848  1
  Pb2+  Pb211  1  0.17064343  0.83691813  0.33799455  1
  Pb2+  Pb212  1  0.82860066  0.67152138  0.16867646  1
  Pb2+  Pb213  1  0.16561822  0.50390095  0.33918039  1
  Pb2+  Pb214  1  0.66228466  0.50666488  0.50593735  1
  Pb2+  Pb215  1  0.33573255  0.83399089  0.83778487  1
