# generated using pymatgen
data_In22Ag21Sn22Bi21(Te54Pb11)2
_symmetry_space_group_name_H-M   'P 1'
_cell_length_a   19.11758949
_cell_length_b   19.13279581
_cell_length_c   19.12309841
_cell_angle_alpha   90.02298163
_cell_angle_beta   89.99985576
_cell_angle_gamma   90.00077172
_symmetry_Int_Tables_number   1
_chemical_formula_structural   In22Ag21Sn22Bi21(Te54Pb11)2
_chemical_formula_sum   'In22 Ag21 Sn22 Bi21 Te108 Pb22'
_cell_volume   6994.71129193
_cell_formula_units_Z   1
loop_
 _symmetry_equiv_pos_site_id
 _symmetry_equiv_pos_as_xyz
  1  'x, y, z'
loop_
 _atom_type_symbol
 _atom_type_oxidation_number
  In3+  3.0
  Ag+  1.0
  Sn2+  2.0
  Bi3+  3.0
  Te2-  -2.0
  Pb2+  2.0
loop_
 _atom_site_type_symbol
 _atom_site_label
 _atom_site_symmetry_multiplicity
 _atom_site_fract_x
 _atom_site_fract_y
 _atom_site_fract_z
 _atom_site_occupancy
  In3+  In0  1  -0.00942547  0.66341548  -0.01699888  1
  In3+  In1  1  0.00396771  0.01965523  0.00106018  1
  In3+  In2  1  -0.02582493  0.01411304  0.66482225  1
  In3+  In3  1  0.33767842  0.83064611  0.82221723  1
  In3+  In4  1  0.34684209  0.50445402  0.17955180  1
  In3+  In5  1  0.49945343  0.84766741  0.66944302  1
  In3+  In6  1  0.82150547  0.00279992  0.49171920  1
  In3+  In7  1  0.83210639  0.65920284  0.17326129  1
  In3+  In8  1  0.66142223  0.66274051  0.34521200  1
  In3+  In9  1  0.67834551  0.47485249  0.83373663  1
  In3+  In10  1  0.49609872  0.32577091  0.82424225  1
  In3+  In11  1  0.00205756  0.86147117  0.83915188  1
  In3+  In12  1  0.83262470  0.83436530  0.34191645  1
  In3+  In13  1  -0.01669665  0.33944589  0.66672168  1
  In3+  In14  1  -0.00014983  0.50494784  0.17630340  1
  In3+  In15  1  0.65179271  0.32767348  0.00033223  1
  In3+  In16  1  0.32959699  0.33882401  0.00285730  1
  In3+  In17  1  0.18267259  0.32850267  0.83308739  1
  In3+  In18  1  0.50919686  0.64724351  0.83471118  1
  In3+  In19  1  0.66180403  0.84866467  0.80729460  1
  In3+  In20  1  0.50831658  0.00867685  0.17420383  1
  In3+  In21  1  0.33316566  0.17253577  0.49092596  1
  Ag+  Ag22  1  0.18439716  0.18158304  -0.01356976  1
  Ag+  Ag23  1  0.30754541  0.65000576  0.35926834  1
  Ag+  Ag24  1  0.50379150  0.19733859  0.64367324  1
  Ag+  Ag25  1  0.66485198  0.16738109  0.81170524  1
  Ag+  Ag26  1  0.81346646  0.51295433  0.00566586  1
  Ag+  Ag27  1  0.66239904  0.00670614  0.35677393  1
  Ag+  Ag28  1  0.19208677  0.33701403  0.53386477  1
  Ag+  Ag29  1  0.50429316  0.49488783  0.35619518  1
  Ag+  Ag30  1  0.02885502  0.17015325  0.80949057  1
  Ag+  Ag31  1  0.83100647  0.47990337  0.64593124  1
  Ag+  Ag32  1  0.65974115  0.01690562  0.65310589  1
  Ag+  Ag33  1  -0.02156222  0.66021524  0.33372372  1
  Ag+  Ag34  1  0.30735258  0.33889729  0.65805252  1
  Ag+  Ag35  1  0.65514376  0.30975440  0.63988516  1
  Ag+  Ag36  1  0.19251982  0.35600525  0.18855382  1
  Ag+  Ag37  1  0.63425266  0.29925356  0.35629175  1
  Ag+  Ag38  1  0.79941495  0.19683168  0.36080910  1
  Ag+  Ag39  1  0.52109849  0.19888220  0.35800094  1
  Ag+  Ag40  1  0.65217877  0.83512187  0.48994897  1
  Ag+  Ag41  1  0.51412291  0.49506243  -0.00425219  1
  Ag+  Ag42  1  0.19967589  0.80399519  0.34322120  1
  Sn2+  Sn43  1  0.50327595  -0.00009731  0.49561318  1
  Sn2+  Sn44  1  0.34015878  0.50241141  0.82618785  1
  Sn2+  Sn45  1  0.82934958  -0.00395951  0.17358231  1
  Sn2+  Sn46  1  0.33819998  0.64893271  0.66290061  1
  Sn2+  Sn47  1  0.50199999  0.66818559  0.16956882  1
  Sn2+  Sn48  1  0.00760764  0.16597260  0.49692637  1
  Sn2+  Sn49  1  0.00321544  0.33110761  0.33360148  1
  Sn2+  Sn50  1  -0.00338040  0.66856210  0.65856740  1
  Sn2+  Sn51  1  0.00195072  0.82553628  0.17213495  1
  Sn2+  Sn52  1  0.49754653  0.16750091  0.00011818  1
  Sn2+  Sn53  1  0.83550993  0.17236351  -0.00194636  1
  Sn2+  Sn54  1  0.50308698  0.66929623  0.49843189  1
  Sn2+  Sn55  1  0.66508045  0.66136657  -0.00160245  1
  Sn2+  Sn56  1  0.34842770  0.01637465  0.66279785  1
  Sn2+  Sn57  1  0.16318417  0.00768313  0.50116674  1
  Sn2+  Sn58  1  0.33159814  0.49391960  0.49762260  1
  Sn2+  Sn59  1  0.83547885  0.67070677  0.50145961  1
  Sn2+  Sn60  1  0.16673546  0.66366910  0.83441391  1
  Sn2+  Sn61  1  0.83054435  0.83055782  0.00221721  1
  Sn2+  Sn62  1  0.33356006  0.33885955  0.33831258  1
  Sn2+  Sn63  1  0.50256400  0.00884854  0.83452321  1
  Sn2+  Sn64  1  0.51203215  0.49932896  0.67217076  1
  Bi3+  Bi65  1  0.50015268  0.33366196  0.15947298  1
  Bi3+  Bi66  1  -0.00403276  0.48854390  0.83649143  1
  Bi3+  Bi67  1  0.83254800  0.00139551  0.83716591  1
  Bi3+  Bi68  1  0.00022797  0.83316450  0.50137377  1
  Bi3+  Bi69  1  0.16499739  0.49571554  -0.00327651  1
  Bi3+  Bi70  1  0.83632361  0.33051261  0.16588558  1
  Bi3+  Bi71  1  -0.00005618  0.16898721  0.16987185  1
  Bi3+  Bi72  1  0.83316287  0.33035604  0.49764897  1
  Bi3+  Bi73  1  -0.00086487  0.33524549  -0.00118102  1
  Bi3+  Bi74  1  0.83501442  0.83201644  0.66794133  1
  Bi3+  Bi75  1  0.16296443  0.00050314  0.17007335  1
  Bi3+  Bi76  1  0.50757379  0.83157369  0.33369960  1
  Bi3+  Bi77  1  0.16447181  0.66489312  0.16688065  1
  Bi3+  Bi78  1  0.66939215  0.16768545  0.16503679  1
  Bi3+  Bi79  1  0.33381067  0.82923450  0.16436703  1
  Bi3+  Bi80  1  0.83346036  0.32920128  0.83816009  1
  Bi3+  Bi81  1  0.34261161  0.16612682  0.82991273  1
  Bi3+  Bi82  1  0.66512919  0.66659530  0.66917038  1
  Bi3+  Bi83  1  0.33135120  0.66264688  -0.00592015  1
  Bi3+  Bi84  1  0.16498702  0.16697186  0.32989781  1
  Bi3+  Bi85  1  0.66979757  0.83140335  0.17102079  1
  Te2-  Te86  1  0.16222628  0.16261907  0.16410723  1
  Te2-  Te87  1  0.17408502  0.17961193  0.49638882  1
  Te2-  Te88  1  0.17490997  0.17001556  0.83832232  1
  Te2-  Te89  1  0.16622253  0.49923672  0.16040464  1
  Te2-  Te90  1  0.17033484  0.48494070  0.50034659  1
  Te2-  Te91  1  0.16260070  0.49410841  0.83379010  1
  Te2-  Te92  1  0.16938870  0.83308091  0.17949671  1
  Te2-  Te93  1  0.16365077  0.83518488  0.48683286  1
  Te2-  Te94  1  0.16261004  0.83071562  0.83370907  1
  Te2-  Te95  1  0.50165278  0.16932528  0.16678583  1
  Te2-  Te96  1  0.49104352  0.16206737  0.49571523  1
  Te2-  Te97  1  0.50800764  0.17160487  0.83900112  1
  Te2-  Te98  1  0.49604176  0.49931361  0.14778381  1
  Te2-  Te99  1  0.49669804  0.50457660  0.50382513  1
  Te2-  Te100  1  0.50713619  0.49592456  0.84094176  1
  Te2-  Te101  1  0.50158573  0.83360184  0.16550001  1
  Te2-  Te102  1  0.50487857  0.83121097  0.50098684  1
  Te2-  Te103  1  0.49947163  0.84067554  0.82545421  1
  Te2-  Te104  1  0.83550386  0.16529054  0.16669324  1
  Te2-  Te105  1  0.83543195  0.16157028  0.49933625  1
  Te2-  Te106  1  0.81733940  0.16499155  0.83704712  1
  Te2-  Te107  1  0.83537637  0.50017613  0.15718581  1
  Te2-  Te108  1  0.83248416  0.49896006  0.49909618  1
  Te2-  Te109  1  0.83255598  0.49493592  0.85125105  1
  Te2-  Te110  1  0.83380885  0.82984412  0.16893154  1
  Te2-  Te111  1  0.83817114  0.83833396  0.50239876  1
  Te2-  Te112  1  0.83694709  0.83705527  0.83246212  1
  Te2-  Te113  1  0.15796135  0.00091060  0.00247563  1
  Te2-  Te114  1  0.16567559  0.00501933  0.33431766  1
  Te2-  Te115  1  0.17455019  0.00074670  0.66068899  1
  Te2-  Te116  1  0.16651122  0.32959020  -0.00791267  1
  Te2-  Te117  1  0.16845900  0.32914781  0.32973512  1
  Te2-  Te118  1  0.16002845  0.33114667  0.67795197  1
  Te2-  Te119  1  0.16556555  0.66283466  0.00218668  1
  Te2-  Te120  1  0.16448607  0.66225497  0.32830105  1
  Te2-  Te121  1  0.16608365  0.66646745  0.66700395  1
  Te2-  Te122  1  0.49988642  0.00089191  0.00356258  1
  Te2-  Te123  1  0.51101760  -0.00567499  0.33036076  1
  Te2-  Te124  1  0.50955699  -0.00302891  0.66494092  1
  Te2-  Te125  1  0.49471294  0.34193345  -0.00302462  1
  Te2-  Te126  1  0.49311491  0.34325939  0.32470811  1
  Te2-  Te127  1  0.51588864  0.34191838  0.67386072  1
  Te2-  Te128  1  0.49400786  0.65806141  -0.00696712  1
  Te2-  Te129  1  0.50711062  0.66915848  0.32961741  1
  Te2-  Te130  1  0.50139109  0.66439152  0.67397652  1
  Te2-  Te131  1  0.84398775  -0.00162960  -0.00165895  1
  Te2-  Te132  1  0.82054251  -0.00895058  0.33707140  1
  Te2-  Te133  1  0.82136597  -0.00464288  0.67119629  1
  Te2-  Te134  1  0.83506920  0.33685739  0.00304323  1
  Te2-  Te135  1  0.83788393  0.33369371  0.33090191  1
  Te2-  Te136  1  0.82543425  0.33425264  0.66943272  1
  Te2-  Te137  1  0.83764378  0.66136106  0.00860798  1
  Te2-  Te138  1  0.83087662  0.66768002  0.32816639  1
  Te2-  Te139  1  0.83224799  0.67060010  0.66862935  1
  Te2-  Te140  1  0.00029978  0.17318075  0.00519675  1
  Te2-  Te141  1  -0.00045379  0.16402506  0.33221274  1
  Te2-  Te142  1  0.00068123  0.16407605  0.66445006  1
  Te2-  Te143  1  0.00272641  0.50078884  -0.00026454  1
  Te2-  Te144  1  -0.00020902  0.50334051  0.32963973  1
  Te2-  Te145  1  -0.01622956  0.49595112  0.67340559  1
  Te2-  Te146  1  -0.00437436  0.81824704  -0.00253821  1
  Te2-  Te147  1  -0.01188501  0.82955338  0.33657055  1
  Te2-  Te148  1  -0.00213786  0.83160759  0.66944526  1
  Te2-  Te149  1  0.33146211  0.17573499  -0.00447336  1
  Te2-  Te150  1  0.33168554  0.16933588  0.33588370  1
  Te2-  Te151  1  0.35136135  0.17459371  0.66945108  1
  Te2-  Te152  1  0.32619906  0.49639683  -0.01158346  1
  Te2-  Te153  1  0.34923182  0.51016746  0.33082821  1
  Te2-  Te154  1  0.33543722  0.48932385  0.66809373  1
  Te2-  Te155  1  0.33206468  0.82889978  -0.00230911  1
  Te2-  Te156  1  0.34460927  0.82782035  0.32850922  1
  Te2-  Te157  1  0.34074281  0.83324013  0.66942802  1
  Te2-  Te158  1  0.66379712  0.17163036  0.00544597  1
  Te2-  Te159  1  0.66385408  0.15463716  0.32623885  1
  Te2-  Te160  1  0.65206512  0.16462788  0.66421572  1
  Te2-  Te161  1  0.66572622  0.50184170  -0.01131688  1
  Te2-  Te162  1  0.65442209  0.51054167  0.33361045  1
  Te2-  Te163  1  0.68186031  0.50715300  0.68181878  1
  Te2-  Te164  1  0.66934750  0.83017841  0.00785043  1
  Te2-  Te165  1  0.67240211  0.82242491  0.33663343  1
  Te2-  Te166  1  0.66710363  0.82914356  0.65856062  1
  Te2-  Te167  1  -0.00111847  -0.00223901  0.16180185  1
  Te2-  Te168  1  -0.00261329  -0.00285892  0.50706012  1
  Te2-  Te169  1  -0.00398764  0.01951297  0.83057625  1
  Te2-  Te170  1  -0.00069923  0.33552183  0.16422999  1
  Te2-  Te171  1  -0.00754443  0.32858481  0.50604798  1
  Te2-  Te172  1  -0.00481854  0.32098094  0.83213416  1
  Te2-  Te173  1  0.00003869  0.66375490  0.17808494  1
  Te2-  Te174  1  -0.00275463  0.66820721  0.49128106  1
  Te2-  Te175  1  -0.00105157  0.65477521  0.82927955  1
  Te2-  Te176  1  0.32937398  -0.00533643  0.16540887  1
  Te2-  Te177  1  0.33268897  0.00321423  0.50324963  1
  Te2-  Te178  1  0.33580179  0.00078081  0.83066980  1
  Te2-  Te179  1  0.33560090  0.33965099  0.16241800  1
  Te2-  Te180  1  0.33699277  0.32915729  0.50886614  1
  Te2-  Te181  1  0.34104741  0.33029133  0.82136214  1
  Te2-  Te182  1  0.33140569  0.66549629  0.15842101  1
  Te2-  Te183  1  0.33427749  0.66375282  0.50354972  1
  Te2-  Te184  1  0.33385216  0.67292015  0.83167374  1
  Te2-  Te185  1  0.66660655  -0.00458162  0.16535978  1
  Te2-  Te186  1  0.66933471  -0.01186209  0.50320842  1
  Te2-  Te187  1  0.66728551  0.00158909  0.83034128  1
  Te2-  Te188  1  0.66881089  0.33228614  0.16314282  1
  Te2-  Te189  1  0.67161151  0.33546520  0.49343267  1
  Te2-  Te190  1  0.66914394  0.32207517  0.84334214  1
  Te2-  Te191  1  0.67206772  0.66952470  0.16347734  1
  Te2-  Te192  1  0.67072704  0.67680854  0.50253496  1
  Te2-  Te193  1  0.66034309  0.68413585  0.83324079  1
  Pb2+  Pb194  1  0.17996087  0.16601933  0.66520501  1
  Pb2+  Pb195  1  0.33036868  0.16769214  0.16840449  1
  Pb2+  Pb196  1  0.16524641  0.66391945  0.49749077  1
  Pb2+  Pb197  1  0.67092052  0.00095565  -0.00272097  1
  Pb2+  Pb198  1  0.66267178  0.16210877  0.49956541  1
  Pb2+  Pb199  1  0.16144126  0.83398467  0.00830408  1
  Pb2+  Pb200  1  0.17465791  0.49625962  0.33080276  1
  Pb2+  Pb201  1  0.82231122  0.16856381  0.66970606  1
  Pb2+  Pb202  1  -0.00518219  -0.00480996  0.33421594  1
  Pb2+  Pb203  1  0.16621513  -0.00168815  0.82852439  1
  Pb2+  Pb204  1  0.82393828  0.49869602  0.32928779  1
  Pb2+  Pb205  1  0.66407340  0.50561723  0.50705974  1
  Pb2+  Pb206  1  0.33286222  0.00364216  -0.00216721  1
  Pb2+  Pb207  1  0.66261855  0.50080043  0.16584782  1
  Pb2+  Pb208  1  0.00066734  0.49601327  0.49929212  1
  Pb2+  Pb209  1  0.50206368  0.33474032  0.49981861  1
  Pb2+  Pb210  1  0.33588411  0.83424746  0.49896954  1
  Pb2+  Pb211  1  0.82888615  0.66590151  0.83728547  1
  Pb2+  Pb212  1  0.50198572  0.82686522  -0.00618726  1
  Pb2+  Pb213  1  0.33976364  -0.00134155  0.33515429  1
  Pb2+  Pb214  1  0.16206138  0.49913890  0.66618854  1
  Pb2+  Pb215  1  0.16721547  0.83529751  0.66121137  1
