# generated using pymatgen
data_In22Ag21Sn22Bi21(Te54Pb11)2
_symmetry_space_group_name_H-M   'P 1'
_cell_length_a   19.14426944
_cell_length_b   19.14318735
_cell_length_c   19.17410482
_cell_angle_alpha   90.00104658
_cell_angle_beta   89.97456502
_cell_angle_gamma   90.01378095
_symmetry_Int_Tables_number   1
_chemical_formula_structural   In22Ag21Sn22Bi21(Te54Pb11)2
_chemical_formula_sum   'In22 Ag21 Sn22 Bi21 Te108 Pb22'
_cell_volume   7026.96983724
_cell_formula_units_Z   1
loop_
 _symmetry_equiv_pos_site_id
 _symmetry_equiv_pos_as_xyz
  1  'x, y, z'
loop_
 _atom_type_symbol
 _atom_type_oxidation_number
  In3+  3.0
  Ag+  1.0
  Sn2+  2.0
  Bi3+  3.0
  Te2-  -2.0
  Pb2+  2.0
loop_
 _atom_site_type_symbol
 _atom_site_label
 _atom_site_symmetry_multiplicity
 _atom_site_fract_x
 _atom_site_fract_y
 _atom_site_fract_z
 _atom_site_occupancy
  In3+  In0  1  0.33201772  0.65157094  0.00945643  1
  In3+  In1  1  0.32359815  0.00559039  -0.00555430  1
  In3+  In2  1  0.00320718  0.83913043  0.84668704  1
  In3+  In3  1  0.33230306  0.34893949  0.66549107  1
  In3+  In4  1  0.00463185  -0.00302823  0.67805553  1
  In3+  In5  1  0.53214508  0.49940420  0.00727972  1
  In3+  In6  1  0.82514413  0.83906093  0.32522024  1
  In3+  In7  1  0.31469934  0.34373177  0.32644642  1
  In3+  In8  1  0.83086491  0.65973292  0.16989554  1
  In3+  In9  1  0.67317934  0.34261930  0.31949622  1
  In3+  In10  1  0.67920383  0.32548869  0.67079980  1
  In3+  In11  1  0.33640086  0.83161266  0.14820792  1
  In3+  In12  1  0.67889083  0.84484540  0.82712395  1
  In3+  In13  1  -0.01294109  0.01302160  -0.00311980  1
  In3+  In14  1  0.16821288  0.14748314  0.32523739  1
  In3+  In15  1  0.83120336  0.83490804  0.66383168  1
  In3+  In16  1  0.15917330  0.81718257  0.33059022  1
  In3+  In17  1  0.51085134  0.33297427  0.48479557  1
  In3+  In18  1  0.49857965  0.83342899  0.35976154  1
  In3+  In19  1  0.83591899  0.83522518  0.01721173  1
  In3+  In20  1  0.35183617  0.83387184  0.83780217  1
  In3+  In21  1  0.66937441  0.83285017  0.49645316  1
  Ag+  Ag22  1  0.84376968  0.47093734  0.02330183  1
  Ag+  Ag23  1  0.83345769  -0.02252884  0.84681959  1
  Ag+  Ag24  1  0.83072680  0.69115393  0.47205709  1
  Ag+  Ag25  1  0.68600106  -0.00103888  0.35537576  1
  Ag+  Ag26  1  0.67685634  0.14719735  0.85965221  1
  Ag+  Ag27  1  0.80459337  0.13527971  0.68346191  1
  Ag+  Ag28  1  0.19380171  0.52954091  0.69923081  1
  Ag+  Ag29  1  -0.02168693  0.00838129  0.29909493  1
  Ag+  Ag30  1  0.83558721  0.36051024  0.13362743  1
  Ag+  Ag31  1  0.66514635  0.35988144  0.02089930  1
  Ag+  Ag32  1  0.19138971  0.50635171  0.30635371  1
  Ag+  Ag33  1  0.86396026  0.00547835  0.19367160  1
  Ag+  Ag34  1  0.29899067  0.47712686  0.16935344  1
  Ag+  Ag35  1  0.83231279  0.47538118  0.31342534  1
  Ag+  Ag36  1  0.18774937  0.67519345  0.16611588  1
  Ag+  Ag37  1  0.49708305  0.14192099  -0.01963258  1
  Ag+  Ag38  1  -0.02459431  0.66905158  0.01823431  1
  Ag+  Ag39  1  0.36257709  -0.00027970  0.69413363  1
  Ag+  Ag40  1  0.66832723  0.47203545  0.19187028  1
  Ag+  Ag41  1  0.18533138  -0.00167512  0.85615961  1
  Ag+  Ag42  1  0.47588537  0.86376017  0.66808384  1
  Sn2+  Sn43  1  0.16735427  0.83655401  0.67321556  1
  Sn2+  Sn44  1  0.51136901  0.33535499  0.16099776  1
  Sn2+  Sn45  1  0.66863418  0.66201371  -0.00350502  1
  Sn2+  Sn46  1  0.32368491  0.49965787  0.49004741  1
  Sn2+  Sn47  1  0.83132569  0.33976779  0.49734699  1
  Sn2+  Sn48  1  0.16214845  0.82476480  -0.00299302  1
  Sn2+  Sn49  1  0.16805376  -0.00653583  0.16373880  1
  Sn2+  Sn50  1  0.67104541  0.50158478  0.49695477  1
  Sn2+  Sn51  1  0.16640482  0.31299850  0.82916669  1
  Sn2+  Sn52  1  0.49838788  0.16937312  0.67706402  1
  Sn2+  Sn53  1  -0.00275862  0.50818974  0.83401598  1
  Sn2+  Sn54  1  0.83736337  0.00581408  0.50612647  1
  Sn2+  Sn55  1  0.32585097  0.50545167  0.84757474  1
  Sn2+  Sn56  1  0.83479642  0.66739512  0.83873133  1
  Sn2+  Sn57  1  0.50048191  0.15888915  0.32796801  1
  Sn2+  Sn58  1  0.00423625  0.66420442  0.33188439  1
  Sn2+  Sn59  1  0.15309327  0.66034948  0.49570954  1
  Sn2+  Sn60  1  -0.01244137  0.16900403  0.17011368  1
  Sn2+  Sn61  1  0.49655744  0.49608084  0.66843210  1
  Sn2+  Sn62  1  -0.00314313  0.33161925  0.32792373  1
  Sn2+  Sn63  1  0.16291009  0.67296716  0.84172355  1
  Sn2+  Sn64  1  0.67771602  0.00092747  0.66466764  1
  Bi3+  Bi65  1  0.50044408  0.00125386  0.16607599  1
  Bi3+  Bi66  1  0.67033081  0.66739982  0.66654576  1
  Bi3+  Bi67  1  0.83271429  0.33472199  0.82936426  1
  Bi3+  Bi68  1  -0.01120490  0.50121307  0.16919847  1
  Bi3+  Bi69  1  0.66350799  -0.00283353  0.00048593  1
  Bi3+  Bi70  1  0.66458533  0.50242660  0.82609281  1
  Bi3+  Bi71  1  0.16551211  -0.00267945  0.49716147  1
  Bi3+  Bi72  1  0.15783372  0.50353217  -0.00099982  1
  Bi3+  Bi73  1  0.50000398  0.33599774  0.83113732  1
  Bi3+  Bi74  1  -0.00019413  0.16194446  0.49829714  1
  Bi3+  Bi75  1  -0.00358313  0.50101922  0.49747820  1
  Bi3+  Bi76  1  0.16837444  0.16187633  0.66482168  1
  Bi3+  Bi77  1  0.67052360  0.16462405  0.49749204  1
  Bi3+  Bi78  1  -0.00148109  0.83454834  0.49679740  1
  Bi3+  Bi79  1  0.66721076  0.16378991  0.16787729  1
  Bi3+  Bi80  1  0.33276621  0.00172072  0.33389671  1
  Bi3+  Bi81  1  0.66183335  0.83945746  0.16506766  1
  Bi3+  Bi82  1  0.33167513  0.83087985  0.50254529  1
  Bi3+  Bi83  1  0.16792709  0.33840088  0.49886452  1
  Bi3+  Bi84  1  -0.00063667  0.66787794  0.66467137  1
  Bi3+  Bi85  1  0.83496058  0.50397871  0.66845013  1
  Te2-  Te86  1  0.16116470  0.17022275  0.17117092  1
  Te2-  Te87  1  0.16320036  0.16923429  0.49318611  1
  Te2-  Te88  1  0.16339037  0.15133172  0.83017272  1
  Te2-  Te89  1  0.15237492  0.50653805  0.16302737  1
  Te2-  Te90  1  0.15890220  0.50026175  0.50175005  1
  Te2-  Te91  1  0.16650997  0.49821496  0.83821039  1
  Te2-  Te92  1  0.17308699  0.82426545  0.17063731  1
  Te2-  Te93  1  0.16496993  0.82894954  0.49546132  1
  Te2-  Te94  1  0.15472933  0.84797610  0.83352868  1
  Te2-  Te95  1  0.50324186  0.16707317  0.16851348  1
  Te2-  Te96  1  0.50428429  0.17597846  0.49867126  1
  Te2-  Te97  1  0.51117206  0.17377067  0.83718993  1
  Te2-  Te98  1  0.52274111  0.49507933  0.16137973  1
  Te2-  Te99  1  0.49660928  0.48903259  0.49917990  1
  Te2-  Te100  1  0.49600712  0.49753883  0.83801829  1
  Te2-  Te101  1  0.49653410  0.83549945  0.16319963  1
  Te2-  Te102  1  0.49701336  0.83250924  0.51748587  1
  Te2-  Te103  1  0.50319474  0.83567758  0.81860674  1
  Te2-  Te104  1  0.83177148  0.15016621  0.16690627  1
  Te2-  Te105  1  0.83510274  0.16955609  0.50737874  1
  Te2-  Te106  1  0.82007711  0.17397423  0.82425759  1
  Te2-  Te107  1  0.82167566  0.50673840  0.16680967  1
  Te2-  Te108  1  0.83533321  0.49984532  0.50730238  1
  Te2-  Te109  1  0.83143405  0.49995448  0.83007539  1
  Te2-  Te110  1  0.82949598  0.85511873  0.16951920  1
  Te2-  Te111  1  0.83272052  0.83605025  0.50190275  1
  Te2-  Te112  1  0.83352276  0.83075438  0.82218407  1
  Te2-  Te113  1  0.16729820  -0.00437010  0.00239140  1
  Te2-  Te114  1  0.16999160  -0.00730511  0.33352228  1
  Te2-  Te115  1  0.15847385  0.00005506  0.65877958  1
  Te2-  Te116  1  0.16808515  0.33586881  -0.00291557  1
  Te2-  Te117  1  0.16331440  0.35425463  0.33548802  1
  Te2-  Te118  1  0.17518228  0.32681867  0.66354348  1
  Te2-  Te119  1  0.17495050  0.66527056  0.00911375  1
  Te2-  Te120  1  0.16385181  0.65860911  0.32452016  1
  Te2-  Te121  1  0.16173685  0.66771656  0.66667820  1
  Te2-  Te122  1  0.49567651  -0.00504047  0.00181203  1
  Te2-  Te123  1  0.49425442  -0.00485585  0.32891614  1
  Te2-  Te124  1  0.50753094  0.00795809  0.66669643  1
  Te2-  Te125  1  0.51424179  0.34527129  -0.00162007  1
  Te2-  Te126  1  0.51668487  0.32772219  0.33122470  1
  Te2-  Te127  1  0.48641640  0.33124394  0.66777825  1
  Te2-  Te128  1  0.49099436  0.65793942  -0.00035617  1
  Te2-  Te129  1  0.50178758  0.66961983  0.33662301  1
  Te2-  Te130  1  0.50457259  0.65952083  0.66559696  1
  Te2-  Te131  1  0.83377299  -0.00867790  -0.00540191  1
  Te2-  Te132  1  0.83631817  -0.00821313  0.34040882  1
  Te2-  Te133  1  0.83902277  -0.00640526  0.66610276  1
  Te2-  Te134  1  0.82286320  0.32782776  -0.00978917  1
  Te2-  Te135  1  0.82536133  0.32995769  0.33813811  1
  Te2-  Te136  1  0.83433998  0.33888376  0.66562880  1
  Te2-  Te137  1  0.82936441  0.68064487  -0.00035684  1
  Te2-  Te138  1  0.83562523  0.68388272  0.32526508  1
  Te2-  Te139  1  0.83400470  0.66838705  0.66833661  1
  Te2-  Te140  1  -0.00131155  0.16566842  -0.00018933  1
  Te2-  Te141  1  0.00563323  0.15507792  0.33381717  1
  Te2-  Te142  1  0.00408976  0.16069738  0.66082989  1
  Te2-  Te143  1  -0.00990077  0.51196749  0.00130650  1
  Te2-  Te144  1  -0.01890849  0.50050935  0.33433756  1
  Te2-  Te145  1  0.00026805  0.50360434  0.66422481  1
  Te2-  Te146  1  -0.00715929  0.81905625  -0.00261308  1
  Te2-  Te147  1  0.00497860  0.83868714  0.33543352  1
  Te2-  Te148  1  -0.00368577  0.83376288  0.65837314  1
  Te2-  Te149  1  0.34356217  0.16271242  -0.00234922  1
  Te2-  Te150  1  0.32861345  0.16793811  0.33482289  1
  Te2-  Te151  1  0.33100863  0.14738809  0.66749229  1
  Te2-  Te152  1  0.32492751  0.50113830  0.01538425  1
  Te2-  Te153  1  0.33824613  0.49725218  0.31843022  1
  Te2-  Te154  1  0.33237627  0.50124487  0.66711829  1
  Te2-  Te155  1  0.33127738  0.84069013  -0.00507816  1
  Te2-  Te156  1  0.33538950  0.83709849  0.34139821  1
  Te2-  Te157  1  0.32970600  0.84336321  0.66781311  1
  Te2-  Te158  1  0.65238761  0.15813638  0.00440225  1
  Te2-  Te159  1  0.66510495  0.14903180  0.33632829  1
  Te2-  Te160  1  0.66537878  0.17156184  0.65800596  1
  Te2-  Te161  1  0.68390962  0.50383828  -0.01025693  1
  Te2-  Te162  1  0.68070203  0.49934480  0.33834845  1
  Te2-  Te163  1  0.66639970  0.50189667  0.66273003  1
  Te2-  Te164  1  0.67040718  0.83368662  -0.00596435  1
  Te2-  Te165  1  0.66593113  0.84774679  0.33406734  1
  Te2-  Te166  1  0.67276025  0.82957262  0.66716060  1
  Te2-  Te167  1  0.00870430  -0.00065240  0.15411891  1
  Te2-  Te168  1  0.00457274  -0.00148186  0.49992678  1
  Te2-  Te169  1  -0.01583196  -0.00721758  0.83650550  1
  Te2-  Te170  1  -0.01730455  0.33597637  0.16832374  1
  Te2-  Te171  1  0.00251859  0.33074209  0.49414400  1
  Te2-  Te172  1  0.00158142  0.33470548  0.83170252  1
  Te2-  Te173  1  -0.01403155  0.66506627  0.16645022  1
  Te2-  Te174  1  -0.01440499  0.66874493  0.49959255  1
  Te2-  Te175  1  0.00456612  0.67393805  0.82626335  1
  Te2-  Te176  1  0.33472385  -0.00656556  0.16852465  1
  Te2-  Te177  1  0.32875823  -0.00427948  0.49731616  1
  Te2-  Te178  1  0.33203701  -0.01014790  0.83806833  1
  Te2-  Te179  1  0.33711020  0.33438786  0.17363939  1
  Te2-  Te180  1  0.33005743  0.33935653  0.49347627  1
  Te2-  Te181  1  0.33303669  0.33663625  0.83055416  1
  Te2-  Te182  1  0.33553499  0.67698109  0.16260836  1
  Te2-  Te183  1  0.32874178  0.66581463  0.50130732  1
  Te2-  Te184  1  0.32484101  0.67560399  0.83879309  1
  Te2-  Te185  1  0.66286811  -0.00050973  0.16252561  1
  Te2-  Te186  1  0.66623782  -0.00400818  0.50299728  1
  Te2-  Te187  1  0.68002119  -0.00057617  0.83421622  1
  Te2-  Te188  1  0.68251298  0.32605104  0.16478684  1
  Te2-  Te189  1  0.66312188  0.33081727  0.50740792  1
  Te2-  Te190  1  0.66281513  0.34116543  0.82399070  1
  Te2-  Te191  1  0.67478781  0.68054662  0.16335009  1
  Te2-  Te192  1  0.67951501  0.67695083  0.50168582  1
  Te2-  Te193  1  0.66563761  0.66642473  0.82987859  1
  Pb2+  Pb194  1  0.49747898  0.00316245  0.49842611  1
  Pb2+  Pb195  1  0.50900558  0.00454332  0.83320194  1
  Pb2+  Pb196  1  -0.01476856  0.16355315  0.82843581  1
  Pb2+  Pb197  1  0.82081555  0.16186017  -0.00526420  1
  Pb2+  Pb198  1  0.33409835  0.17035996  0.50464038  1
  Pb2+  Pb199  1  0.16888421  0.16536355  -0.00074027  1
  Pb2+  Pb200  1  0.33637149  0.16680640  0.82989858  1
  Pb2+  Pb201  1  0.83456606  0.16408336  0.33510368  1
  Pb2+  Pb202  1  0.66973114  0.67470210  0.33193307  1
  Pb2+  Pb203  1  0.15866792  0.33986288  0.16686389  1
  Pb2+  Pb204  1  0.33095889  0.67004564  0.33375743  1
  Pb2+  Pb205  1  0.00371997  0.83000982  0.16749484  1
  Pb2+  Pb206  1  0.50218632  0.82738057  -0.00499395  1
  Pb2+  Pb207  1  0.34485086  0.33634501  0.00258738  1
  Pb2+  Pb208  1  0.50544988  0.66325402  0.16759856  1
  Pb2+  Pb209  1  0.33224896  0.16316212  0.16710132  1
  Pb2+  Pb210  1  0.49669095  0.66567175  0.83153877  1
  Pb2+  Pb211  1  0.50778584  0.49556592  0.32946047  1
  Pb2+  Pb212  1  0.00439809  0.33266054  0.66278740  1
  Pb2+  Pb213  1  0.50631216  0.66095493  0.50255364  1
  Pb2+  Pb214  1  0.33294925  0.67636884  0.66896893  1
  Pb2+  Pb215  1  -0.00513562  0.34236266  -0.00141833  1
