# generated using pymatgen
data_In22Ag21Sn22Bi21(Te54Pb11)2
_symmetry_space_group_name_H-M   'P 1'
_cell_length_a   19.18634306
_cell_length_b   19.20069052
_cell_length_c   19.21571316
_cell_angle_alpha   89.98798163
_cell_angle_beta   89.98516007
_cell_angle_gamma   89.99473179
_symmetry_Int_Tables_number   1
_chemical_formula_structural   In22Ag21Sn22Bi21(Te54Pb11)2
_chemical_formula_sum   'In22 Ag21 Sn22 Bi21 Te108 Pb22'
_cell_volume   7078.89603963
_cell_formula_units_Z   1
loop_
 _symmetry_equiv_pos_site_id
 _symmetry_equiv_pos_as_xyz
  1  'x, y, z'
loop_
 _atom_type_symbol
 _atom_type_oxidation_number
  In3+  3.0
  Ag+  1.0
  Sn2+  2.0
  Bi3+  3.0
  Te2-  -2.0
  Pb2+  2.0
loop_
 _atom_site_type_symbol
 _atom_site_label
 _atom_site_symmetry_multiplicity
 _atom_site_fract_x
 _atom_site_fract_y
 _atom_site_fract_z
 _atom_site_occupancy
  In3+  In0  1  0.15979357  0.35069735  0.50146377  1
  In3+  In1  1  0.83680082  -0.00727429  0.49822727  1
  In3+  In2  1  0.67130587  0.15489099  0.51970246  1
  In3+  In3  1  -0.00966177  0.49299904  0.50101773  1
  In3+  In4  1  0.83938040  0.68970151  0.81188651  1
  In3+  In5  1  0.17142557  0.84384969  -0.01800724  1
  In3+  In6  1  0.50135269  0.17818788  0.32511073  1
  In3+  In7  1  -0.00080477  0.69519747  0.33293762  1
  In3+  In8  1  0.81544589  0.50631394  -0.01581897  1
  In3+  In9  1  0.35775165  0.49743786  0.50456861  1
  In3+  In10  1  0.35020668  0.69332548  0.66452445  1
  In3+  In11  1  0.64665216  0.67282416  -0.01601348  1
  In3+  In12  1  0.68041515  0.32730067  0.34704109  1
  In3+  In13  1  0.82797620  0.16538485  0.64924218  1
  In3+  In14  1  0.51207895  0.32602362  0.50444250  1
  In3+  In15  1  0.18435455  0.01454634  0.16511476  1
  In3+  In16  1  0.68459015  -0.00581750  -0.02862066  1
  In3+  In17  1  0.33455403  0.49864401  0.14288397  1
  In3+  In18  1  0.17642934  0.66708545  0.15077663  1
  In3+  In19  1  0.31990139  -0.00539549  0.34442577  1
  In3+  In20  1  -0.01174536  0.01797554  -0.00216337  1
  In3+  In21  1  0.18133270  0.16499201  0.65933650  1
  Ag+  Ag22  1  -0.02557110  0.00553994  0.35496958  1
  Ag+  Ag23  1  0.29652706  -0.00991104  0.64123304  1
  Ag+  Ag24  1  0.84203728  0.69063554  0.52046750  1
  Ag+  Ag25  1  0.35578944  0.69748139  0.04022035  1
  Ag+  Ag26  1  0.47052511  0.49424884  0.30980857  1
  Ag+  Ag27  1  0.47798511  0.47623181  0.67207943  1
  Ag+  Ag28  1  0.19383634  0.00578053  0.52748444  1
  Ag+  Ag29  1  0.83320928  -0.02292084  0.14823583  1
  Ag+  Ag30  1  0.64837697  0.33199468  0.64728932  1
  Ag+  Ag31  1  0.81497325  0.15357894  0.31337819  1
  Ag+  Ag32  1  0.19105610  0.00013432  0.81435267  1
  Ag+  Ag33  1  0.47458676  0.87009450  0.30929026  1
  Ag+  Ag34  1  0.83653259  -0.00972031  0.80235954  1
  Ag+  Ag35  1  0.64400004  0.69111273  0.69060441  1
  Ag+  Ag36  1  0.36405924  0.81546431  0.80184966  1
  Ag+  Ag37  1  0.83432001  0.86734654  0.68946031  1
  Ag+  Ag38  1  0.85718791  0.32867351  0.52442712  1
  Ag+  Ag39  1  0.30194222  0.86156256  0.14379233  1
  Ag+  Ag40  1  0.47958940  0.13613136  0.64985915  1
  Ag+  Ag41  1  0.30475025  0.30674369  -0.02840327  1
  Ag+  Ag42  1  0.65797014  -0.01984153  0.66710040  1
  Sn2+  Sn43  1  -0.00196877  0.50203197  0.17217602  1
  Sn2+  Sn44  1  -0.00900358  0.15890602  0.50104312  1
  Sn2+  Sn45  1  0.00066802  0.33377703  -0.00443634  1
  Sn2+  Sn46  1  0.49602499  0.49219643  -0.00829732  1
  Sn2+  Sn47  1  0.33307818  0.82761573  0.49863854  1
  Sn2+  Sn48  1  -0.00494419  -0.00563885  0.67072347  1
  Sn2+  Sn49  1  0.83943648  0.66949363  0.16711240  1
  Sn2+  Sn50  1  0.66670488  0.49974793  0.17448460  1
  Sn2+  Sn51  1  0.84048525  0.32108075  0.83086598  1
  Sn2+  Sn52  1  0.15861146  0.15948905  0.35001297  1
  Sn2+  Sn53  1  0.50241964  0.16788071  -0.01680615  1
  Sn2+  Sn54  1  0.32869346  0.51327297  0.83032865  1
  Sn2+  Sn55  1  0.67019241  0.15767955  0.17732185  1
  Sn2+  Sn56  1  0.82853561  0.17126803  0.00381166  1
  Sn2+  Sn57  1  0.17624118  0.49638798  0.66635960  1
  Sn2+  Sn58  1  0.00313293  0.84136514  0.83270848  1
  Sn2+  Sn59  1  0.51382535  0.84074532  0.66238270  1
  Sn2+  Sn60  1  0.16009001  0.67633278  0.50396867  1
  Sn2+  Sn61  1  -0.00127106  0.15722520  0.82424764  1
  Sn2+  Sn62  1  -0.00666807  0.15622416  0.17497725  1
  Sn2+  Sn63  1  0.00930053  0.84289465  0.16158085  1
  Sn2+  Sn64  1  0.17455598  0.32032532  0.83306085  1
  Bi3+  Bi65  1  0.83364006  0.33680333  0.16567023  1
  Bi3+  Bi66  1  0.83426399  0.49279768  0.66594357  1
  Bi3+  Bi67  1  0.66565307  0.49944174  0.82944188  1
  Bi3+  Bi68  1  0.00244422  0.66248986  0.00618878  1
  Bi3+  Bi69  1  0.83359219  0.49651490  0.33354000  1
  Bi3+  Bi70  1  0.16891019  0.83349855  0.33691812  1
  Bi3+  Bi71  1  0.66583216  0.82937229  0.49870837  1
  Bi3+  Bi72  1  0.51050009  0.66385958  0.49941814  1
  Bi3+  Bi73  1  0.67265016  0.50181366  0.50730651  1
  Bi3+  Bi74  1  0.33400908  -0.00133254  -0.00072468  1
  Bi3+  Bi75  1  0.66610484  0.33184389  0.00382421  1
  Bi3+  Bi76  1  0.66969541  0.83098836  0.17098784  1
  Bi3+  Bi77  1  0.67215517  0.17060063  0.83411044  1
  Bi3+  Bi78  1  0.16918384  0.50125565  -0.00256707  1
  Bi3+  Bi79  1  0.33375603  0.33135044  0.33857904  1
  Bi3+  Bi80  1  -0.00031650  0.83519236  0.50043287  1
  Bi3+  Bi81  1  0.33286286  0.16160863  0.83484077  1
  Bi3+  Bi82  1  0.66705636  0.00190585  0.33968277  1
  Bi3+  Bi83  1  -0.00113202  0.66675211  0.66124560  1
  Bi3+  Bi84  1  0.67199793  0.65937373  0.33530499  1
  Bi3+  Bi85  1  -0.00392815  0.32037784  0.33135569  1
  Te2-  Te86  1  0.16461945  0.16447177  0.16776764  1
  Te2-  Te87  1  0.16412211  0.15110780  0.50628086  1
  Te2-  Te88  1  0.16932995  0.15543740  0.82567010  1
  Te2-  Te89  1  0.16933286  0.50543048  0.16446623  1
  Te2-  Te90  1  0.15062360  0.50213087  0.50312938  1
  Te2-  Te91  1  0.16774914  0.49657864  0.83308032  1
  Te2-  Te92  1  0.16751246  0.81785231  0.17718115  1
  Te2-  Te93  1  0.16376947  0.84608299  0.49785083  1
  Te2-  Te94  1  0.16177455  0.84956765  0.83086043  1
  Te2-  Te95  1  0.50423724  0.16924863  0.17201533  1
  Te2-  Te96  1  0.51263349  0.17187348  0.51141692  1
  Te2-  Te97  1  0.50410053  0.16871377  0.82485472  1
  Te2-  Te98  1  0.49672060  0.50030538  0.16479469  1
  Te2-  Te99  1  0.50949801  0.50221603  0.52004569  1
  Te2-  Te100  1  0.50197349  0.50076578  0.82144910  1
  Te2-  Te101  1  0.50624584  0.83168256  0.17264321  1
  Te2-  Te102  1  0.50186949  0.82446624  0.50040510  1
  Te2-  Te103  1  0.50406256  0.83305780  0.83483301  1
  Te2-  Te104  1  0.82903485  0.17479183  0.16783305  1
  Te2-  Te105  1  0.82232217  0.18334637  0.50028290  1
  Te2-  Te106  1  0.83250638  0.16436761  0.84492995  1
  Te2-  Te107  1  0.83299974  0.49952641  0.17020356  1
  Te2-  Te108  1  0.83640360  0.48314552  0.49875564  1
  Te2-  Te109  1  0.83184265  0.49328390  0.83205447  1
  Te2-  Te110  1  0.83590585  0.83077121  0.16856883  1
  Te2-  Te111  1  0.83373232  0.83574375  0.50015496  1
  Te2-  Te112  1  0.83459208  0.84276938  0.83417600  1
  Te2-  Te113  1  0.16227085  -0.00533287  0.01282210  1
  Te2-  Te114  1  0.17009356  -0.00245734  0.31898531  1
  Te2-  Te115  1  0.15261737  0.00590541  0.67173760  1
  Te2-  Te116  1  0.16691462  0.33685638  0.00190975  1
  Te2-  Te117  1  0.16139382  0.32578688  0.34188184  1
  Te2-  Te118  1  0.16489225  0.32372639  0.66315019  1
  Te2-  Te119  1  0.16752722  0.66507470  -0.00262389  1
  Te2-  Te120  1  0.16031315  0.66902034  0.34628438  1
  Te2-  Te121  1  0.16021760  0.66590477  0.66377761  1
  Te2-  Te122  1  0.49925418  0.00309084  0.00323518  1
  Te2-  Te123  1  0.50597009  0.01051915  0.33725984  1
  Te2-  Te124  1  0.51214380  -0.00441394  0.66788510  1
  Te2-  Te125  1  0.50404671  0.33396909  0.00306550  1
  Te2-  Te126  1  0.49247166  0.34500753  0.34947506  1
  Te2-  Te127  1  0.50057372  0.33200653  0.65593939  1
  Te2-  Te128  1  0.49249381  0.66394997  -0.00068406  1
  Te2-  Te129  1  0.50627341  0.64508924  0.34109812  1
  Te2-  Te130  1  0.50296136  0.67325386  0.66164086  1
  Te2-  Te131  1  0.83329566  -0.00014002  0.00336318  1
  Te2-  Te132  1  0.82730753  0.00993193  0.34453009  1
  Te2-  Te133  1  0.83128235  0.01073404  0.65517047  1
  Te2-  Te134  1  0.83220249  0.34490132  0.00291147  1
  Te2-  Te135  1  0.83304149  0.33091281  0.32883333  1
  Te2-  Te136  1  0.83566070  0.32960321  0.67109610  1
  Te2-  Te137  1  0.84071386  0.65759808  0.00181453  1
  Te2-  Te138  1  0.83908490  0.65920211  0.33326086  1
  Te2-  Te139  1  0.83810792  0.65453818  0.66256458  1
  Te2-  Te140  1  0.00003385  0.16943341  -0.00058620  1
  Te2-  Te141  1  -0.00605074  0.15752552  0.33340640  1
  Te2-  Te142  1  -0.01638965  0.16221925  0.66794730  1
  Te2-  Te143  1  0.00579403  0.50169009  0.00485783  1
  Te2-  Te144  1  -0.00329749  0.48717605  0.34027055  1
  Te2-  Te145  1  0.00181923  0.50192904  0.66267051  1
  Te2-  Te146  1  0.01028764  0.82189378  0.00090413  1
  Te2-  Te147  1  0.00194148  0.85191162  0.33489814  1
  Te2-  Te148  1  -0.01737625  0.82781664  0.66441106  1
  Te2-  Te149  1  0.33544496  0.16655693  0.00106177  1
  Te2-  Te150  1  0.33285504  0.16736593  0.33667614  1
  Te2-  Te151  1  0.33465400  0.15139899  0.67038194  1
  Te2-  Te152  1  0.33053803  0.50253223  -0.00870281  1
  Te2-  Te153  1  0.32985342  0.49632526  0.35275779  1
  Te2-  Te154  1  0.33140524  0.50035149  0.66234488  1
  Te2-  Te155  1  0.32307015  0.83446934  0.00138313  1
  Te2-  Te156  1  0.33418136  0.83922118  0.33517058  1
  Te2-  Te157  1  0.33273410  0.84623452  0.66266881  1
  Te2-  Te158  1  0.66270016  0.16595699  0.00093508  1
  Te2-  Te159  1  0.66872024  0.16920940  0.33897612  1
  Te2-  Te160  1  0.67637382  0.18308436  0.67006256  1
  Te2-  Te161  1  0.66182629  0.50230203  -0.00159300  1
  Te2-  Te162  1  0.67070340  0.49375816  0.33840824  1
  Te2-  Te163  1  0.67409900  0.48464923  0.66928059  1
  Te2-  Te164  1  0.66899381  0.83438628  0.00601801  1
  Te2-  Te165  1  0.66413927  0.83032539  0.33572185  1
  Te2-  Te166  1  0.68139378  0.83081845  0.66082366  1
  Te2-  Te167  1  -0.01557456  -0.00038643  0.15084957  1
  Te2-  Te168  1  -0.00749791  -0.00296038  0.50123516  1
  Te2-  Te169  1  -0.01466365  -0.00099098  0.84426976  1
  Te2-  Te170  1  -0.00172742  0.33263100  0.16908692  1
  Te2-  Te171  1  0.00349288  0.32522486  0.49411117  1
  Te2-  Te172  1  0.00742097  0.32902707  0.83646278  1
  Te2-  Te173  1  0.00592271  0.66534151  0.17259956  1
  Te2-  Te174  1  -0.00930699  0.67299859  0.49559876  1
  Te2-  Te175  1  -0.00558680  0.66866522  0.83398853  1
  Te2-  Te176  1  0.33736575  0.00086159  0.16528817  1
  Te2-  Te177  1  0.33715381  -0.00053881  0.49713871  1
  Te2-  Te178  1  0.33458119  0.00325512  0.84198794  1
  Te2-  Te179  1  0.33299198  0.34428090  0.17584630  1
  Te2-  Te180  1  0.31603961  0.33766077  0.49980041  1
  Te2-  Te181  1  0.33330512  0.32933424  0.83151807  1
  Te2-  Te182  1  0.32963139  0.65218109  0.17606257  1
  Te2-  Te183  1  0.33288469  0.66148702  0.51191929  1
  Te2-  Te184  1  0.32862977  0.67406759  0.81774008  1
  Te2-  Te185  1  0.68229340  -0.00492484  0.17803030  1
  Te2-  Te186  1  0.67370779  -0.00210814  0.50757387  1
  Te2-  Te187  1  0.68171475  0.00809419  0.81895840  1
  Te2-  Te188  1  0.66965509  0.33310867  0.16521374  1
  Te2-  Te189  1  0.66565803  0.33865993  0.49876041  1
  Te2-  Te190  1  0.67259513  0.33497079  0.84348228  1
  Te2-  Te191  1  0.67165345  0.66635585  0.17189251  1
  Te2-  Te192  1  0.67900083  0.66566356  0.49611002  1
  Te2-  Te193  1  0.67877920  0.66173872  0.83006137  1
  Pb2+  Pb194  1  0.50174070  0.00179166  0.83434368  1
  Pb2+  Pb195  1  0.50469478  0.33442081  0.82978680  1
  Pb2+  Pb196  1  0.16333336  0.67377293  0.83183292  1
  Pb2+  Pb197  1  0.49648286  0.83609259  0.00690028  1
  Pb2+  Pb198  1  0.66775675  0.83707498  0.82864900  1
  Pb2+  Pb199  1  0.50187973  0.33598337  0.17702022  1
  Pb2+  Pb200  1  0.16632964  0.33413846  0.17167652  1
  Pb2+  Pb201  1  0.51385686  0.00032220  0.16987235  1
  Pb2+  Pb202  1  0.16486957  0.49881822  0.33361834  1
  Pb2+  Pb203  1  0.33664622  0.66798010  0.34390009  1
  Pb2+  Pb204  1  0.16612164  0.16161166  -0.00662939  1
  Pb2+  Pb205  1  0.50300869  0.66684519  0.17495000  1
  Pb2+  Pb206  1  0.83118227  0.83511821  0.33491207  1
  Pb2+  Pb207  1  0.83960833  0.82701817  0.00071006  1
  Pb2+  Pb208  1  -0.00086158  0.32889460  0.66665019  1
  Pb2+  Pb209  1  0.33635149  0.32777771  0.66541321  1
  Pb2+  Pb210  1  0.49788330  0.66585702  0.83075993  1
  Pb2+  Pb211  1  -0.00056311  0.49942085  0.83516888  1
  Pb2+  Pb212  1  0.33721221  0.16946900  0.50078468  1
  Pb2+  Pb213  1  0.33531568  0.17267128  0.17093588  1
  Pb2+  Pb214  1  0.15882398  0.83408343  0.66492487  1
  Pb2+  Pb215  1  0.50482677  -0.00243896  0.50257797  1
