# generated using pymatgen
data_In22Ag21Sn22Bi21(Te54Pb11)2
_symmetry_space_group_name_H-M   'P 1'
_cell_length_a   19.13015477
_cell_length_b   19.13257688
_cell_length_c   19.12555452
_cell_angle_alpha   90.00175087
_cell_angle_beta   89.99364121
_cell_angle_gamma   89.97729428
_symmetry_Int_Tables_number   1
_chemical_formula_structural   In22Ag21Sn22Bi21(Te54Pb11)2
_chemical_formula_sum   'In22 Ag21 Sn22 Bi21 Te108 Pb22'
_cell_volume   7000.12748964
_cell_formula_units_Z   1
loop_
 _symmetry_equiv_pos_site_id
 _symmetry_equiv_pos_as_xyz
  1  'x, y, z'
loop_
 _atom_type_symbol
 _atom_type_oxidation_number
  In3+  3.0
  Ag+  1.0
  Sn2+  2.0
  Bi3+  3.0
  Te2-  -2.0
  Pb2+  2.0
loop_
 _atom_site_type_symbol
 _atom_site_label
 _atom_site_symmetry_multiplicity
 _atom_site_fract_x
 _atom_site_fract_y
 _atom_site_fract_z
 _atom_site_occupancy
  In3+  In0  1  -0.00017200  0.49499180  0.17207822  1
  In3+  In1  1  0.17601105  0.50760923  -0.00074252  1
  In3+  In2  1  0.66635113  0.15771012  0.15299669  1
  In3+  In3  1  0.50846885  0.17910767  0.66429310  1
  In3+  In4  1  0.65751452  0.16745725  0.50008277  1
  In3+  In5  1  0.17935121  0.17645580  0.33900821  1
  In3+  In6  1  0.35332179  0.82171101  0.83039511  1
  In3+  In7  1  0.16384436  0.00684770  0.49587740  1
  In3+  In8  1  0.31411093  0.50527407  0.16301936  1
  In3+  In9  1  0.85658686  0.66519498  0.49357938  1
  In3+  In10  1  0.16683198  0.48700305  0.33594455  1
  In3+  In11  1  0.81783437  0.83686231  0.66726665  1
  In3+  In12  1  0.35209358  0.33091339  0.65455567  1
  In3+  In13  1  0.51544309  0.34057378  0.49043918  1
  In3+  In14  1  0.81545584  0.17202592  0.65348295  1
  In3+  In15  1  0.49133876  0.16170973  -0.01769368  1
  In3+  In16  1  0.18442563  -0.01210751  0.83090348  1
  In3+  In17  1  0.16978903  0.66160480  0.50780942  1
  In3+  In18  1  0.16272988  0.82356003  0.66713929  1
  In3+  In19  1  0.16334090  0.84054104  0.00328692  1
  In3+  In20  1  0.83758399  0.83861475  0.31581265  1
  In3+  In21  1  0.66311030  0.47679326  0.16831860  1
  Ag+  Ag22  1  -0.02897720  0.64633300  0.65343632  1
  Ag+  Ag23  1  0.00401109  0.85979079  0.15685407  1
  Ag+  Ag24  1  0.31453044  0.33393730  0.31096618  1
  Ag+  Ag25  1  0.47700367  0.36100313  0.86044313  1
  Ag+  Ag26  1  0.64731961  0.46603725  0.79553607  1
  Ag+  Ag27  1  -0.00163477  0.48316546  0.47328838  1
  Ag+  Ag28  1  0.35197201  0.19080771  0.49817983  1
  Ag+  Ag29  1  0.34303078  0.68152503  0.00452435  1
  Ag+  Ag30  1  0.32097342  -0.01895134  0.00573274  1
  Ag+  Ag31  1  0.00148447  0.18969091  0.52351492  1
  Ag+  Ag32  1  0.85607055  -0.00469856  0.14144879  1
  Ag+  Ag33  1  0.66408484  0.33661748  0.31184881  1
  Ag+  Ag34  1  0.01608732  0.32507747  0.33683496  1
  Ag+  Ag35  1  0.65153132  0.35970686  0.67208993  1
  Ag+  Ag36  1  0.52890897  0.52740968  0.00522881  1
  Ag+  Ag37  1  0.66409284  -0.00325934  0.68053254  1
  Ag+  Ag38  1  0.18626425  0.33252648  0.14772336  1
  Ag+  Ag39  1  0.02932714  0.02710794  -0.01010854  1
  Ag+  Ag40  1  0.67894870  0.00111306  -0.01585830  1
  Ag+  Ag41  1  0.32193396  0.63269772  0.64113373  1
  Ag+  Ag42  1  0.66718962  0.85423822  0.86402736  1
  Sn2+  Sn43  1  -0.00866348  0.83596267  0.83938473  1
  Sn2+  Sn44  1  0.33137077  0.16751882  0.82392860  1
  Sn2+  Sn45  1  0.50107566  0.00243343  0.15966632  1
  Sn2+  Sn46  1  0.17133840  0.16698031  0.01055853  1
  Sn2+  Sn47  1  0.17056479  0.32575954  0.83905766  1
  Sn2+  Sn48  1  0.67145567  0.49705007  0.49469573  1
  Sn2+  Sn49  1  -0.00276632  0.01239389  0.32648989  1
  Sn2+  Sn50  1  0.49614032  -0.00457372  0.50515502  1
  Sn2+  Sn51  1  0.66123524  0.67221588  -0.00317371  1
  Sn2+  Sn52  1  0.00272101  0.16304395  0.82547658  1
  Sn2+  Sn53  1  0.65938654  0.67871833  0.67421137  1
  Sn2+  Sn54  1  -0.00296615  0.33167917  0.01176558  1
  Sn2+  Sn55  1  0.83600256  0.32843793  0.17629423  1
  Sn2+  Sn56  1  0.66641931  0.83186955  0.49921789  1
  Sn2+  Sn57  1  0.16105582  0.66321627  0.16996728  1
  Sn2+  Sn58  1  -0.00431993  -0.00760635  0.67192646  1
  Sn2+  Sn59  1  0.67487529  0.83824774  0.16907773  1
  Sn2+  Sn60  1  0.50456964  0.50148482  0.68399167  1
  Sn2+  Sn61  1  0.83327081  0.66988146  0.16667214  1
  Sn2+  Sn62  1  0.49496791  0.33438948  0.16784653  1
  Sn2+  Sn63  1  0.50553166  0.83471606  0.32629926  1
  Sn2+  Sn64  1  0.50506050  0.65711042  0.50860158  1
  Bi3+  Bi65  1  0.83425069  0.33204710  0.83455434  1
  Bi3+  Bi66  1  0.33119921  0.32875182  -0.00269860  1
  Bi3+  Bi67  1  0.00111957  0.66573114  -0.00105812  1
  Bi3+  Bi68  1  0.83597098  0.49820096  0.00200229  1
  Bi3+  Bi69  1  0.50113706  0.16653850  0.33853774  1
  Bi3+  Bi70  1  0.49683004  0.83359332  0.66288057  1
  Bi3+  Bi71  1  -0.00605931  0.50047506  0.83625436  1
  Bi3+  Bi72  1  0.66752245  0.16313119  0.83194770  1
  Bi3+  Bi73  1  0.50382907  0.66466700  0.83428943  1
  Bi3+  Bi74  1  0.16312675  0.33079899  0.50777389  1
  Bi3+  Bi75  1  0.83462001  -0.00174480  0.83306326  1
  Bi3+  Bi76  1  -0.00319014  0.17180192  0.16784028  1
  Bi3+  Bi77  1  0.66566255  0.00591000  0.33602298  1
  Bi3+  Bi78  1  0.16273935  0.83427147  0.33235762  1
  Bi3+  Bi79  1  0.33123358  0.83641223  0.50455788  1
  Bi3+  Bi80  1  0.16859393  0.16456057  0.66621665  1
  Bi3+  Bi81  1  0.00258502  0.83565512  0.50110010  1
  Bi3+  Bi82  1  0.82994477  0.66667578  0.83220349  1
  Bi3+  Bi83  1  0.49899599  -0.00182734  0.83196310  1
  Bi3+  Bi84  1  0.83346743  0.16474194  0.33548004  1
  Bi3+  Bi85  1  0.83712543  0.83318195  -0.00142714  1
  Te2-  Te86  1  0.16324692  0.18357708  0.17917666  1
  Te2-  Te87  1  0.15201325  0.16412002  0.49768551  1
  Te2-  Te88  1  0.16737678  0.16220297  0.83267566  1
  Te2-  Te89  1  0.16407188  0.48499524  0.16740952  1
  Te2-  Te90  1  0.15359671  0.50246259  0.49478148  1
  Te2-  Te91  1  0.16219433  0.49778621  0.84026463  1
  Te2-  Te92  1  0.15510621  0.83324991  0.16853943  1
  Te2-  Te93  1  0.16858172  0.83568515  0.49914406  1
  Te2-  Te94  1  0.15914743  0.83776217  0.83131895  1
  Te2-  Te95  1  0.50739925  0.16677827  0.17721386  1
  Te2-  Te96  1  0.49808722  0.16593355  0.50493112  1
  Te2-  Te97  1  0.50104090  0.16150982  0.82163346  1
  Te2-  Te98  1  0.51092646  0.49454824  0.15403188  1
  Te2-  Te99  1  0.49981569  0.49363406  0.50134664  1
  Te2-  Te100  1  0.51243793  0.50162168  0.84678516  1
  Te2-  Te101  1  0.49586195  0.83433326  0.16961446  1
  Te2-  Te102  1  0.49499245  0.83062144  0.49820208  1
  Te2-  Te103  1  0.51615476  0.83350155  0.82915740  1
  Te2-  Te104  1  0.82760921  0.15778634  0.16960151  1
  Te2-  Te105  1  0.85037391  0.16336708  0.50274551  1
  Te2-  Te106  1  0.83299325  0.16481834  0.82812524  1
  Te2-  Te107  1  0.83069479  0.50036779  0.16354657  1
  Te2-  Te108  1  0.84625130  0.51019879  0.49858396  1
  Te2-  Te109  1  0.82891019  0.49983755  0.83814395  1
  Te2-  Te110  1  0.84873574  0.84249042  0.16365093  1
  Te2-  Te111  1  0.83727889  0.82391952  0.51052769  1
  Te2-  Te112  1  0.81866473  0.83196850  0.83219901  1
  Te2-  Te113  1  0.17048110  -0.00343330  -0.00832624  1
  Te2-  Te114  1  0.16296094  -0.00105740  0.33522786  1
  Te2-  Te115  1  0.16650715  0.00439455  0.67748635  1
  Te2-  Te116  1  0.16657143  0.33239701  0.00016418  1
  Te2-  Te117  1  0.16685450  0.33276380  0.34484471  1
  Te2-  Te118  1  0.16457723  0.32858689  0.67012559  1
  Te2-  Te119  1  0.16427687  0.66093292  0.00529389  1
  Te2-  Te120  1  0.16626471  0.67094437  0.33447236  1
  Te2-  Te121  1  0.18060968  0.67004750  0.66639912  1
  Te2-  Te122  1  0.49729285  0.00667563  -0.00299350  1
  Te2-  Te123  1  0.49960332  0.00187664  0.33630821  1
  Te2-  Te124  1  0.50635502  -0.00391867  0.66665963  1
  Te2-  Te125  1  0.49667727  0.31716426  -0.00142079  1
  Te2-  Te126  1  0.51407460  0.32792052  0.33897527  1
  Te2-  Te127  1  0.50539462  0.33119494  0.66818835  1
  Te2-  Te128  1  0.49274538  0.67105333  -0.00145705  1
  Te2-  Te129  1  0.49830864  0.66507879  0.33553702  1
  Te2-  Te130  1  0.49036535  0.66991153  0.67245918  1
  Te2-  Te131  1  0.82641400  -0.00616201  -0.00307380  1
  Te2-  Te132  1  0.83095229  -0.00124399  0.33155350  1
  Te2-  Te133  1  0.82721606  -0.00576473  0.67125890  1
  Te2-  Te134  1  0.83109715  0.33317251  0.00076494  1
  Te2-  Te135  1  0.81453775  0.32803763  0.33320231  1
  Te2-  Te136  1  0.83119135  0.32671313  0.66964490  1
  Te2-  Te137  1  0.83463346  0.66821019  -0.00162095  1
  Te2-  Te138  1  0.83446095  0.67320515  0.33853286  1
  Te2-  Te139  1  0.82843176  0.67788709  0.67036253  1
  Te2-  Te140  1  0.00383338  0.17138858  0.00251280  1
  Te2-  Te141  1  -0.00567854  0.17415412  0.32815664  1
  Te2-  Te142  1  0.00448843  0.15935530  0.66863853  1
  Te2-  Te143  1  0.00054425  0.49933021  0.00230550  1
  Te2-  Te144  1  0.00747041  0.49643144  0.32713744  1
  Te2-  Te145  1  -0.00010798  0.50408660  0.67486154  1
  Te2-  Te146  1  0.00425865  0.82779740  0.00841637  1
  Te2-  Te147  1  -0.00266997  0.83797642  0.33504409  1
  Te2-  Te148  1  0.01026537  0.83414642  0.66715629  1
  Te2-  Te149  1  0.33199767  0.16772671  -0.00308003  1
  Te2-  Te150  1  0.33470219  0.18092116  0.34368066  1
  Te2-  Te151  1  0.33072456  0.17372544  0.65249229  1
  Te2-  Te152  1  0.32978014  0.49032594  0.00815355  1
  Te2-  Te153  1  0.32537612  0.48698013  0.32517350  1
  Te2-  Te154  1  0.33805066  0.49100030  0.67134680  1
  Te2-  Te155  1  0.31950587  0.83186773  -0.00437416  1
  Te2-  Te156  1  0.32909781  0.83534747  0.33660329  1
  Te2-  Te157  1  0.33304631  0.83638764  0.67121699  1
  Te2-  Te158  1  0.66109666  0.15449534  -0.00221494  1
  Te2-  Te159  1  0.66771972  0.17114444  0.34609164  1
  Te2-  Te160  1  0.66364821  0.14996459  0.66440609  1
  Te2-  Te161  1  0.67407857  0.50352066  0.01319193  1
  Te2-  Te162  1  0.66575623  0.49066932  0.32705342  1
  Te2-  Te163  1  0.66406875  0.50850186  0.65641073  1
  Te2-  Te164  1  0.67087932  0.84232686  0.00999084  1
  Te2-  Te165  1  0.67356733  0.83919588  0.33665159  1
  Te2-  Te166  1  0.66132791  0.84378026  0.65818453  1
  Te2-  Te167  1  0.00108171  0.00894951  0.15698019  1
  Te2-  Te168  1  0.00672739  -0.00566103  0.49905874  1
  Te2-  Te169  1  -0.00568207  -0.00319165  0.84619802  1
  Te2-  Te170  1  -0.00506129  0.33725239  0.18116164  1
  Te2-  Te171  1  0.00036961  0.33638749  0.49066335  1
  Te2-  Te172  1  -0.00320685  0.33547264  0.83766128  1
  Te2-  Te173  1  -0.00085492  0.65430148  0.16408732  1
  Te2-  Te174  1  0.01026389  0.67221779  0.51225259  1
  Te2-  Te175  1  -0.00447703  0.66601908  0.83513431  1
  Te2-  Te176  1  0.33219491  0.00128418  0.15765980  1
  Te2-  Te177  1  0.32425072  -0.00200069  0.50050642  1
  Te2-  Te178  1  0.33718460  -0.00128820  0.84555118  1
  Te2-  Te179  1  0.33454821  0.33571669  0.16516791  1
  Te2-  Te180  1  0.32847335  0.33561449  0.50519446  1
  Te2-  Te181  1  0.33658973  0.32910603  0.83147530  1
  Te2-  Te182  1  0.33099115  0.65751564  0.15604791  1
  Te2-  Te183  1  0.32943992  0.67030705  0.49914183  1
  Te2-  Te184  1  0.33803051  0.66943844  0.84944131  1
  Te2-  Te185  1  0.66070953  0.00322209  0.17505774  1
  Te2-  Te186  1  0.66572236  0.00681681  0.49666449  1
  Te2-  Te187  1  0.66551560  0.00037178  0.83270028  1
  Te2-  Te188  1  0.66705539  0.32200646  0.16209113  1
  Te2-  Te189  1  0.66369388  0.32718841  0.52047069  1
  Te2-  Te190  1  0.67241818  0.32380904  0.82181734  1
  Te2-  Te191  1  0.67380022  0.67672412  0.16700891  1
  Te2-  Te192  1  0.66171912  0.66344641  0.50269408  1
  Te2-  Te193  1  0.66760968  0.66439719  0.83640798  1
  Pb2+  Pb194  1  0.16515649  0.00908565  0.16436211  1
  Pb2+  Pb195  1  0.33608326  0.00448429  0.66976400  1
  Pb2+  Pb196  1  0.00192536  0.66825976  0.33592706  1
  Pb2+  Pb197  1  0.83147426  0.50228346  0.66655345  1
  Pb2+  Pb198  1  0.32673854  0.50021172  0.49837516  1
  Pb2+  Pb199  1  0.16814323  0.66985232  0.83526883  1
  Pb2+  Pb200  1  0.16640199  0.49870777  0.66786649  1
  Pb2+  Pb201  1  0.33098466  0.66192098  0.32691729  1
  Pb2+  Pb202  1  0.33886476  0.50197072  0.83939255  1
  Pb2+  Pb203  1  0.32389507  0.83171836  0.16550691  1
  Pb2+  Pb204  1  0.83450728  -0.00498691  0.50015858  1
  Pb2+  Pb205  1  0.50591494  0.66352583  0.16630407  1
  Pb2+  Pb206  1  0.49537324  0.49516412  0.32631021  1
  Pb2+  Pb207  1  0.66191623  0.33361592  -0.01055288  1
  Pb2+  Pb208  1  0.83519266  0.49560953  0.33117050  1
  Pb2+  Pb209  1  0.66583089  0.66393056  0.33538937  1
  Pb2+  Pb210  1  0.33780137  0.16799563  0.16811381  1
  Pb2+  Pb211  1  0.33121298  0.00824220  0.33253196  1
  Pb2+  Pb212  1  0.83004704  0.33242953  0.49796861  1
  Pb2+  Pb213  1  -0.00339911  0.33406894  0.66379232  1
  Pb2+  Pb214  1  0.83321829  0.16168820  -0.00011194  1
  Pb2+  Pb215  1  0.49581229  0.83974967  -0.00032196  1
