# generated using pymatgen
data_In22Ag21Sn22Bi21(Te54Pb11)2
_symmetry_space_group_name_H-M   'P 1'
_cell_length_a   19.11853619
_cell_length_b   19.13279057
_cell_length_c   19.13542120
_cell_angle_alpha   89.99003221
_cell_angle_beta   90.00189871
_cell_angle_gamma   90.00958599
_symmetry_Int_Tables_number   1
_chemical_formula_structural   In22Ag21Sn22Bi21(Te54Pb11)2
_chemical_formula_sum   'In22 Ag21 Sn22 Bi21 Te108 Pb22'
_cell_volume   6999.56367035
_cell_formula_units_Z   1
loop_
 _symmetry_equiv_pos_site_id
 _symmetry_equiv_pos_as_xyz
  1  'x, y, z'
loop_
 _atom_type_symbol
 _atom_type_oxidation_number
  In3+  3.0
  Ag+  1.0
  Sn2+  2.0
  Bi3+  3.0
  Te2-  -2.0
  Pb2+  2.0
loop_
 _atom_site_type_symbol
 _atom_site_label
 _atom_site_symmetry_multiplicity
 _atom_site_fract_x
 _atom_site_fract_y
 _atom_site_fract_z
 _atom_site_occupancy
  In3+  In0  1  0.66277559  -0.00896183  0.66830333  1
  In3+  In1  1  0.83102373  0.82009893  0.65950360  1
  In3+  In2  1  0.83592835  0.67154316  0.17417729  1
  In3+  In3  1  0.17001893  0.49663099  -0.01699123  1
  In3+  In4  1  0.16352212  0.14729091  0.66399427  1
  In3+  In5  1  0.16096925  0.68025177  0.14556373  1
  In3+  In6  1  0.33541791  0.49405123  0.49964367  1
  In3+  In7  1  0.84410782  0.16523139  0.66102624  1
  In3+  In8  1  0.64731194  0.67949820  0.33612136  1
  In3+  In9  1  0.00806016  0.01658931  0.00320332  1
  In3+  In10  1  0.00178648  0.51187909  0.82999520  1
  In3+  In11  1  0.33438060  0.66586815  0.33847110  1
  In3+  In12  1  0.50484335  0.84474006  0.34251012  1
  In3+  In13  1  0.16386463  0.31944121  0.49817143  1
  In3+  In14  1  0.35256505  0.83200933  0.50175946  1
  In3+  In15  1  0.82715630  0.68143345  0.82686649  1
  In3+  In16  1  0.67869289  0.31762902  0.66862744  1
  In3+  In17  1  0.83051258  0.83339242  -0.01514683  1
  In3+  In18  1  0.17169762  0.82801418  0.36312421  1
  In3+  In19  1  0.34050703  0.17334981  0.50000355  1
  In3+  In20  1  -0.01483506  0.16540978  0.49419108  1
  In3+  In21  1  0.50779764  0.16236498  0.67332228  1
  Ag+  Ag22  1  0.35151386  0.30340493  0.32676556  1
  Ag+  Ag23  1  0.64939543  0.84699067  0.83189317  1
  Ag+  Ag24  1  0.68816221  0.14403468  0.83286620  1
  Ag+  Ag25  1  0.19428869  0.81660689  0.66847749  1
  Ag+  Ag26  1  0.66364534  0.83790199  0.18727688  1
  Ag+  Ag27  1  0.67567090  0.02869932  0.30865451  1
  Ag+  Ag28  1  0.31903085  0.52693562  0.80616071  1
  Ag+  Ag29  1  0.52842271  0.30458953  0.19324444  1
  Ag+  Ag30  1  -0.02015051  0.31687886  0.36274907  1
  Ag+  Ag31  1  0.80937783  0.32960844  0.47891989  1
  Ag+  Ag32  1  -0.00674301  0.16304987  0.19003704  1
  Ag+  Ag33  1  0.52606954  0.19336251  0.29653330  1
  Ag+  Ag34  1  -0.00386090  0.67121991  0.68652025  1
  Ag+  Ag35  1  0.49353521  0.66888223  0.51613258  1
  Ag+  Ag36  1  0.85517784  0.15514565  0.30245968  1
  Ag+  Ag37  1  0.49823215  -0.02548819  0.81117251  1
  Ag+  Ag38  1  0.49920627  0.01849012  0.18884999  1
  Ag+  Ag39  1  0.17209763  0.14501238  0.03031171  1
  Ag+  Ag40  1  0.30217868  0.81213587  0.85393310  1
  Ag+  Ag41  1  0.19130321  0.67972246  0.83144467  1
  Ag+  Ag42  1  0.68606103  0.85032776  0.48374674  1
  Sn2+  Sn43  1  0.66413945  0.67199618  0.00798172  1
  Sn2+  Sn44  1  0.67352231  0.32491503  0.33387722  1
  Sn2+  Sn45  1  0.34046665  -0.00039645  -0.00141192  1
  Sn2+  Sn46  1  0.33625963  -0.00462134  0.67158553  1
  Sn2+  Sn47  1  0.16229936  0.51638917  0.66561059  1
  Sn2+  Sn48  1  0.00281966  0.47882078  0.16751042  1
  Sn2+  Sn49  1  0.16685428  0.67011408  0.51089397  1
  Sn2+  Sn50  1  0.50153208  0.49425332  0.33140090  1
  Sn2+  Sn51  1  0.16507493  0.17492477  0.33290763  1
  Sn2+  Sn52  1  0.81974822  0.00148383  0.83306354  1
  Sn2+  Sn53  1  0.32676114  0.32964356  0.01296656  1
  Sn2+  Sn54  1  0.83170496  0.84494845  0.32974997  1
  Sn2+  Sn55  1  0.17073634  0.33936214  0.82654216  1
  Sn2+  Sn56  1  0.00637128  0.83323062  0.82900904  1
  Sn2+  Sn57  1  0.17396581  0.00335119  0.17264401  1
  Sn2+  Sn58  1  0.32063148  0.66762699  0.66450797  1
  Sn2+  Sn59  1  0.00652773  0.34095618  0.66476539  1
  Sn2+  Sn60  1  0.84223946  0.16346298  -0.00136663  1
  Sn2+  Sn61  1  0.16987453  0.33835480  0.17421910  1
  Sn2+  Sn62  1  0.66041858  0.32325352  -0.00452060  1
  Sn2+  Sn63  1  0.50361128  -0.00459461  0.49335940  1
  Sn2+  Sn64  1  0.50504467  0.83568054  0.66826516  1
  Bi3+  Bi65  1  0.49260296  0.16584526  -0.00942590  1
  Bi3+  Bi66  1  0.50429743  0.83871433  -0.00000222  1
  Bi3+  Bi67  1  0.33590122  -0.00410275  0.33517633  1
  Bi3+  Bi68  1  0.49755577  0.33674554  0.83727211  1
  Bi3+  Bi69  1  0.33015178  0.16675343  0.82914614  1
  Bi3+  Bi70  1  0.00289338  0.33409686  -0.00415016  1
  Bi3+  Bi71  1  0.49704665  0.49839310  -0.00030298  1
  Bi3+  Bi72  1  0.49760312  0.50148883  0.66549073  1
  Bi3+  Bi73  1  -0.00113223  0.16825762  0.83168475  1
  Bi3+  Bi74  1  -0.00433651  0.83379437  0.49985018  1
  Bi3+  Bi75  1  0.66336452  0.50050995  0.49916920  1
  Bi3+  Bi76  1  0.16514490  0.50085193  0.33212565  1
  Bi3+  Bi77  1  0.50030330  0.66826279  0.16313676  1
  Bi3+  Bi78  1  0.00413738  0.66610128  0.33279016  1
  Bi3+  Bi79  1  0.83397820  0.33343079  0.83637398  1
  Bi3+  Bi80  1  -0.00453952  0.66788482  -0.00123006  1
  Bi3+  Bi81  1  0.33035417  0.33152868  0.66462502  1
  Bi3+  Bi82  1  0.83387301  0.49533299  0.33415225  1
  Bi3+  Bi83  1  0.32884260  0.50022066  0.17058563  1
  Bi3+  Bi84  1  0.82736392  -0.00402061  0.16483369  1
  Bi3+  Bi85  1  0.50636109  0.66791257  0.82713984  1
  Te2-  Te86  1  0.15708476  0.16527533  0.17433741  1
  Te2-  Te87  1  0.16472414  0.16687553  0.50546846  1
  Te2-  Te88  1  0.16568604  0.16997455  0.82066625  1
  Te2-  Te89  1  0.16691900  0.50695963  0.17073546  1
  Te2-  Te90  1  0.17748661  0.50909930  0.49486834  1
  Te2-  Te91  1  0.17246276  0.50777097  0.83217699  1
  Te2-  Te92  1  0.16764381  0.83328392  0.16076200  1
  Te2-  Te93  1  0.15696488  0.83063817  0.51917399  1
  Te2-  Te94  1  0.16223432  0.82931967  0.81928013  1
  Te2-  Te95  1  0.49814863  0.16304416  0.15286643  1
  Te2-  Te96  1  0.49346973  0.16632690  0.51215328  1
  Te2-  Te97  1  0.49382525  0.17319926  0.82908317  1
  Te2-  Te98  1  0.49321436  0.50250453  0.16256284  1
  Te2-  Te99  1  0.49622972  0.51425303  0.50068797  1
  Te2-  Te100  1  0.48718702  0.50211588  0.83433698  1
  Te2-  Te101  1  0.51133273  0.82783478  0.16004989  1
  Te2-  Te102  1  0.50437016  0.82069233  0.49583265  1
  Te2-  Te103  1  0.50205603  0.82871534  0.83500987  1
  Te2-  Te104  1  0.84172779  0.16038773  0.15792205  1
  Te2-  Te105  1  0.83336496  0.18079202  0.50808560  1
  Te2-  Te106  1  0.83535398  0.16946746  0.83612637  1
  Te2-  Te107  1  0.83406372  0.50642010  0.17009780  1
  Te2-  Te108  1  0.83276637  0.48418747  0.49699880  1
  Te2-  Te109  1  0.83647361  0.49511076  0.83326917  1
  Te2-  Te110  1  0.82143599  0.83256686  0.17389460  1
  Te2-  Te111  1  0.83136483  0.83257911  0.50242922  1
  Te2-  Te112  1  0.83739639  0.83497183  0.82998002  1
  Te2-  Te113  1  0.16487229  0.00067723  0.00250765  1
  Te2-  Te114  1  0.16911475  -0.00539135  0.33009641  1
  Te2-  Te115  1  0.16579660  -0.00538305  0.66772555  1
  Te2-  Te116  1  0.16510801  0.34201462  -0.00229056  1
  Te2-  Te117  1  0.16163127  0.33812652  0.34191524  1
  Te2-  Te118  1  0.16970688  0.34405663  0.65684972  1
  Te2-  Te119  1  0.16006235  0.66394369  -0.01612237  1
  Te2-  Te120  1  0.16640489  0.66859764  0.33923124  1
  Te2-  Te121  1  0.15905220  0.67147887  0.67960341  1
  Te2-  Te122  1  0.49831118  0.00152904  -0.00404411  1
  Te2-  Te123  1  0.50131378  -0.00369533  0.33293379  1
  Te2-  Te124  1  0.50414169  0.00167918  0.66608713  1
  Te2-  Te125  1  0.49467989  0.33359188  -0.00067198  1
  Te2-  Te126  1  0.49563482  0.33535709  0.33550514  1
  Te2-  Te127  1  0.49378522  0.33702434  0.67282646  1
  Te2-  Te128  1  0.49948027  0.66429068  -0.00368339  1
  Te2-  Te129  1  0.49429857  0.66562027  0.32476009  1
  Te2-  Te130  1  0.49634455  0.66505831  0.66587937  1
  Te2-  Te131  1  0.83798686  -0.00700347  0.00091822  1
  Te2-  Te132  1  0.82366828  0.01020960  0.32946739  1
  Te2-  Te133  1  0.82877969  0.01226732  0.67018242  1
  Te2-  Te134  1  0.83518405  0.33359908  -0.00173348  1
  Te2-  Te135  1  0.83549292  0.33208261  0.33389795  1
  Te2-  Te136  1  0.83558753  0.32440269  0.67392603  1
  Te2-  Te137  1  0.83254829  0.67363856  0.00563100  1
  Te2-  Te138  1  0.83925907  0.66531732  0.32966173  1
  Te2-  Te139  1  0.83981112  0.66462220  0.67026103  1
  Te2-  Te140  1  0.01544866  0.17002769  -0.00771509  1
  Te2-  Te141  1  -0.00166036  0.17186505  0.33916351  1
  Te2-  Te142  1  0.00353154  0.16658954  0.66801675  1
  Te2-  Te143  1  0.00640960  0.50229060  -0.00148342  1
  Te2-  Te144  1  -0.00028073  0.50074496  0.33188887  1
  Te2-  Te145  1  0.00174242  0.51322918  0.67136873  1
  Te2-  Te146  1  -0.00950012  0.82865432  -0.00100202  1
  Te2-  Te147  1  0.00151955  0.83131364  0.33452208  1
  Te2-  Te148  1  -0.01424475  0.82417230  0.66198982  1
  Te2-  Te149  1  0.32048511  0.16725499  -0.00404957  1
  Te2-  Te150  1  0.33173466  0.15885615  0.34640385  1
  Te2-  Te151  1  0.32365462  0.16933394  0.66074670  1
  Te2-  Te152  1  0.33024241  0.49684975  0.00697934  1
  Te2-  Te153  1  0.33065116  0.50852893  0.33655893  1
  Te2-  Te154  1  0.33480068  0.49658011  0.66261800  1
  Te2-  Te155  1  0.33674901  0.83598125  -0.00426245  1
  Te2-  Te156  1  0.33411204  0.83274462  0.33816722  1
  Te2-  Te157  1  0.34115330  0.83492300  0.65728563  1
  Te2-  Te158  1  0.66451596  0.16655510  -0.01316171  1
  Te2-  Te159  1  0.66282325  0.16985558  0.33988123  1
  Te2-  Te160  1  0.66181142  0.16546542  0.68076919  1
  Te2-  Te161  1  0.66218604  0.49973369  0.00148970  1
  Te2-  Te162  1  0.66967132  0.49461130  0.33773483  1
  Te2-  Te163  1  0.66085216  0.50136176  0.66215844  1
  Te2-  Te164  1  0.67227743  0.82979272  -0.01564611  1
  Te2-  Te165  1  0.66069629  0.83111491  0.34015370  1
  Te2-  Te166  1  0.67565471  0.83692228  0.68007567  1
  Te2-  Te167  1  -0.00233831  0.00720172  0.16008712  1
  Te2-  Te168  1  -0.00171937  0.00392272  0.49992434  1
  Te2-  Te169  1  -0.00130310  0.00497500  0.84265898  1
  Te2-  Te170  1  0.00502409  0.32135084  0.15722414  1
  Te2-  Te171  1  0.00781794  0.32852803  0.50669610  1
  Te2-  Te172  1  0.00126961  0.33537724  0.83201658  1
  Te2-  Te173  1  0.00046278  0.66359513  0.16520692  1
  Te2-  Te174  1  -0.00178072  0.66832908  0.49463984  1
  Te2-  Te175  1  -0.01393943  0.66507993  0.83442417  1
  Te2-  Te176  1  0.34447979  0.00155029  0.17120818  1
  Te2-  Te177  1  0.33845629  -0.01183142  0.49966722  1
  Te2-  Te178  1  0.34711629  0.00585988  0.82824131  1
  Te2-  Te179  1  0.32807387  0.33639930  0.18267750  1
  Te2-  Te180  1  0.32762559  0.33364252  0.49632292  1
  Te2-  Te181  1  0.33231717  0.33044914  0.83189382  1
  Te2-  Te182  1  0.33098881  0.66617054  0.17152296  1
  Te2-  Te183  1  0.33765511  0.67740864  0.49620640  1
  Te2-  Te184  1  0.34096890  0.67129153  0.82786380  1
  Te2-  Te185  1  0.66415351  -0.00757863  0.16692760  1
  Te2-  Te186  1  0.66421788  -0.00782239  0.51252101  1
  Te2-  Te187  1  0.65859107  -0.00091595  0.82376756  1
  Te2-  Te188  1  0.66759370  0.33291536  0.16415492  1
  Te2-  Te189  1  0.66477192  0.33403604  0.51157232  1
  Te2-  Te190  1  0.66448431  0.33268668  0.82683466  1
  Te2-  Te191  1  0.66638551  0.67690983  0.17589655  1
  Te2-  Te192  1  0.66198756  0.66276039  0.49016925  1
  Te2-  Te193  1  0.67306940  0.66594664  0.83376463  1
  Pb2+  Pb194  1  0.66557198  0.67240779  0.66007296  1
  Pb2+  Pb195  1  0.17586653  0.00120630  0.83503826  1
  Pb2+  Pb196  1  0.66126053  0.16031045  0.50673341  1
  Pb2+  Pb197  1  0.32995293  0.66442399  0.00099283  1
  Pb2+  Pb198  1  -0.00370369  -0.00859442  0.67226927  1
  Pb2+  Pb199  1  -0.00424091  0.00022371  0.32802481  1
  Pb2+  Pb200  1  0.66654801  -0.00249591  -0.00121983  1
  Pb2+  Pb201  1  0.16139254  0.83338153  -0.00827743  1
  Pb2+  Pb202  1  0.83050327  0.00609480  0.49903359  1
  Pb2+  Pb203  1  0.17132067  -0.00041094  0.49837846  1
  Pb2+  Pb204  1  0.66226432  0.50554964  0.16995409  1
  Pb2+  Pb205  1  0.34089231  0.83552446  0.16726805  1
  Pb2+  Pb206  1  0.00793136  0.49900330  0.50087133  1
  Pb2+  Pb207  1  0.83249077  0.49233946  0.66542353  1
  Pb2+  Pb208  1  -0.00350865  0.83507660  0.16569963  1
  Pb2+  Pb209  1  0.49771407  0.33776932  0.50304991  1
  Pb2+  Pb210  1  0.83636439  0.33320265  0.16813360  1
  Pb2+  Pb211  1  0.83561119  0.50548914  -0.00017363  1
  Pb2+  Pb212  1  0.67001295  0.16199099  0.16474329  1
  Pb2+  Pb213  1  0.82942784  0.65749644  0.49630944  1
  Pb2+  Pb214  1  0.32691957  0.16880871  0.17236986  1
  Pb2+  Pb215  1  0.65980504  0.49910721  0.83379228  1
