# generated using pymatgen
data_In22Ag21Sn22Bi21(Te54Pb11)2
_symmetry_space_group_name_H-M   'P 1'
_cell_length_a   19.11872702
_cell_length_b   19.11904402
_cell_length_c   19.15349893
_cell_angle_alpha   89.97863710
_cell_angle_beta   89.99056761
_cell_angle_gamma   89.99788284
_symmetry_Int_Tables_number   1
_chemical_formula_structural   In22Ag21Sn22Bi21(Te54Pb11)2
_chemical_formula_sum   'In22 Ag21 Sn22 Bi21 Te108 Pb22'
_cell_volume   7001.21203628
_cell_formula_units_Z   1
loop_
 _symmetry_equiv_pos_site_id
 _symmetry_equiv_pos_as_xyz
  1  'x, y, z'
loop_
 _atom_type_symbol
 _atom_type_oxidation_number
  In3+  3.0
  Ag+  1.0
  Sn2+  2.0
  Bi3+  3.0
  Te2-  -2.0
  Pb2+  2.0
loop_
 _atom_site_type_symbol
 _atom_site_label
 _atom_site_symmetry_multiplicity
 _atom_site_fract_x
 _atom_site_fract_y
 _atom_site_fract_z
 _atom_site_occupancy
  In3+  In0  1  0.01227165  0.83897993  0.50930286  1
  In3+  In1  1  0.00340078  -0.00157183  0.33046938  1
  In3+  In2  1  0.33014583  0.51119386  0.83242610  1
  In3+  In3  1  0.48900107  0.33151728  0.84547861  1
  In3+  In4  1  0.84369671  0.35706889  0.16173624  1
  In3+  In5  1  -0.01361532  0.82930665  0.82450676  1
  In3+  In6  1  -0.00117470  -0.00032550  -0.00556762  1
  In3+  In7  1  0.33030158  -0.00262600  0.34901895  1
  In3+  In8  1  0.68575364  0.82387475  0.82356396  1
  In3+  In9  1  0.84296438  -0.00316546  0.50331238  1
  In3+  In10  1  -0.01180974  0.69131452  -0.00047453  1
  In3+  In11  1  0.16618293  0.83431389  0.33501470  1
  In3+  In12  1  0.00241437  0.00519349  0.65400127  1
  In3+  In13  1  0.31937696  0.83567766  0.15916824  1
  In3+  In14  1  0.50444485  0.83101707  0.35292540  1
  In3+  In15  1  0.16603972  0.35368275  0.50416594  1
  In3+  In16  1  0.49281918  0.35830982  0.50036256  1
  In3+  In17  1  0.49180917  0.82418624  -0.00408671  1
  In3+  In18  1  0.16487619  0.00122984  0.15621745  1
  In3+  In19  1  0.17524508  0.00210763  0.50137762  1
  In3+  In20  1  0.17850035  0.32525760  0.84836657  1
  In3+  In21  1  0.84865963  0.32416516  0.50141316  1
  Ag+  Ag22  1  0.18740269  0.46561985  0.31306953  1
  Ag+  Ag23  1  -0.00195294  0.63925686  0.64189347  1
  Ag+  Ag24  1  0.49130951  0.52046250  -0.02594405  1
  Ag+  Ag25  1  0.31836721  0.16128880  0.50416831  1
  Ag+  Ag26  1  0.16720213  0.47572122  0.69536156  1
  Ag+  Ag27  1  0.83588974  0.66314524  0.84726186  1
  Ag+  Ag28  1  0.33082119  0.80804985  0.47095263  1
  Ag+  Ag29  1  0.81141340  0.81885986  0.00368944  1
  Ag+  Ag30  1  0.14862248  0.81443049  -0.02947077  1
  Ag+  Ag31  1  0.85748282  0.83205107  0.64499287  1
  Ag+  Ag32  1  0.47570400  0.68569241  0.83077204  1
  Ag+  Ag33  1  0.52745172  0.66421717  0.47137909  1
  Ag+  Ag34  1  -0.00062323  0.14743130  0.18739832  1
  Ag+  Ag35  1  0.64289301  -0.01679904  0.66830481  1
  Ag+  Ag36  1  0.30755000  0.35758979  0.33919286  1
  Ag+  Ag37  1  0.83609264  0.67294986  0.14976218  1
  Ag+  Ag38  1  0.63837442  0.68668792  0.36490212  1
  Ag+  Ag39  1  0.35144748  0.16632088  0.80179341  1
  Ag+  Ag40  1  0.02174169  0.16064600  0.48596587  1
  Ag+  Ag41  1  0.16700312  0.18360105  0.63929360  1
  Ag+  Ag42  1  0.33274369  0.33276602  -0.02215768  1
  Sn2+  Sn43  1  0.49616997  0.16965716  0.66005041  1
  Sn2+  Sn44  1  0.51089545  0.66889367  0.15503394  1
  Sn2+  Sn45  1  -0.00777090  0.66864795  0.32949826  1
  Sn2+  Sn46  1  0.84147362  0.52475766  0.66766414  1
  Sn2+  Sn47  1  0.83261114  -0.00519969  0.82292232  1
  Sn2+  Sn48  1  0.33380339  0.00924274  0.00155651  1
  Sn2+  Sn49  1  0.32480993  0.66827397  0.66611489  1
  Sn2+  Sn50  1  0.49062158  0.50874601  0.66797262  1
  Sn2+  Sn51  1  0.17687790  0.50715105  0.00502085  1
  Sn2+  Sn52  1  0.17234316  0.16323504  0.33748056  1
  Sn2+  Sn53  1  -0.00494298  0.83041850  0.17032459  1
  Sn2+  Sn54  1  0.50010763  -0.01113406  0.50366733  1
  Sn2+  Sn55  1  0.00025547  0.50207686  0.16087507  1
  Sn2+  Sn56  1  0.83710718  0.67190673  0.50458636  1
  Sn2+  Sn57  1  0.49564408  0.50124257  0.33018727  1
  Sn2+  Sn58  1  0.66210287  0.83575058  0.50473296  1
  Sn2+  Sn59  1  0.49421329  0.16701541  0.34274361  1
  Sn2+  Sn60  1  -0.00207015  0.50411260  0.83511605  1
  Sn2+  Sn61  1  0.32806504  0.16987487  0.17145502  1
  Sn2+  Sn62  1  0.67495267  -0.00590490  -0.00618506  1
  Sn2+  Sn63  1  0.33425561  0.84278222  0.83260629  1
  Sn2+  Sn64  1  0.66657945  0.66581072  0.00356792  1
  Bi3+  Bi65  1  0.33207933  0.49954726  0.50485210  1
  Bi3+  Bi66  1  0.66480949  0.16298181  0.50464167  1
  Bi3+  Bi67  1  0.16597328  0.67288531  0.50249736  1
  Bi3+  Bi68  1  0.33334372  0.49856883  0.16653396  1
  Bi3+  Bi69  1  0.49879133  0.82687480  0.66957514  1
  Bi3+  Bi70  1  0.83739822  0.49862636  0.33767057  1
  Bi3+  Bi71  1  0.33310004  0.66363709  0.00317095  1
  Bi3+  Bi72  1  0.66463750  0.50225739  0.16599947  1
  Bi3+  Bi73  1  0.00167668  0.16446364  0.83421578  1
  Bi3+  Bi74  1  0.66242313  0.33199290  -0.00060964  1
  Bi3+  Bi75  1  0.83669104  0.16290021  0.00180552  1
  Bi3+  Bi76  1  0.16682399  0.83151398  0.66483805  1
  Bi3+  Bi77  1  0.49520815  0.16697657  0.00316111  1
  Bi3+  Bi78  1  0.66586355  0.33700322  0.33332179  1
  Bi3+  Bi79  1  0.66663829  0.83101594  0.16043831  1
  Bi3+  Bi80  1  0.66089461  0.16474980  0.83213213  1
  Bi3+  Bi81  1  0.83306900  0.16420303  0.33306000  1
  Bi3+  Bi82  1  0.66582811  0.33365327  0.66388919  1
  Bi3+  Bi83  1  -0.00013409  0.32884909  0.66813309  1
  Bi3+  Bi84  1  0.16999193  0.16495832  0.00415295  1
  Bi3+  Bi85  1  0.33092838  0.00077501  0.66743168  1
  Te2-  Te86  1  0.15360196  0.15734183  0.16646133  1
  Te2-  Te87  1  0.16817153  0.15531146  0.49531143  1
  Te2-  Te88  1  0.16352259  0.17211064  0.84236526  1
  Te2-  Te89  1  0.16876438  0.50088711  0.17037862  1
  Te2-  Te90  1  0.17021923  0.50682086  0.49343537  1
  Te2-  Te91  1  0.17236734  0.49066490  0.84121004  1
  Te2-  Te92  1  0.16707534  0.84190298  0.17457925  1
  Te2-  Te93  1  0.18125492  0.83694572  0.49955628  1
  Te2-  Te94  1  0.16828313  0.83433350  0.82821874  1
  Te2-  Te95  1  0.50006306  0.16388625  0.16856513  1
  Te2-  Te96  1  0.50415718  0.15666000  0.50295275  1
  Te2-  Te97  1  0.49607341  0.17148546  0.83316934  1
  Te2-  Te98  1  0.49920458  0.50356295  0.17077136  1
  Te2-  Te99  1  0.49565005  0.51685342  0.49938062  1
  Te2-  Te100  1  0.48714354  0.48801111  0.83028682  1
  Te2-  Te101  1  0.50393939  0.83011758  0.15225298  1
  Te2-  Te102  1  0.48979017  0.82010742  0.50588138  1
  Te2-  Te103  1  0.50089136  0.83082306  0.83624099  1
  Te2-  Te104  1  0.84576899  0.16192805  0.16681399  1
  Te2-  Te105  1  0.82841531  0.15945622  0.49864619  1
  Te2-  Te106  1  0.83351463  0.16618642  0.83672576  1
  Te2-  Te107  1  0.83032273  0.51491586  0.17078625  1
  Te2-  Te108  1  0.83740888  0.49580539  0.50210794  1
  Te2-  Te109  1  0.83684401  0.50964968  0.83067024  1
  Te2-  Te110  1  0.82973141  0.82561723  0.15717154  1
  Te2-  Te111  1  0.83238935  0.84213753  0.49857274  1
  Te2-  Te112  1  0.83568099  0.83169948  0.85070053  1
  Te2-  Te113  1  0.16792031  0.00018487  0.00339263  1
  Te2-  Te114  1  0.16659738  -0.00723968  0.34280301  1
  Te2-  Te115  1  0.16490912  -0.00446535  0.66060924  1
  Te2-  Te116  1  0.18132361  0.33195937  0.00243838  1
  Te2-  Te117  1  0.16297884  0.32455591  0.34531888  1
  Te2-  Te118  1  0.16385739  0.33171786  0.65623698  1
  Te2-  Te119  1  0.17081457  0.67090017  0.00154110  1
  Te2-  Te120  1  0.16111014  0.67919450  0.33667964  1
  Te2-  Te121  1  0.14979013  0.67173805  0.66418169  1
  Te2-  Te122  1  0.50050310  0.00556744  0.00172085  1
  Te2-  Te123  1  0.49696786  -0.00945148  0.33777612  1
  Te2-  Te124  1  0.49442282  -0.00400156  0.66709680  1
  Te2-  Te125  1  0.49727027  0.32840541  -0.00023923  1
  Te2-  Te126  1  0.50611586  0.33391292  0.34241535  1
  Te2-  Te127  1  0.50336871  0.33717297  0.65824518  1
  Te2-  Te128  1  0.49666620  0.66732130  -0.01574624  1
  Te2-  Te129  1  0.49756548  0.67605996  0.32612483  1
  Te2-  Te130  1  0.49725717  0.66601148  0.68305780  1
  Te2-  Te131  1  0.83896827  0.00214322  -0.00223728  1
  Te2-  Te132  1  0.83577476  -0.00007167  0.34042995  1
  Te2-  Te133  1  0.84584984  -0.01197099  0.66178160  1
  Te2-  Te134  1  0.82843442  0.32990359  0.00124900  1
  Te2-  Te135  1  0.82770141  0.33057713  0.33330019  1
  Te2-  Te136  1  0.83289936  0.33277208  0.66191161  1
  Te2-  Te137  1  0.83782217  0.67295307  -0.00066764  1
  Te2-  Te138  1  0.83467989  0.65983106  0.34312946  1
  Te2-  Te139  1  0.85078421  0.67880467  0.66269530  1
  Te2-  Te140  1  0.00180749  0.16233264  -0.00248637  1
  Te2-  Te141  1  -0.00553428  0.15604304  0.33813438  1
  Te2-  Te142  1  0.01268525  0.16115719  0.67233814  1
  Te2-  Te143  1  0.00317305  0.49938585  0.00175892  1
  Te2-  Te144  1  -0.00314658  0.50046784  0.33197719  1
  Te2-  Te145  1  0.01074861  0.49380705  0.67192349  1
  Te2-  Te146  1  0.00955649  0.84213699  0.00681865  1
  Te2-  Te147  1  0.00231696  0.84140496  0.33756540  1
  Te2-  Te148  1  0.00159291  0.84341106  0.67179729  1
  Te2-  Te149  1  0.33319723  0.17700395  0.01110769  1
  Te2-  Te150  1  0.33729617  0.15215302  0.33519394  1
  Te2-  Te151  1  0.32292761  0.16246911  0.65556373  1
  Te2-  Te152  1  0.34419776  0.49502777  0.00336892  1
  Te2-  Te153  1  0.32879692  0.50595831  0.33444635  1
  Te2-  Te154  1  0.31847123  0.50068854  0.67102419  1
  Te2-  Te155  1  0.33551665  0.83462463  0.00200911  1
  Te2-  Te156  1  0.33745346  0.84476445  0.32895332  1
  Te2-  Te157  1  0.33380622  0.83557747  0.67180487  1
  Te2-  Te158  1  0.66736197  0.16625888  -0.00344337  1
  Te2-  Te159  1  0.66806048  0.16774315  0.33644829  1
  Te2-  Te160  1  0.66814120  0.17107064  0.66989330  1
  Te2-  Te161  1  0.65675937  0.49441769  0.00202177  1
  Te2-  Te162  1  0.66789250  0.49981490  0.32924069  1
  Te2-  Te163  1  0.66845051  0.49720003  0.66629484  1
  Te2-  Te164  1  0.66258979  0.83720945  -0.00311335  1
  Te2-  Te165  1  0.66103523  0.82991429  0.33087037  1
  Te2-  Te166  1  0.66386950  0.83663990  0.67263534  1
  Te2-  Te167  1  0.00881353  0.00112279  0.17565814  1
  Te2-  Te168  1  0.00375632  0.00601063  0.49982987  1
  Te2-  Te169  1  -0.00112926  -0.00231231  0.84101826  1
  Te2-  Te170  1  -0.00103869  0.33593286  0.16571922  1
  Te2-  Te171  1  0.00957790  0.31707383  0.50585620  1
  Te2-  Te172  1  0.00353001  0.33228936  0.83037048  1
  Te2-  Te173  1  -0.00906407  0.66983678  0.16152945  1
  Te2-  Te174  1  0.00321270  0.67576472  0.49789266  1
  Te2-  Te175  1  -0.00989198  0.67586905  0.84508948  1
  Te2-  Te176  1  0.32280446  -0.00231172  0.16586174  1
  Te2-  Te177  1  0.33294790  0.00865878  0.50202696  1
  Te2-  Te178  1  0.33306230  0.01461601  0.83161818  1
  Te2-  Te179  1  0.33367630  0.33683604  0.18906213  1
  Te2-  Te180  1  0.33919491  0.33634842  0.48792021  1
  Te2-  Te181  1  0.33273045  0.31651476  0.83071821  1
  Te2-  Te182  1  0.33645188  0.67008041  0.16344675  1
  Te2-  Te183  1  0.33015947  0.66490850  0.50669709  1
  Te2-  Te184  1  0.32837702  0.66452322  0.83827775  1
  Te2-  Te185  1  0.66666846  -0.00425093  0.16749910  1
  Te2-  Te186  1  0.66573366  -0.00131803  0.51554981  1
  Te2-  Te187  1  0.67089308  0.00430223  0.82112121  1
  Te2-  Te188  1  0.67096820  0.33511944  0.16506605  1
  Te2-  Te189  1  0.65543402  0.32850140  0.49897579  1
  Te2-  Te190  1  0.66386396  0.33086924  0.83333933  1
  Te2-  Te191  1  0.67584821  0.66575562  0.16225532  1
  Te2-  Te192  1  0.67096614  0.67228587  0.50646537  1
  Te2-  Te193  1  0.68141365  0.67188447  0.83933887  1
  Pb2+  Pb194  1  0.84234557  0.16023724  0.66656485  1
  Pb2+  Pb195  1  0.33050937  0.67289290  0.33666862  1
  Pb2+  Pb196  1  0.65938172  0.50538548  0.83339849  1
  Pb2+  Pb197  1  0.49229031  -0.00373717  0.16924931  1
  Pb2+  Pb198  1  0.83290547  0.50527820  0.00031818  1
  Pb2+  Pb199  1  0.83354405  0.82436295  0.33111421  1
  Pb2+  Pb200  1  0.15725782  0.66314495  0.82998674  1
  Pb2+  Pb201  1  0.17015511  0.32583725  0.17040785  1
  Pb2+  Pb202  1  0.16641998  0.00303618  0.83190840  1
  Pb2+  Pb203  1  0.83848679  -0.00597756  0.16681509  1
  Pb2+  Pb204  1  0.83476387  0.33798040  0.82868954  1
  Pb2+  Pb205  1  0.50205165  -0.00370745  0.83574344  1
  Pb2+  Pb206  1  0.16221860  0.67059085  0.16915983  1
  Pb2+  Pb207  1  -0.00352551  0.32953615  0.33339162  1
  Pb2+  Pb208  1  0.66595146  -0.00244971  0.34580164  1
  Pb2+  Pb209  1  0.67695699  0.16471690  0.16681191  1
  Pb2+  Pb210  1  0.00324893  0.49903393  0.50096755  1
  Pb2+  Pb211  1  0.49758467  0.33271369  0.17054828  1
  Pb2+  Pb212  1  0.66901847  0.49887773  0.49764776  1
  Pb2+  Pb213  1  0.67528990  0.66897074  0.67231610  1
  Pb2+  Pb214  1  0.00707665  0.33284631  -0.00033439  1
  Pb2+  Pb215  1  0.33309908  0.33063846  0.65883230  1
