# generated using pymatgen
data_In22Ag21Sn22Bi21(Te54Pb11)2
_symmetry_space_group_name_H-M   'P 1'
_cell_length_a   19.15892153
_cell_length_b   19.15194138
_cell_length_c   19.15466333
_cell_angle_alpha   89.99361614
_cell_angle_beta   89.99119639
_cell_angle_gamma   89.97991717
_symmetry_Int_Tables_number   1
_chemical_formula_structural   In22Ag21Sn22Bi21(Te54Pb11)2
_chemical_formula_sum   'In22 Ag21 Sn22 Bi21 Te108 Pb22'
_cell_volume   7028.43043959
_cell_formula_units_Z   1
loop_
 _symmetry_equiv_pos_site_id
 _symmetry_equiv_pos_as_xyz
  1  'x, y, z'
loop_
 _atom_type_symbol
 _atom_type_oxidation_number
  In3+  3.0
  Ag+  1.0
  Sn2+  2.0
  Bi3+  3.0
  Te2-  -2.0
  Pb2+  2.0
loop_
 _atom_site_type_symbol
 _atom_site_label
 _atom_site_symmetry_multiplicity
 _atom_site_fract_x
 _atom_site_fract_y
 _atom_site_fract_z
 _atom_site_occupancy
  In3+  In0  1  0.49845503  0.81887369  -0.00377820  1
  In3+  In1  1  0.82012630  0.16619186  0.67240868  1
  In3+  In2  1  0.48809042  0.83770820  0.31714475  1
  In3+  In3  1  0.49715336  0.64712801  0.16585140  1
  In3+  In4  1  0.65409500  0.65744162  0.66997407  1
  In3+  In5  1  0.33286444  0.31433060  0.32989583  1
  In3+  In6  1  0.15427336  0.83253558  -0.00599388  1
  In3+  In7  1  0.50770959  0.16640844  0.66961540  1
  In3+  In8  1  0.83972960  0.84002148  -0.00880090  1
  In3+  In9  1  0.67556113  0.17144831  0.14276030  1
  In3+  In10  1  -0.01189407  0.00085630  0.34987941  1
  In3+  In11  1  0.49899426  0.00140074  0.83445670  1
  In3+  In12  1  0.00261608  0.82403490  0.51576386  1
  In3+  In13  1  0.85033150  0.65736782  0.82925164  1
  In3+  In14  1  0.33781238  0.15403362  0.83491820  1
  In3+  In15  1  -0.01779162  0.16685282  0.82803999  1
  In3+  In16  1  0.67181899  0.65619532  -0.00225997  1
  In3+  In17  1  0.33579022  0.65605083  -0.00253918  1
  In3+  In18  1  0.14389008  0.15997810  0.33710840  1
  In3+  In19  1  0.50071207  0.48837668  0.32408619  1
  In3+  In20  1  0.67999525  0.31674907  0.33317624  1
  In3+  In21  1  0.50633249  0.33601402  0.85220260  1
  Ag+  Ag22  1  0.49833128  0.32166910  0.15451819  1
  Ag+  Ag23  1  -0.02333243  0.63061677  0.63831008  1
  Ag+  Ag24  1  0.14579891  -0.00502937  0.47834089  1
  Ag+  Ag25  1  -0.02628007  0.63849133  -0.00089642  1
  Ag+  Ag26  1  0.31032926  0.15456351  0.47405191  1
  Ag+  Ag27  1  0.32842300  0.47585245  0.18748038  1
  Ag+  Ag28  1  0.49145122  0.47848961  0.02259184  1
  Ag+  Ag29  1  0.69355959  -0.00203773  0.69480396  1
  Ag+  Ag30  1  -0.02214982  0.46750631  0.46333704  1
  Ag+  Ag31  1  0.33738960  0.69655612  0.69609620  1
  Ag+  Ag32  1  0.63710408  0.53435670  0.47174356  1
  Ag+  Ag33  1  0.85370668  -0.01295924  0.83741913  1
  Ag+  Ag34  1  0.67104909  0.35773776  -0.02401075  1
  Ag+  Ag35  1  0.31619098  0.81113174  0.84473181  1
  Ag+  Ag36  1  0.03662344  0.36745345  0.36131790  1
  Ag+  Ag37  1  0.30376858  0.02054324  0.30419244  1
  Ag+  Ag38  1  0.85428969  -0.00546144  0.18873538  1
  Ag+  Ag39  1  0.01617607  0.52805049  0.83975738  1
  Ag+  Ag40  1  0.68099895  0.14410987  0.83420810  1
  Ag+  Ag41  1  0.84242931  0.18405309  0.33174544  1
  Ag+  Ag42  1  0.19573458  0.01664364  0.83577190  1
  Sn2+  Sn43  1  0.82655768  0.00507990  0.50365367  1
  Sn2+  Sn44  1  0.66867892  0.84013387  0.16822341  1
  Sn2+  Sn45  1  0.00192241  0.16564315  0.50335093  1
  Sn2+  Sn46  1  -0.01114757  0.33635351  0.00634325  1
  Sn2+  Sn47  1  0.33179170  -0.01031480  0.00419750  1
  Sn2+  Sn48  1  0.17780861  0.50515367  0.33942210  1
  Sn2+  Sn49  1  0.49993467  0.00909707  0.16590343  1
  Sn2+  Sn50  1  0.83038043  0.33080821  0.49923619  1
  Sn2+  Sn51  1  0.15654974  -0.00290327  0.15979090  1
  Sn2+  Sn52  1  -0.00087459  0.82844395  0.16880299  1
  Sn2+  Sn53  1  0.83689526  0.49911426  0.66228086  1
  Sn2+  Sn54  1  -0.00094685  0.34210298  0.66739093  1
  Sn2+  Sn55  1  0.00159611  0.83994510  0.83397179  1
  Sn2+  Sn56  1  0.50371411  0.83721811  0.67049032  1
  Sn2+  Sn57  1  0.16743006  0.32564967  0.84061165  1
  Sn2+  Sn58  1  0.33980421  0.16945745  0.16768641  1
  Sn2+  Sn59  1  0.17118632  0.66274332  0.16596127  1
  Sn2+  Sn60  1  0.33635797  0.83303257  0.16071115  1
  Sn2+  Sn61  1  0.17389868  0.84147854  0.32644896  1
  Sn2+  Sn62  1  0.33021286  0.84718489  0.50807837  1
  Sn2+  Sn63  1  0.32816336  0.49818465  0.83027489  1
  Sn2+  Sn64  1  0.00857570  0.50188910  0.15775928  1
  Bi3+  Bi65  1  0.49879099  0.33047388  0.50136616  1
  Bi3+  Bi66  1  0.17169961  0.16400653  0.66600778  1
  Bi3+  Bi67  1  0.83551571  0.83267321  0.32873914  1
  Bi3+  Bi68  1  -0.00241089  0.16882547  0.16484684  1
  Bi3+  Bi69  1  0.66423853  0.50204595  0.82807370  1
  Bi3+  Bi70  1  0.66926972  0.16906494  0.50563326  1
  Bi3+  Bi71  1  0.50052186  0.50030649  0.66700955  1
  Bi3+  Bi72  1  0.00458960  0.00534600  0.66798621  1
  Bi3+  Bi73  1  -0.00081820  0.00100634  -0.00437673  1
  Bi3+  Bi74  1  0.33502355  0.00315635  0.66496711  1
  Bi3+  Bi75  1  0.82852455  0.32970421  0.16573380  1
  Bi3+  Bi76  1  0.17108875  0.67270814  0.50304892  1
  Bi3+  Bi77  1  0.49865740  0.16774291  0.00004943  1
  Bi3+  Bi78  1  0.16342601  0.66719614  0.83181240  1
  Bi3+  Bi79  1  0.49617052  -0.00128592  0.50376055  1
  Bi3+  Bi80  1  0.66319976  -0.00195307  0.00312624  1
  Bi3+  Bi81  1  0.66628731  -0.00057250  0.33229481  1
  Bi3+  Bi82  1  0.16588793  0.50388629  0.66713963  1
  Bi3+  Bi83  1  0.33291040  0.67649348  0.32774197  1
  Bi3+  Bi84  1  0.66305734  0.83485101  0.83609086  1
  Bi3+  Bi85  1  0.33277692  0.33491663  0.66608175  1
  Te2-  Te86  1  0.16323141  0.16563505  0.17560470  1
  Te2-  Te87  1  0.16498836  0.15198511  0.49437126  1
  Te2-  Te88  1  0.17878473  0.16479450  0.83206004  1
  Te2-  Te89  1  0.18046708  0.50314137  0.16775825  1
  Te2-  Te90  1  0.16159929  0.50475852  0.50443259  1
  Te2-  Te91  1  0.16139089  0.50134723  0.83111937  1
  Te2-  Te92  1  0.16725290  0.83326436  0.15932961  1
  Te2-  Te93  1  0.16066830  0.84237303  0.49636772  1
  Te2-  Te94  1  0.16988927  0.82713351  0.83963358  1
  Te2-  Te95  1  0.50444018  0.17291786  0.16628615  1
  Te2-  Te96  1  0.50581488  0.16503026  0.50717023  1
  Te2-  Te97  1  0.49460207  0.17798068  0.83305623  1
  Te2-  Te98  1  0.48757061  0.49546030  0.16926175  1
  Te2-  Te99  1  0.49876450  0.49683101  0.50381528  1
  Te2-  Te100  1  0.50150061  0.49538769  0.82809019  1
  Te2-  Te101  1  0.50212915  0.84256623  0.16516867  1
  Te2-  Te102  1  0.49803253  0.83676740  0.50551504  1
  Te2-  Te103  1  0.50183863  0.83297718  0.83861071  1
  Te2-  Te104  1  0.83201743  0.16317013  0.17556135  1
  Te2-  Te105  1  0.83100392  0.16538133  0.49563602  1
  Te2-  Te106  1  0.82656206  0.16732686  0.82838992  1
  Te2-  Te107  1  0.83275483  0.49789549  0.16575355  1
  Te2-  Te108  1  0.84098648  0.49537668  0.50596703  1
  Te2-  Te109  1  0.82649402  0.50470714  0.83196170  1
  Te2-  Te110  1  0.83219794  0.84515441  0.16522177  1
  Te2-  Te111  1  0.84346870  0.83390094  0.49569208  1
  Te2-  Te112  1  0.82848083  0.84203125  0.83722829  1
  Te2-  Te113  1  0.16433500  -0.00854787  -0.01403687  1
  Te2-  Te114  1  0.16135576  0.00610964  0.33160751  1
  Te2-  Te115  1  0.16889228  0.00333151  0.68210740  1
  Te2-  Te116  1  0.16758871  0.33324290  0.00047891  1
  Te2-  Te117  1  0.17672557  0.33319125  0.33553568  1
  Te2-  Te118  1  0.16908917  0.33196841  0.67143644  1
  Te2-  Te119  1  0.17899269  0.67480300  -0.00184711  1
  Te2-  Te120  1  0.16937912  0.67193078  0.33345798  1
  Te2-  Te121  1  0.18187018  0.66647934  0.66768243  1
  Te2-  Te122  1  0.50066753  0.00641984  -0.00167270  1
  Te2-  Te123  1  0.50389481  -0.00706359  0.33668168  1
  Te2-  Te124  1  0.49613988  0.00668849  0.67023577  1
  Te2-  Te125  1  0.51341591  0.33164471  0.00708807  1
  Te2-  Te126  1  0.49105732  0.33625831  0.33902261  1
  Te2-  Te127  1  0.49634162  0.33346657  0.66349620  1
  Te2-  Te128  1  0.49917454  0.66659262  0.00736037  1
  Te2-  Te129  1  0.49802583  0.67953039  0.32593163  1
  Te2-  Te130  1  0.48975760  0.66426312  0.66736225  1
  Te2-  Te131  1  0.82964940  -0.00475361  -0.01129177  1
  Te2-  Te132  1  0.83214291  -0.00622263  0.33443164  1
  Te2-  Te133  1  0.83956795  0.01067770  0.67142212  1
  Te2-  Te134  1  0.81677176  0.33137656  0.00472262  1
  Te2-  Te135  1  0.83392338  0.33089345  0.32985920  1
  Te2-  Te136  1  0.83562239  0.32481413  0.66492168  1
  Te2-  Te137  1  0.82902352  0.67566246  -0.00463161  1
  Te2-  Te138  1  0.83503340  0.66736821  0.33099174  1
  Te2-  Te139  1  0.84143185  0.66789476  0.67785862  1
  Te2-  Te140  1  0.00046674  0.16537011  -0.00029879  1
  Te2-  Te141  1  -0.00959812  0.15720102  0.33007954  1
  Te2-  Te142  1  0.01014743  0.16811509  0.67138023  1
  Te2-  Te143  1  -0.00142033  0.49306785  -0.00988796  1
  Te2-  Te144  1  0.00780572  0.50558871  0.32301224  1
  Te2-  Te145  1  0.00384395  0.49668097  0.68557323  1
  Te2-  Te146  1  -0.00233491  0.83892229  0.00174951  1
  Te2-  Te147  1  0.00043365  0.84381923  0.32595906  1
  Te2-  Te148  1  -0.00022944  0.83982170  0.66987714  1
  Te2-  Te149  1  0.33677360  0.16652889  -0.00254946  1
  Te2-  Te150  1  0.33812723  0.16023856  0.32979179  1
  Te2-  Te151  1  0.33277098  0.17023318  0.67483717  1
  Te2-  Te152  1  0.34576124  0.50324676  -0.00489956  1
  Te2-  Te153  1  0.33946728  0.51145012  0.33069879  1
  Te2-  Te154  1  0.33273879  0.49694207  0.66315209  1
  Te2-  Te155  1  0.34637347  0.83240676  -0.00895720  1
  Te2-  Te156  1  0.33336420  0.84011197  0.33543291  1
  Te2-  Te157  1  0.33949347  0.84036022  0.67455979  1
  Te2-  Te158  1  0.66216911  0.16178606  -0.01271134  1
  Te2-  Te159  1  0.67500909  0.16278800  0.34124723  1
  Te2-  Te160  1  0.66638351  0.15379744  0.67578752  1
  Te2-  Te161  1  0.65244756  0.50330100  -0.00458973  1
  Te2-  Te162  1  0.65647329  0.50118191  0.33204282  1
  Te2-  Te163  1  0.66697349  0.50017546  0.66574626  1
  Te2-  Te164  1  0.65707414  0.83553073  0.00096946  1
  Te2-  Te165  1  0.67092252  0.83650357  0.33410012  1
  Te2-  Te166  1  0.66368850  0.84998569  0.67363193  1
  Te2-  Te167  1  -0.00272845  0.00414841  0.15732213  1
  Te2-  Te168  1  -0.00035731  -0.00238258  0.50414021  1
  Te2-  Te169  1  -0.00140211  0.00828892  0.83282994  1
  Te2-  Te170  1  -0.00631870  0.33115750  0.16544374  1
  Te2-  Te171  1  0.00064829  0.32609097  0.49838320  1
  Te2-  Te172  1  0.00127007  0.31877343  0.83922834  1
  Te2-  Te173  1  0.00267791  0.66045953  0.14923093  1
  Te2-  Te174  1  0.00904586  0.67089211  0.50182199  1
  Te2-  Te175  1  0.00033866  0.67498652  0.85012953  1
  Te2-  Te176  1  0.32951075  0.00044221  0.16275598  1
  Te2-  Te177  1  0.33595342  0.00787313  0.50448723  1
  Te2-  Te178  1  0.34278008  -0.00063983  0.83311132  1
  Te2-  Te179  1  0.34324822  0.33009120  0.17368132  1
  Te2-  Te180  1  0.33632628  0.31824889  0.49958558  1
  Te2-  Te181  1  0.33685063  0.33997230  0.83041422  1
  Te2-  Te182  1  0.34139399  0.67304118  0.16462812  1
  Te2-  Te183  1  0.32978872  0.67444452  0.49147913  1
  Te2-  Te184  1  0.33197237  0.66502567  0.84011465  1
  Te2-  Te185  1  0.66537380  0.01010206  0.16683718  1
  Te2-  Te186  1  0.66200787  0.00519845  0.49808162  1
  Te2-  Te187  1  0.65268600  -0.00058369  0.83732146  1
  Te2-  Te188  1  0.66217425  0.32456163  0.17870318  1
  Te2-  Te189  1  0.66445820  0.33180438  0.49290475  1
  Te2-  Te190  1  0.66021503  0.33718470  0.82963524  1
  Te2-  Te191  1  0.66026326  0.66800566  0.15775012  1
  Te2-  Te192  1  0.67038823  0.67052547  0.50898212  1
  Te2-  Te193  1  0.67226964  0.66999695  0.83530577  1
  Pb2+  Pb194  1  0.82761232  0.49967841  -0.00012876  1
  Pb2+  Pb195  1  0.17234604  0.50434978  -0.00051075  1
  Pb2+  Pb196  1  0.83405659  0.33533383  0.83401257  1
  Pb2+  Pb197  1  0.49613201  0.66771050  0.49861106  1
  Pb2+  Pb198  1  0.66602823  0.32926365  0.66316443  1
  Pb2+  Pb199  1  0.83273454  0.49526797  0.33551879  1
  Pb2+  Pb200  1  0.83039561  0.83631116  0.66806522  1
  Pb2+  Pb201  1  0.17056850  0.83511497  0.66599742  1
  Pb2+  Pb202  1  0.83283946  0.67480834  0.16182793  1
  Pb2+  Pb203  1  0.50434143  0.66358480  0.83524711  1
  Pb2+  Pb204  1  0.16874975  0.32685966  0.50325640  1
  Pb2+  Pb205  1  0.66220146  0.49289118  0.16421963  1
  Pb2+  Pb206  1  0.16517326  0.33408637  0.16851274  1
  Pb2+  Pb207  1  0.16839814  0.16060698  0.00325001  1
  Pb2+  Pb208  1  0.33980594  0.33665869  0.00074404  1
  Pb2+  Pb209  1  0.00256958  0.67344548  0.32714414  1
  Pb2+  Pb210  1  0.66737756  0.83740719  0.50427962  1
  Pb2+  Pb211  1  0.83844535  0.66254836  0.50640032  1
  Pb2+  Pb212  1  0.66483053  0.66825912  0.32892661  1
  Pb2+  Pb213  1  0.83203734  0.16213010  0.00419383  1
  Pb2+  Pb214  1  0.32845416  0.49422342  0.49636689  1
  Pb2+  Pb215  1  0.50698443  0.16485520  0.33644988  1
