# generated using pymatgen
data_In22Ag21Sn22Bi21(Te54Pb11)2
_symmetry_space_group_name_H-M   'P 1'
_cell_length_a   19.10330184
_cell_length_b   19.13595332
_cell_length_c   19.12718185
_cell_angle_alpha   90.01855378
_cell_angle_beta   90.00320416
_cell_angle_gamma   90.01621565
_symmetry_Int_Tables_number   1
_chemical_formula_structural   In22Ag21Sn22Bi21(Te54Pb11)2
_chemical_formula_sum   'In22 Ag21 Sn22 Bi21 Te108 Pb22'
_cell_volume   6992.12987925
_cell_formula_units_Z   1
loop_
 _symmetry_equiv_pos_site_id
 _symmetry_equiv_pos_as_xyz
  1  'x, y, z'
loop_
 _atom_type_symbol
 _atom_type_oxidation_number
  In3+  3.0
  Ag+  1.0
  Sn2+  2.0
  Bi3+  3.0
  Te2-  -2.0
  Pb2+  2.0
loop_
 _atom_site_type_symbol
 _atom_site_label
 _atom_site_symmetry_multiplicity
 _atom_site_fract_x
 _atom_site_fract_y
 _atom_site_fract_z
 _atom_site_occupancy
  In3+  In0  1  0.66365593  0.15980333  0.17111807  1
  In3+  In1  1  0.33328649  0.33147348  0.67499505  1
  In3+  In2  1  -0.03640519  0.66281066  0.64047347  1
  In3+  In3  1  0.16671805  0.49719017  0.01265486  1
  In3+  In4  1  0.82749459  0.50997317  0.34093412  1
  In3+  In5  1  0.82613868  0.16213125  -0.00348079  1
  In3+  In6  1  0.81397558  0.33619695  0.49429626  1
  In3+  In7  1  0.66906533  0.16141025  0.49452524  1
  In3+  In8  1  0.67885093  0.00347059  0.65217129  1
  In3+  In9  1  0.00158292  0.82546136  0.81433281  1
  In3+  In10  1  -0.00401385  0.33375025  0.31719299  1
  In3+  In11  1  0.17355991  0.81999319  0.33414719  1
  In3+  In12  1  0.66716705  0.80972744  0.48206413  1
  In3+  In13  1  0.16003813  0.32864530  0.49318345  1
  In3+  In14  1  0.82605367  0.01465060  0.82111016  1
  In3+  In15  1  -0.00376495  0.82056213  0.17208126  1
  In3+  In16  1  0.34283795  0.01739694  0.66881538  1
  In3+  In17  1  0.65059231  -0.00255020  0.00154834  1
  In3+  In18  1  0.50096969  0.00300178  0.18446436  1
  In3+  In19  1  0.16683620  0.51108386  0.67031507  1
  In3+  In20  1  0.65875006  0.67669062  -0.00907517  1
  In3+  In21  1  0.65750126  0.33115790  0.33424191  1
  Ag+  Ag22  1  0.15225603  0.17213812  0.30884130  1
  Ag+  Ag23  1  0.34862953  0.35389558  0.03119640  1
  Ag+  Ag24  1  0.84002020  0.16519340  0.64384617  1
  Ag+  Ag25  1  0.83109339  0.68533929  0.47312798  1
  Ag+  Ag26  1  0.66954199  0.63827925  0.63183735  1
  Ag+  Ag27  1  0.52490930  -0.00516864  0.82805087  1
  Ag+  Ag28  1  0.66671014  0.63924151  0.32973519  1
  Ag+  Ag29  1  0.35525244  0.50262230  0.14831396  1
  Ag+  Ag30  1  0.63770096  0.00008903  0.35631015  1
  Ag+  Ag31  1  0.52030408  0.16825635  0.33368717  1
  Ag+  Ag32  1  0.01084289  0.63511837  0.33637032  1
  Ag+  Ag33  1  0.65435342  0.16302034  0.80791542  1
  Ag+  Ag34  1  0.52489818  0.81267668  0.33203115  1
  Ag+  Ag35  1  0.48513220  0.35718778  0.16340845  1
  Ag+  Ag36  1  0.82799776  -0.02021767  0.48118816  1
  Ag+  Ag37  1  0.02211394  0.16651181  0.15825956  1
  Ag+  Ag38  1  0.68948472  0.50578053  0.50772736  1
  Ag+  Ag39  1  0.36446638  0.63846369  0.33852779  1
  Ag+  Ag40  1  0.33348650  0.64672496  -0.02377027  1
  Ag+  Ag41  1  -0.00216857  0.51659229  0.17236556  1
  Ag+  Ag42  1  0.66429872  0.52820078  0.80127736  1
  Sn2+  Sn43  1  0.83493282  0.00463119  0.17465106  1
  Sn2+  Sn44  1  0.50243322  0.83045637  0.65888579  1
  Sn2+  Sn45  1  0.16025114  0.00577928  0.83372482  1
  Sn2+  Sn46  1  0.33971396  0.16823006  0.49112377  1
  Sn2+  Sn47  1  0.35026619  0.16313783  0.83627765  1
  Sn2+  Sn48  1  -0.00104923  0.16007194  0.83597775  1
  Sn2+  Sn49  1  0.01058505  0.33720560  0.00620998  1
  Sn2+  Sn50  1  -0.00221739  0.49893123  0.49416953  1
  Sn2+  Sn51  1  -0.00088861  0.16952109  0.49616288  1
  Sn2+  Sn52  1  0.66488603  0.83136883  0.17661135  1
  Sn2+  Sn53  1  0.50352914  0.16124797  0.66873320  1
  Sn2+  Sn54  1  -0.00555856  0.83784777  0.48910592  1
  Sn2+  Sn55  1  0.33793226  0.83581529  0.83513834  1
  Sn2+  Sn56  1  0.83341446  0.49102581  0.67064609  1
  Sn2+  Sn57  1  0.83195917  0.49654604  0.00462382  1
  Sn2+  Sn58  1  0.17453410  0.83211195  0.66595163  1
  Sn2+  Sn59  1  0.67576559  0.49969584  0.16409623  1
  Sn2+  Sn60  1  0.16166338  0.16740923  0.00155934  1
  Sn2+  Sn61  1  0.34072817  0.17369481  0.16936654  1
  Sn2+  Sn62  1  0.16648966  0.82997450  -0.00072434  1
  Sn2+  Sn63  1  0.50060757  0.67808430  0.83527207  1
  Sn2+  Sn64  1  0.15351496  0.16748793  0.67001508  1
  Bi3+  Bi65  1  0.49590539  0.33298212  0.49532184  1
  Bi3+  Bi66  1  0.00138384  0.33667655  0.66847027  1
  Bi3+  Bi67  1  0.15887395  0.00508555  0.50129262  1
  Bi3+  Bi68  1  0.50297521  0.50147762  -0.00189336  1
  Bi3+  Bi69  1  0.82920503  0.33294020  0.83616620  1
  Bi3+  Bi70  1  0.33270544  0.00234954  -0.00404384  1
  Bi3+  Bi71  1  0.32994891  0.00943096  0.33317623  1
  Bi3+  Bi72  1  0.82781307  0.66334357  0.16649038  1
  Bi3+  Bi73  1  0.33314434  0.33254654  0.33709533  1
  Bi3+  Bi74  1  0.82755749  0.33341274  0.16755077  1
  Bi3+  Bi75  1  -0.00010491  0.00834734  0.33492671  1
  Bi3+  Bi76  1  0.17311913  0.66360154  0.17058951  1
  Bi3+  Bi77  1  0.66485572  0.33276127  0.00650641  1
  Bi3+  Bi78  1  0.83131929  0.66451451  0.83705655  1
  Bi3+  Bi79  1  0.50607376  0.66676206  0.49872911  1
  Bi3+  Bi80  1  0.33146262  0.50103361  0.49960217  1
  Bi3+  Bi81  1  0.16441699  0.33372610  0.83261917  1
  Bi3+  Bi82  1  -0.00250578  0.00470191  0.00424149  1
  Bi3+  Bi83  1  0.49888356  0.66964188  0.16995610  1
  Bi3+  Bi84  1  0.83616960  0.17077443  0.33189347  1
  Bi3+  Bi85  1  0.34078165  0.49756941  0.83679788  1
  Te2-  Te86  1  0.17168505  0.16921402  0.16107209  1
  Te2-  Te87  1  0.16757452  0.16805435  0.51075590  1
  Te2-  Te88  1  0.16604311  0.17165707  0.83396158  1
  Te2-  Te89  1  0.15064206  0.50217763  0.16547801  1
  Te2-  Te90  1  0.16759977  0.49669888  0.50714526  1
  Te2-  Te91  1  0.17113572  0.49700085  0.83075270  1
  Te2-  Te92  1  0.16142311  0.82894480  0.17315619  1
  Te2-  Te93  1  0.16151494  0.83943710  0.49488359  1
  Te2-  Te94  1  0.15924829  0.83446573  0.83238518  1
  Te2-  Te95  1  0.50573625  0.15791512  0.17830262  1
  Te2-  Te96  1  0.50834591  0.17116660  0.49742221  1
  Te2-  Te97  1  0.50663768  0.16006530  0.82978721  1
  Te2-  Te98  1  0.50429682  0.50456072  0.16485045  1
  Te2-  Te99  1  0.49500640  0.49976581  0.49992431  1
  Te2-  Te100  1  0.50887793  0.50255122  0.83514204  1
  Te2-  Te101  1  0.50290336  0.83550926  0.18079719  1
  Te2-  Te102  1  0.51002432  0.83185726  0.48740603  1
  Te2-  Te103  1  0.49860042  0.83995648  0.83098917  1
  Te2-  Te104  1  0.82312160  0.17152260  0.16943974  1
  Te2-  Te105  1  0.82830596  0.18243177  0.49643258  1
  Te2-  Te106  1  0.83203637  0.16737061  0.84110091  1
  Te2-  Te107  1  0.84525435  0.49707992  0.16948680  1
  Te2-  Te108  1  0.83617045  0.49091186  0.49848903  1
  Te2-  Te109  1  0.81777452  0.49837443  0.83623833  1
  Te2-  Te110  1  0.83492321  0.83147201  0.16793705  1
  Te2-  Te111  1  0.82347779  0.83222977  0.50203382  1
  Te2-  Te112  1  0.84125764  0.82952332  0.83434571  1
  Te2-  Te113  1  0.16430815  -0.00111027  0.00113105  1
  Te2-  Te114  1  0.16453893  0.01990668  0.34033041  1
  Te2-  Te115  1  0.16741340  -0.00263345  0.66330410  1
  Te2-  Te116  1  0.17563109  0.33818845  -0.00469009  1
  Te2-  Te117  1  0.16348601  0.32213318  0.33809954  1
  Te2-  Te118  1  0.16572322  0.33534750  0.67041992  1
  Te2-  Te119  1  0.18196634  0.66144757  0.00758201  1
  Te2-  Te120  1  0.15419362  0.66700373  0.33434459  1
  Te2-  Te121  1  0.16974640  0.66606573  0.66695202  1
  Te2-  Te122  1  0.49840797  0.00058156  -0.01824120  1
  Te2-  Te123  1  0.49168421  0.01619221  0.33713780  1
  Te2-  Te124  1  0.49586636  0.00123797  0.67680781  1
  Te2-  Te125  1  0.49657499  0.33523966  0.01346698  1
  Te2-  Te126  1  0.50076184  0.32124956  0.33024241  1
  Te2-  Te127  1  0.49593070  0.32816944  0.66251593  1
  Te2-  Te128  1  0.48796855  0.66612456  0.00483129  1
  Te2-  Te129  1  0.51070563  0.66524217  0.33495911  1
  Te2-  Te130  1  0.51899056  0.67134251  0.66118744  1
  Te2-  Te131  1  0.83554671  0.00738689  0.00778034  1
  Te2-  Te132  1  0.83765752  0.00758887  0.33621568  1
  Te2-  Te133  1  0.83248269  0.01301414  0.66794122  1
  Te2-  Te134  1  0.83269273  0.33032251  0.00184138  1
  Te2-  Te135  1  0.83446237  0.33415936  0.33454575  1
  Te2-  Te136  1  0.83895842  0.32356645  0.67109327  1
  Te2-  Te137  1  0.83142228  0.66393007  0.00428141  1
  Te2-  Te138  1  0.82294151  0.66164037  0.32806416  1
  Te2-  Te139  1  0.81684812  0.66236911  0.67435546  1
  Te2-  Te140  1  -0.00108263  0.16598170  0.00442942  1
  Te2-  Te141  1  0.00213247  0.17448498  0.33492514  1
  Te2-  Te142  1  -0.00922905  0.17069762  0.66864699  1
  Te2-  Te143  1  0.00500540  0.49683749  0.00387829  1
  Te2-  Te144  1  -0.00545546  0.48828907  0.32694294  1
  Te2-  Te145  1  0.00143757  0.50448373  0.66631580  1
  Te2-  Te146  1  0.00389865  0.83817838  0.01490184  1
  Te2-  Te147  1  0.00427449  0.84500086  0.33033848  1
  Te2-  Te148  1  0.00084659  0.82192828  0.66140206  1
  Te2-  Te149  1  0.33177527  0.16251635  0.00000111  1
  Te2-  Te150  1  0.32366760  0.17087522  0.33057659  1
  Te2-  Te151  1  0.33235300  0.16991539  0.66667284  1
  Te2-  Te152  1  0.33575120  0.49967953  0.00108153  1
  Te2-  Te153  1  0.33001766  0.49343675  0.33740498  1
  Te2-  Te154  1  0.33037151  0.49533469  0.66884823  1
  Te2-  Te155  1  0.32741727  0.84009056  -0.00105390  1
  Te2-  Te156  1  0.32502053  0.84777126  0.33379404  1
  Te2-  Te157  1  0.33510119  0.83210626  0.66764054  1
  Te2-  Te158  1  0.66842934  0.16863050  0.01289141  1
  Te2-  Te159  1  0.67123885  0.16365572  0.33669820  1
  Te2-  Te160  1  0.67376420  0.15780652  0.66107190  1
  Te2-  Te161  1  0.66459905  0.49423495  0.00384340  1
  Te2-  Te162  1  0.67410003  0.48838211  0.33496004  1
  Te2-  Te163  1  0.67248869  0.49235155  0.65942303  1
  Te2-  Te164  1  0.66456475  0.83660747  0.00365387  1
  Te2-  Te165  1  0.66603099  0.85457763  0.33619997  1
  Te2-  Te166  1  0.66303869  0.85142303  0.66529495  1
  Te2-  Te167  1  -0.00177457  0.01710548  0.16928146  1
  Te2-  Te168  1  -0.00976093  0.00185777  0.50084981  1
  Te2-  Te169  1  -0.00800380  -0.00659604  0.84051068  1
  Te2-  Te170  1  -0.00595862  0.31748571  0.16445536  1
  Te2-  Te171  1  0.00572823  0.33550192  0.50796350  1
  Te2-  Te172  1  -0.00335999  0.33261463  0.83482688  1
  Te2-  Te173  1  -0.00272243  0.66583054  0.17952746  1
  Te2-  Te174  1  -0.01731670  0.66692096  0.48967778  1
  Te2-  Te175  1  -0.00400076  0.66880221  0.84051168  1
  Te2-  Te176  1  0.33980424  0.00078813  0.16276898  1
  Te2-  Te177  1  0.32908996  0.00352497  0.50675336  1
  Te2-  Te178  1  0.32284707  0.00092905  0.82915074  1
  Te2-  Te179  1  0.33797231  0.34464914  0.17553278  1
  Te2-  Te180  1  0.33161545  0.33570912  0.50275161  1
  Te2-  Te181  1  0.33198054  0.33560027  0.83120577  1
  Te2-  Te182  1  0.33487140  0.65402423  0.18614716  1
  Te2-  Te183  1  0.33526282  0.66467733  0.48943301  1
  Te2-  Te184  1  0.33831490  0.66195373  0.82970692  1
  Te2-  Te185  1  0.66090745  0.00099036  0.15812081  1
  Te2-  Te186  1  0.67891836  0.00785875  0.49769593  1
  Te2-  Te187  1  0.67368933  0.01320008  0.84711491  1
  Te2-  Te188  1  0.66581339  0.33169947  0.17216935  1
  Te2-  Te189  1  0.66042424  0.34434603  0.49478160  1
  Te2-  Te190  1  0.66841629  0.31568159  0.84090763  1
  Te2-  Te191  1  0.66561930  0.66702577  0.17692694  1
  Te2-  Te192  1  0.67235387  0.65816674  0.48497480  1
  Te2-  Te193  1  0.66716065  0.66990584  0.83805498  1
  Pb2+  Pb194  1  0.49907154  0.16624930  0.00810726  1
  Pb2+  Pb195  1  0.34464594  0.66603649  0.65855684  1
  Pb2+  Pb196  1  0.16660796  -0.00065570  0.17170810  1
  Pb2+  Pb197  1  0.16585470  0.66617545  0.83749872  1
  Pb2+  Pb198  1  0.50200312  0.49897297  0.66785230  1
  Pb2+  Pb199  1  0.00071649  -0.00181775  0.67075534  1
  Pb2+  Pb200  1  0.15641575  0.66727839  0.50154700  1
  Pb2+  Pb201  1  0.33521287  0.83438433  0.49864747  1
  Pb2+  Pb202  1  0.00547361  0.66594393  0.01083892  1
  Pb2+  Pb203  1  0.83003394  0.83566510  0.66745400  1
  Pb2+  Pb204  1  0.83367982  0.83434482  0.33440816  1
  Pb2+  Pb205  1  0.49599657  0.83486619  0.00643912  1
  Pb2+  Pb206  1  0.16898486  0.33554276  0.16603434  1
  Pb2+  Pb207  1  0.50262991  0.32993609  0.83973833  1
  Pb2+  Pb208  1  0.16398244  0.49492549  0.33477728  1
  Pb2+  Pb209  1  0.33346715  0.82252089  0.17015192  1
  Pb2+  Pb210  1  0.66747366  0.84143897  0.83087553  1
  Pb2+  Pb211  1  0.83450718  0.83861531  0.00036087  1
  Pb2+  Pb212  1  0.50491201  0.00120105  0.50597976  1
  Pb2+  Pb213  1  0.50297336  0.49264002  0.33195426  1
  Pb2+  Pb214  1  0.66935100  0.32425867  0.67028781  1
  Pb2+  Pb215  1  -0.00966390  0.50039376  0.83474516  1
