# generated using pymatgen
data_In22Ag21Sn22Bi21(Te54Pb11)2
_symmetry_space_group_name_H-M   'P 1'
_cell_length_a   19.19029408
_cell_length_b   19.20590339
_cell_length_c   19.19801957
_cell_angle_alpha   89.99118529
_cell_angle_beta   90.00036656
_cell_angle_gamma   89.98968305
_symmetry_Int_Tables_number   1
_chemical_formula_structural   In22Ag21Sn22Bi21(Te54Pb11)2
_chemical_formula_sum   'In22 Ag21 Sn22 Bi21 Te108 Pb22'
_cell_volume   7075.75501726
_cell_formula_units_Z   1
loop_
 _symmetry_equiv_pos_site_id
 _symmetry_equiv_pos_as_xyz
  1  'x, y, z'
loop_
 _atom_type_symbol
 _atom_type_oxidation_number
  In3+  3.0
  Ag+  1.0
  Sn2+  2.0
  Bi3+  3.0
  Te2-  -2.0
  Pb2+  2.0
loop_
 _atom_site_type_symbol
 _atom_site_label
 _atom_site_symmetry_multiplicity
 _atom_site_fract_x
 _atom_site_fract_y
 _atom_site_fract_z
 _atom_site_occupancy
  In3+  In0  1  0.84920648  0.17125256  0.33307552  1
  In3+  In1  1  0.15344416  0.82845232  0.33393346  1
  In3+  In2  1  0.16460929  0.48269408  0.66273673  1
  In3+  In3  1  0.17099677  0.82038962  0.00031404  1
  In3+  In4  1  0.03071322  0.16282443  0.50508277  1
  In3+  In5  1  0.67509544  0.69655882  0.00450879  1
  In3+  In6  1  0.33255152  0.82650789  0.50291211  1
  In3+  In7  1  -0.00157160  0.47895590  0.49884271  1
  In3+  In8  1  0.00007968  0.81912621  0.16845473  1
  In3+  In9  1  0.82155196  0.48379223  0.00222717  1
  In3+  In10  1  0.00395001  0.01449874  0.02114401  1
  In3+  In11  1  0.15747891  0.00796690  0.18477617  1
  In3+  In12  1  0.16684154  0.48001748  0.31888346  1
  In3+  In13  1  0.00729213  0.01315953  0.67004343  1
  In3+  In14  1  0.67834304  0.83553373  0.47705809  1
  In3+  In15  1  0.66759176  0.47639467  0.17808859  1
  In3+  In16  1  0.46923039  0.16880373  0.00869687  1
  In3+  In17  1  -0.00555352  -0.00727815  0.34121429  1
  In3+  In18  1  0.33462984  0.82684817  0.82390134  1
  In3+  In19  1  0.16294001  0.00215216  0.84322706  1
  In3+  In20  1  0.00702173  0.82035329  0.50969490  1
  In3+  In21  1  0.82294985  0.82088198  0.33104751  1
  Ag+  Ag22  1  0.85500181  0.35344426  0.14895402  1
  Ag+  Ag23  1  -0.03426527  0.36588293  0.69156055  1
  Ag+  Ag24  1  0.65483933  0.86212274  0.81408266  1
  Ag+  Ag25  1  0.01850720  0.47403092  0.15864190  1
  Ag+  Ag26  1  0.36134204  0.30115418  0.29983361  1
  Ag+  Ag27  1  0.70042548  0.81145110  0.14643181  1
  Ag+  Ag28  1  0.69942632  0.01769924  0.29408057  1
  Ag+  Ag29  1  -0.02103870  0.63984071  0.33318088  1
  Ag+  Ag30  1  0.30263718  0.20031561  0.19755287  1
  Ag+  Ag31  1  0.00192732  0.36757984  0.03249610  1
  Ag+  Ag32  1  0.33637276  0.15367121  0.48239797  1
  Ag+  Ag33  1  0.64335136  0.00659409  0.00092592  1
  Ag+  Ag34  1  0.37328285  0.69763120  0.02666467  1
  Ag+  Ag35  1  0.47958792  0.35470904  0.14241710  1
  Ag+  Ag36  1  0.50074741  0.18550760  0.64208291  1
  Ag+  Ag37  1  0.14108498  0.84000047  0.69442400  1
  Ag+  Ag38  1  0.30851880  0.48763221  0.17479890  1
  Ag+  Ag39  1  0.52545003  0.36104319  0.48598622  1
  Ag+  Ag40  1  0.14671749  0.15103227  0.31101976  1
  Ag+  Ag41  1  0.80843126  0.64242439  0.82929143  1
  Ag+  Ag42  1  0.16071955  0.14665438  -0.02030816  1
  Sn2+  Sn43  1  0.84005118  0.16629631  0.00467815  1
  Sn2+  Sn44  1  0.00541429  0.17188391  0.16277631  1
  Sn2+  Sn45  1  0.82077019  0.00718235  0.16290664  1
  Sn2+  Sn46  1  0.65459261  0.32195701  0.33265450  1
  Sn2+  Sn47  1  0.49874357  0.49634071  0.00120814  1
  Sn2+  Sn48  1  0.32692836  0.48681023  0.49082204  1
  Sn2+  Sn49  1  0.16008723  0.33266465  0.84123762  1
  Sn2+  Sn50  1  0.83236990  -0.00638451  0.83275491  1
  Sn2+  Sn51  1  0.32668070  0.00387003  0.00403909  1
  Sn2+  Sn52  1  0.32981787  0.00663973  0.66288158  1
  Sn2+  Sn53  1  0.16598203  0.49969504  -0.00408427  1
  Sn2+  Sn54  1  0.33692619  0.00299567  0.33211762  1
  Sn2+  Sn55  1  -0.00222978  0.16844864  0.83403597  1
  Sn2+  Sn56  1  0.50611167  0.67412095  0.83306713  1
  Sn2+  Sn57  1  0.66449947  0.50136148  0.84368572  1
  Sn2+  Sn58  1  0.16958317  0.32733698  0.16872992  1
  Sn2+  Sn59  1  0.65201268  0.15964696  0.49876004  1
  Sn2+  Sn60  1  0.16730073  0.00288777  0.50155539  1
  Sn2+  Sn61  1  0.67107007  0.66784148  0.67375951  1
  Sn2+  Sn62  1  0.50498668  0.83940641  0.66710145  1
  Sn2+  Sn63  1  0.83440856  0.32898137  0.49126054  1
  Sn2+  Sn64  1  0.50506484  0.66996298  0.50684501  1
  Bi3+  Bi65  1  0.83886615  0.83836233  0.00130959  1
  Bi3+  Bi66  1  0.33434079  0.67034716  0.66714985  1
  Bi3+  Bi67  1  0.83143618  0.00409453  0.49684766  1
  Bi3+  Bi68  1  0.49412614  0.00342477  0.16807938  1
  Bi3+  Bi69  1  0.33319017  0.16224834  0.83800377  1
  Bi3+  Bi70  1  0.17097713  0.33681348  0.50066207  1
  Bi3+  Bi71  1  0.33217727  0.66898416  0.33131302  1
  Bi3+  Bi72  1  -0.00115981  0.67115575  0.00403325  1
  Bi3+  Bi73  1  0.67056838  0.16493737  0.83514610  1
  Bi3+  Bi74  1  0.66199346  0.33143063  0.66580485  1
  Bi3+  Bi75  1  0.17156981  0.67014322  0.83033751  1
  Bi3+  Bi76  1  0.66637402  0.16194681  0.16701377  1
  Bi3+  Bi77  1  0.49631782  -0.00394248  0.50062483  1
  Bi3+  Bi78  1  0.33266600  0.50168455  0.84031765  1
  Bi3+  Bi79  1  0.16981959  0.67122890  0.50009731  1
  Bi3+  Bi80  1  0.33235657  0.33357134  0.66404934  1
  Bi3+  Bi81  1  0.50013842  0.16148271  0.33007291  1
  Bi3+  Bi82  1  0.00360121  0.33260778  0.33991957  1
  Bi3+  Bi83  1  0.33155488  0.83939403  0.16978759  1
  Bi3+  Bi84  1  0.49597726  0.83368382  0.33389230  1
  Bi3+  Bi85  1  0.32152577  0.33896937  -0.00132814  1
  Te2-  Te86  1  0.16632095  0.16129410  0.16674590  1
  Te2-  Te87  1  0.18379554  0.17055929  0.50106891  1
  Te2-  Te88  1  0.16995347  0.16084695  0.82999746  1
  Te2-  Te89  1  0.16367964  0.49981883  0.16610467  1
  Te2-  Te90  1  0.15925132  0.50569605  0.50308692  1
  Te2-  Te91  1  0.17079637  0.50529523  0.82509909  1
  Te2-  Te92  1  0.16546136  0.84689461  0.16719050  1
  Te2-  Te93  1  0.16428026  0.83510236  0.49040588  1
  Te2-  Te94  1  0.17162001  0.83486369  0.83956191  1
  Te2-  Te95  1  0.50103719  0.16333788  0.16303085  1
  Te2-  Te96  1  0.49241807  0.15691764  0.49632199  1
  Te2-  Te97  1  0.49900717  0.16308000  0.85037359  1
  Te2-  Te98  1  0.51566654  0.49415398  0.16446905  1
  Te2-  Te99  1  0.49646209  0.50391485  0.49725064  1
  Te2-  Te100  1  0.49459655  0.49857024  0.83823111  1
  Te2-  Te101  1  0.49649471  0.83864578  0.17178802  1
  Te2-  Te102  1  0.49997288  0.83340484  0.49608587  1
  Te2-  Te103  1  0.51010479  0.83213176  0.83799423  1
  Te2-  Te104  1  0.83250877  0.16353548  0.17390224  1
  Te2-  Te105  1  0.82254544  0.16440164  0.49030464  1
  Te2-  Te106  1  0.83339957  0.16133644  0.83027086  1
  Te2-  Te107  1  0.82144823  0.49569205  0.15886264  1
  Te2-  Te108  1  0.84346419  0.50084742  0.49904345  1
  Te2-  Te109  1  0.83565212  0.49900795  0.84616319  1
  Te2-  Te110  1  0.84265925  0.84046806  0.17174023  1
  Te2-  Te111  1  0.83985036  0.83954788  0.49053724  1
  Te2-  Te112  1  0.82663319  0.83818151  0.83907564  1
  Te2-  Te113  1  0.15677920  0.00208437  -0.00491063  1
  Te2-  Te114  1  0.16261671  0.00623001  0.33468229  1
  Te2-  Te115  1  0.16245846  -0.01458683  0.65848054  1
  Te2-  Te116  1  0.15411433  0.34415086  0.00195867  1
  Te2-  Te117  1  0.16730131  0.32979950  0.33876718  1
  Te2-  Te118  1  0.16887969  0.32843365  0.66595568  1
  Te2-  Te119  1  0.16530931  0.66755956  -0.00402015  1
  Te2-  Te120  1  0.17161264  0.67718091  0.33682826  1
  Te2-  Te121  1  0.17426912  0.69135956  0.66442526  1
  Te2-  Te122  1  0.49413534  0.00567474  0.00465590  1
  Te2-  Te123  1  0.50293614  -0.00488764  0.33554717  1
  Te2-  Te124  1  0.49873840  -0.00244574  0.66557001  1
  Te2-  Te125  1  0.49422977  0.32386486  0.00049429  1
  Te2-  Te126  1  0.49789493  0.32602441  0.34491611  1
  Te2-  Te127  1  0.49791891  0.33126788  0.65949605  1
  Te2-  Te128  1  0.51178724  0.66480611  -0.00060568  1
  Te2-  Te129  1  0.49633018  0.66847481  0.33653483  1
  Te2-  Te130  1  0.49682101  0.66801400  0.66628941  1
  Te2-  Te131  1  0.85290373  -0.00126805  -0.00198123  1
  Te2-  Te132  1  0.83949360  0.00533075  0.33490461  1
  Te2-  Te133  1  0.83852586  0.00033533  0.66065959  1
  Te2-  Te134  1  0.85083875  0.33207907  0.00463008  1
  Te2-  Te135  1  0.83665488  0.32653077  0.33332797  1
  Te2-  Te136  1  0.82660912  0.33265102  0.66285887  1
  Te2-  Te137  1  0.83367591  0.67716766  -0.01116837  1
  Te2-  Te138  1  0.83480440  0.66929419  0.33201829  1
  Te2-  Te139  1  0.83345495  0.66470679  0.68081656  1
  Te2-  Te140  1  0.00880791  0.16331113  -0.00789579  1
  Te2-  Te141  1  0.00421373  0.17015616  0.34198199  1
  Te2-  Te142  1  0.00382299  0.16364499  0.65842592  1
  Te2-  Te143  1  -0.00224026  0.51317588  0.01508624  1
  Te2-  Te144  1  0.01062434  0.49592305  0.32603176  1
  Te2-  Te145  1  0.00688907  0.50186561  0.66377879  1
  Te2-  Te146  1  0.00647643  0.83298910  0.00809411  1
  Te2-  Te147  1  0.00231232  0.84172321  0.32650989  1
  Te2-  Te148  1  -0.00202599  0.83201548  0.66087750  1
  Te2-  Te149  1  0.31342421  0.17395345  -0.00250659  1
  Te2-  Te150  1  0.33846888  0.16112917  0.33468980  1
  Te2-  Te151  1  0.35032011  0.17065286  0.67870232  1
  Te2-  Te152  1  0.33353787  0.49855910  0.00117885  1
  Te2-  Te153  1  0.32186031  0.50579309  0.32318687  1
  Te2-  Te154  1  0.32587832  0.50337616  0.66835280  1
  Te2-  Te155  1  0.32752795  0.83491655  0.00307997  1
  Te2-  Te156  1  0.33222758  0.83476926  0.33483502  1
  Te2-  Te157  1  0.34098132  0.83277240  0.66846852  1
  Te2-  Te158  1  0.68010240  0.15591180  -0.00018179  1
  Te2-  Te159  1  0.66199126  0.15646771  0.33232017  1
  Te2-  Te160  1  0.65383233  0.16857082  0.67064993  1
  Te2-  Te161  1  0.66852754  0.48822773  0.00159837  1
  Te2-  Te162  1  0.66804030  0.49696237  0.33268769  1
  Te2-  Te163  1  0.66392710  0.49711544  0.66872615  1
  Te2-  Te164  1  0.67414132  0.84633686  0.00659458  1
  Te2-  Te165  1  0.66746535  0.83831641  0.32646234  1
  Te2-  Te166  1  0.66397155  0.82607911  0.67254645  1
  Te2-  Te167  1  0.00152709  0.00807440  0.17346014  1
  Te2-  Te168  1  -0.00351598  0.00916341  0.49572513  1
  Te2-  Te169  1  0.00561678  -0.00182246  0.82137027  1
  Te2-  Te170  1  -0.00061903  0.32944549  0.17609135  1
  Te2-  Te171  1  0.00344904  0.32601861  0.50408200  1
  Te2-  Te172  1  0.00484044  0.33159102  0.82667825  1
  Te2-  Te173  1  0.00034912  0.66889446  0.17733167  1
  Te2-  Te174  1  0.00574205  0.67174967  0.48257971  1
  Te2-  Te175  1  0.00982418  0.66791181  0.83767681  1
  Te2-  Te176  1  0.32903582  0.00021389  0.16437329  1
  Te2-  Te177  1  0.33508149  0.00493322  0.50413986  1
  Te2-  Te178  1  0.32149517  -0.00240092  0.83373629  1
  Te2-  Te179  1  0.33410806  0.34158525  0.16094468  1
  Te2-  Te180  1  0.32953654  0.33464007  0.50513805  1
  Te2-  Te181  1  0.32811584  0.33618612  0.83341775  1
  Te2-  Te182  1  0.33251212  0.67482538  0.16623603  1
  Te2-  Te183  1  0.33176691  0.66258157  0.50075465  1
  Te2-  Te184  1  0.33340770  0.66592599  0.83302844  1
  Te2-  Te185  1  0.65930954  0.00133030  0.15497614  1
  Te2-  Te186  1  0.66649290  -0.01002772  0.50210408  1
  Te2-  Te187  1  0.66689822  0.00503816  0.84351580  1
  Te2-  Te188  1  0.66816221  0.32346626  0.17244532  1
  Te2-  Te189  1  0.66820766  0.33048621  0.50234249  1
  Te2-  Te190  1  0.66762660  0.32962406  0.83372624  1
  Te2-  Te191  1  0.66893412  0.66970884  0.15740599  1
  Te2-  Te192  1  0.67067791  0.67356456  0.50134843  1
  Te2-  Te193  1  0.66413931  0.65808695  0.83949532  1
  Pb2+  Pb194  1  0.83536309  0.66437728  0.15650063  1
  Pb2+  Pb195  1  0.83073837  0.50011550  0.67183740  1
  Pb2+  Pb196  1  0.49470075  0.49841866  0.66769848  1
  Pb2+  Pb197  1  0.00926968  0.66493896  0.66191654  1
  Pb2+  Pb198  1  0.82942792  0.83267526  0.66904277  1
  Pb2+  Pb199  1  0.49187596  -0.00199539  0.83364383  1
  Pb2+  Pb200  1  0.82996660  0.16720304  0.65929926  1
  Pb2+  Pb201  1  0.17976267  0.15557856  0.66482784  1
  Pb2+  Pb202  1  0.83644048  0.32905239  0.83803984  1
  Pb2+  Pb203  1  0.83926896  0.49287093  0.32860271  1
  Pb2+  Pb204  1  -0.00556677  0.83329036  0.83770497  1
  Pb2+  Pb205  1  0.00344518  0.49956637  0.84738692  1
  Pb2+  Pb206  1  0.50256933  0.83455924  0.00488440  1
  Pb2+  Pb207  1  0.16628985  0.67088714  0.16711870  1
  Pb2+  Pb208  1  0.49973889  0.66343936  0.16600577  1
  Pb2+  Pb209  1  0.66676477  0.49953613  0.50127128  1
  Pb2+  Pb210  1  0.66779965  -0.00078290  0.67000804  1
  Pb2+  Pb211  1  0.83824332  0.67027256  0.50653197  1
  Pb2+  Pb212  1  0.66969411  0.32167540  0.00646268  1
  Pb2+  Pb213  1  0.49824928  0.32778548  0.82890154  1
  Pb2+  Pb214  1  0.66521421  0.66876254  0.32738254  1
  Pb2+  Pb215  1  0.49069255  0.49206197  0.32838101  1
