# generated using pymatgen
data_In22Ag21Sn22Bi21(Te54Pb11)2
_symmetry_space_group_name_H-M   'P 1'
_cell_length_a   19.13903961
_cell_length_b   19.15251872
_cell_length_c   19.13523372
_cell_angle_alpha   89.99480945
_cell_angle_beta   89.99250224
_cell_angle_gamma   90.01477038
_symmetry_Int_Tables_number   1
_chemical_formula_structural   In22Ag21Sn22Bi21(Te54Pb11)2
_chemical_formula_sum   'In22 Ag21 Sn22 Bi21 Te108 Pb22'
_cell_volume   7014.22653344
_cell_formula_units_Z   1
loop_
 _symmetry_equiv_pos_site_id
 _symmetry_equiv_pos_as_xyz
  1  'x, y, z'
loop_
 _atom_type_symbol
 _atom_type_oxidation_number
  In3+  3.0
  Ag+  1.0
  Sn2+  2.0
  Bi3+  3.0
  Te2-  -2.0
  Pb2+  2.0
loop_
 _atom_site_type_symbol
 _atom_site_label
 _atom_site_symmetry_multiplicity
 _atom_site_fract_x
 _atom_site_fract_y
 _atom_site_fract_z
 _atom_site_occupancy
  In3+  In0  1  0.67536966  -0.00582962  0.67110020  1
  In3+  In1  1  0.50091160  0.51281065  0.32628365  1
  In3+  In2  1  0.00262495  0.17200406  0.52219795  1
  In3+  In3  1  0.16528630  0.00207941  0.83684742  1
  In3+  In4  1  0.51518278  -0.00393880  0.18437145  1
  In3+  In5  1  0.51480695  0.33621137  0.49029299  1
  In3+  In6  1  0.33714236  0.16378769  0.85038481  1
  In3+  In7  1  0.00268706  0.64947407  0.67680477  1
  In3+  In8  1  0.68746155  0.33569344  0.01033317  1
  In3+  In9  1  0.33131682  0.51140247  0.83550637  1
  In3+  In10  1  0.66531207  0.81022923  0.49092193  1
  In3+  In11  1  0.83216838  0.00497617  0.47659555  1
  In3+  In12  1  0.68860021  0.49744630  0.83329675  1
  In3+  In13  1  0.15668981  0.82925935  0.66311098  1
  In3+  In14  1  0.84072618  0.33383461  0.15485481  1
  In3+  In15  1  0.16568356  0.68392262  0.15647159  1
  In3+  In16  1  0.67467077  0.17086130  0.84205841  1
  In3+  In17  1  0.67358683  0.64272499  0.00149561  1
  In3+  In18  1  0.33614447  -0.00039704  0.00117871  1
  In3+  In19  1  0.65934970  0.82199198  0.83518180  1
  In3+  In20  1  -0.01707576  0.00209921  0.66802064  1
  In3+  In21  1  0.32235627  0.17664004  0.49429270  1
  Ag+  Ag22  1  0.85141115  0.18091418  0.00786902  1
  Ag+  Ag23  1  0.83451747  0.48666962  0.64404887  1
  Ag+  Ag24  1  0.50642275  0.81357523  0.30704787  1
  Ag+  Ag25  1  -0.01720449  0.47735535  0.17146978  1
  Ag+  Ag26  1  -0.02611106  0.17737281  0.82026565  1
  Ag+  Ag27  1  -0.02545420  0.81565085  0.19173432  1
  Ag+  Ag28  1  0.13585998  0.36269819  0.52504538  1
  Ag+  Ag29  1  0.16078803  0.63456582  0.85992679  1
  Ag+  Ag30  1  0.65479953  0.51249237  0.47970296  1
  Ag+  Ag31  1  0.85735622  -0.03191569  0.15660432  1
  Ag+  Ag32  1  0.84907922  0.52116184  0.00324760  1
  Ag+  Ag33  1  0.49710456  0.18749394  0.31984633  1
  Ag+  Ag34  1  0.31592769  0.86435488  0.20157102  1
  Ag+  Ag35  1  0.13908065  0.80872611  0.30669210  1
  Ag+  Ag36  1  0.69267886  0.51865847  0.19408824  1
  Ag+  Ag37  1  0.68854552  0.35120519  0.30766201  1
  Ag+  Ag38  1  0.14612554  0.52412427  -0.00409190  1
  Ag+  Ag39  1  0.02302765  0.35202468  0.66707160  1
  Ag+  Ag40  1  0.14848472  0.16534432  -0.02794285  1
  Ag+  Ag41  1  0.52486760  0.01878940  0.83609107  1
  Ag+  Ag42  1  0.67030047  0.64016203  0.30258823  1
  Sn2+  Sn43  1  0.33714964  0.33970863  0.33741231  1
  Sn2+  Sn44  1  0.00801104  0.33453150  -0.00753357  1
  Sn2+  Sn45  1  0.32393357  0.33557157  -0.00307091  1
  Sn2+  Sn46  1  0.16793496  0.16162224  0.66853125  1
  Sn2+  Sn47  1  0.33169657  0.83669580  0.83615611  1
  Sn2+  Sn48  1  0.15853924  0.32908394  0.83415642  1
  Sn2+  Sn49  1  0.00271963  0.83584840  0.49645399  1
  Sn2+  Sn50  1  0.00015389  0.16279048  0.15504483  1
  Sn2+  Sn51  1  0.50455108  0.00631899  0.50544440  1
  Sn2+  Sn52  1  0.82240519  0.82963971  0.33421956  1
  Sn2+  Sn53  1  0.83761498  0.00337640  0.85171409  1
  Sn2+  Sn54  1  0.33814655  0.67281475  0.33002881  1
  Sn2+  Sn55  1  0.84172736  0.65232420  0.16901947  1
  Sn2+  Sn56  1  -0.00266388  0.65963975  0.00375810  1
  Sn2+  Sn57  1  0.83762166  0.33631800  0.82853220  1
  Sn2+  Sn58  1  0.82880644  0.33824325  0.50105346  1
  Sn2+  Sn59  1  0.50213200  0.16466239  0.00384674  1
  Sn2+  Sn60  1  0.32789835  0.33417809  0.66887737  1
  Sn2+  Sn61  1  0.16491893  0.66489107  0.48941834  1
  Sn2+  Sn62  1  0.83490595  0.82642441  0.66532620  1
  Sn2+  Sn63  1  0.15850338  -0.00068839  0.16820824  1
  Sn2+  Sn64  1  0.33633657  0.48918249  0.50174533  1
  Bi3+  Bi65  1  0.33583614  0.00169843  0.66879301  1
  Bi3+  Bi66  1  0.49905115  0.16502961  0.66220227  1
  Bi3+  Bi67  1  0.16719606  0.16659424  0.33157975  1
  Bi3+  Bi68  1  0.66648347  0.00438080  0.33995072  1
  Bi3+  Bi69  1  0.66540771  0.16876201  0.17002159  1
  Bi3+  Bi70  1  0.33547593  0.66706127  -0.00068732  1
  Bi3+  Bi71  1  0.83409134  0.66937345  0.50065239  1
  Bi3+  Bi72  1  0.16602228  -0.00039300  0.50270449  1
  Bi3+  Bi73  1  0.50139859  0.83652274  0.66798829  1
  Bi3+  Bi74  1  0.00040929  0.00217637  -0.00216570  1
  Bi3+  Bi75  1  0.33239286  0.16426414  0.17027177  1
  Bi3+  Bi76  1  0.66448247  0.00488206  0.00006014  1
  Bi3+  Bi77  1  0.66544490  0.33283099  0.67358882  1
  Bi3+  Bi78  1  0.50111460  0.83905177  -0.00284039  1
  Bi3+  Bi79  1  0.67287068  0.66612801  0.67351376  1
  Bi3+  Bi80  1  0.49712425  0.32908316  0.83257121  1
  Bi3+  Bi81  1  0.00005097  0.83871695  0.83085127  1
  Bi3+  Bi82  1  0.32925508  0.49665957  0.16381759  1
  Bi3+  Bi83  1  0.16365531  0.33180328  0.16477264  1
  Bi3+  Bi84  1  0.33644677  0.83125244  0.49997016  1
  Bi3+  Bi85  1  0.66880695  0.16704403  0.49973087  1
  Te2-  Te86  1  0.16982964  0.16589011  0.17008825  1
  Te2-  Te87  1  0.16276323  0.16316652  0.49521070  1
  Te2-  Te88  1  0.18050617  0.16151113  0.82828020  1
  Te2-  Te89  1  0.17061393  0.49176802  0.15099728  1
  Te2-  Te90  1  0.16669295  0.50264995  0.49817864  1
  Te2-  Te91  1  0.17194224  0.48936916  0.84665698  1
  Te2-  Te92  1  0.17541830  0.83659915  0.16821744  1
  Te2-  Te93  1  0.17167550  0.83647442  0.50265740  1
  Te2-  Te94  1  0.16383162  0.84271281  0.82419317  1
  Te2-  Te95  1  0.49784541  0.15730086  0.17321626  1
  Te2-  Te96  1  0.50350741  0.16870100  0.50100819  1
  Te2-  Te97  1  0.49484472  0.16468768  0.82908446  1
  Te2-  Te98  1  0.49399793  0.49757664  0.17043733  1
  Te2-  Te99  1  0.50708329  0.49208739  0.49857912  1
  Te2-  Te100  1  0.48735962  0.49523660  0.83225821  1
  Te2-  Te101  1  0.49485642  0.84248106  0.16119398  1
  Te2-  Te102  1  0.50344776  0.83786827  0.50782979  1
  Te2-  Te103  1  0.49949741  0.83716273  0.83125119  1
  Te2-  Te104  1  0.82911742  0.17973397  0.15866754  1
  Te2-  Te105  1  0.83536292  0.16077076  0.50040581  1
  Te2-  Te106  1  0.82912861  0.16787054  0.84256158  1
  Te2-  Te107  1  0.83156569  0.49296402  0.15390200  1
  Te2-  Te108  1  0.82956626  0.50359196  0.49728262  1
  Te2-  Te109  1  0.83885414  0.49953954  0.85361797  1
  Te2-  Te110  1  0.82992818  0.82430933  0.17167549  1
  Te2-  Te111  1  0.82853761  0.83656150  0.50186210  1
  Te2-  Te112  1  0.83598277  0.83617621  0.82932176  1
  Te2-  Te113  1  0.16649279  0.01411659  -0.00442661  1
  Te2-  Te114  1  0.17158912  0.00155586  0.33895214  1
  Te2-  Te115  1  0.17312213  -0.00255485  0.66406208  1
  Te2-  Te116  1  0.16484345  0.31350782  0.00186606  1
  Te2-  Te117  1  0.16985023  0.32929958  0.33050471  1
  Te2-  Te118  1  0.16873417  0.33116870  0.66453141  1
  Te2-  Te119  1  0.16956109  0.67196991  0.00155258  1
  Te2-  Te120  1  0.16767668  0.66809387  0.33200256  1
  Te2-  Te121  1  0.15645136  0.67116400  0.65981601  1
  Te2-  Te122  1  0.49885170  0.00049976  -0.01468828  1
  Te2-  Te123  1  0.50493802  -0.00261497  0.33815124  1
  Te2-  Te124  1  0.50127170  0.00097804  0.67802530  1
  Te2-  Te125  1  0.49312281  0.32669804  -0.00532275  1
  Te2-  Te126  1  0.49574414  0.33179424  0.33999204  1
  Te2-  Te127  1  0.49995941  0.32916463  0.66738419  1
  Te2-  Te128  1  0.50132239  0.67119102  -0.00171757  1
  Te2-  Te129  1  0.51832215  0.66700972  0.33202027  1
  Te2-  Te130  1  0.50564525  0.66900540  0.66852218  1
  Te2-  Te131  1  0.83064769  0.00640299  0.01197784  1
  Te2-  Te132  1  0.83124274  -0.00096294  0.32203300  1
  Te2-  Te133  1  0.82969194  0.00019824  0.67641218  1
  Te2-  Te134  1  0.83723671  0.32802123  -0.00164603  1
  Te2-  Te135  1  0.83132153  0.33478461  0.33754354  1
  Te2-  Te136  1  0.82587880  0.33967900  0.67021876  1
  Te2-  Te137  1  0.82706332  0.66875840  0.00314613  1
  Te2-  Te138  1  0.81730663  0.67008100  0.33600560  1
  Te2-  Te139  1  0.83651624  0.66121957  0.66684798  1
  Te2-  Te140  1  -0.00058631  0.16342279  -0.00452084  1
  Te2-  Te141  1  0.00153277  0.16763110  0.32594209  1
  Te2-  Te142  1  -0.00120589  0.15731785  0.67498587  1
  Te2-  Te143  1  -0.00004562  0.50314070  0.01454256  1
  Te2-  Te144  1  -0.00086415  0.50111446  0.32004917  1
  Te2-  Te145  1  -0.01046266  0.49652385  0.66974651  1
  Te2-  Te146  1  0.00189483  0.83673217  -0.00709992  1
  Te2-  Te147  1  -0.00201796  0.83596651  0.33577273  1
  Te2-  Te148  1  0.00099088  0.84317164  0.66660942  1
  Te2-  Te149  1  0.33557020  0.16179107  0.00576570  1
  Te2-  Te150  1  0.34011810  0.16777143  0.33516444  1
  Te2-  Te151  1  0.33683149  0.16311507  0.65104135  1
  Te2-  Te152  1  0.33055650  0.50381161  -0.00272658  1
  Te2-  Te153  1  0.34065454  0.50566352  0.33206282  1
  Te2-  Te154  1  0.33280932  0.50086603  0.66807017  1
  Te2-  Te155  1  0.33743178  0.83279454  -0.00298764  1
  Te2-  Te156  1  0.35287854  0.82790912  0.33887815  1
  Te2-  Te157  1  0.33607244  0.83641483  0.66694651  1
  Te2-  Te158  1  0.66397707  0.16891677  0.00363864  1
  Te2-  Te159  1  0.65479567  0.16617294  0.33551613  1
  Te2-  Te160  1  0.66219270  0.16458767  0.66681086  1
  Te2-  Te161  1  0.66615398  0.48960171  -0.00781610  1
  Te2-  Te162  1  0.65247975  0.49155760  0.33393398  1
  Te2-  Te163  1  0.67999678  0.49982414  0.67852204  1
  Te2-  Te164  1  0.66369681  0.84300579  -0.00398659  1
  Te2-  Te165  1  0.65514335  0.84198111  0.34100638  1
  Te2-  Te166  1  0.66555188  0.83249094  0.66942616  1
  Te2-  Te167  1  0.00046565  -0.00278687  0.16045955  1
  Te2-  Te168  1  -0.00106838  0.00519688  0.50793059  1
  Te2-  Te169  1  0.00557583  0.00358813  0.83196163  1
  Te2-  Te170  1  -0.00145269  0.33077531  0.16320757  1
  Te2-  Te171  1  -0.00398350  0.32521120  0.51563648  1
  Te2-  Te172  1  0.00095145  0.32309520  0.82209674  1
  Te2-  Te173  1  0.00812786  0.67548621  0.16069063  1
  Te2-  Te174  1  -0.00475140  0.67046353  0.50277282  1
  Te2-  Te175  1  0.01470159  0.67152809  0.82996284  1
  Te2-  Te176  1  0.33007225  0.00297651  0.15674671  1
  Te2-  Te177  1  0.33390218  -0.00272368  0.50437405  1
  Te2-  Te178  1  0.32516184  0.00406334  0.83301442  1
  Te2-  Te179  1  0.33135195  0.32994386  0.16617255  1
  Te2-  Te180  1  0.33135991  0.33202342  0.50016055  1
  Te2-  Te181  1  0.33495988  0.32098095  0.83311444  1
  Te2-  Te182  1  0.32478142  0.66144007  0.16248546  1
  Te2-  Te183  1  0.33330721  0.66514118  0.49811157  1
  Te2-  Te184  1  0.31412098  0.66620030  0.83457576  1
  Te2-  Te185  1  0.66977423  0.00529590  0.16661131  1
  Te2-  Te186  1  0.67469090  0.00409915  0.50663659  1
  Te2-  Te187  1  0.67159178  0.01041793  0.83558786  1
  Te2-  Te188  1  0.66707130  0.33119505  0.16407928  1
  Te2-  Te189  1  0.66838281  0.32901099  0.50928385  1
  Te2-  Te190  1  0.66108473  0.33114107  0.83653632  1
  Te2-  Te191  1  0.66805928  0.65909795  0.15558824  1
  Te2-  Te192  1  0.67120597  0.65665410  0.51077772  1
  Te2-  Te193  1  0.66673534  0.66020190  0.83794294  1
  Pb2+  Pb194  1  0.49111776  0.66880985  0.83379831  1
  Pb2+  Pb195  1  0.51036001  0.49734931  0.66558156  1
  Pb2+  Pb196  1  -0.00555986  0.66702755  0.33126674  1
  Pb2+  Pb197  1  0.00044167  0.33358340  0.33888222  1
  Pb2+  Pb198  1  0.49815957  0.49516700  0.00090855  1
  Pb2+  Pb199  1  0.32675865  0.66876524  0.66424987  1
  Pb2+  Pb200  1  0.16766255  0.49902672  0.32048678  1
  Pb2+  Pb201  1  0.16404313  0.50058170  0.67324546  1
  Pb2+  Pb202  1  0.16778655  0.84620759  -0.00221406  1
  Pb2+  Pb203  1  0.82817587  0.50093394  0.32802033  1
  Pb2+  Pb204  1  0.84326742  0.66677719  0.83493699  1
  Pb2+  Pb205  1  0.00462274  0.00369735  0.33404199  1
  Pb2+  Pb206  1  0.82774064  0.16970505  0.32685821  1
  Pb2+  Pb207  1  0.82985010  0.17186599  0.67099264  1
  Pb2+  Pb208  1  0.00413803  0.49445954  0.84468236  1
  Pb2+  Pb209  1  0.66255124  0.82960234  0.17039480  1
  Pb2+  Pb210  1  0.50020317  0.32956686  0.16773598  1
  Pb2+  Pb211  1  -0.00394748  0.50077722  0.49901267  1
  Pb2+  Pb212  1  0.83530832  0.83971126  0.00007997  1
  Pb2+  Pb213  1  0.50010441  0.66649836  0.49688410  1
  Pb2+  Pb214  1  0.33820231  -0.00142028  0.33114034  1
  Pb2+  Pb215  1  0.49385451  0.66849405  0.16696899  1
