# generated using pymatgen
data_In22Ag21Sn22Bi21(Te54Pb11)2
_symmetry_space_group_name_H-M   'P 1'
_cell_length_a   19.17601514
_cell_length_b   19.17758230
_cell_length_c   19.18809173
_cell_angle_alpha   89.98446031
_cell_angle_beta   90.00621352
_cell_angle_gamma   90.02482596
_symmetry_Int_Tables_number   1
_chemical_formula_structural   In22Ag21Sn22Bi21(Te54Pb11)2
_chemical_formula_sum   'In22 Ag21 Sn22 Bi21 Te108 Pb22'
_cell_volume   7056.41225974
_cell_formula_units_Z   1
loop_
 _symmetry_equiv_pos_site_id
 _symmetry_equiv_pos_as_xyz
  1  'x, y, z'
loop_
 _atom_type_symbol
 _atom_type_oxidation_number
  In3+  3.0
  Ag+  1.0
  Sn2+  2.0
  Bi3+  3.0
  Te2-  -2.0
  Pb2+  2.0
loop_
 _atom_site_type_symbol
 _atom_site_label
 _atom_site_symmetry_multiplicity
 _atom_site_fract_x
 _atom_site_fract_y
 _atom_site_fract_z
 _atom_site_occupancy
  In3+  In0  1  0.13820960  0.51778123  0.66295642  1
  In3+  In1  1  0.01941270  0.32607532  -0.00338089  1
  In3+  In2  1  -0.00384560  0.17233767  0.51090904  1
  In3+  In3  1  0.51873193  0.85703303  0.00277851  1
  In3+  In4  1  0.17706731  -0.01377256  0.82954031  1
  In3+  In5  1  0.83169670  0.15842514  0.68482759  1
  In3+  In6  1  0.00453405  0.66354442  0.31391845  1
  In3+  In7  1  0.51849444  0.15961370  0.34268129  1
  In3+  In8  1  0.34049084  0.67356523  0.33595712  1
  In3+  In9  1  0.18404065  0.16559728  0.68356711  1
  In3+  In10  1  0.67160345  0.50639977  0.51776513  1
  In3+  In11  1  0.65249141  0.85057535  0.50108146  1
  In3+  In12  1  -0.00941583  0.70029031  0.67162434  1
  In3+  In13  1  0.34567758  0.00087815  0.68214756  1
  In3+  In14  1  0.50253800  0.33369407  0.15577661  1
  In3+  In15  1  0.33233533  0.33989719  0.68237203  1
  In3+  In16  1  0.33334919  0.67191472  0.00345298  1
  In3+  In17  1  0.64757016  0.50120529  0.16678577  1
  In3+  In18  1  0.18227758  0.33502436  0.83268948  1
  In3+  In19  1  0.84696444  0.33117996  0.16011528  1
  In3+  In20  1  0.35466936  0.33433568  0.33350788  1
  In3+  In21  1  0.18409780  0.33342052  0.17679184  1
  Ag+  Ag22  1  0.31505235  0.16537163  0.86125219  1
  Ag+  Ag23  1  0.53518174  0.86920828  0.30883452  1
  Ag+  Ag24  1  0.86531415  0.14156245  -0.02001449  1
  Ag+  Ag25  1  0.47616262  0.17364664  0.70131428  1
  Ag+  Ag26  1  0.03050830  0.85637156  0.86433870  1
  Ag+  Ag27  1  0.32544231  -0.02809312  -0.02288148  1
  Ag+  Ag28  1  0.81828311  0.46435098  0.69351969  1
  Ag+  Ag29  1  0.18173771  0.85967183  -0.02352594  1
  Ag+  Ag30  1  0.48002241  0.67206730  0.47633811  1
  Ag+  Ag31  1  0.31574040  0.51652651  0.14322868  1
  Ag+  Ag32  1  0.65396039  0.31945147  0.30766863  1
  Ag+  Ag33  1  0.68736624  -0.00169926  -0.02079630  1
  Ag+  Ag34  1  0.51927202  0.02129040  0.81668186  1
  Ag+  Ag35  1  0.67761340  -0.02820666  0.33312419  1
  Ag+  Ag36  1  0.32004574  0.33347855  -0.01736106  1
  Ag+  Ag37  1  -0.02279721  0.16448471  0.14227823  1
  Ag+  Ag38  1  0.52491899  0.30018837  0.79867566  1
  Ag+  Ag39  1  0.64303764  0.69394885  0.65735474  1
  Ag+  Ag40  1  0.02056832  0.00619940  0.69488605  1
  Ag+  Ag41  1  0.83531152  0.02251102  0.52007578  1
  Ag+  Ag42  1  0.18601900  0.69100660  0.16324899  1
  Sn2+  Sn43  1  0.66554634  0.00942688  0.66016501  1
  Sn2+  Sn44  1  0.66056982  0.33052475  0.66204166  1
  Sn2+  Sn45  1  0.82516235  0.33135976  0.50706401  1
  Sn2+  Sn46  1  0.50278998  0.34324082  0.50014359  1
  Sn2+  Sn47  1  0.82761419  0.33421135  0.83834430  1
  Sn2+  Sn48  1  0.66248004  0.31728039  0.00039043  1
  Sn2+  Sn49  1  0.17433303  0.50306994  -0.00153846  1
  Sn2+  Sn50  1  0.17555776  0.16569634  0.00385621  1
  Sn2+  Sn51  1  0.66501353  0.83363327  0.82524572  1
  Sn2+  Sn52  1  -0.00675729  0.49926769  0.50261244  1
  Sn2+  Sn53  1  0.83346909  0.83142237  0.66256366  1
  Sn2+  Sn54  1  0.00287192  -0.00269231  0.00604824  1
  Sn2+  Sn55  1  0.82497314  0.00445530  0.16764888  1
  Sn2+  Sn56  1  0.66850894  0.65191500  0.34838731  1
  Sn2+  Sn57  1  0.66166514  0.50296842  0.83954345  1
  Sn2+  Sn58  1  0.00500108  0.15822209  0.83362022  1
  Sn2+  Sn59  1  0.34210453  0.84094620  0.83898445  1
  Sn2+  Sn60  1  0.00381788  0.84120302  0.16363605  1
  Sn2+  Sn61  1  -0.00844604  0.32790423  0.32879032  1
  Sn2+  Sn62  1  0.17755462  0.49944884  0.33108844  1
  Sn2+  Sn63  1  -0.00902500  0.00334585  0.33590019  1
  Sn2+  Sn64  1  0.67348232  0.16614210  0.50211753  1
  Bi3+  Bi65  1  0.83126305  0.49706475  0.00004208  1
  Bi3+  Bi66  1  0.33903628  0.83470138  0.49849353  1
  Bi3+  Bi67  1  0.16600836  0.82958002  0.32815005  1
  Bi3+  Bi68  1  0.16103182  0.16663295  0.33353145  1
  Bi3+  Bi69  1  0.49846408  0.66662902  0.83486446  1
  Bi3+  Bi70  1  0.83594753  0.83613487  0.33396190  1
  Bi3+  Bi71  1  0.00153565  0.66100590  -0.00508614  1
  Bi3+  Bi72  1  0.83059098  0.67007397  0.82880810  1
  Bi3+  Bi73  1  0.50356177  0.50130868  0.33659807  1
  Bi3+  Bi74  1  0.49810387  0.16359029  0.00690748  1
  Bi3+  Bi75  1  0.83528077  0.66496612  0.50398615  1
  Bi3+  Bi76  1  0.83332141  0.16805610  0.33017618  1
  Bi3+  Bi77  1  0.49775675  0.49549194  0.00122479  1
  Bi3+  Bi78  1  -0.00695776  0.83552783  0.49978942  1
  Bi3+  Bi79  1  0.49900240  0.00401965  0.16689848  1
  Bi3+  Bi80  1  0.83700454  0.49925199  0.32992629  1
  Bi3+  Bi81  1  0.33252447  0.16777492  0.16804990  1
  Bi3+  Bi82  1  0.66088744  0.16491837  0.83440383  1
  Bi3+  Bi83  1  0.32834874  0.00331120  0.33377729  1
  Bi3+  Bi84  1  0.83213534  0.66132012  0.16726176  1
  Bi3+  Bi85  1  0.33575640  0.50043135  0.49727296  1
  Te2-  Te86  1  0.16744019  0.17675399  0.17131615  1
  Te2-  Te87  1  0.15633964  0.16405647  0.49641579  1
  Te2-  Te88  1  0.16931233  0.17744400  0.83315001  1
  Te2-  Te89  1  0.17369101  0.48638745  0.17040046  1
  Te2-  Te90  1  0.16961976  0.49973043  0.50636871  1
  Te2-  Te91  1  0.16697231  0.48974866  0.82107943  1
  Te2-  Te92  1  0.16275691  0.83634198  0.16766288  1
  Te2-  Te93  1  0.16461654  0.83118644  0.49318820  1
  Te2-  Te94  1  0.17140687  0.83295540  0.83118761  1
  Te2-  Te95  1  0.49765768  0.17226204  0.17667149  1
  Te2-  Te96  1  0.50535643  0.17016788  0.49325367  1
  Te2-  Te97  1  0.49796885  0.16324120  0.84600497  1
  Te2-  Te98  1  0.49040680  0.49292776  0.16884212  1
  Te2-  Te99  1  0.50015168  0.51402051  0.49747145  1
  Te2-  Te100  1  0.50161127  0.49713505  0.83788150  1
  Te2-  Te101  1  0.50025505  0.83603708  0.16927024  1
  Te2-  Te102  1  0.50014275  0.82187194  0.50106758  1
  Te2-  Te103  1  0.49874229  0.83183820  0.84535141  1
  Te2-  Te104  1  0.83280149  0.17575105  0.16845292  1
  Te2-  Te105  1  0.83811897  0.16657995  0.49071981  1
  Te2-  Te106  1  0.82898089  0.16611501  0.83974361  1
  Te2-  Te107  1  0.83823137  0.49722654  0.16595360  1
  Te2-  Te108  1  0.83050229  0.50085758  0.49123532  1
  Te2-  Te109  1  0.82891348  0.50433443  0.83643788  1
  Te2-  Te110  1  0.83648789  0.82807363  0.17188893  1
  Te2-  Te111  1  0.83178483  0.82779439  0.49470733  1
  Te2-  Te112  1  0.82842794  0.83048387  0.83011102  1
  Te2-  Te113  1  0.17391296  0.00483538  -0.01114080  1
  Te2-  Te114  1  0.16349463  -0.00117802  0.33012343  1
  Te2-  Te115  1  0.16522879  0.01105989  0.67309800  1
  Te2-  Te116  1  0.17168680  0.33822209  -0.00636629  1
  Te2-  Te117  1  0.15682221  0.33130931  0.32992140  1
  Te2-  Te118  1  0.17399822  0.31940782  0.66827636  1
  Te2-  Te119  1  0.16270609  0.65697498  0.01267717  1
  Te2-  Te120  1  0.16638936  0.66755638  0.31625470  1
  Te2-  Te121  1  0.16376912  0.66616154  0.66786884  1
  Te2-  Te122  1  0.47692164  0.00047175  0.00657569  1
  Te2-  Te123  1  0.48968235  0.00629312  0.33498382  1
  Te2-  Te124  1  0.49691370  0.00908057  0.67211034  1
  Te2-  Te125  1  0.50249583  0.33307452  0.00270189  1
  Te2-  Te126  1  0.50865266  0.33788984  0.33473693  1
  Te2-  Te127  1  0.48576592  0.32183914  0.66144230  1
  Te2-  Te128  1  0.49435876  0.66048202  -0.00243269  1
  Te2-  Te129  1  0.50097175  0.66219287  0.33212477  1
  Te2-  Te130  1  0.50028863  0.66497036  0.67606096  1
  Te2-  Te131  1  0.83280586  0.00241475  0.00830581  1
  Te2-  Te132  1  0.82561641  -0.00073514  0.32725916  1
  Te2-  Te133  1  0.82223630  0.00392946  0.66380303  1
  Te2-  Te134  1  0.82267801  0.33772538  0.00582433  1
  Te2-  Te135  1  0.83271223  0.33740827  0.32982180  1
  Te2-  Te136  1  0.83420189  0.32229541  0.66674364  1
  Te2-  Te137  1  0.83288996  0.66280185  -0.00158468  1
  Te2-  Te138  1  0.83768969  0.66483958  0.33262810  1
  Te2-  Te139  1  0.83971329  0.66573912  0.66746837  1
  Te2-  Te140  1  0.00583490  0.17172099  -0.00179913  1
  Te2-  Te141  1  -0.00205443  0.16583627  0.33347023  1
  Te2-  Te142  1  -0.01327137  0.15071166  0.66509329  1
  Te2-  Te143  1  -0.00240518  0.49474322  0.00011986  1
  Te2-  Te144  1  0.00215988  0.50106045  0.33817254  1
  Te2-  Te145  1  -0.00789495  0.48835112  0.66380828  1
  Te2-  Te146  1  0.00838455  0.82549278  0.00374512  1
  Te2-  Te147  1  0.00021284  0.83019882  0.33428777  1
  Te2-  Te148  1  -0.00446279  0.85508913  0.66249911  1
  Te2-  Te149  1  0.33527945  0.18271870  0.00806400  1
  Te2-  Te150  1  0.32541668  0.16994333  0.33204977  1
  Te2-  Te151  1  0.33554819  0.15544459  0.66124315  1
  Te2-  Te152  1  0.33496107  0.48331428  0.00166121  1
  Te2-  Te153  1  0.33703027  0.49668463  0.33663189  1
  Te2-  Te154  1  0.33677388  0.49227423  0.66199283  1
  Te2-  Te155  1  0.32377087  0.82574577  -0.00263023  1
  Te2-  Te156  1  0.33022012  0.83417436  0.33682976  1
  Te2-  Te157  1  0.33114246  0.84095132  0.66378188  1
  Te2-  Te158  1  0.65964762  0.14826856  -0.00407823  1
  Te2-  Te159  1  0.67069197  0.17603668  0.33491369  1
  Te2-  Te160  1  0.67213549  0.16781546  0.66996321  1
  Te2-  Te161  1  0.66431098  0.49954177  0.00529400  1
  Te2-  Te162  1  0.66990264  0.49613753  0.32528411  1
  Te2-  Te163  1  0.67633830  0.49193187  0.66989147  1
  Te2-  Te164  1  0.66804080  0.84528811  -0.00037832  1
  Te2-  Te165  1  0.66988196  0.82287173  0.34604536  1
  Te2-  Te166  1  0.66599804  0.83926358  0.65762024  1
  Te2-  Te167  1  -0.00501242  0.01211601  0.16132316  1
  Te2-  Te168  1  -0.01679934  -0.00311506  0.49433437  1
  Te2-  Te169  1  0.00332831  -0.00117225  0.84238602  1
  Te2-  Te170  1  -0.00129623  0.32076589  0.15379574  1
  Te2-  Te171  1  -0.00380031  0.32790542  0.50182414  1
  Te2-  Te172  1  -0.00853480  0.32678746  0.84255814  1
  Te2-  Te173  1  -0.00671177  0.66501719  0.15742146  1
  Te2-  Te174  1  -0.00174220  0.67014868  0.51552368  1
  Te2-  Te175  1  -0.00378704  0.67037245  0.82947778  1
  Te2-  Te176  1  0.33371668  0.00406139  0.17119008  1
  Te2-  Te177  1  0.32929147  -0.00457714  0.49583288  1
  Te2-  Te178  1  0.32694580  0.01127038  0.83456843  1
  Te2-  Te179  1  0.33666767  0.33122356  0.17957999  1
  Te2-  Te180  1  0.33482675  0.33813281  0.48916211  1
  Te2-  Te181  1  0.33325696  0.31769839  0.83324864  1
  Te2-  Te182  1  0.33039706  0.66135812  0.15917728  1
  Te2-  Te183  1  0.33261574  0.66805967  0.50002923  1
  Te2-  Te184  1  0.33257308  0.66521696  0.83957373  1
  Te2-  Te185  1  0.65959595  0.00139064  0.18389714  1
  Te2-  Te186  1  0.67074878  0.00078855  0.48636693  1
  Te2-  Te187  1  0.66300387  -0.00004604  0.83301547  1
  Te2-  Te188  1  0.66020225  0.34103964  0.16362886  1
  Te2-  Te189  1  0.66454802  0.34043506  0.50543088  1
  Te2-  Te190  1  0.66472630  0.32971755  0.83278930  1
  Te2-  Te191  1  0.67045196  0.66224284  0.16488702  1
  Te2-  Te192  1  0.67551594  0.65764152  0.51622435  1
  Te2-  Te193  1  0.66526771  0.66964920  0.82277920  1
  Pb2+  Pb194  1  -0.00178474  0.49824971  0.83180685  1
  Pb2+  Pb195  1  0.16423586  0.66371292  0.48719875  1
  Pb2+  Pb196  1  0.66273086  0.66956970  -0.00918206  1
  Pb2+  Pb197  1  0.16461741  0.66090913  0.84382475  1
  Pb2+  Pb198  1  0.84382100  0.83556385  -0.00056309  1
  Pb2+  Pb199  1  0.16170947  0.83855597  0.66351540  1
  Pb2+  Pb200  1  0.66798799  0.16747791  0.16159110  1
  Pb2+  Pb201  1  0.33609267  0.49355692  0.83558742  1
  Pb2+  Pb202  1  0.00847687  0.49065320  0.16846231  1
  Pb2+  Pb203  1  0.00228632  0.31846181  0.67397926  1
  Pb2+  Pb204  1  0.66880013  0.83700953  0.17110895  1
  Pb2+  Pb205  1  0.49848480  0.83523012  0.67107793  1
  Pb2+  Pb206  1  0.16263384  0.00671999  0.15867665  1
  Pb2+  Pb207  1  0.49827863  0.66341869  0.16647735  1
  Pb2+  Pb208  1  0.83288688  -0.00282923  0.83220869  1
  Pb2+  Pb209  1  0.50207291  0.00046158  0.50526414  1
  Pb2+  Pb210  1  0.15177876  -0.00013751  0.49963174  1
  Pb2+  Pb211  1  0.33488077  0.66443241  0.67044102  1
  Pb2+  Pb212  1  0.50815195  0.49363847  0.66738660  1
  Pb2+  Pb213  1  0.33636019  0.16735352  0.49742838  1
  Pb2+  Pb214  1  0.33290725  0.83473436  0.16546576  1
  Pb2+  Pb215  1  0.16505555  0.33199481  0.49809076  1
