# generated using pymatgen
data_In22Ag21Sn22Bi21(Te54Pb11)2
_symmetry_space_group_name_H-M   'P 1'
_cell_length_a   19.13854622
_cell_length_b   19.16926921
_cell_length_c   19.16236351
_cell_angle_alpha   89.99028194
_cell_angle_beta   90.01580493
_cell_angle_gamma   89.98309788
_symmetry_Int_Tables_number   1
_chemical_formula_structural   In22Ag21Sn22Bi21(Te54Pb11)2
_chemical_formula_sum   'In22 Ag21 Sn22 Bi21 Te108 Pb22'
_cell_volume   7030.13289116
_cell_formula_units_Z   1
loop_
 _symmetry_equiv_pos_site_id
 _symmetry_equiv_pos_as_xyz
  1  'x, y, z'
loop_
 _atom_type_symbol
 _atom_type_oxidation_number
  In3+  3.0
  Ag+  1.0
  Sn2+  2.0
  Bi3+  3.0
  Te2-  -2.0
  Pb2+  2.0
loop_
 _atom_site_type_symbol
 _atom_site_label
 _atom_site_symmetry_multiplicity
 _atom_site_fract_x
 _atom_site_fract_y
 _atom_site_fract_z
 _atom_site_occupancy
  In3+  In0  1  0.00119295  0.16921683  0.51725153  1
  In3+  In1  1  0.34585338  -0.01366326  0.66159641  1
  In3+  In2  1  0.50211201  0.49547168  0.35443649  1
  In3+  In3  1  0.02322138  0.66722364  -0.01233406  1
  In3+  In4  1  0.84003843  0.15453864  -0.00454880  1
  In3+  In5  1  0.49469469  0.67214053  0.18568530  1
  In3+  In6  1  0.81773504  0.00187344  0.50537133  1
  In3+  In7  1  -0.01464494  0.82803965  0.80738212  1
  In3+  In8  1  0.32859657  0.50917229  0.49359644  1
  In3+  In9  1  0.17805310  -0.01617667  0.49767702  1
  In3+  In10  1  0.33278912  0.81338757  0.50106944  1
  In3+  In11  1  0.50007013  0.83898312  0.32896103  1
  In3+  In12  1  0.17318109  0.66031812  0.81904983  1
  In3+  In13  1  0.00521050  -0.00630584  0.65081223  1
  In3+  In14  1  0.50545443  0.66828512  0.49871076  1
  In3+  In15  1  0.15349594  0.66524614  0.17567808  1
  In3+  In16  1  0.33838742  0.34331269  0.65877953  1
  In3+  In17  1  -0.00096991  0.00770116  0.34666195  1
  In3+  In18  1  0.85133521  0.83369365  0.33354133  1
  In3+  In19  1  0.50499985  0.32282675  0.49603228  1
  In3+  In20  1  0.49937128  0.49973846  0.01200980  1
  In3+  In21  1  0.32560353  0.33558818  0.02147819  1
  Ag+  Ag22  1  -0.02101445  0.82081466  0.49854519  1
  Ag+  Ag23  1  0.33449968  0.68687836  0.33786109  1
  Ag+  Ag24  1  0.30964645  0.19412502  0.19846069  1
  Ag+  Ag25  1  0.32934563  0.47726305  0.85503589  1
  Ag+  Ag26  1  0.02933266  0.52584232  0.49227697  1
  Ag+  Ag27  1  0.19475190  0.52183357  0.00079936  1
  Ag+  Ag28  1  0.32773837  0.35070804  0.35413355  1
  Ag+  Ag29  1  0.47217822  -0.03022197  0.47981906  1
  Ag+  Ag30  1  0.66832867  0.52075932  0.52542542  1
  Ag+  Ag31  1  0.14088536  0.63449482  0.52396267  1
  Ag+  Ag32  1  -0.02583532  0.12033386  0.81666448  1
  Ag+  Ag33  1  -0.00544123  0.69130092  0.64301489  1
  Ag+  Ag34  1  0.17640330  0.30820987  0.19001308  1
  Ag+  Ag35  1  0.49885261  0.81652280  0.68757967  1
  Ag+  Ag36  1  0.50244736  0.19394337  0.35649516  1
  Ag+  Ag37  1  0.31792657  0.80917732  0.86363708  1
  Ag+  Ag38  1  0.66781953  0.81342174  0.19085948  1
  Ag+  Ag39  1  0.69218661  0.18812500  0.80797197  1
  Ag+  Ag40  1  0.64079611  0.52103430  0.18341526  1
  Ag+  Ag41  1  0.86373759  0.00315642  0.81162512  1
  Ag+  Ag42  1  0.64020156  0.16394711  0.51624676  1
  Sn2+  Sn43  1  0.82557005  0.50503483  0.33909978  1
  Sn2+  Sn44  1  0.82812103  0.33477684  0.49804952  1
  Sn2+  Sn45  1  0.33303054  0.00717740  0.32954756  1
  Sn2+  Sn46  1  0.00459617  0.34457288  0.00218691  1
  Sn2+  Sn47  1  0.49968570  0.15969992  0.66641288  1
  Sn2+  Sn48  1  0.83422023  0.83229846  0.00701075  1
  Sn2+  Sn49  1  0.16630981  0.33067786  0.49429621  1
  Sn2+  Sn50  1  0.00432397  0.50211891  0.82198192  1
  Sn2+  Sn51  1  0.84200876  0.50537853  0.65998608  1
  Sn2+  Sn52  1  0.17281198  0.82746255  0.32936541  1
  Sn2+  Sn53  1  0.65914455  0.84351464  0.83387687  1
  Sn2+  Sn54  1  0.84525054  0.33455519  0.16679121  1
  Sn2+  Sn55  1  0.33135477  0.00779852  -0.00778396  1
  Sn2+  Sn56  1  0.16594077  0.83454432  -0.00570263  1
  Sn2+  Sn57  1  0.66133930  0.66255231  0.32982687  1
  Sn2+  Sn58  1  0.33864194  0.83466361  0.17377350  1
  Sn2+  Sn59  1  0.82731473  0.66455298  0.16673317  1
  Sn2+  Sn60  1  0.33444231  0.66849235  -0.00071709  1
  Sn2+  Sn61  1  0.17375392  -0.00747310  0.83191592  1
  Sn2+  Sn62  1  0.17573904  0.16644578  0.33375873  1
  Sn2+  Sn63  1  0.32938198  0.66681081  0.66466994  1
  Sn2+  Sn64  1  0.66391198  0.00155109  -0.00485983  1
  Bi3+  Bi65  1  0.32890111  0.17151701  0.49742893  1
  Bi3+  Bi66  1  0.66135206  0.16555421  0.16316156  1
  Bi3+  Bi67  1  0.50038203  0.50418423  0.66493700  1
  Bi3+  Bi68  1  0.66590175  0.33226328  0.00172252  1
  Bi3+  Bi69  1  0.66587459  0.66624480  0.00028954  1
  Bi3+  Bi70  1  0.16564304  0.33727665  0.83323299  1
  Bi3+  Bi71  1  0.50020525  0.16722994  -0.00135956  1
  Bi3+  Bi72  1  0.00289082  0.16843778  0.16002028  1
  Bi3+  Bi73  1  0.83430641  0.49994888  0.00121833  1
  Bi3+  Bi74  1  0.32753145  0.16748562  0.83139739  1
  Bi3+  Bi75  1  0.49390096  0.66667222  0.82859676  1
  Bi3+  Bi76  1  0.16896597  0.16801857  0.66692725  1
  Bi3+  Bi77  1  0.83037263  -0.00048736  0.16597973  1
  Bi3+  Bi78  1  0.49973271  -0.00099640  0.17188500  1
  Bi3+  Bi79  1  0.00009641  0.33734516  0.66679380  1
  Bi3+  Bi80  1  -0.00011028  0.49931075  0.16937484  1
  Bi3+  Bi81  1  0.49981593  -0.00144242  0.82836894  1
  Bi3+  Bi82  1  0.66229289  -0.00074627  0.66713361  1
  Bi3+  Bi83  1  0.16662034  0.17046592  -0.00404746  1
  Bi3+  Bi84  1  0.66618892  0.33291946  0.32928882  1
  Bi3+  Bi85  1  0.83632122  0.16595756  0.66603844  1
  Te2-  Te86  1  0.16914885  0.16295534  0.16100453  1
  Te2-  Te87  1  0.16184685  0.16563542  0.50199144  1
  Te2-  Te88  1  0.16506083  0.16632458  0.83227467  1
  Te2-  Te89  1  0.16023908  0.51173367  0.15281343  1
  Te2-  Te90  1  0.17379458  0.49468482  0.49687378  1
  Te2-  Te91  1  0.17540376  0.50463138  0.84543745  1
  Te2-  Te92  1  0.16443193  0.82603209  0.16812919  1
  Te2-  Te93  1  0.18111329  0.83408658  0.49841848  1
  Te2-  Te94  1  0.17419481  0.82810312  0.83488441  1
  Te2-  Te95  1  0.49664750  0.15950033  0.15953401  1
  Te2-  Te96  1  0.49245679  0.16879221  0.50223568  1
  Te2-  Te97  1  0.49250796  0.16242151  0.83362824  1
  Te2-  Te98  1  0.49768932  0.50318854  0.16289293  1
  Te2-  Te99  1  0.51750862  0.50446861  0.50506559  1
  Te2-  Te100  1  0.48311535  0.50431273  0.82432360  1
  Te2-  Te101  1  0.51343805  0.83293984  0.17072142  1
  Te2-  Te102  1  0.49074934  0.82485683  0.48973805  1
  Te2-  Te103  1  0.48954857  0.83293567  0.83301023  1
  Te2-  Te104  1  0.83415531  0.16517723  0.16210337  1
  Te2-  Te105  1  0.84638391  0.16039674  0.50169650  1
  Te2-  Te106  1  0.83307694  0.15315051  0.83665876  1
  Te2-  Te107  1  0.83979005  0.49781727  0.16749949  1
  Te2-  Te108  1  0.81681416  0.49485566  0.49819265  1
  Te2-  Te109  1  0.83603426  0.50147342  0.83511520  1
  Te2-  Te110  1  0.81994236  0.83689480  0.17480012  1
  Te2-  Te111  1  0.83261228  0.84306442  0.49367579  1
  Te2-  Te112  1  0.83589838  0.84516647  0.83301289  1
  Te2-  Te113  1  0.16816657  0.00503008  -0.00111046  1
  Te2-  Te114  1  0.16595257  0.00159878  0.33960083  1
  Te2-  Te115  1  0.16130409  0.00572375  0.66344071  1
  Te2-  Te116  1  0.17125285  0.33229512  -0.00635287  1
  Te2-  Te117  1  0.17948249  0.33011201  0.33613075  1
  Te2-  Te118  1  0.16436583  0.33180564  0.66565090  1
  Te2-  Te119  1  0.17435828  0.66751878  0.00624357  1
  Te2-  Te120  1  0.18352133  0.66713514  0.32694664  1
  Te2-  Te121  1  0.15853038  0.66840700  0.66542928  1
  Te2-  Te122  1  0.49802659  0.00140715  -0.00228107  1
  Te2-  Te123  1  0.49892135  -0.00637481  0.33641306  1
  Te2-  Te124  1  0.50015044  -0.00054113  0.66156971  1
  Te2-  Te125  1  0.49899563  0.33435105  -0.00205567  1
  Te2-  Te126  1  0.49684563  0.34047337  0.33506199  1
  Te2-  Te127  1  0.49774536  0.33567654  0.65867222  1
  Te2-  Te128  1  0.50223187  0.65986147  -0.00896324  1
  Te2-  Te129  1  0.49000678  0.65691987  0.33517150  1
  Te2-  Te130  1  0.49816083  0.66943405  0.66204896  1
  Te2-  Te131  1  0.83228128  -0.00101977  0.00396092  1
  Te2-  Te132  1  0.83790159  -0.00379000  0.33229442  1
  Te2-  Te133  1  0.83530691  0.00379167  0.66511362  1
  Te2-  Te134  1  0.83352257  0.33624379  0.00226222  1
  Te2-  Te135  1  0.83253649  0.33238941  0.33238775  1
  Te2-  Te136  1  0.83576133  0.32927093  0.66618952  1
  Te2-  Te137  1  0.82776190  0.66520906  0.00351668  1
  Te2-  Te138  1  0.83135541  0.67407885  0.32927334  1
  Te2-  Te139  1  0.84481799  0.66742972  0.66757144  1
  Te2-  Te140  1  0.00026443  0.17232449  -0.00080037  1
  Te2-  Te141  1  0.00322763  0.16146385  0.32208923  1
  Te2-  Te142  1  0.00124406  0.16797248  0.67764584  1
  Te2-  Te143  1  -0.00479968  0.51056532  -0.00087705  1
  Te2-  Te144  1  -0.00211530  0.49967926  0.34090006  1
  Te2-  Te145  1  -0.00186642  0.49733116  0.65153679  1
  Te2-  Te146  1  -0.00086102  0.82034174  0.00491823  1
  Te2-  Te147  1  0.00420346  0.84203951  0.34656719  1
  Te2-  Te148  1  0.00201600  0.83802024  0.65183561  1
  Te2-  Te149  1  0.33360593  0.17452435  -0.00521087  1
  Te2-  Te150  1  0.34560838  0.16453760  0.33692234  1
  Te2-  Te151  1  0.33029966  0.17060175  0.66580538  1
  Te2-  Te152  1  0.34106770  0.49818589  -0.00012724  1
  Te2-  Te153  1  0.34493050  0.49646448  0.34183807  1
  Te2-  Te154  1  0.33517106  0.50235646  0.65258472  1
  Te2-  Te155  1  0.33059582  0.83776703  0.00511363  1
  Te2-  Te156  1  0.33991499  0.83645057  0.33661588  1
  Te2-  Te157  1  0.34719273  0.83327684  0.65525406  1
  Te2-  Te158  1  0.66365479  0.16966653  -0.00007383  1
  Te2-  Te159  1  0.65391358  0.17055333  0.32520811  1
  Te2-  Te160  1  0.67185407  0.16330616  0.66443222  1
  Te2-  Te161  1  0.66843331  0.49748345  0.00642520  1
  Te2-  Te162  1  0.66099930  0.49531000  0.32611639  1
  Te2-  Te163  1  0.66763630  0.49893492  0.67273192  1
  Te2-  Te164  1  0.66998592  0.82986157  -0.00620236  1
  Te2-  Te165  1  0.65447175  0.82832610  0.33561029  1
  Te2-  Te166  1  0.65463487  0.83627536  0.66603922  1
  Te2-  Te167  1  -0.00428760  0.00251586  0.16599544  1
  Te2-  Te168  1  0.00867346  0.00586335  0.49992780  1
  Te2-  Te169  1  0.00815725  -0.02006153  0.83219085  1
  Te2-  Te170  1  0.01664851  0.33467783  0.16655485  1
  Te2-  Te171  1  -0.00255138  0.32531762  0.50372743  1
  Te2-  Te172  1  0.00419697  0.34008453  0.83191641  1
  Te2-  Te173  1  -0.00272972  0.66448946  0.16796821  1
  Te2-  Te174  1  0.00075827  0.67193401  0.49754789  1
  Te2-  Te175  1  0.00901572  0.67063054  0.83466565  1
  Te2-  Te176  1  0.33964786  -0.00478988  0.16237757  1
  Te2-  Te177  1  0.33234657  0.00745694  0.50447445  1
  Te2-  Te178  1  0.33625339  0.00259380  0.82207970  1
  Te2-  Te179  1  0.32530567  0.33681157  0.17072473  1
  Te2-  Te180  1  0.34023267  0.33327239  0.49897079  1
  Te2-  Te181  1  0.32770041  0.33321454  0.81876297  1
  Te2-  Te182  1  0.34553395  0.67498047  0.16880023  1
  Te2-  Te183  1  0.33825983  0.66288981  0.49016230  1
  Te2-  Te184  1  0.32953496  0.66850981  0.82764304  1
  Te2-  Te185  1  0.66547930  0.00158767  0.16261409  1
  Te2-  Te186  1  0.66664525  0.01568191  0.50250543  1
  Te2-  Te187  1  0.66000129  0.00146742  0.82899620  1
  Te2-  Te188  1  0.67156514  0.32966367  0.16443242  1
  Te2-  Te189  1  0.66125330  0.31422667  0.49036337  1
  Te2-  Te190  1  0.66656599  0.32960137  0.83664950  1
  Te2-  Te191  1  0.65883013  0.66627286  0.16275436  1
  Te2-  Te192  1  0.66288875  0.66733178  0.49699558  1
  Te2-  Te193  1  0.66236656  0.66929821  0.83405162  1
  Pb2+  Pb194  1  0.83440737  0.66420954  0.49807167  1
  Pb2+  Pb195  1  0.00865268  0.66848844  0.33503082  1
  Pb2+  Pb196  1  0.66599448  0.33234634  0.65805780  1
  Pb2+  Pb197  1  0.00395686  0.33158073  0.33572974  1
  Pb2+  Pb198  1  0.66569740  -0.00044375  0.33220071  1
  Pb2+  Pb199  1  0.17017239  -0.00523278  0.17197839  1
  Pb2+  Pb200  1  0.17690190  0.83551783  0.66731537  1
  Pb2+  Pb201  1  -0.00020300  -0.00473833  -0.00237153  1
  Pb2+  Pb202  1  0.66020651  0.84259379  0.49992399  1
  Pb2+  Pb203  1  0.82644612  0.16508714  0.33284863  1
  Pb2+  Pb204  1  0.66958923  0.66600262  0.66556214  1
  Pb2+  Pb205  1  0.82629596  0.83486644  0.66469076  1
  Pb2+  Pb206  1  0.49849674  0.33002690  0.16702484  1
  Pb2+  Pb207  1  0.83681775  0.32762925  0.83575633  1
  Pb2+  Pb208  1  0.65788026  0.50065070  0.84135769  1
  Pb2+  Pb209  1  0.32950882  0.50685253  0.17078951  1
  Pb2+  Pb210  1  -0.00654510  0.83402418  0.17205875  1
  Pb2+  Pb211  1  0.83659746  0.67025313  0.83658699  1
  Pb2+  Pb212  1  0.16574139  0.50084993  0.67418746  1
  Pb2+  Pb213  1  0.49933860  0.82953532  0.00013725  1
  Pb2+  Pb214  1  0.16682800  0.50040576  0.32591113  1
  Pb2+  Pb215  1  0.49612575  0.33366586  0.82913188  1
