# generated using pymatgen
data_In22Ag21Sn22Bi21(Te54Pb11)2
_symmetry_space_group_name_H-M   'P 1'
_cell_length_a   19.14095453
_cell_length_b   19.13584075
_cell_length_c   19.11046614
_cell_angle_alpha   89.99566581
_cell_angle_beta   89.99327231
_cell_angle_gamma   89.99945738
_symmetry_Int_Tables_number   1
_chemical_formula_structural   In22Ag21Sn22Bi21(Te54Pb11)2
_chemical_formula_sum   'In22 Ag21 Sn22 Bi21 Te108 Pb22'
_cell_volume   6999.74817147
_cell_formula_units_Z   1
loop_
 _symmetry_equiv_pos_site_id
 _symmetry_equiv_pos_as_xyz
  1  'x, y, z'
loop_
 _atom_type_symbol
 _atom_type_oxidation_number
  In3+  3.0
  Ag+  1.0
  Sn2+  2.0
  Bi3+  3.0
  Te2-  -2.0
  Pb2+  2.0
loop_
 _atom_site_type_symbol
 _atom_site_label
 _atom_site_symmetry_multiplicity
 _atom_site_fract_x
 _atom_site_fract_y
 _atom_site_fract_z
 _atom_site_occupancy
  In3+  In0  1  -0.00445093  0.17844981  0.81325607  1
  In3+  In1  1  0.49959008  0.18009538  0.33412567  1
  In3+  In2  1  0.83697751  0.82863856  0.66053161  1
  In3+  In3  1  0.32864729  0.34260425  0.33467226  1
  In3+  In4  1  0.50382676  0.35546501  0.49831150  1
  In3+  In5  1  0.66439279  -0.00808928  -0.01709412  1
  In3+  In6  1  0.66555057  0.66097951  0.66797478  1
  In3+  In7  1  0.67493167  0.16514524  0.17327024  1
  In3+  In8  1  0.36141051  -0.00451375  0.33588435  1
  In3+  In9  1  0.66079905  0.65680399  0.33895468  1
  In3+  In10  1  0.50911427  0.33295148  0.80986561  1
  In3+  In11  1  0.34898182  0.66004141  0.33285146  1
  In3+  In12  1  -0.00695224  -0.02419863  0.33267622  1
  In3+  In13  1  0.50122635  0.83426572  0.64373099  1
  In3+  In14  1  0.13954076  0.00027103  0.17769481  1
  In3+  In15  1  0.49521120  0.80765724  0.33499367  1
  In3+  In16  1  0.16742839  0.49462681  0.67147395  1
  In3+  In17  1  0.16626294  0.33560778  0.80565255  1
  In3+  In18  1  0.83077930  0.66748320  0.17371254  1
  In3+  In19  1  0.66699062  -0.01938577  0.33866930  1
  In3+  In20  1  0.84975770  0.48754797  -0.00346866  1
  In3+  In21  1  0.50300423  0.35072533  0.17112455  1
  Ag+  Ag22  1  0.16450377  0.19083526  0.64725420  1
  Ag+  Ag23  1  0.02243492  0.64909598  0.65063269  1
  Ag+  Ag24  1  0.52875483  0.68202067  0.16632344  1
  Ag+  Ag25  1  0.14809838  0.33399760  0.49979544  1
  Ag+  Ag26  1  0.80842531  0.33320843  0.79768352  1
  Ag+  Ag27  1  0.68923048  0.80859261  0.49944309  1
  Ag+  Ag28  1  0.85185653  0.35685648  0.49897193  1
  Ag+  Ag29  1  0.35666587  0.51958148  0.83774310  1
  Ag+  Ag30  1  0.20399757  0.80559893  0.63893041  1
  Ag+  Ag31  1  0.19191108  0.46831304  -0.03145559  1
  Ag+  Ag32  1  0.52028684  -0.02611044  0.83416685  1
  Ag+  Ag33  1  0.81460283  0.50304133  0.36067448  1
  Ag+  Ag34  1  0.00754201  0.80532414  0.19248477  1
  Ag+  Ag35  1  -0.01765938  0.35299258  0.66818269  1
  Ag+  Ag36  1  0.81492410  -0.03290964  0.19153508  1
  Ag+  Ag37  1  0.68856962  0.36154264  0.66740743  1
  Ag+  Ag38  1  0.33009602  0.81160885  0.49739722  1
  Ag+  Ag39  1  0.64639498  0.51096451  0.83205612  1
  Ag+  Ag40  1  0.51732239  0.49895182  0.34553153  1
  Ag+  Ag41  1  -0.01825789  0.66630346  0.30843661  1
  Ag+  Ag42  1  0.51691617  0.68734445  0.52107821  1
  Sn2+  Sn43  1  0.16516821  0.00647683  0.50900278  1
  Sn2+  Sn44  1  0.82971927  0.65286407  0.83542967  1
  Sn2+  Sn45  1  0.50143543  0.83019119  0.00843634  1
  Sn2+  Sn46  1  -0.00315823  0.67269175  -0.00669243  1
  Sn2+  Sn47  1  0.67018382  0.49851764  0.50278337  1
  Sn2+  Sn48  1  0.66623695  0.66124714  0.00052005  1
  Sn2+  Sn49  1  0.33187043  0.33471062  0.66430955  1
  Sn2+  Sn50  1  0.49455774  0.15935368  0.66323777  1
  Sn2+  Sn51  1  0.16559490  0.17336074  -0.00730982  1
  Sn2+  Sn52  1  0.66606092  0.33422625  -0.01698537  1
  Sn2+  Sn53  1  0.50196716  0.16852104  0.00799807  1
  Sn2+  Sn54  1  0.01266010  0.83046087  0.50942530  1
  Sn2+  Sn55  1  0.00082419  0.50178662  0.49731436  1
  Sn2+  Sn56  1  0.65960273  0.82749782  0.81301982  1
  Sn2+  Sn57  1  0.82854904  0.81974943  0.33151344  1
  Sn2+  Sn58  1  0.32530539  0.83131412  0.17179686  1
  Sn2+  Sn59  1  0.00065960  0.17590599  0.49894353  1
  Sn2+  Sn60  1  0.83634656  0.49718275  0.67551024  1
  Sn2+  Sn61  1  0.33156540  0.66337569  0.00258480  1
  Sn2+  Sn62  1  0.66424973  0.17381838  0.50532871  1
  Sn2+  Sn63  1  0.16302900  0.66562783  0.17334941  1
  Sn2+  Sn64  1  0.49987478  -0.00720042  0.50739862  1
  Bi3+  Bi65  1  0.33578316  0.16829422  0.49950447  1
  Bi3+  Bi66  1  0.16558355  0.16563730  0.33842102  1
  Bi3+  Bi67  1  0.82933581  0.16820999  -0.00173822  1
  Bi3+  Bi68  1  -0.00591718  0.00261789  0.00118739  1
  Bi3+  Bi69  1  0.16532898  0.83705425  0.00056708  1
  Bi3+  Bi70  1  0.00182687  0.50050729  0.16861617  1
  Bi3+  Bi71  1  0.32891694  0.17156365  0.83051456  1
  Bi3+  Bi72  1  0.83182101  0.83322516  -0.00067885  1
  Bi3+  Bi73  1  -0.00309196  0.50458221  0.83010192  1
  Bi3+  Bi74  1  0.16869177  0.00250891  0.83417728  1
  Bi3+  Bi75  1  -0.00051828  -0.00231978  0.66286973  1
  Bi3+  Bi76  1  0.49905778  0.50143068  0.00112731  1
  Bi3+  Bi77  1  0.33737662  0.16069336  0.17050059  1
  Bi3+  Bi78  1  0.16254412  0.50085031  0.33561120  1
  Bi3+  Bi79  1  0.33163464  0.49881188  0.50275540  1
  Bi3+  Bi80  1  -0.00082740  0.16869178  0.16997790  1
  Bi3+  Bi81  1  0.66282450  0.00008710  0.65919185  1
  Bi3+  Bi82  1  0.16462378  0.66251477  0.49821945  1
  Bi3+  Bi83  1  0.83220471  0.00192843  0.50006023  1
  Bi3+  Bi84  1  -0.00469906  0.83638877  0.83727265  1
  Bi3+  Bi85  1  0.66454199  0.33720349  0.34158137  1
  Te2-  Te86  1  0.16883792  0.16033464  0.17142053  1
  Te2-  Te87  1  0.17132703  0.17436792  0.49921328  1
  Te2-  Te88  1  0.16559457  0.16811735  0.83473110  1
  Te2-  Te89  1  0.16482122  0.49792406  0.17106949  1
  Te2-  Te90  1  0.16921146  0.49481145  0.50112981  1
  Te2-  Te91  1  0.15978496  0.49581132  0.82800486  1
  Te2-  Te92  1  0.15419318  0.84009529  0.16517791  1
  Te2-  Te93  1  0.17637733  0.83286565  0.49855244  1
  Te2-  Te94  1  0.16315217  0.83742610  0.83620622  1
  Te2-  Te95  1  0.49810019  0.16303797  0.17359322  1
  Te2-  Te96  1  0.49674006  0.16108871  0.49728598  1
  Te2-  Te97  1  0.49156728  0.18078551  0.83506469  1
  Te2-  Te98  1  0.49778609  0.50313250  0.16417617  1
  Te2-  Te99  1  0.49472263  0.50845664  0.49197376  1
  Te2-  Te100  1  0.49831904  0.48687680  0.83540959  1
  Te2-  Te101  1  0.50014860  0.82871450  0.17934703  1
  Te2-  Te102  1  0.48536084  0.82791939  0.48932011  1
  Te2-  Te103  1  0.50237672  0.82869644  0.84778013  1
  Te2-  Te104  1  0.83256318  0.17001878  0.16552170  1
  Te2-  Te105  1  0.83308075  0.16347885  0.49807535  1
  Te2-  Te106  1  0.83655677  0.18317507  0.83469571  1
  Te2-  Te107  1  0.83669242  0.50601471  0.15339624  1
  Te2-  Te108  1  0.83158476  0.50381715  0.50703057  1
  Te2-  Te109  1  0.83937541  0.48161520  0.84015216  1
  Te2-  Te110  1  0.84470973  0.82525825  0.16507210  1
  Te2-  Te111  1  0.83510467  0.83814072  0.50017947  1
  Te2-  Te112  1  0.82905477  0.83284052  0.83674893  1
  Te2-  Te113  1  0.16035518  0.00238995  0.00196107  1
  Te2-  Te114  1  0.15372903  0.00364750  0.33608012  1
  Te2-  Te115  1  0.16042763  -0.00797950  0.66956844  1
  Te2-  Te116  1  0.16631026  0.33134239  0.00773674  1
  Te2-  Te117  1  0.16677944  0.33318965  0.34749359  1
  Te2-  Te118  1  0.16653900  0.33882446  0.65217833  1
  Te2-  Te119  1  0.16657372  0.67523936  0.00614516  1
  Te2-  Te120  1  0.15905900  0.66421593  0.33684571  1
  Te2-  Te121  1  0.16665747  0.66635495  0.66335697  1
  Te2-  Te122  1  0.50903594  -0.00050597  -0.01129669  1
  Te2-  Te123  1  0.51285987  0.00476532  0.33690453  1
  Te2-  Te124  1  0.50237275  -0.00679960  0.67985517  1
  Te2-  Te125  1  0.50667207  0.33493922  0.01172790  1
  Te2-  Te126  1  0.50229987  0.34505104  0.33343462  1
  Te2-  Te127  1  0.49783954  0.32976503  0.65780932  1
  Te2-  Te128  1  0.49844611  0.66659701  0.01546754  1
  Te2-  Te129  1  0.50409784  0.65371177  0.31796566  1
  Te2-  Te130  1  0.50791808  0.67546090  0.66744162  1
  Te2-  Te131  1  0.82744590  0.00231245  0.00278700  1
  Te2-  Te132  1  0.83359723  -0.00435541  0.33620541  1
  Te2-  Te133  1  0.83172604  -0.00039930  0.66546623  1
  Te2-  Te134  1  0.82777917  0.33252072  0.00316729  1
  Te2-  Te135  1  0.82682402  0.34757937  0.34784263  1
  Te2-  Te136  1  0.83361729  0.33633109  0.65180695  1
  Te2-  Te137  1  0.82877586  0.67077121  -0.00066915  1
  Te2-  Te138  1  0.83440228  0.65615787  0.32931535  1
  Te2-  Te139  1  0.81887469  0.67424814  0.66830672  1
  Te2-  Te140  1  -0.00440371  0.16468843  0.00531684  1
  Te2-  Te141  1  0.00220428  0.17364019  0.33247273  1
  Te2-  Te142  1  0.01471039  0.16048799  0.66313337  1
  Te2-  Te143  1  0.00270683  0.50204622  -0.00165728  1
  Te2-  Te144  1  0.00031529  0.51185824  0.33140532  1
  Te2-  Te145  1  0.00135489  0.50325805  0.66769861  1
  Te2-  Te146  1  -0.00259322  0.84027195  0.00033499  1
  Te2-  Te147  1  -0.00410633  0.82357561  0.33730972  1
  Te2-  Te148  1  -0.00867072  0.83593478  0.67509998  1
  Te2-  Te149  1  0.33602309  0.16519469  0.00479558  1
  Te2-  Te150  1  0.33165761  0.15972599  0.33334289  1
  Te2-  Te151  1  0.32232786  0.16924626  0.66437940  1
  Te2-  Te152  1  0.33336130  0.50269784  -0.00978477  1
  Te2-  Te153  1  0.32797675  0.50387507  0.33508189  1
  Te2-  Te154  1  0.33061586  0.49809794  0.66894751  1
  Te2-  Te155  1  0.33112782  0.83152396  0.00465213  1
  Te2-  Te156  1  0.34145237  0.83743967  0.34081420  1
  Te2-  Te157  1  0.34595326  0.83440712  0.66118510  1
  Te2-  Te158  1  0.66716287  0.16255987  0.00718338  1
  Te2-  Te159  1  0.66042650  0.17655704  0.33441903  1
  Te2-  Te160  1  0.66096666  0.16184169  0.66712017  1
  Te2-  Te161  1  0.66064350  0.50203955  -0.01162592  1
  Te2-  Te162  1  0.66772516  0.50183951  0.33054104  1
  Te2-  Te163  1  0.66611055  0.50651105  0.67468052  1
  Te2-  Te164  1  0.66893257  0.83705373  0.00370060  1
  Te2-  Te165  1  0.66265705  0.82747712  0.34761307  1
  Te2-  Te166  1  0.66010152  0.83651159  0.65024300  1
  Te2-  Te167  1  -0.01236414  0.00677579  0.16745094  1
  Te2-  Te168  1  -0.00220388  -0.00096416  0.49799837  1
  Te2-  Te169  1  0.00274593  0.00422414  0.83466952  1
  Te2-  Te170  1  -0.00129889  0.33478613  0.16720072  1
  Te2-  Te171  1  -0.00151483  0.33471397  0.51434073  1
  Te2-  Te172  1  0.01027130  0.33424984  0.81803204  1
  Te2-  Te173  1  -0.00417822  0.66229594  0.16082952  1
  Te2-  Te174  1  0.00250354  0.66913082  0.50793218  1
  Te2-  Te175  1  -0.00640900  0.67061533  0.82857812  1
  Te2-  Te176  1  0.33733953  -0.00218242  0.17703683  1
  Te2-  Te177  1  0.33313998  0.00666453  0.49111951  1
  Te2-  Te178  1  0.33088142  0.00605642  0.83494520  1
  Te2-  Te179  1  0.34254804  0.32671864  0.17280187  1
  Te2-  Te180  1  0.34719079  0.33385481  0.49444702  1
  Te2-  Te181  1  0.31955874  0.33017450  0.83142322  1
  Te2-  Te182  1  0.32585286  0.67304778  0.17701994  1
  Te2-  Te183  1  0.32999858  0.66256393  0.48798098  1
  Te2-  Te184  1  0.33197321  0.66420582  0.83354415  1
  Te2-  Te185  1  0.67349321  0.00647639  0.18263461  1
  Te2-  Te186  1  0.66704030  0.00359535  0.49666803  1
  Te2-  Te187  1  0.66613697  -0.00133853  0.82716146  1
  Te2-  Te188  1  0.65932331  0.32688283  0.17347253  1
  Te2-  Te189  1  0.65750637  0.33720964  0.50946508  1
  Te2-  Te190  1  0.66329112  0.34017468  0.81937378  1
  Te2-  Te191  1  0.67464433  0.66800319  0.17155822  1
  Te2-  Te192  1  0.65912481  0.66421830  0.49153472  1
  Te2-  Te193  1  0.66802107  0.66045272  0.83150067  1
  Pb2+  Pb194  1  0.17076895  0.83230274  0.33236624  1
  Pb2+  Pb195  1  0.83537365  0.00477676  0.83525076  1
  Pb2+  Pb196  1  0.33494721  0.66558718  0.66034853  1
  Pb2+  Pb197  1  0.83674333  0.17194149  0.66411816  1
  Pb2+  Pb198  1  0.50653011  -0.00432987  0.16232353  1
  Pb2+  Pb199  1  0.83006995  0.17053619  0.33369644  1
  Pb2+  Pb200  1  0.00101243  0.33279273  -0.01093434  1
  Pb2+  Pb201  1  0.33360624  -0.00204615  0.00477684  1
  Pb2+  Pb202  1  0.16928417  0.32913405  0.17759991  1
  Pb2+  Pb203  1  0.33402190  0.83288130  0.83266845  1
  Pb2+  Pb204  1  0.33779622  0.33325561  -0.00175835  1
  Pb2+  Pb205  1  0.16205749  0.66784419  0.83879830  1
  Pb2+  Pb206  1  0.66214658  0.17383554  0.83532272  1
  Pb2+  Pb207  1  0.67283687  0.83663222  0.17376901  1
  Pb2+  Pb208  1  0.82919026  0.33877230  0.17672268  1
  Pb2+  Pb209  1  0.32839932  0.00211746  0.66262275  1
  Pb2+  Pb210  1  -0.00573492  0.34363006  0.34482856  1
  Pb2+  Pb211  1  0.50035101  0.66236890  0.84247149  1
  Pb2+  Pb212  1  0.33157195  0.50341068  0.16292887  1
  Pb2+  Pb213  1  0.50050893  0.50159827  0.66076659  1
  Pb2+  Pb214  1  0.66648856  0.49802159  0.15738075  1
  Pb2+  Pb215  1  0.83353179  0.66928412  0.49968348  1
