# generated using pymatgen
data_In22Ag21Sn22Bi21(Te54Pb11)2
_symmetry_space_group_name_H-M   'P 1'
_cell_length_a   19.13814056
_cell_length_b   19.13423059
_cell_length_c   19.10275662
_cell_angle_alpha   90.00377771
_cell_angle_beta   90.01476951
_cell_angle_gamma   90.00186844
_symmetry_Int_Tables_number   1
_chemical_formula_structural   In22Ag21Sn22Bi21(Te54Pb11)2
_chemical_formula_sum   'In22 Ag21 Sn22 Bi21 Te108 Pb22'
_cell_volume   6995.30686082
_cell_formula_units_Z   1
loop_
 _symmetry_equiv_pos_site_id
 _symmetry_equiv_pos_as_xyz
  1  'x, y, z'
loop_
 _atom_type_symbol
 _atom_type_oxidation_number
  In3+  3.0
  Ag+  1.0
  Sn2+  2.0
  Bi3+  3.0
  Te2-  -2.0
  Pb2+  2.0
loop_
 _atom_site_type_symbol
 _atom_site_label
 _atom_site_symmetry_multiplicity
 _atom_site_fract_x
 _atom_site_fract_y
 _atom_site_fract_z
 _atom_site_occupancy
  In3+  In0  1  0.66537263  0.80779454  0.49530321  1
  In3+  In1  1  0.16653900  0.49577897  0.32224641  1
  In3+  In2  1  0.81948881  0.34312601  0.16327788  1
  In3+  In3  1  0.16618006  0.67872980  0.84322346  1
  In3+  In4  1  -0.01359906  -0.00846354  0.66800937  1
  In3+  In5  1  0.15146157  0.50514205  0.66009968  1
  In3+  In6  1  0.64313947  0.17203239  0.83800802  1
  In3+  In7  1  0.17179782  0.49917919  0.00060821  1
  In3+  In8  1  0.83023988  0.48383159  0.33965467  1
  In3+  In9  1  0.32907497  0.65528856  0.32223774  1
  In3+  In10  1  0.66062218  0.82655056  0.15167940  1
  In3+  In11  1  0.50061610  0.50233531  0.68191811  1
  In3+  In12  1  0.17582283  0.00043690  0.83234407  1
  In3+  In13  1  0.46694695  0.16796659  0.31962317  1
  In3+  In14  1  0.82824252  0.00170112  0.48233822  1
  In3+  In15  1  0.85324534  0.83298875  0.00453293  1
  In3+  In16  1  0.01131921  0.49702860  0.84335137  1
  In3+  In17  1  0.65997469  -0.00559129  0.66712420  1
  In3+  In18  1  0.01820907  0.16989272  0.83236142  1
  In3+  In19  1  0.01605889  0.16557596  0.16982532  1
  In3+  In20  1  0.48227072  0.66827580  0.16530856  1
  In3+  In21  1  0.65106478  -0.00312870  -0.00018741  1
  Ag+  Ag22  1  0.02419236  0.68647466  -0.00039707  1
  Ag+  Ag23  1  0.33932838  0.14339625  0.83298212  1
  Ag+  Ag24  1  0.31011367  0.86052852  0.14215287  1
  Ag+  Ag25  1  0.66712531  0.52014301  0.16580431  1
  Ag+  Ag26  1  0.30910179  0.02014646  0.00403453  1
  Ag+  Ag27  1  0.34430327  0.31555932  0.00360099  1
  Ag+  Ag28  1  0.16442265  0.14413957  0.35791521  1
  Ag+  Ag29  1  0.65771766  0.49567916  0.52470691  1
  Ag+  Ag30  1  0.47911696  0.00301332  0.83409742  1
  Ag+  Ag31  1  0.85890893  0.52043693  0.69268325  1
  Ag+  Ag32  1  0.31413383  0.49762301  0.16325499  1
  Ag+  Ag33  1  0.49463281  0.85640043  -0.01068757  1
  Ag+  Ag34  1  0.18487579  0.68526809  0.18626458  1
  Ag+  Ag35  1  0.63939631  0.35212872  0.00861567  1
  Ag+  Ag36  1  0.13906539  0.86099219  0.68251600  1
  Ag+  Ag37  1  0.19026795  0.13722929  -0.00206291  1
  Ag+  Ag38  1  0.50078337  0.80545455  0.69155586  1
  Ag+  Ag39  1  0.47463183  0.36237305  0.84638218  1
  Ag+  Ag40  1  0.02763173  0.32866445  0.64574289  1
  Ag+  Ag41  1  0.83440069  0.02326786  0.14600580  1
  Ag+  Ag42  1  -0.00298032  0.33877767  0.30853060  1
  Sn2+  Sn43  1  0.66606169  0.66189061  0.00268918  1
  Sn2+  Sn44  1  0.33087557  0.67224786  0.66244657  1
  Sn2+  Sn45  1  0.82622905  0.50245407  0.00046865  1
  Sn2+  Sn46  1  0.16551560  0.17081725  0.67959242  1
  Sn2+  Sn47  1  0.32910557  0.17334634  0.15333782  1
  Sn2+  Sn48  1  0.50090754  0.34404708  0.15309041  1
  Sn2+  Sn49  1  0.18907006  0.82878069  0.00354524  1
  Sn2+  Sn50  1  0.00355841  0.01398190  0.33304616  1
  Sn2+  Sn51  1  0.84146081  0.16541951  0.32593854  1
  Sn2+  Sn52  1  0.66797350  0.00145180  0.33082410  1
  Sn2+  Sn53  1  0.83417465  0.16750326  0.00175645  1
  Sn2+  Sn54  1  0.83604180  0.66169576  0.83684497  1
  Sn2+  Sn55  1  0.49518120  0.67954130  0.84222860  1
  Sn2+  Sn56  1  0.66400670  0.65818544  0.33314523  1
  Sn2+  Sn57  1  0.50629173  0.49253780  0.32772251  1
  Sn2+  Sn58  1  0.33626874  -0.00961271  0.32034003  1
  Sn2+  Sn59  1  0.33857458  0.83635863  0.83820489  1
  Sn2+  Sn60  1  -0.00137488  0.00855946  0.00030009  1
  Sn2+  Sn61  1  0.33161643  0.49458400  0.84141107  1
  Sn2+  Sn62  1  0.32726689  0.33459467  0.31283565  1
  Sn2+  Sn63  1  0.49292704  0.49565803  0.00805445  1
  Sn2+  Sn64  1  0.66686011  0.17661136  0.50312222  1
  Bi3+  Bi65  1  0.83182349  0.83396977  0.33072143  1
  Bi3+  Bi66  1  -0.00490414  0.49819343  0.49638458  1
  Bi3+  Bi67  1  0.50092154  0.33338384  0.50271873  1
  Bi3+  Bi68  1  0.16922295  0.33427296  0.16185859  1
  Bi3+  Bi69  1  0.33820159  0.33548481  0.67414246  1
  Bi3+  Bi70  1  0.50001819  0.16893253  0.67019498  1
  Bi3+  Bi71  1  0.66487275  0.33068224  0.67430151  1
  Bi3+  Bi72  1  0.83594516  0.17114861  0.67208115  1
  Bi3+  Bi73  1  0.16881833  0.33429954  0.83485283  1
  Bi3+  Bi74  1  0.83632103  0.00150657  0.84045509  1
  Bi3+  Bi75  1  0.67015456  0.16036515  0.16635579  1
  Bi3+  Bi76  1  0.83352785  0.32981463  0.83949109  1
  Bi3+  Bi77  1  0.16879756  0.66741448  0.49861319  1
  Bi3+  Bi78  1  0.66308319  0.83808646  0.83611750  1
  Bi3+  Bi79  1  0.83664212  0.66580611  0.16021570  1
  Bi3+  Bi80  1  0.50413488  0.83582793  0.33232243  1
  Bi3+  Bi81  1  0.00503241  0.33054779  -0.00357602  1
  Bi3+  Bi82  1  0.33631487  0.66393860  -0.00463533  1
  Bi3+  Bi83  1  0.33782827  0.83399363  0.50047311  1
  Bi3+  Bi84  1  0.49795898  0.16495309  0.00115943  1
  Bi3+  Bi85  1  0.66579037  0.66549368  0.67060143  1
  Te2-  Te86  1  0.16814729  0.16925890  0.14681180  1
  Te2-  Te87  1  0.16688711  0.16657078  0.50572789  1
  Te2-  Te88  1  0.17293494  0.16833055  0.84666282  1
  Te2-  Te89  1  0.16422332  0.49812001  0.16697738  1
  Te2-  Te90  1  0.16732725  0.50429681  0.49879185  1
  Te2-  Te91  1  0.16422455  0.49895026  0.82382854  1
  Te2-  Te92  1  0.16976889  0.82919590  0.16633717  1
  Te2-  Te93  1  0.17266824  0.83018418  0.50978821  1
  Te2-  Te94  1  0.17123312  0.82964287  0.82326607  1
  Te2-  Te95  1  0.50287490  0.16958066  0.16768062  1
  Te2-  Te96  1  0.50407150  0.16971853  0.50326392  1
  Te2-  Te97  1  0.49151035  0.15662307  0.83458792  1
  Te2-  Te98  1  0.51490863  0.50028590  0.16913096  1
  Te2-  Te99  1  0.50943680  0.49435524  0.48789908  1
  Te2-  Te100  1  0.49921879  0.50727572  0.83858673  1
  Te2-  Te101  1  0.50608542  0.82480990  0.17145102  1
  Te2-  Te102  1  0.50463960  0.83392290  0.49455762  1
  Te2-  Te103  1  0.50127050  0.84209031  0.83655509  1
  Te2-  Te104  1  0.83323440  0.16981662  0.16655197  1
  Te2-  Te105  1  0.83164318  0.16106121  0.50492665  1
  Te2-  Te106  1  0.83876491  0.16532703  0.83522325  1
  Te2-  Te107  1  0.82369513  0.49933803  0.16728587  1
  Te2-  Te108  1  0.82999135  0.49887139  0.49249472  1
  Te2-  Te109  1  0.83793754  0.49544522  0.83567506  1
  Te2-  Te110  1  0.82411840  0.83019486  0.16413840  1
  Te2-  Te111  1  0.82611938  0.83974208  0.49930256  1
  Te2-  Te112  1  0.82912149  0.83461976  0.84087477  1
  Te2-  Te113  1  0.16524494  -0.01133998  -0.01209233  1
  Te2-  Te114  1  0.16408588  -0.00077454  0.33129250  1
  Te2-  Te115  1  0.16399695  0.00533739  0.67735274  1
  Te2-  Te116  1  0.16900694  0.34350824  -0.00203734  1
  Te2-  Te117  1  0.16064667  0.34140079  0.32359931  1
  Te2-  Te118  1  0.17446048  0.33818680  0.66977918  1
  Te2-  Te119  1  0.16941439  0.65954634  -0.00434984  1
  Te2-  Te120  1  0.16744095  0.65947052  0.33123196  1
  Te2-  Te121  1  0.16810592  0.65926087  0.66340720  1
  Te2-  Te122  1  0.49828579  0.00402371  -0.00784395  1
  Te2-  Te123  1  0.50036531  0.00787976  0.33267473  1
  Te2-  Te124  1  0.50579150  0.00774178  0.68012153  1
  Te2-  Te125  1  0.49553954  0.32871307  -0.01081297  1
  Te2-  Te126  1  0.49579778  0.32256380  0.33613498  1
  Te2-  Te127  1  0.50214858  0.33299502  0.67583322  1
  Te2-  Te128  1  0.50014775  0.66064398  0.00826104  1
  Te2-  Te129  1  0.50303499  0.66901445  0.32388772  1
  Te2-  Te130  1  0.50296966  0.65931345  0.66763040  1
  Te2-  Te131  1  0.83800865  -0.00760175  0.00163676  1
  Te2-  Te132  1  0.83773827  -0.00366772  0.33009387  1
  Te2-  Te133  1  0.83245895  0.00544100  0.67580254  1
  Te2-  Te134  1  0.84010850  0.33312486  0.00284750  1
  Te2-  Te135  1  0.84306315  0.32938063  0.32433865  1
  Te2-  Te136  1  0.82446336  0.33210185  0.67415361  1
  Te2-  Te137  1  0.83053417  0.67255927  -0.00346243  1
  Te2-  Te138  1  0.83210303  0.67273331  0.32686587  1
  Te2-  Te139  1  0.83010070  0.66303131  0.66963243  1
  Te2-  Te140  1  0.00163273  0.16777255  -0.00563831  1
  Te2-  Te141  1  0.01468654  0.17090206  0.32601011  1
  Te2-  Te142  1  -0.00009900  0.18146604  0.67433636  1
  Te2-  Te143  1  -0.00022074  0.49590568  -0.00548975  1
  Te2-  Te144  1  -0.00745337  0.48898379  0.33256643  1
  Te2-  Te145  1  -0.00254381  0.48543130  0.66087522  1
  Te2-  Te146  1  0.00665805  0.83422401  -0.00033026  1
  Te2-  Te147  1  -0.00269167  0.83519644  0.33331643  1
  Te2-  Te148  1  -0.00478599  0.83242086  0.66833801  1
  Te2-  Te149  1  0.33522824  0.16737245  -0.00557979  1
  Te2-  Te150  1  0.31642008  0.16519134  0.32877119  1
  Te2-  Te151  1  0.33494533  0.16871569  0.67923608  1
  Te2-  Te152  1  0.32892331  0.50357755  0.00862828  1
  Te2-  Te153  1  0.33466774  0.50042793  0.32241798  1
  Te2-  Te154  1  0.34467293  0.49766162  0.66776593  1
  Te2-  Te155  1  0.34736782  0.82407599  0.00462321  1
  Te2-  Te156  1  0.34162888  0.83064861  0.33425802  1
  Te2-  Te157  1  0.35148422  0.82972590  0.66267961  1
  Te2-  Te158  1  0.66524673  0.15411443  0.00024158  1
  Te2-  Te159  1  0.67564521  0.16383901  0.33090013  1
  Te2-  Te160  1  0.66823880  0.16640100  0.67324158  1
  Te2-  Te161  1  0.66671586  0.49666678  0.00991743  1
  Te2-  Te162  1  0.67562103  0.49854196  0.31860857  1
  Te2-  Te163  1  0.65956525  0.49789995  0.67281364  1
  Te2-  Te164  1  0.64918763  0.83557783  -0.00145998  1
  Te2-  Te165  1  0.66804910  0.83466131  0.33897421  1
  Te2-  Te166  1  0.65291683  0.83132401  0.66887429  1
  Te2-  Te167  1  -0.00955087  0.00962900  0.16528387  1
  Te2-  Te168  1  -0.00634787  0.00096899  0.50815187  1
  Te2-  Te169  1  0.00140365  0.00714158  0.82820028  1
  Te2-  Te170  1  0.00294055  0.32349389  0.16082673  1
  Te2-  Te171  1  -0.00082778  0.33686350  0.50101124  1
  Te2-  Te172  1  0.00241661  0.33425944  0.83392815  1
  Te2-  Te173  1  -0.00245694  0.66507103  0.15214171  1
  Te2-  Te174  1  0.00353944  0.66250598  0.49934879  1
  Te2-  Te175  1  0.00760550  0.66137317  0.84507251  1
  Te2-  Te176  1  0.33485822  0.00332759  0.15816756  1
  Te2-  Te177  1  0.33492124  -0.00208499  0.49774991  1
  Te2-  Te178  1  0.32851699  -0.00317084  0.84555040  1
  Te2-  Te179  1  0.33515103  0.34285502  0.15438841  1
  Te2-  Te180  1  0.33736243  0.33400102  0.50334448  1
  Te2-  Te181  1  0.33012069  0.33670807  0.83957847  1
  Te2-  Te182  1  0.32878516  0.65296157  0.16711183  1
  Te2-  Te183  1  0.33196832  0.66847823  0.49184917  1
  Te2-  Te184  1  0.32722715  0.66548433  0.83182549  1
  Te2-  Te185  1  0.67815350  -0.00126279  0.16030538  1
  Te2-  Te186  1  0.67424869  0.00687898  0.50460840  1
  Te2-  Te187  1  0.67458861  0.00061903  0.84064275  1
  Te2-  Te188  1  0.66752566  0.32364621  0.15480245  1
  Te2-  Te189  1  0.66284278  0.34316077  0.50243088  1
  Te2-  Te190  1  0.67143505  0.32562918  0.84404612  1
  Te2-  Te191  1  0.67295992  0.67123422  0.16559212  1
  Te2-  Te192  1  0.66705892  0.64965040  0.50469227  1
  Te2-  Te193  1  0.66517021  0.67154392  0.83286538  1
  Pb2+  Pb194  1  0.50396286  -0.00386375  0.16260604  1
  Pb2+  Pb195  1  0.16535898  0.33517894  0.49258972  1
  Pb2+  Pb196  1  0.33475497  0.16699089  0.50458854  1
  Pb2+  Pb197  1  -0.00361849  0.83439625  0.16685226  1
  Pb2+  Pb198  1  0.82045936  0.83560288  0.67054768  1
  Pb2+  Pb199  1  0.66481423  0.33171744  0.32571445  1
  Pb2+  Pb200  1  -0.00186992  0.65937763  0.32151544  1
  Pb2+  Pb201  1  0.17333402  0.83178639  0.33779393  1
  Pb2+  Pb202  1  0.66767446  0.49562979  0.84199436  1
  Pb2+  Pb203  1  0.33726034  -0.00544467  0.67282728  1
  Pb2+  Pb204  1  -0.00102049  0.16951913  0.49835080  1
  Pb2+  Pb205  1  0.83182947  0.33252013  0.50376748  1
  Pb2+  Pb206  1  -0.00516406  0.49653612  0.16133049  1
  Pb2+  Pb207  1  0.00117455  0.65694646  0.67619704  1
  Pb2+  Pb208  1  0.16564188  -0.00227003  0.50390424  1
  Pb2+  Pb209  1  0.34066255  0.49995291  0.49755876  1
  Pb2+  Pb210  1  0.00235137  0.83657529  0.83502787  1
  Pb2+  Pb211  1  0.50582649  0.00002655  0.50727794  1
  Pb2+  Pb212  1  0.83396245  0.66507751  0.49562357  1
  Pb2+  Pb213  1  0.16401689  0.00052690  0.16042165  1
  Pb2+  Pb214  1  0.50025315  0.66498051  0.49487387  1
  Pb2+  Pb215  1  -0.00046697  0.83338894  0.49948547  1
