# generated using pymatgen
data_In22Ag21Sn22Bi21(Te54Pb11)2
_symmetry_space_group_name_H-M   'P 1'
_cell_length_a   19.13720353
_cell_length_b   19.13275565
_cell_length_c   19.14579580
_cell_angle_alpha   89.99241656
_cell_angle_beta   90.01116217
_cell_angle_gamma   90.00899212
_symmetry_Int_Tables_number   1
_chemical_formula_structural   In22Ag21Sn22Bi21(Te54Pb11)2
_chemical_formula_sum   'In22 Ag21 Sn22 Bi21 Te108 Pb22'
_cell_volume   7010.18381997
_cell_formula_units_Z   1
loop_
 _symmetry_equiv_pos_site_id
 _symmetry_equiv_pos_as_xyz
  1  'x, y, z'
loop_
 _atom_type_symbol
 _atom_type_oxidation_number
  In3+  3.0
  Ag+  1.0
  Sn2+  2.0
  Bi3+  3.0
  Te2-  -2.0
  Pb2+  2.0
loop_
 _atom_site_type_symbol
 _atom_site_label
 _atom_site_symmetry_multiplicity
 _atom_site_fract_x
 _atom_site_fract_y
 _atom_site_fract_z
 _atom_site_occupancy
  In3+  In0  1  0.67634361  0.84939987  0.16479837  1
  In3+  In1  1  0.64760215  0.33372320  0.67786016  1
  In3+  In2  1  0.81561019  0.66942139  0.47579956  1
  In3+  In3  1  -0.00624293  0.32836957  0.67309230  1
  In3+  In4  1  0.48489485  0.50184407  0.67110503  1
  In3+  In5  1  -0.00433311  0.15215789  0.83142824  1
  In3+  In6  1  0.32902915  0.18174527  0.15990510  1
  In3+  In7  1  0.83078272  0.83614565  0.35309252  1
  In3+  In8  1  0.33807779  0.64729808  -0.00283496  1
  In3+  In9  1  0.50820574  0.81574447  0.34368696  1
  In3+  In10  1  -0.01778000  0.49884182  0.84391852  1
  In3+  In11  1  0.33755169  0.15445733  0.82252272  1
  In3+  In12  1  -0.00061336  -0.00344849  0.68406120  1
  In3+  In13  1  0.66483599  0.84314087  0.83254082  1
  In3+  In14  1  0.84308830  -0.00308199  0.13376833  1
  In3+  In15  1  0.35126636  0.50568276  0.50564891  1
  In3+  In16  1  0.16657817  0.47406197  0.66594007  1
  In3+  In17  1  0.50061159  0.00714829  0.51252077  1
  In3+  In18  1  -0.00927941  0.67061051  -0.00342902  1
  In3+  In19  1  0.49683029  0.49011655  0.35133393  1
  In3+  In20  1  0.66348899  0.18382819  0.17021358  1
  In3+  In21  1  0.14274456  0.83715330  0.00033189  1
  Ag+  Ag22  1  0.69828705  0.34623142  -0.02485190  1
  Ag+  Ag23  1  0.13503506  0.02511903  0.19500798  1
  Ag+  Ag24  1  0.52274930  0.31305623  0.51776003  1
  Ag+  Ag25  1  0.02204397  0.67057130  0.36332458  1
  Ag+  Ag26  1  0.66578989  0.85524668  0.52867055  1
  Ag+  Ag27  1  0.82566120  0.81599247  0.00054918  1
  Ag+  Ag28  1  0.50531969  0.14465813  0.68674244  1
  Ag+  Ag29  1  0.68972030  0.32690251  0.35811390  1
  Ag+  Ag30  1  0.30934238  0.35238264  -0.03204964  1
  Ag+  Ag31  1  0.83636838  0.47695387  -0.01814058  1
  Ag+  Ag32  1  0.85707890  -0.02875481  0.82749524  1
  Ag+  Ag33  1  0.81878468  0.67086933  0.83941730  1
  Ag+  Ag34  1  0.83561136  0.31675874  0.80854268  1
  Ag+  Ag35  1  0.48242040  0.69774520  0.52062608  1
  Ag+  Ag36  1  0.52138695  0.66487894  0.81265947  1
  Ag+  Ag37  1  0.14533215  0.16292880  0.66987374  1
  Ag+  Ag38  1  -0.02704383  -0.01675080  -0.00366849  1
  Ag+  Ag39  1  0.35355417  0.00176768  0.64118800  1
  Ag+  Ag40  1  0.51456432  0.03135280  0.80890536  1
  Ag+  Ag41  1  0.35812062  0.66578403  0.35710976  1
  Ag+  Ag42  1  0.14621989  0.31142858  0.14130204  1
  Sn2+  Sn43  1  0.66963795  0.16493604  0.84019683  1
  Sn2+  Sn44  1  0.33352436  0.49720489  0.83159673  1
  Sn2+  Sn45  1  -0.00013715  0.32792913  0.00001030  1
  Sn2+  Sn46  1  0.34074621  0.83740433  0.83839253  1
  Sn2+  Sn47  1  0.17441880  0.84793969  0.66812257  1
  Sn2+  Sn48  1  0.82926526  0.33717776  0.50424031  1
  Sn2+  Sn49  1  0.83146348  0.82795171  0.68214842  1
  Sn2+  Sn50  1  0.00017850  0.66523859  0.66869153  1
  Sn2+  Sn51  1  0.00864973  0.16099926  0.50034742  1
  Sn2+  Sn52  1  0.33525518  0.31033381  0.66652212  1
  Sn2+  Sn53  1  0.83188489  0.33385510  0.16646103  1
  Sn2+  Sn54  1  0.16682633  0.50516716  0.33118786  1
  Sn2+  Sn55  1  0.51036834  0.48645975  -0.00255738  1
  Sn2+  Sn56  1  0.33628006  0.17859626  0.50071958  1
  Sn2+  Sn57  1  0.33677277  -0.01009331  0.32772321  1
  Sn2+  Sn58  1  0.17103935  -0.00305485  0.50620553  1
  Sn2+  Sn59  1  0.49608460  0.33461102  0.17073575  1
  Sn2+  Sn60  1  0.83312797  0.67220831  0.15174914  1
  Sn2+  Sn61  1  0.67423476  0.65832713  0.66456287  1
  Sn2+  Sn62  1  0.00260815  0.83225538  0.17136012  1
  Sn2+  Sn63  1  0.83913901  0.50965767  0.67710449  1
  Sn2+  Sn64  1  0.49729933  0.66764495  0.16466981  1
  Bi3+  Bi65  1  0.66495958  0.49583720  0.16375131  1
  Bi3+  Bi66  1  0.33444169  0.49933487  0.17076126  1
  Bi3+  Bi67  1  0.17045157  0.16233945  -0.00807012  1
  Bi3+  Bi68  1  0.16518603  0.33119083  0.50216430  1
  Bi3+  Bi69  1  0.16501904  0.66812095  0.16225642  1
  Bi3+  Bi70  1  0.16904944  0.66912022  0.83089767  1
  Bi3+  Bi71  1  0.83383509  0.16941953  -0.00017395  1
  Bi3+  Bi72  1  0.82969024  0.50153590  0.33278774  1
  Bi3+  Bi73  1  0.33855747  0.83142254  0.16395471  1
  Bi3+  Bi74  1  0.49882378  0.16740687  -0.00245618  1
  Bi3+  Bi75  1  0.66737362  0.50125827  0.83115644  1
  Bi3+  Bi76  1  -0.00006639  0.50060548  0.50423519  1
  Bi3+  Bi77  1  0.66935952  0.50276582  0.49859971  1
  Bi3+  Bi78  1  0.66386761  0.00622154  -0.00005187  1
  Bi3+  Bi79  1  0.33030167  0.33823749  0.33575536  1
  Bi3+  Bi80  1  0.49769568  -0.00027506  0.16153277  1
  Bi3+  Bi81  1  0.49548302  0.17340694  0.33412258  1
  Bi3+  Bi82  1  0.17237662  0.00011671  0.83545351  1
  Bi3+  Bi83  1  0.50578363  0.82834695  0.00181113  1
  Bi3+  Bi84  1  0.66426077  0.65675333  0.32798057  1
  Bi3+  Bi85  1  0.33363860  0.00177257  -0.00006298  1
  Te2-  Te86  1  0.17316393  0.16494702  0.16106747  1
  Te2-  Te87  1  0.16792285  0.16598454  0.51400108  1
  Te2-  Te88  1  0.16599444  0.16449447  0.82604806  1
  Te2-  Te89  1  0.17067206  0.50388160  0.16300560  1
  Te2-  Te90  1  0.16122500  0.49827940  0.50475784  1
  Te2-  Te91  1  0.17110464  0.50391273  0.82581424  1
  Te2-  Te92  1  0.17254294  0.83241064  0.15690375  1
  Te2-  Te93  1  0.16782135  0.83576335  0.49693645  1
  Te2-  Te94  1  0.16788023  0.83497433  0.83860504  1
  Te2-  Te95  1  0.49710151  0.16473340  0.16456713  1
  Te2-  Te96  1  0.49663029  0.16924855  0.49617913  1
  Te2-  Te97  1  0.49784426  0.17451388  0.83259505  1
  Te2-  Te98  1  0.49844842  0.49978234  0.16133343  1
  Te2-  Te99  1  0.50407300  0.49758500  0.50524913  1
  Te2-  Te100  1  0.50227885  0.51148634  0.82904032  1
  Te2-  Te101  1  0.50424333  0.83590415  0.16689376  1
  Te2-  Te102  1  0.51438443  0.83917835  0.49460322  1
  Te2-  Te103  1  0.50903043  0.81550898  0.84034674  1
  Te2-  Te104  1  0.82858894  0.15772902  0.16272036  1
  Te2-  Te105  1  0.83571686  0.16749368  0.50109231  1
  Te2-  Te106  1  0.83813725  0.17210877  0.83810317  1
  Te2-  Te107  1  0.82932713  0.50149923  0.17133855  1
  Te2-  Te108  1  0.83471683  0.50784936  0.49875733  1
  Te2-  Te109  1  0.83043392  0.51270581  0.83768604  1
  Te2-  Te110  1  0.83051651  0.84241832  0.15215662  1
  Te2-  Te111  1  0.81649087  0.82691669  0.50577025  1
  Te2-  Te112  1  0.82169874  0.82763486  0.84167811  1
  Te2-  Te113  1  0.17165325  -0.00091667  -0.00237648  1
  Te2-  Te114  1  0.16752584  -0.00232748  0.33421772  1
  Te2-  Te115  1  0.15474646  0.00823315  0.67150875  1
  Te2-  Te116  1  0.16714114  0.32949875  -0.00237520  1
  Te2-  Te117  1  0.16777443  0.33681851  0.33895454  1
  Te2-  Te118  1  0.16549305  0.31824379  0.66468916  1
  Te2-  Te119  1  0.16625961  0.67479501  -0.00373573  1
  Te2-  Te120  1  0.16394821  0.66524398  0.32778688  1
  Te2-  Te121  1  0.16511773  0.68069014  0.66897118  1
  Te2-  Te122  1  0.49984243  -0.00029028  -0.00295011  1
  Te2-  Te123  1  0.49700815  0.00843863  0.32378724  1
  Te2-  Te124  1  0.50064169  -0.00308725  0.66751485  1
  Te2-  Te125  1  0.49573173  0.32808593  0.00282550  1
  Te2-  Te126  1  0.49249121  0.33642354  0.33855801  1
  Te2-  Te127  1  0.49649323  0.34467510  0.65959238  1
  Te2-  Te128  1  0.49597394  0.66315960  0.00247003  1
  Te2-  Te129  1  0.50341468  0.65903953  0.33192178  1
  Te2-  Te130  1  0.50243530  0.65679197  0.66124470  1
  Te2-  Te131  1  0.82724314  0.00707324  -0.01860658  1
  Te2-  Te132  1  0.82895549  -0.00955546  0.33854364  1
  Te2-  Te133  1  0.84093202  -0.00106468  0.67962180  1
  Te2-  Te134  1  0.84068799  0.33122151  0.00841028  1
  Te2-  Te135  1  0.83373005  0.33645192  0.33267895  1
  Te2-  Te136  1  0.83994031  0.34098680  0.66216750  1
  Te2-  Te137  1  0.83791696  0.66908231  -0.00703129  1
  Te2-  Te138  1  0.82621007  0.66787787  0.32233651  1
  Te2-  Te139  1  0.83840622  0.66884218  0.68299839  1
  Te2-  Te140  1  0.00421912  0.16586058  -0.00915482  1
  Te2-  Te141  1  -0.00046366  0.16577858  0.33171737  1
  Te2-  Te142  1  -0.00391139  0.16877403  0.67381551  1
  Te2-  Te143  1  -0.01027743  0.49873702  -0.00313058  1
  Te2-  Te144  1  -0.00501509  0.51685685  0.34026152  1
  Te2-  Te145  1  0.00877809  0.49743891  0.66581624  1
  Te2-  Te146  1  -0.01071554  0.83566987  0.00008393  1
  Te2-  Te147  1  -0.01267325  0.81797420  0.33201573  1
  Te2-  Te148  1  -0.00069074  0.84153591  0.66670606  1
  Te2-  Te149  1  0.33446988  0.16780256  -0.00240209  1
  Te2-  Te150  1  0.33403873  0.16976099  0.33230262  1
  Te2-  Te151  1  0.35101533  0.15408747  0.66810618  1
  Te2-  Te152  1  0.33565452  0.49261123  0.00354528  1
  Te2-  Te153  1  0.33753688  0.50929666  0.33416753  1
  Te2-  Te154  1  0.32747140  0.50102673  0.66333479  1
  Te2-  Te155  1  0.34363316  0.83679395  0.00133509  1
  Te2-  Te156  1  0.34398783  0.81856659  0.32874305  1
  Te2-  Te157  1  0.33264156  0.84835415  0.66754260  1
  Te2-  Te158  1  0.66410271  0.17205174  0.00111295  1
  Te2-  Te159  1  0.66090425  0.18074088  0.32877798  1
  Te2-  Te160  1  0.65434615  0.17608617  0.67171391  1
  Te2-  Te161  1  0.67672879  0.49156480  -0.00147008  1
  Te2-  Te162  1  0.66456419  0.48823654  0.33211162  1
  Te2-  Te163  1  0.67229737  0.49243231  0.66531284  1
  Te2-  Te164  1  0.67071224  0.83640170  0.00482874  1
  Te2-  Te165  1  0.66837214  0.82524560  0.32186607  1
  Te2-  Te166  1  0.66784740  0.82876593  0.67437963  1
  Te2-  Te167  1  -0.00286214  -0.00249210  0.15406455  1
  Te2-  Te168  1  0.00266120  0.00265235  0.49690877  1
  Te2-  Te169  1  0.00384532  -0.00283503  0.84336679  1
  Te2-  Te170  1  0.00559170  0.33576427  0.16918284  1
  Te2-  Te171  1  0.00086809  0.33332981  0.50671917  1
  Te2-  Te172  1  -0.01374347  0.34513228  0.82836575  1
  Te2-  Te173  1  0.00268626  0.67083682  0.15347732  1
  Te2-  Te174  1  -0.00686403  0.66556318  0.50862724  1
  Te2-  Te175  1  0.00699054  0.65716517  0.83801847  1
  Te2-  Te176  1  0.33383468  -0.00575156  0.16486858  1
  Te2-  Te177  1  0.34141526  0.00413915  0.49420189  1
  Te2-  Te178  1  0.33499364  -0.00028744  0.83626393  1
  Te2-  Te179  1  0.32950488  0.33693899  0.17359432  1
  Te2-  Te180  1  0.32645743  0.34838269  0.49896421  1
  Te2-  Te181  1  0.33289252  0.33754105  0.82473203  1
  Te2-  Te182  1  0.32857756  0.66588849  0.15824779  1
  Te2-  Te183  1  0.34017196  0.66201552  0.50236720  1
  Te2-  Te184  1  0.33091816  0.66706472  0.84143885  1
  Te2-  Te185  1  0.66498473  0.00501896  0.16289010  1
  Te2-  Te186  1  0.65998058  0.00027476  0.50050029  1
  Te2-  Te187  1  0.65997687  -0.00070288  0.83774297  1
  Te2-  Te188  1  0.66510658  0.33566087  0.16288426  1
  Te2-  Te189  1  0.66818717  0.33982709  0.50507969  1
  Te2-  Te190  1  0.68057083  0.33605534  0.83025616  1
  Te2-  Te191  1  0.66606076  0.65895123  0.16465035  1
  Te2-  Te192  1  0.66427834  0.66244595  0.49360603  1
  Te2-  Te193  1  0.66812234  0.66108028  0.83020707  1
  Pb2+  Pb194  1  -0.00617506  0.82447201  0.83267514  1
  Pb2+  Pb195  1  0.50310184  0.34203636  0.83677405  1
  Pb2+  Pb196  1  0.34014140  0.83725681  0.49741104  1
  Pb2+  Pb197  1  -0.00137915  0.16895938  0.16044649  1
  Pb2+  Pb198  1  -0.00298683  -0.00642689  0.32675992  1
  Pb2+  Pb199  1  0.66497039  0.16913838  0.50087982  1
  Pb2+  Pb200  1  -0.00548351  0.83313686  0.49996892  1
  Pb2+  Pb201  1  0.82498871  0.17332463  0.66989103  1
  Pb2+  Pb202  1  0.00064755  0.34115987  0.33756967  1
  Pb2+  Pb203  1  0.16761052  0.83089043  0.32454697  1
  Pb2+  Pb204  1  0.83606857  -0.00087884  0.51006877  1
  Pb2+  Pb205  1  0.15569347  0.33258411  0.83202081  1
  Pb2+  Pb206  1  0.16068183  0.50597684  -0.00465321  1
  Pb2+  Pb207  1  0.67198588  0.00227631  0.67152075  1
  Pb2+  Pb208  1  -0.00132887  0.50349958  0.16834282  1
  Pb2+  Pb209  1  0.33201343  0.67216794  0.67434228  1
  Pb2+  Pb210  1  0.49985009  0.82729972  0.67223157  1
  Pb2+  Pb211  1  0.16758673  0.16680081  0.34136144  1
  Pb2+  Pb212  1  0.66211231  -0.00198129  0.33173064  1
  Pb2+  Pb213  1  0.83032627  0.16215809  0.33250671  1
  Pb2+  Pb214  1  0.16876609  0.66577872  0.49849243  1
  Pb2+  Pb215  1  0.66592626  0.66171033  -0.00300802  1
