# generated using pymatgen
data_In22Ag21Sn22Bi21(Te54Pb11)2
_symmetry_space_group_name_H-M   'P 1'
_cell_length_a   19.12317992
_cell_length_b   19.12257473
_cell_length_c   19.11753252
_cell_angle_alpha   90.00892389
_cell_angle_beta   89.98002599
_cell_angle_gamma   90.01814022
_symmetry_Int_Tables_number   1
_chemical_formula_structural   In22Ag21Sn22Bi21(Te54Pb11)2
_chemical_formula_sum   'In22 Ag21 Sn22 Bi21 Te108 Pb22'
_cell_volume   6990.98325695
_cell_formula_units_Z   1
loop_
 _symmetry_equiv_pos_site_id
 _symmetry_equiv_pos_as_xyz
  1  'x, y, z'
loop_
 _atom_type_symbol
 _atom_type_oxidation_number
  In3+  3.0
  Ag+  1.0
  Sn2+  2.0
  Bi3+  3.0
  Te2-  -2.0
  Pb2+  2.0
loop_
 _atom_site_type_symbol
 _atom_site_label
 _atom_site_symmetry_multiplicity
 _atom_site_fract_x
 _atom_site_fract_y
 _atom_site_fract_z
 _atom_site_occupancy
  In3+  In0  1  0.82840636  0.49621919  -0.01175059  1
  In3+  In1  1  0.00433494  0.67150667  0.65500530  1
  In3+  In2  1  0.66918016  0.00063151  0.34967258  1
  In3+  In3  1  0.17802645  0.66683958  0.17986328  1
  In3+  In4  1  0.48189815  0.67415755  0.16207278  1
  In3+  In5  1  0.48872042  0.83613802  -0.00114689  1
  In3+  In6  1  0.02969586  0.49229244  0.51362655  1
  In3+  In7  1  0.31003643  0.33432281  0.65212683  1
  In3+  In8  1  0.49688674  0.34893089  0.82982624  1
  In3+  In9  1  0.32913709  -0.00719898  0.32442608  1
  In3+  In10  1  0.33282312  0.49642614  0.83580006  1
  In3+  In11  1  0.84721476  -0.00977831  0.50419437  1
  In3+  In12  1  0.68339427  0.34244974  0.66394858  1
  In3+  In13  1  -0.00413136  0.50413481  0.16792789  1
  In3+  In14  1  0.49790534  0.49117627  0.00514687  1
  In3+  In15  1  0.84170445  0.82240855  0.32568379  1
  In3+  In16  1  0.81921093  0.33667915  0.82780885  1
  In3+  In17  1  0.31400813  0.49072084  0.17811243  1
  In3+  In18  1  0.66635399  0.67540390  0.65603562  1
  In3+  In19  1  0.65598909  0.67042201  0.33742809  1
  In3+  In20  1  0.01449068  0.67345564  0.32793533  1
  In3+  In21  1  0.32206952  0.33231487  0.00178836  1
  Ag+  Ag22  1  0.33375232  0.52221018  0.47473764  1
  Ag+  Ag23  1  -0.03294058  0.01157657  0.31206447  1
  Ag+  Ag24  1  0.16255564  0.31129168  0.47277643  1
  Ag+  Ag25  1  0.50598162  0.01146179  0.19043755  1
  Ag+  Ag26  1  0.17885789  0.64786378  0.47959784  1
  Ag+  Ag27  1  0.83545053  0.51440756  0.68008011  1
  Ag+  Ag28  1  0.31614041  0.81635834  0.80411694  1
  Ag+  Ag29  1  0.19374167  0.50415490  0.00991563  1
  Ag+  Ag30  1  0.00795420  0.36274168  0.67821668  1
  Ag+  Ag31  1  0.65963080  0.81532695  0.47180293  1
  Ag+  Ag32  1  0.85797211  0.33122728  0.19305947  1
  Ag+  Ag33  1  0.35471907  0.35110435  0.35910932  1
  Ag+  Ag34  1  0.68687032  -0.03278856  0.64447717  1
  Ag+  Ag35  1  0.32792816  0.85369638  0.16615109  1
  Ag+  Ag36  1  0.35437252  0.64410815  0.34160530  1
  Ag+  Ag37  1  -0.01695246  -0.00231724  0.66565701  1
  Ag+  Ag38  1  0.15469398  0.14182893  0.00248019  1
  Ag+  Ag39  1  0.49706221  0.36253487  0.18781330  1
  Ag+  Ag40  1  0.69103805  0.81526068  0.83661016  1
  Ag+  Ag41  1  -0.02409030  0.86131888  0.15769147  1
  Ag+  Ag42  1  0.68772615  0.51950204  0.82367738  1
  Sn2+  Sn43  1  0.17196030  0.82032939  0.00758601  1
  Sn2+  Sn44  1  0.82889650  0.82635363  0.00351548  1
  Sn2+  Sn45  1  0.49529366  0.16616739  0.00506990  1
  Sn2+  Sn46  1  0.17438184  0.33219617  0.16435861  1
  Sn2+  Sn47  1  0.49940734  0.67479377  0.83873374  1
  Sn2+  Sn48  1  0.00555956  0.66942044  0.00162832  1
  Sn2+  Sn49  1  0.15864430  0.49560652  0.33916440  1
  Sn2+  Sn50  1  0.65729728  0.83352943  0.15876285  1
  Sn2+  Sn51  1  0.49408360  0.17006629  0.32668975  1
  Sn2+  Sn52  1  0.33189595  0.67070769  0.00121685  1
  Sn2+  Sn53  1  0.84255979  0.34020537  0.50483201  1
  Sn2+  Sn54  1  0.50229127  0.83569923  0.67576258  1
  Sn2+  Sn55  1  0.83472492  0.65269872  0.16715292  1
  Sn2+  Sn56  1  0.84351550  0.66195294  0.50011935  1
  Sn2+  Sn57  1  0.00184670  0.32967976  0.33776485  1
  Sn2+  Sn58  1  0.00692099  0.17030361  0.82706263  1
  Sn2+  Sn59  1  0.33686395  0.00385532  -0.00062868  1
  Sn2+  Sn60  1  0.50210028  0.83938980  0.33249696  1
  Sn2+  Sn61  1  0.16572984  0.16989049  0.32535794  1
  Sn2+  Sn62  1  0.16210645  -0.00251144  0.50178701  1
  Sn2+  Sn63  1  0.82886052  0.66723039  0.83310400  1
  Sn2+  Sn64  1  0.16443760  0.50238179  0.66992977  1
  Bi3+  Bi65  1  0.83211551  0.82521420  0.66293197  1
  Bi3+  Bi66  1  0.83466403  0.17113226  0.66549528  1
  Bi3+  Bi67  1  0.66511723  -0.00368575  -0.00242449  1
  Bi3+  Bi68  1  0.66537646  0.66660642  0.00086506  1
  Bi3+  Bi69  1  0.67010386  0.50042862  0.15911378  1
  Bi3+  Bi70  1  0.16647200  0.33523952  0.83660076  1
  Bi3+  Bi71  1  0.49806143  -0.00177466  0.83413098  1
  Bi3+  Bi72  1  -0.00483480  0.82816454  0.49387979  1
  Bi3+  Bi73  1  0.66133499  0.33516676  -0.00234337  1
  Bi3+  Bi74  1  0.50385269  0.50064443  0.67018363  1
  Bi3+  Bi75  1  0.16631253  0.00066581  0.83454163  1
  Bi3+  Bi76  1  0.49921455  -0.00355287  0.50141787  1
  Bi3+  Bi77  1  0.66590669  0.16809773  0.50323272  1
  Bi3+  Bi78  1  0.16636092  0.66639335  0.83868732  1
  Bi3+  Bi79  1  0.33125653  0.17073758  0.16762459  1
  Bi3+  Bi80  1  0.00228015  0.17281226  0.16747207  1
  Bi3+  Bi81  1  0.33698155  -0.00040596  0.66720481  1
  Bi3+  Bi82  1  0.16732500  0.83646174  0.33312612  1
  Bi3+  Bi83  1  0.66715390  0.16732833  0.83266316  1
  Bi3+  Bi84  1  0.83580784  0.50357363  0.33384120  1
  Bi3+  Bi85  1  0.33026083  0.16553844  0.49647633  1
  Te2-  Te86  1  0.16812616  0.16623548  0.15507916  1
  Te2-  Te87  1  0.16779496  0.16529774  0.49920472  1
  Te2-  Te88  1  0.16737090  0.16773423  0.84905122  1
  Te2-  Te89  1  0.16498388  0.50434134  0.15994789  1
  Te2-  Te90  1  0.17805965  0.50459704  0.50753735  1
  Te2-  Te91  1  0.17318511  0.50104021  0.83916085  1
  Te2-  Te92  1  0.17667739  0.82169024  0.17098091  1
  Te2-  Te93  1  0.16107006  0.83326902  0.49564938  1
  Te2-  Te94  1  0.17195777  0.83271954  0.83867829  1
  Te2-  Te95  1  0.49385574  0.15993685  0.16590928  1
  Te2-  Te96  1  0.49900849  0.16512126  0.49777481  1
  Te2-  Te97  1  0.50265539  0.16394502  0.83757853  1
  Te2-  Te98  1  0.50727972  0.50760745  0.16031431  1
  Te2-  Te99  1  0.48730286  0.49970784  0.50481453  1
  Te2-  Te100  1  0.49254785  0.50336042  0.83462656  1
  Te2-  Te101  1  0.49530779  0.82556866  0.16114357  1
  Te2-  Te102  1  0.51379947  0.83528332  0.50154299  1
  Te2-  Te103  1  0.48759600  0.83630505  0.84155277  1
  Te2-  Te104  1  0.83646816  0.18038203  0.16733003  1
  Te2-  Te105  1  0.82939708  0.16634172  0.50241214  1
  Te2-  Te106  1  0.83378105  0.17248792  0.83033795  1
  Te2-  Te107  1  0.83070225  0.48199657  0.17114880  1
  Te2-  Te108  1  0.83120076  0.50068145  0.49532331  1
  Te2-  Te109  1  0.83326262  0.49544220  0.82845709  1
  Te2-  Te110  1  0.83283984  0.82900315  0.17245127  1
  Te2-  Te111  1  0.82759719  0.83264233  0.49972481  1
  Te2-  Te112  1  0.83779842  0.83206310  0.82984047  1
  Te2-  Te113  1  0.17291433  -0.00684450  -0.00148890  1
  Te2-  Te114  1  0.17265355  -0.00182853  0.33445462  1
  Te2-  Te115  1  0.17482187  0.00090039  0.67120380  1
  Te2-  Te116  1  0.16970335  0.35345883  -0.00173673  1
  Te2-  Te117  1  0.16099121  0.33398718  0.32680173  1
  Te2-  Te118  1  0.15639909  0.33788414  0.67401044  1
  Te2-  Te119  1  0.16530790  0.65429141  -0.00041094  1
  Te2-  Te120  1  0.16887799  0.66774891  0.33389487  1
  Te2-  Te121  1  0.16270539  0.66436014  0.67425362  1
  Te2-  Te122  1  0.49959090  -0.00375557  -0.00257662  1
  Te2-  Te123  1  0.50556745  -0.00126885  0.33736457  1
  Te2-  Te124  1  0.49962505  -0.00060199  0.66773072  1
  Te2-  Te125  1  0.49976615  0.33495186  -0.01168480  1
  Te2-  Te126  1  0.49772290  0.33249156  0.33353027  1
  Te2-  Te127  1  0.50342059  0.33870170  0.67553847  1
  Te2-  Te128  1  0.50264017  0.66642622  0.00542302  1
  Te2-  Te129  1  0.49963905  0.67160712  0.32717711  1
  Te2-  Te130  1  0.50558697  0.66485922  0.66996237  1
  Te2-  Te131  1  0.83086550  -0.00324164  0.00181803  1
  Te2-  Te132  1  0.82553314  -0.00704122  0.33968551  1
  Te2-  Te133  1  0.83059405  -0.00275968  0.66080818  1
  Te2-  Te134  1  0.82650841  0.33892898  -0.01203226  1
  Te2-  Te135  1  0.83522157  0.33777641  0.33916150  1
  Te2-  Te136  1  0.84136374  0.33511841  0.66522426  1
  Te2-  Te137  1  0.83056034  0.66494633  -0.00013232  1
  Te2-  Te138  1  0.82777692  0.66754566  0.33385622  1
  Te2-  Te139  1  0.82499779  0.66117129  0.66677266  1
  Te2-  Te140  1  0.00638035  0.16922317  0.00137118  1
  Te2-  Te141  1  0.00371986  0.15502444  0.33245393  1
  Te2-  Te142  1  -0.00499469  0.15053826  0.66746596  1
  Te2-  Te143  1  -0.01735719  0.50316483  0.00857141  1
  Te2-  Te144  1  -0.00160906  0.50273777  0.32860020  1
  Te2-  Te145  1  -0.01101539  0.50848244  0.65854351  1
  Te2-  Te146  1  0.00042126  0.82869183  0.01515208  1
  Te2-  Te147  1  -0.00161879  0.83387935  0.33108433  1
  Te2-  Te148  1  -0.00603230  0.83162357  0.66124760  1
  Te2-  Te149  1  0.32968899  0.17397664  0.00536956  1
  Te2-  Te150  1  0.32904517  0.16372680  0.33099963  1
  Te2-  Te151  1  0.33345867  0.16991316  0.66388976  1
  Te2-  Te152  1  0.34318485  0.50201098  -0.00195509  1
  Te2-  Te153  1  0.32722039  0.49403526  0.33058882  1
  Te2-  Te154  1  0.33763333  0.49047873  0.67832849  1
  Te2-  Te155  1  0.33497885  0.83069345  0.01619634  1
  Te2-  Te156  1  0.33283638  0.83919690  0.31912639  1
  Te2-  Te157  1  0.33644178  0.83415058  0.66021759  1
  Te2-  Te158  1  0.66642945  0.16784814  -0.00295313  1
  Te2-  Te159  1  0.66533677  0.16244555  0.33667366  1
  Te2-  Te160  1  0.67206264  0.17440892  0.66837111  1
  Te2-  Te161  1  0.66673213  0.49965887  -0.01084204  1
  Te2-  Te162  1  0.66748316  0.50783224  0.33073283  1
  Te2-  Te163  1  0.66969778  0.49664037  0.67662833  1
  Te2-  Te164  1  0.66814855  0.83165876  -0.01222242  1
  Te2-  Te165  1  0.66749366  0.82964593  0.32662621  1
  Te2-  Te166  1  0.66974224  0.82794266  0.68460695  1
  Te2-  Te167  1  -0.00205299  0.00620314  0.16837286  1
  Te2-  Te168  1  0.00008288  -0.00728001  0.51119936  1
  Te2-  Te169  1  0.00416148  -0.00003065  0.82670366  1
  Te2-  Te170  1  0.00445597  0.33454641  0.16955534  1
  Te2-  Te171  1  0.01372462  0.34153455  0.50065434  1
  Te2-  Te172  1  0.00422606  0.33293645  0.82436077  1
  Te2-  Te173  1  0.00092171  0.65866823  0.17496756  1
  Te2-  Te174  1  0.00803024  0.66585534  0.49414638  1
  Te2-  Te175  1  0.00111001  0.66501643  0.83179252  1
  Te2-  Te176  1  0.34472800  0.00468750  0.16896461  1
  Te2-  Te177  1  0.33504454  0.00111771  0.50196685  1
  Te2-  Te178  1  0.33202937  -0.00551019  0.83056606  1
  Te2-  Te179  1  0.34633124  0.34033921  0.15679756  1
  Te2-  Te180  1  0.31501425  0.32596944  0.49801573  1
  Te2-  Te181  1  0.33249336  0.33564986  0.84103857  1
  Te2-  Te182  1  0.33184364  0.64894485  0.17705065  1
  Te2-  Te183  1  0.32729428  0.66813975  0.49188490  1
  Te2-  Te184  1  0.32955452  0.67201054  0.83452193  1
  Te2-  Te185  1  0.65496017  -0.00409069  0.15992997  1
  Te2-  Te186  1  0.66165015  0.00419741  0.50419618  1
  Te2-  Te187  1  0.66144691  0.00446012  0.83569819  1
  Te2-  Te188  1  0.64862087  0.33799519  0.16070362  1
  Te2-  Te189  1  0.66581054  0.33180286  0.50278119  1
  Te2-  Te190  1  0.66283928  0.33176791  0.83130335  1
  Te2-  Te191  1  0.67173782  0.66287319  0.16330538  1
  Te2-  Te192  1  0.66899793  0.67010971  0.49995427  1
  Te2-  Te193  1  0.66590258  0.66544629  0.83984967  1
  Pb2+  Pb194  1  0.00400598  -0.00073161  -0.00134120  1
  Pb2+  Pb195  1  0.16207243  0.16964579  0.67369537  1
  Pb2+  Pb196  1  0.66194743  0.16919406  0.16631012  1
  Pb2+  Pb197  1  0.66617371  0.33558431  0.32902430  1
  Pb2+  Pb198  1  0.83654910  0.16673401  0.33341533  1
  Pb2+  Pb199  1  0.49497844  0.66701906  0.50084649  1
  Pb2+  Pb200  1  0.82395253  0.00030277  0.17047520  1
  Pb2+  Pb201  1  0.49066810  0.33440319  0.50822206  1
  Pb2+  Pb202  1  0.33676946  0.83233931  0.48746364  1
  Pb2+  Pb203  1  -0.00028302  0.17063539  0.50197524  1
  Pb2+  Pb204  1  0.00332311  0.49977359  0.83434633  1
  Pb2+  Pb205  1  0.16400616  0.83343822  0.66417226  1
  Pb2+  Pb206  1  0.33269331  0.65832288  0.66493186  1
  Pb2+  Pb207  1  0.00046903  0.33696792  -0.00135796  1
  Pb2+  Pb208  1  0.50384346  0.16888150  0.66939820  1
  Pb2+  Pb209  1  0.49839331  0.50264333  0.32973454  1
  Pb2+  Pb210  1  0.00423417  0.83158788  0.84254317  1
  Pb2+  Pb211  1  0.83806344  0.16830673  0.00076238  1
  Pb2+  Pb212  1  0.82856141  0.00138343  0.82961955  1
  Pb2+  Pb213  1  0.33489122  0.16340495  0.83574566  1
  Pb2+  Pb214  1  0.66412958  0.50214839  0.50747974  1
  Pb2+  Pb215  1  0.17078548  -0.00684581  0.16740178  1
