# generated using pymatgen
data_In22Ag21Sn22Bi21(Te54Pb11)2
_symmetry_space_group_name_H-M   'P 1'
_cell_length_a   19.11299279
_cell_length_b   19.12963906
_cell_length_c   19.14831421
_cell_angle_alpha   89.99012958
_cell_angle_beta   90.01446995
_cell_angle_gamma   89.99019945
_symmetry_Int_Tables_number   1
_chemical_formula_structural   In22Ag21Sn22Bi21(Te54Pb11)2
_chemical_formula_sum   'In22 Ag21 Sn22 Bi21 Te108 Pb22'
_cell_volume   7001.09531575
_cell_formula_units_Z   1
loop_
 _symmetry_equiv_pos_site_id
 _symmetry_equiv_pos_as_xyz
  1  'x, y, z'
loop_
 _atom_type_symbol
 _atom_type_oxidation_number
  In3+  3.0
  Ag+  1.0
  Sn2+  2.0
  Bi3+  3.0
  Te2-  -2.0
  Pb2+  2.0
loop_
 _atom_site_type_symbol
 _atom_site_label
 _atom_site_symmetry_multiplicity
 _atom_site_fract_x
 _atom_site_fract_y
 _atom_site_fract_z
 _atom_site_occupancy
  In3+  In0  1  0.00209956  0.83076515  0.15763499  1
  In3+  In1  1  0.00450071  0.50945672  0.16760233  1
  In3+  In2  1  0.17286758  0.83337552  0.67160015  1
  In3+  In3  1  0.50780704  0.32897814  0.16839350  1
  In3+  In4  1  0.50864399  0.85180191  0.33903761  1
  In3+  In5  1  0.31473101  0.66797216  0.65844160  1
  In3+  In6  1  0.83342915  0.02121263  0.83384585  1
  In3+  In7  1  0.65430055  0.33460103  0.34773054  1
  In3+  In8  1  -0.00022908  0.66304653  0.68079994  1
  In3+  In9  1  0.48504137  0.66385160  0.16506948  1
  In3+  In10  1  0.14235302  0.66789671  0.16321766  1
  In3+  In11  1  0.49194246  0.49408319  0.34260073  1
  In3+  In12  1  0.00777990  0.48279486  0.82329008  1
  In3+  In13  1  0.32401899  0.32974260  0.33773755  1
  In3+  In14  1  0.83614373  0.83135302  -0.02953593  1
  In3+  In15  1  0.82877653  0.66185706  0.83495364  1
  In3+  In16  1  0.66401896  0.50301974  0.51378017  1
  In3+  In17  1  -0.00367145  0.82133991  0.82780916  1
  In3+  In18  1  0.85224345  0.66850934  0.51601040  1
  In3+  In19  1  0.16622651  0.82573437  0.34504220  1
  In3+  In20  1  0.31923095  0.49805615  0.49469385  1
  In3+  In21  1  0.34168537  0.67077569  0.34596667  1
  Ag+  Ag22  1  0.83425904  0.31042406  0.52786574  1
  Ag+  Ag23  1  0.50194216  0.16232268  0.33665724  1
  Ag+  Ag24  1  0.52605917  0.33950444  0.80767164  1
  Ag+  Ag25  1  0.63409118  0.20355975  0.85554860  1
  Ag+  Ag26  1  0.33440876  -0.02952482  0.31846066  1
  Ag+  Ag27  1  0.16971084  0.52859837  0.35044942  1
  Ag+  Ag28  1  0.14020599  0.13771425  -0.03496723  1
  Ag+  Ag29  1  0.16262255  0.66728841  0.51507143  1
  Ag+  Ag30  1  0.47895776  0.33762541  0.50954601  1
  Ag+  Ag31  1  0.31027692  0.82039621  0.49696449  1
  Ag+  Ag32  1  0.80915525  0.50364684  0.64413136  1
  Ag+  Ag33  1  0.18524474  0.66599038  0.81183621  1
  Ag+  Ag34  1  0.70471170  0.49187960  0.84985995  1
  Ag+  Ag35  1  0.18901035  -0.01238662  0.19532589  1
  Ag+  Ag36  1  0.82956696  0.15040346  0.68428983  1
  Ag+  Ag37  1  0.01056026  0.16149755  0.80525276  1
  Ag+  Ag38  1  0.16852145  0.47747029  0.64586852  1
  Ag+  Ag39  1  0.83320916  0.68885347  0.18968745  1
  Ag+  Ag40  1  -0.00087650  0.64689160  -0.02094564  1
  Ag+  Ag41  1  0.84442922  0.84811625  0.66578878  1
  Ag+  Ag42  1  0.64475780  0.02368998  0.01827320  1
  Sn2+  Sn43  1  0.67052537  0.00274579  0.67895615  1
  Sn2+  Sn44  1  0.48628882  0.49814271  0.66867790  1
  Sn2+  Sn45  1  0.67621359  0.66900884  0.00394409  1
  Sn2+  Sn46  1  0.83270152  0.51205645  0.00631607  1
  Sn2+  Sn47  1  0.49728216  0.01132288  0.49726294  1
  Sn2+  Sn48  1  0.82846384  0.17207655  0.33962961  1
  Sn2+  Sn49  1  0.33765121  0.15782042  0.49863622  1
  Sn2+  Sn50  1  -0.00551306  0.33941601  0.66581466  1
  Sn2+  Sn51  1  0.83806657  -0.00403530  0.16340704  1
  Sn2+  Sn52  1  0.67860202  0.83598452  0.16518746  1
  Sn2+  Sn53  1  0.15979961  -0.00911003  0.83602573  1
  Sn2+  Sn54  1  0.50514500  0.49830506  -0.00109123  1
  Sn2+  Sn55  1  0.33392619  0.16888550  0.83725851  1
  Sn2+  Sn56  1  0.00428166  0.83044466  0.50139915  1
  Sn2+  Sn57  1  -0.00630849  0.34144917  0.33567194  1
  Sn2+  Sn58  1  0.15638227  0.16516680  0.66683044  1
  Sn2+  Sn59  1  0.67135891  0.50813629  0.16287607  1
  Sn2+  Sn60  1  0.50950900  0.82377033  0.66257130  1
  Sn2+  Sn61  1  0.84032444  0.49855131  0.33708995  1
  Sn2+  Sn62  1  0.66599774  0.65143384  0.32746361  1
  Sn2+  Sn63  1  0.17218133  -0.00187827  0.50086779  1
  Sn2+  Sn64  1  -0.00369036  0.50266710  0.50481152  1
  Bi3+  Bi65  1  -0.00340112  -0.00079614  -0.00201267  1
  Bi3+  Bi66  1  0.17435766  0.16288173  0.33468740  1
  Bi3+  Bi67  1  0.00008945  0.66425119  0.33328823  1
  Bi3+  Bi68  1  0.33700932  -0.00153041  0.66236794  1
  Bi3+  Bi69  1  0.66667331  0.83010632  0.49882795  1
  Bi3+  Bi70  1  0.33099400  0.83391264  0.82738645  1
  Bi3+  Bi71  1  0.67190686  0.33140947  0.66085830  1
  Bi3+  Bi72  1  0.83661130  0.33587313  0.82942225  1
  Bi3+  Bi73  1  0.66585199  0.83030788  0.83011896  1
  Bi3+  Bi74  1  0.00018502  0.33736216  0.00286562  1
  Bi3+  Bi75  1  0.33348029  0.50061973  0.17348960  1
  Bi3+  Bi76  1  0.33087039  0.33507651  0.00235129  1
  Bi3+  Bi77  1  0.00207732  0.16485394  0.17094070  1
  Bi3+  Bi78  1  0.16523014  0.50027872  0.00192130  1
  Bi3+  Bi79  1  0.32881220  0.50249352  0.83105534  1
  Bi3+  Bi80  1  0.49796380  0.16890941  0.00031285  1
  Bi3+  Bi81  1  -0.00004957  0.16908812  0.49863802  1
  Bi3+  Bi82  1  0.66488550  0.16912171  0.49903373  1
  Bi3+  Bi83  1  0.16304667  0.83218561  0.00026239  1
  Bi3+  Bi84  1  0.33093359  0.16687249  0.17082780  1
  Bi3+  Bi85  1  0.83147949  0.33435961  0.16657423  1
  Te2-  Te86  1  0.16794455  0.15404907  0.17346625  1
  Te2-  Te87  1  0.16653991  0.16861877  0.49816719  1
  Te2-  Te88  1  0.16252261  0.16244054  0.82394707  1
  Te2-  Te89  1  0.16786008  0.50415426  0.16418355  1
  Te2-  Te90  1  0.16788653  0.51368155  0.49776561  1
  Te2-  Te91  1  0.16380333  0.51673007  0.84061617  1
  Te2-  Te92  1  0.16108468  0.84323815  0.16221736  1
  Te2-  Te93  1  0.16287055  0.82557033  0.50007801  1
  Te2-  Te94  1  0.16765900  0.82156166  0.83318494  1
  Te2-  Te95  1  0.49631053  0.17035341  0.17214748  1
  Te2-  Te96  1  0.50302890  0.18383497  0.48909645  1
  Te2-  Te97  1  0.49379760  0.17468880  0.83551090  1
  Te2-  Te98  1  0.49669276  0.50603178  0.16638885  1
  Te2-  Te99  1  0.50726612  0.48772826  0.49508214  1
  Te2-  Te100  1  0.48953792  0.48771536  0.82876047  1
  Te2-  Te101  1  0.50186334  0.82248399  0.17686294  1
  Te2-  Te102  1  0.50679151  0.83282263  0.49328578  1
  Te2-  Te103  1  0.50038265  0.83066306  0.83337559  1
  Te2-  Te104  1  0.83499747  0.16885339  0.16895069  1
  Te2-  Te105  1  0.83322154  0.16508538  0.49611248  1
  Te2-  Te106  1  0.83891705  0.17372133  0.82792636  1
  Te2-  Te107  1  0.84229938  0.49451931  0.16634226  1
  Te2-  Te108  1  0.83244920  0.51486804  0.49639259  1
  Te2-  Te109  1  0.85110800  0.50223496  0.83761857  1
  Te2-  Te110  1  0.83965159  0.83652680  0.16939961  1
  Te2-  Te111  1  0.83115404  0.82453702  0.51216366  1
  Te2-  Te112  1  0.83281816  0.82545364  0.81771195  1
  Te2-  Te113  1  0.16222812  -0.00422563  -0.00425553  1
  Te2-  Te114  1  0.17977565  -0.00310747  0.34162885  1
  Te2-  Te115  1  0.16995941  -0.00767290  0.66723691  1
  Te2-  Te116  1  0.16583651  0.33409286  0.00152010  1
  Te2-  Te117  1  0.16828825  0.32852275  0.33447425  1
  Te2-  Te118  1  0.16378562  0.33143342  0.66546592  1
  Te2-  Te119  1  0.15079044  0.66882311  0.00945057  1
  Te2-  Te120  1  0.16442019  0.67356450  0.31801769  1
  Te2-  Te121  1  0.15931537  0.67912645  0.66666256  1
  Te2-  Te122  1  0.50056331  0.00355286  -0.00181668  1
  Te2-  Te123  1  0.48925798  0.00534282  0.33688364  1
  Te2-  Te124  1  0.50027590  -0.00288072  0.66400832  1
  Te2-  Te125  1  0.49460526  0.33116704  0.00717377  1
  Te2-  Te126  1  0.50006068  0.34292163  0.32673894  1
  Te2-  Te127  1  0.50407983  0.33395139  0.66096104  1
  Te2-  Te128  1  0.49895802  0.66511727  0.00736247  1
  Te2-  Te129  1  0.49471527  0.65544267  0.32746416  1
  Te2-  Te130  1  0.50043034  0.66343855  0.66399729  1
  Te2-  Te131  1  0.83622581  -0.00960725  -0.00599626  1
  Te2-  Te132  1  0.83179197  -0.00046759  0.33141747  1
  Te2-  Te133  1  0.83211712  -0.00096881  0.67568103  1
  Te2-  Te134  1  0.83612915  0.33689599  -0.00110159  1
  Te2-  Te135  1  0.83208658  0.33278765  0.32715755  1
  Te2-  Te136  1  0.83601154  0.35725872  0.66840007  1
  Te2-  Te137  1  0.84698982  0.67277740  -0.01103405  1
  Te2-  Te138  1  0.83707031  0.66117096  0.33505583  1
  Te2-  Te139  1  0.84494288  0.64851883  0.66724016  1
  Te2-  Te140  1  0.00389229  0.16989595  0.00892564  1
  Te2-  Te141  1  0.00297673  0.16793003  0.33495449  1
  Te2-  Te142  1  -0.01103942  0.17059049  0.65808466  1
  Te2-  Te143  1  0.00248322  0.49914914  0.00469197  1
  Te2-  Te144  1  0.01617916  0.50221442  0.32993905  1
  Te2-  Te145  1  0.02056684  0.50816264  0.67013274  1
  Te2-  Te146  1  -0.00194755  0.83701183  -0.00404473  1
  Te2-  Te147  1  0.00802178  0.83076314  0.33161532  1
  Te2-  Te148  1  -0.00777005  0.82333805  0.67023712  1
  Te2-  Te149  1  0.33328306  0.17258735  0.00556901  1
  Te2-  Te150  1  0.34009943  0.17509361  0.33358642  1
  Te2-  Te151  1  0.33365794  0.16301005  0.66378878  1
  Te2-  Te152  1  0.33239681  0.49879047  0.00229852  1
  Te2-  Te153  1  0.32344520  0.50610176  0.33591344  1
  Te2-  Te154  1  0.31731953  0.50969388  0.66632260  1
  Te2-  Te155  1  0.33161872  0.83299397  -0.00354305  1
  Te2-  Te156  1  0.32979100  0.82520231  0.34655805  1
  Te2-  Te157  1  0.33448765  0.82906417  0.66311825  1
  Te2-  Te158  1  0.66378647  0.16719235  -0.00530746  1
  Te2-  Te159  1  0.65587201  0.17352052  0.33649116  1
  Te2-  Te160  1  0.67834455  0.16926171  0.66052212  1
  Te2-  Te161  1  0.66484999  0.50514948  -0.00974091  1
  Te2-  Te162  1  0.66483565  0.49349863  0.32466359  1
  Te2-  Te163  1  0.66011552  0.49713852  0.66457952  1
  Te2-  Te164  1  0.67679374  0.82861617  -0.00585347  1
  Te2-  Te165  1  0.66465672  0.82924020  0.33462424  1
  Te2-  Te166  1  0.67033133  0.83421814  0.66479690  1
  Te2-  Te167  1  -0.00065778  0.00099267  0.16357769  1
  Te2-  Te168  1  0.00122994  0.00062074  0.50171400  1
  Te2-  Te169  1  -0.00677083  0.01529670  0.83608794  1
  Te2-  Te170  1  -0.00258855  0.33123625  0.16701039  1
  Te2-  Te171  1  -0.01605120  0.33410269  0.49874320  1
  Te2-  Te172  1  -0.00020896  0.32334085  0.83693681  1
  Te2-  Te173  1  -0.01516540  0.67014082  0.16928549  1
  Te2-  Te174  1  0.00852796  0.66789860  0.49527660  1
  Te2-  Te175  1  -0.00443434  0.67103936  0.83446946  1
  Te2-  Te176  1  0.33425572  0.00047651  0.17301441  1
  Te2-  Te177  1  0.33621899  -0.00361112  0.50380609  1
  Te2-  Te178  1  0.33248426  -0.00330036  0.82747490  1
  Te2-  Te179  1  0.33784020  0.33726507  0.16945925  1
  Te2-  Te180  1  0.33190520  0.34489650  0.49608130  1
  Te2-  Te181  1  0.33197052  0.33791487  0.83645867  1
  Te2-  Te182  1  0.33147706  0.66343798  0.17046558  1
  Te2-  Te183  1  0.32301390  0.67115527  0.50137591  1
  Te2-  Te184  1  0.33421096  0.66849846  0.82764010  1
  Te2-  Te185  1  0.66849673  -0.00483940  0.16025251  1
  Te2-  Te186  1  0.66339994  -0.00076927  0.50138950  1
  Te2-  Te187  1  0.67816239  -0.00780318  0.83621346  1
  Te2-  Te188  1  0.66587515  0.33849325  0.16802582  1
  Te2-  Te189  1  0.68569689  0.33715325  0.49817058  1
  Te2-  Te190  1  0.67248200  0.34325143  0.82727095  1
  Te2-  Te191  1  0.68504063  0.66720440  0.16291702  1
  Te2-  Te192  1  0.66460018  0.66327986  0.49399747  1
  Te2-  Te193  1  0.67300951  0.66422549  0.83204389  1
  Pb2+  Pb194  1  0.50968894  0.00402853  0.83080895  1
  Pb2+  Pb195  1  0.67379303  0.66674590  0.66250468  1
  Pb2+  Pb196  1  0.16731806  0.32621833  0.16850080  1
  Pb2+  Pb197  1  0.50962998  0.83088642  0.00523975  1
  Pb2+  Pb198  1  0.50583136  0.16582513  0.65866284  1
  Pb2+  Pb199  1  0.16634979  0.34042936  0.83304044  1
  Pb2+  Pb200  1  0.50058665  -0.00313303  0.16897608  1
  Pb2+  Pb201  1  0.66640561  0.16823279  0.16653951  1
  Pb2+  Pb202  1  0.66462532  0.33762122  -0.00060495  1
  Pb2+  Pb203  1  0.83769440  0.16370164  -0.00338553  1
  Pb2+  Pb204  1  0.00046771  -0.00380377  0.67009884  1
  Pb2+  Pb205  1  0.33515459  0.33546591  0.66796815  1
  Pb2+  Pb206  1  0.83087385  -0.00261209  0.50322182  1
  Pb2+  Pb207  1  0.00665438  -0.00144995  0.33265180  1
  Pb2+  Pb208  1  0.32913498  0.00352305  -0.00102119  1
  Pb2+  Pb209  1  0.83672750  0.82827193  0.33945522  1
  Pb2+  Pb210  1  0.32983593  0.83036079  0.17372147  1
  Pb2+  Pb211  1  0.32154273  0.66667519  -0.00061131  1
  Pb2+  Pb212  1  0.49682942  0.66022553  0.49803382  1
  Pb2+  Pb213  1  0.50468257  0.65536568  0.83370289  1
  Pb2+  Pb214  1  0.15467366  0.34201418  0.49940864  1
  Pb2+  Pb215  1  0.66429782  0.00105393  0.33327191  1
