# generated using pymatgen
data_In22Ag21Sn22Bi21(Te54Pb11)2
_symmetry_space_group_name_H-M   'P 1'
_cell_length_a   19.13456347
_cell_length_b   19.16721597
_cell_length_c   19.14582882
_cell_angle_alpha   90.01481769
_cell_angle_beta   89.99613353
_cell_angle_gamma   89.99009247
_symmetry_Int_Tables_number   1
_chemical_formula_structural   In22Ag21Sn22Bi21(Te54Pb11)2
_chemical_formula_sum   'In22 Ag21 Sn22 Bi21 Te108 Pb22'
_cell_volume   7021.85318169
_cell_formula_units_Z   1
loop_
 _symmetry_equiv_pos_site_id
 _symmetry_equiv_pos_as_xyz
  1  'x, y, z'
loop_
 _atom_type_symbol
 _atom_type_oxidation_number
  In3+  3.0
  Ag+  1.0
  Sn2+  2.0
  Bi3+  3.0
  Te2-  -2.0
  Pb2+  2.0
loop_
 _atom_site_type_symbol
 _atom_site_label
 _atom_site_symmetry_multiplicity
 _atom_site_fract_x
 _atom_site_fract_y
 _atom_site_fract_z
 _atom_site_occupancy
  In3+  In0  1  0.83331142  0.82026396  0.65521959  1
  In3+  In1  1  0.51820540  0.84026593  0.66369500  1
  In3+  In2  1  -0.01266704  0.15957101  0.51241616  1
  In3+  In3  1  -0.00823917  0.33609352  0.66945457  1
  In3+  In4  1  0.81662428  -0.00084259  0.16707306  1
  In3+  In5  1  0.82714845  0.15958191  0.65781915  1
  In3+  In6  1  -0.00802573  0.16160514  0.82190602  1
  In3+  In7  1  0.68744423  0.83077378  0.14847187  1
  In3+  In8  1  0.00194134  0.82731197  0.15304448  1
  In3+  In9  1  0.34338095  0.51938982  0.49761561  1
  In3+  In10  1  0.67619897  0.34622747  0.00013828  1
  In3+  In11  1  0.31544739  0.33107577  0.66254062  1
  In3+  In12  1  0.83321667  0.16236869  0.01408855  1
  In3+  In13  1  0.67039886  0.34097966  0.65978135  1
  In3+  In14  1  0.52845408  0.17603038  0.00434295  1
  In3+  In15  1  0.15355835  -0.00545124  0.16640075  1
  In3+  In16  1  0.66733265  -0.00035109  0.35941963  1
  In3+  In17  1  0.14248522  0.49824914  0.35019084  1
  In3+  In18  1  0.83069183  0.66390679  0.50734226  1
  In3+  In19  1  0.66536068  0.65958061  0.33760110  1
  In3+  In20  1  0.31441971  0.16496700  0.49889003  1
  In3+  In21  1  0.84087178  0.35214733  0.49600524  1
  Ag+  Ag22  1  0.83669745  0.69399423  0.86211818  1
  Ag+  Ag23  1  0.67026677  0.35856612  0.35662903  1
  Ag+  Ag24  1  0.66443050  0.19313588  0.18938351  1
  Ag+  Ag25  1  0.83255184  0.52615351  0.32969692  1
  Ag+  Ag26  1  0.67964621  0.47878596  0.49023527  1
  Ag+  Ag27  1  0.65230362  0.81156140  0.47838109  1
  Ag+  Ag28  1  0.14485681  0.64422613  0.19952955  1
  Ag+  Ag29  1  0.53129422  0.50021670  0.30945193  1
  Ag+  Ag30  1  0.14586213  0.14512110  0.65972307  1
  Ag+  Ag31  1  -0.02469712  0.52386119  0.50432144  1
  Ag+  Ag32  1  0.29620036  0.80539253  0.79491931  1
  Ag+  Ag33  1  0.70228702  0.02371842  0.66161863  1
  Ag+  Ag34  1  -0.02402495  0.34721648  -0.02801064  1
  Ag+  Ag35  1  -0.00168355  0.68597564  0.67486928  1
  Ag+  Ag36  1  0.19580606  0.85414476  0.65348109  1
  Ag+  Ag37  1  0.82669365  -0.01987771  0.52483422  1
  Ag+  Ag38  1  0.67797675  0.00141807  0.01518724  1
  Ag+  Ag39  1  0.00091988  -0.02141062  0.68785674  1
  Ag+  Ag40  1  0.81354300  0.80396822  -0.03236710  1
  Ag+  Ag41  1  0.85796937  0.52092397  0.64400351  1
  Ag+  Ag42  1  0.69176705  0.63334845  0.04124218  1
  Sn2+  Sn43  1  0.49255002  0.66936274  0.16470052  1
  Sn2+  Sn44  1  -0.00773802  0.50299918  0.81811742  1
  Sn2+  Sn45  1  0.31594128  0.00366780  0.66764226  1
  Sn2+  Sn46  1  0.15177066  0.66714964  0.50469597  1
  Sn2+  Sn47  1  0.16692122  0.32896919  0.83740177  1
  Sn2+  Sn48  1  0.33571863  0.84297524  0.50274020  1
  Sn2+  Sn49  1  0.49413272  0.50260091  0.00571553  1
  Sn2+  Sn50  1  0.16977846  0.17806205  0.33562594  1
  Sn2+  Sn51  1  0.66608635  0.15580490  0.83293789  1
  Sn2+  Sn52  1  0.15933928  0.50177426  0.01127186  1
  Sn2+  Sn53  1  0.83520868  0.66613992  0.16966630  1
  Sn2+  Sn54  1  0.16592125  0.33064818  0.16416788  1
  Sn2+  Sn55  1  0.50642452  -0.00358203  0.16286258  1
  Sn2+  Sn56  1  -0.00491813  0.83875344  0.50412657  1
  Sn2+  Sn57  1  0.51910566  0.00034761  0.50465410  1
  Sn2+  Sn58  1  -0.00659685  0.00975344  0.00024478  1
  Sn2+  Sn59  1  0.32896402  0.32909465  -0.00061962  1
  Sn2+  Sn60  1  -0.00676510  0.16609365  0.16155348  1
  Sn2+  Sn61  1  0.67421115  0.50294322  0.18161509  1
  Sn2+  Sn62  1  0.35871970  0.34129479  0.33747339  1
  Sn2+  Sn63  1  0.33950952  0.65798723  0.33030716  1
  Sn2+  Sn64  1  -0.00179912  0.83240131  0.82816360  1
  Bi3+  Bi65  1  0.50404313  0.50120417  0.66553073  1
  Bi3+  Bi66  1  0.66632293  0.83117773  0.82936308  1
  Bi3+  Bi67  1  0.66842329  0.66381245  0.66836183  1
  Bi3+  Bi68  1  0.16177589  0.50121437  0.66523604  1
  Bi3+  Bi69  1  0.32837369  0.16696222  0.82969454  1
  Bi3+  Bi70  1  -0.00096178  -0.00181745  0.33218737  1
  Bi3+  Bi71  1  0.83514232  0.83733114  0.33592510  1
  Bi3+  Bi72  1  0.67031028  0.16686065  0.49810134  1
  Bi3+  Bi73  1  0.15563908  0.66319789  0.83190295  1
  Bi3+  Bi74  1  0.50721172  0.83678263  -0.00155836  1
  Bi3+  Bi75  1  0.50106079  -0.00227339  0.83203229  1
  Bi3+  Bi76  1  0.33546240  0.66831214  0.00079388  1
  Bi3+  Bi77  1  0.16071629  0.16750166  -0.00165110  1
  Bi3+  Bi78  1  -0.00128663  0.49882306  0.17300709  1
  Bi3+  Bi79  1  0.83226502  0.33285814  0.82491568  1
  Bi3+  Bi80  1  -0.00489520  0.32962577  0.33493894  1
  Bi3+  Bi81  1  0.33308182  0.83442593  0.16412455  1
  Bi3+  Bi82  1  0.16371311  0.83438641  -0.00079500  1
  Bi3+  Bi83  1  0.83713029  0.16502999  0.33283886  1
  Bi3+  Bi84  1  0.16049030  -0.00294177  0.49918921  1
  Bi3+  Bi85  1  0.66949773  0.49942510  0.82343259  1
  Te2-  Te86  1  0.16568447  0.16301934  0.16349727  1
  Te2-  Te87  1  0.16124835  0.16152567  0.51046085  1
  Te2-  Te88  1  0.16414098  0.16819463  0.82978313  1
  Te2-  Te89  1  0.16179815  0.50128474  0.17350692  1
  Te2-  Te90  1  0.17699756  0.50091128  0.50112966  1
  Te2-  Te91  1  0.15882773  0.50033478  0.83179128  1
  Te2-  Te92  1  0.16686853  0.83836207  0.16463173  1
  Te2-  Te93  1  0.16559024  0.83551744  0.50871337  1
  Te2-  Te94  1  0.15824612  0.82866547  0.83556044  1
  Te2-  Te95  1  0.51657701  0.16311786  0.15878588  1
  Te2-  Te96  1  0.50816401  0.16451373  0.49931614  1
  Te2-  Te97  1  0.49604850  0.16208926  0.84175937  1
  Te2-  Te98  1  0.50505714  0.50541220  0.16351858  1
  Te2-  Te99  1  0.49638991  0.50120952  0.50570793  1
  Te2-  Te100  1  0.50324913  0.50096531  0.83159838  1
  Te2-  Te101  1  0.49740465  0.83379376  0.16245495  1
  Te2-  Te102  1  0.50759918  0.83912255  0.50291977  1
  Te2-  Te103  1  0.50013497  0.83554703  0.83336805  1
  Te2-  Te104  1  0.81727878  0.16258754  0.16746267  1
  Te2-  Te105  1  0.83308253  0.16109036  0.49758263  1
  Te2-  Te106  1  0.83643613  0.17145474  0.82503404  1
  Te2-  Te107  1  0.83523836  0.50209624  0.17910091  1
  Te2-  Te108  1  0.82800961  0.50344493  0.50031991  1
  Te2-  Te109  1  0.83104626  0.49196651  0.82661684  1
  Te2-  Te110  1  0.84042760  0.83583393  0.16938165  1
  Te2-  Te111  1  0.82909003  0.83535887  0.49964561  1
  Te2-  Te112  1  0.83326472  0.83737611  0.82629944  1
  Te2-  Te113  1  0.16390895  0.00082667  0.00506670  1
  Te2-  Te114  1  0.16472077  0.00499884  0.33360896  1
  Te2-  Te115  1  0.15240303  -0.00259428  0.66342130  1
  Te2-  Te116  1  0.16870387  0.33108620  0.00166225  1
  Te2-  Te117  1  0.16233028  0.33790381  0.33274129  1
  Te2-  Te118  1  0.16221576  0.33916661  0.66752070  1
  Te2-  Te119  1  0.16887492  0.66983673  -0.00474331  1
  Te2-  Te120  1  0.16768598  0.66034986  0.34219151  1
  Te2-  Te121  1  0.15093855  0.66282613  0.67067169  1
  Te2-  Te122  1  0.51198174  -0.00110838  -0.00339715  1
  Te2-  Te123  1  0.50688786  -0.00026642  0.33551366  1
  Te2-  Te124  1  0.49161650  -0.00633440  0.66644907  1
  Te2-  Te125  1  0.49470853  0.32862033  -0.00025152  1
  Te2-  Te126  1  0.51795642  0.34720580  0.33290757  1
  Te2-  Te127  1  0.51350375  0.33599188  0.66664334  1
  Te2-  Te128  1  0.50035890  0.67175852  0.00134196  1
  Te2-  Te129  1  0.50854661  0.65303792  0.33251860  1
  Te2-  Te130  1  0.49843229  0.66688127  0.66793680  1
  Te2-  Te131  1  0.83256710  0.00573858  0.00822881  1
  Te2-  Te132  1  0.83508845  0.00112281  0.32637274  1
  Te2-  Te133  1  0.85031344  0.01030467  0.66703952  1
  Te2-  Te134  1  0.83313749  0.32185615  -0.00236268  1
  Te2-  Te135  1  0.82651753  0.32677150  0.34251858  1
  Te2-  Te136  1  0.83183226  0.32454968  0.66004750  1
  Te2-  Te137  1  0.83123428  0.66409499  0.00804249  1
  Te2-  Te138  1  0.82442078  0.67446226  0.33620204  1
  Te2-  Te139  1  0.83501019  0.66498036  0.66074155  1
  Te2-  Te140  1  -0.00067981  0.17400545  -0.00002763  1
  Te2-  Te141  1  0.00102878  0.16506633  0.32773102  1
  Te2-  Te142  1  0.00298556  0.17804181  0.66750424  1
  Te2-  Te143  1  0.00025229  0.48917699  0.00729658  1
  Te2-  Te144  1  -0.01295787  0.49529962  0.34409487  1
  Te2-  Te145  1  0.00067523  0.48792678  0.64961881  1
  Te2-  Te146  1  0.00157699  0.83776871  0.00041964  1
  Te2-  Te147  1  0.00012834  0.83465916  0.33315777  1
  Te2-  Te148  1  -0.01226517  0.83190567  0.66438714  1
  Te2-  Te149  1  0.32380646  0.16675649  -0.00426731  1
  Te2-  Te150  1  0.33419791  0.17228937  0.33698525  1
  Te2-  Te151  1  0.33218545  0.17404049  0.66758170  1
  Te2-  Te152  1  0.33050809  0.50188307  0.00102273  1
  Te2-  Te153  1  0.33685447  0.49698519  0.34272345  1
  Te2-  Te154  1  0.33427134  0.49340948  0.65985097  1
  Te2-  Te155  1  0.33380624  0.83196963  -0.00020890  1
  Te2-  Te156  1  0.33681152  0.82946316  0.33046100  1
  Te2-  Te157  1  0.34026598  0.83478514  0.65992372  1
  Te2-  Te158  1  0.67721985  0.14848712  -0.00915042  1
  Te2-  Te159  1  0.67238609  0.15529123  0.33260207  1
  Te2-  Te160  1  0.66919507  0.17070644  0.66476732  1
  Te2-  Te161  1  0.66422057  0.49994820  -0.00887263  1
  Te2-  Te162  1  0.67783381  0.50494050  0.33999462  1
  Te2-  Te163  1  0.66688779  0.49841289  0.65936941  1
  Te2-  Te164  1  0.67134622  0.83939972  -0.00444197  1
  Te2-  Te165  1  0.67300143  0.84641099  0.33718683  1
  Te2-  Te166  1  0.67307399  0.82547875  0.66629107  1
  Te2-  Te167  1  -0.00024200  -0.00030237  0.16895996  1
  Te2-  Te168  1  -0.00348029  0.00521463  0.49335381  1
  Te2-  Te169  1  -0.00169987  0.00752147  0.83288592  1
  Te2-  Te170  1  0.00131506  0.33555965  0.17340743  1
  Te2-  Te171  1  -0.00645498  0.32050000  0.49614095  1
  Te2-  Te172  1  -0.00293891  0.33328621  0.82802798  1
  Te2-  Te173  1  0.00327343  0.66432074  0.16705393  1
  Te2-  Te174  1  -0.00725710  0.66963359  0.50655347  1
  Te2-  Te175  1  -0.01215645  0.66278132  0.82521741  1
  Te2-  Te176  1  0.33817457  -0.00010203  0.16845293  1
  Te2-  Te177  1  0.32843967  0.00816547  0.50255562  1
  Te2-  Te178  1  0.33554612  0.00331058  0.83060405  1
  Te2-  Te179  1  0.33227282  0.33388784  0.17039759  1
  Te2-  Te180  1  0.33212830  0.31936835  0.50263666  1
  Te2-  Te181  1  0.33311253  0.33088948  0.82720893  1
  Te2-  Te182  1  0.32700730  0.67127251  0.16450095  1
  Te2-  Te183  1  0.33086203  0.67327082  0.49672478  1
  Te2-  Te184  1  0.32770515  0.66728473  0.83511775  1
  Te2-  Te185  1  0.66593960  -0.01467386  0.16295222  1
  Te2-  Te186  1  0.67875877  0.00264489  0.51347757  1
  Te2-  Te187  1  0.66222578  -0.00526078  0.80882950  1
  Te2-  Te188  1  0.66925385  0.33616903  0.15230859  1
  Te2-  Te189  1  0.67632618  0.33088688  0.50203582  1
  Te2-  Te190  1  0.67104018  0.32982874  0.84077061  1
  Te2-  Te191  1  0.66587726  0.67574904  0.17641063  1
  Te2-  Te192  1  0.67462297  0.66782934  0.50009606  1
  Te2-  Te193  1  0.68324212  0.66447107  0.83013011  1
  Pb2+  Pb194  1  0.82765096  0.00292461  0.83466868  1
  Pb2+  Pb195  1  0.50000471  0.16014295  0.66777005  1
  Pb2+  Pb196  1  0.32141320  0.66464802  0.66417061  1
  Pb2+  Pb197  1  0.33773276  -0.00177231  0.33569575  1
  Pb2+  Pb198  1  0.16260460  0.33300563  0.49945901  1
  Pb2+  Pb199  1  0.50036084  0.33489802  0.49977751  1
  Pb2+  Pb200  1  -0.00527394  0.66440896  0.33910009  1
  Pb2+  Pb201  1  0.33171217  0.50253030  0.17284665  1
  Pb2+  Pb202  1  0.51309131  0.66918162  0.83464303  1
  Pb2+  Pb203  1  0.83471620  0.49529415  -0.00340475  1
  Pb2+  Pb204  1  0.50314704  0.33172558  0.83299837  1
  Pb2+  Pb205  1  0.16897313  0.83252727  0.33929254  1
  Pb2+  Pb206  1  0.34352669  -0.00179337  0.00038929  1
  Pb2+  Pb207  1  0.50435315  0.66801486  0.50105695  1
  Pb2+  Pb208  1  0.16738046  -0.00043431  0.83417078  1
  Pb2+  Pb209  1  0.83417837  0.33215715  0.17395602  1
  Pb2+  Pb210  1  0.32791566  0.49981282  0.83128602  1
  Pb2+  Pb211  1  0.50174397  0.33414294  0.16694822  1
  Pb2+  Pb212  1  0.00061092  0.66457176  -0.00651699  1
  Pb2+  Pb213  1  0.50443002  0.17060035  0.33183472  1
  Pb2+  Pb214  1  0.50698816  0.82738097  0.33110226  1
  Pb2+  Pb215  1  0.33720235  0.16782683  0.16416341  1
