# generated using pymatgen
data_In22Ag21Sn22Bi21(Te54Pb11)2
_symmetry_space_group_name_H-M   'P 1'
_cell_length_a   19.18409338
_cell_length_b   19.19270409
_cell_length_c   19.20150888
_cell_angle_alpha   90.00315596
_cell_angle_beta   90.01385143
_cell_angle_gamma   89.99744896
_symmetry_Int_Tables_number   1
_chemical_formula_structural   In22Ag21Sn22Bi21(Te54Pb11)2
_chemical_formula_sum   'In22 Ag21 Sn22 Bi21 Te108 Pb22'
_cell_volume   7069.89218144
_cell_formula_units_Z   1
loop_
 _symmetry_equiv_pos_site_id
 _symmetry_equiv_pos_as_xyz
  1  'x, y, z'
loop_
 _atom_type_symbol
 _atom_type_oxidation_number
  In3+  3.0
  Ag+  1.0
  Sn2+  2.0
  Bi3+  3.0
  Te2-  -2.0
  Pb2+  2.0
loop_
 _atom_site_type_symbol
 _atom_site_label
 _atom_site_symmetry_multiplicity
 _atom_site_fract_x
 _atom_site_fract_y
 _atom_site_fract_z
 _atom_site_occupancy
  In3+  In0  1  0.67271394  0.33239347  -0.00977879  1
  In3+  In1  1  0.50583529  0.18107697  0.32658777  1
  In3+  In2  1  0.17750666  0.67288646  0.83791707  1
  In3+  In3  1  0.33403744  0.66349571  0.65389666  1
  In3+  In4  1  0.17255548  0.82247611  0.65492942  1
  In3+  In5  1  0.83850880  0.51051219  -0.00334020  1
  In3+  In6  1  0.16745728  0.36976071  0.49546121  1
  In3+  In7  1  0.66927159  0.17700219  0.16086060  1
  In3+  In8  1  0.82803969  0.34698837  0.83733906  1
  In3+  In9  1  0.18732931  0.82881666  0.32090388  1
  In3+  In10  1  0.50683748  0.65523873  0.51839427  1
  In3+  In11  1  0.47815106  0.66400256  0.16714527  1
  In3+  In12  1  0.83316132  0.35061522  0.15908409  1
  In3+  In13  1  0.67421185  0.34033023  0.35324114  1
  In3+  In14  1  0.67144787  -0.01810029  0.00732541  1
  In3+  In15  1  0.66765896  0.01203801  0.65673815  1
  In3+  In16  1  -0.02915553  0.83786035  0.17270045  1
  In3+  In17  1  0.83581992  0.67650913  0.18040052  1
  In3+  In18  1  -0.00043287  0.48360776  0.17460742  1
  In3+  In19  1  0.83355461  0.82374963  0.00854662  1
  In3+  In20  1  0.33440448  0.35592409  0.67029527  1
  In3+  In21  1  0.51307564  -0.01971880  0.16468260  1
  Ag+  Ag22  1  0.52053641  0.69058822  0.80851179  1
  Ag+  Ag23  1  0.31998405  0.30667368  0.03410199  1
  Ag+  Ag24  1  0.83485117  0.03030882  0.48408447  1
  Ag+  Ag25  1  0.85893969  0.64569178  0.83013936  1
  Ag+  Ag26  1  0.83324404  0.19099467  0.69136655  1
  Ag+  Ag27  1  0.30493726  0.83471819  0.14835182  1
  Ag+  Ag28  1  0.69089795  0.52011071  0.53983997  1
  Ag+  Ag29  1  0.33545183  0.52522120  0.48460340  1
  Ag+  Ag30  1  0.66349707  0.80724576  0.15289622  1
  Ag+  Ag31  1  -0.01811135  0.49800408  0.51982502  1
  Ag+  Ag32  1  0.80677024  -0.00059989  0.18693494  1
  Ag+  Ag33  1  0.82569548  0.81154697  0.30961143  1
  Ag+  Ag34  1  0.82967551  0.51487403  0.34217435  1
  Ag+  Ag35  1  0.69322861  0.64903130  0.68630781  1
  Ag+  Ag36  1  0.80280424  0.48182141  0.63880957  1
  Ag+  Ag37  1  0.50650218  0.49453520  0.64636364  1
  Ag+  Ag38  1  0.19678737  -0.03248307  0.80216405  1
  Ag+  Ag39  1  0.14044664  0.66746838  0.47458887  1
  Ag+  Ag40  1  0.19224517  0.83554592  -0.02297884  1
  Ag+  Ag41  1  0.36554943  0.47048596  0.14111238  1
  Ag+  Ag42  1  0.70011790  0.37228822  0.63610360  1
  Sn2+  Sn43  1  0.66726163  0.50056486  0.17587398  1
  Sn2+  Sn44  1  0.00151737  0.33445756  0.66120400  1
  Sn2+  Sn45  1  0.51301054  0.83426600  0.33119512  1
  Sn2+  Sn46  1  0.16136025  0.67397830  0.15818878  1
  Sn2+  Sn47  1  0.32586447  0.17405919  0.82854186  1
  Sn2+  Sn48  1  0.48997628  0.34010266  0.50294654  1
  Sn2+  Sn49  1  0.50050301  0.82889555  0.00190580  1
  Sn2+  Sn50  1  -0.01110339  0.15706920  0.16541718  1
  Sn2+  Sn51  1  0.49648888  0.49782169  -0.00307335  1
  Sn2+  Sn52  1  -0.00210058  0.66505865  0.66109304  1
  Sn2+  Sn53  1  -0.00419531  0.66767957  -0.00727135  1
  Sn2+  Sn54  1  0.50642292  0.82659871  0.66215016  1
  Sn2+  Sn55  1  0.17074747  0.15511068  0.00537640  1
  Sn2+  Sn56  1  0.50363061  0.50430842  0.34346169  1
  Sn2+  Sn57  1  0.33557971  0.50177322  0.83817585  1
  Sn2+  Sn58  1  0.15364717  -0.01203909  0.50864682  1
  Sn2+  Sn59  1  0.33365277  0.83040911  0.83701275  1
  Sn2+  Sn60  1  0.33638932  0.65650154  0.33137018  1
  Sn2+  Sn61  1  0.83539171  0.15804187  -0.00221843  1
  Sn2+  Sn62  1  0.16680591  0.34034676  0.15996567  1
  Sn2+  Sn63  1  0.83214270  0.33814887  0.49874551  1
  Sn2+  Sn64  1  0.67273256  -0.00371406  0.33068487  1
  Bi3+  Bi65  1  0.49758643  0.33673979  0.83433762  1
  Bi3+  Bi66  1  -0.00957837  -0.00293386  0.66681028  1
  Bi3+  Bi67  1  0.66604300  0.65975119  -0.00495560  1
  Bi3+  Bi68  1  -0.00136273  -0.00251809  0.00296615  1
  Bi3+  Bi69  1  0.66045029  0.49784670  0.84015959  1
  Bi3+  Bi70  1  0.82845018  0.16812548  0.32685446  1
  Bi3+  Bi71  1  0.16565267  0.50489537  0.66690763  1
  Bi3+  Bi72  1  0.83072572  0.66153740  0.51179076  1
  Bi3+  Bi73  1  0.33373410  0.16383532  0.50229519  1
  Bi3+  Bi74  1  0.16573504  -0.00039065  0.16851909  1
  Bi3+  Bi75  1  0.83347168  0.82888788  0.67119709  1
  Bi3+  Bi76  1  0.16794946  0.33318086  0.83325563  1
  Bi3+  Bi77  1  0.66789734  0.16691252  0.49985150  1
  Bi3+  Bi78  1  0.33357045  0.83364255  0.50221510  1
  Bi3+  Bi79  1  -0.00073992  -0.00254027  0.33639986  1
  Bi3+  Bi80  1  0.83370678  -0.00335669  0.83491506  1
  Bi3+  Bi81  1  0.33336603  0.33706656  0.34151725  1
  Bi3+  Bi82  1  0.66536039  0.16539699  0.83082928  1
  Bi3+  Bi83  1  0.66847659  0.82941860  0.50155386  1
  Bi3+  Bi84  1  0.33648000  -0.00431346  0.33388771  1
  Bi3+  Bi85  1  0.33258689  0.66685315  0.00338044  1
  Te2-  Te86  1  0.16579870  0.16448593  0.16740593  1
  Te2-  Te87  1  0.16800730  0.15678845  0.50247792  1
  Te2-  Te88  1  0.16735340  0.17120700  0.83658885  1
  Te2-  Te89  1  0.15407741  0.50146792  0.16872040  1
  Te2-  Te90  1  0.18191362  0.52044396  0.50417984  1
  Te2-  Te91  1  0.16900163  0.49858646  0.83311943  1
  Te2-  Te92  1  0.15979472  0.83473690  0.17351712  1
  Te2-  Te93  1  0.16821660  0.81739469  0.50152217  1
  Te2-  Te94  1  0.16982081  0.82867540  0.83192546  1
  Te2-  Te95  1  0.50594070  0.17444312  0.17189007  1
  Te2-  Te96  1  0.50191417  0.16595755  0.49685722  1
  Te2-  Te97  1  0.50069316  0.17057648  0.83083239  1
  Te2-  Te98  1  0.50139357  0.51037145  0.17207922  1
  Te2-  Te99  1  0.48747654  0.50295301  0.50079183  1
  Te2-  Te100  1  0.49608194  0.49716499  0.83952928  1
  Te2-  Te101  1  0.51714748  0.83040277  0.17123137  1
  Te2-  Te102  1  0.50318738  0.83063621  0.49930794  1
  Te2-  Te103  1  0.49696881  0.83232985  0.83261746  1
  Te2-  Te104  1  0.82658711  0.15264695  0.16567902  1
  Te2-  Te105  1  0.82907584  0.17937209  0.49150346  1
  Te2-  Te106  1  0.82613405  0.16237980  0.83550407  1
  Te2-  Te107  1  0.84044484  0.50159936  0.15354314  1
  Te2-  Te108  1  0.83292738  0.49642705  0.49394952  1
  Te2-  Te109  1  0.82782870  0.50011289  0.83695217  1
  Te2-  Te110  1  0.81613512  0.84427647  0.16387865  1
  Te2-  Te111  1  0.82935955  0.82097225  0.51015827  1
  Te2-  Te112  1  0.83125809  0.83420798  0.83595146  1
  Te2-  Te113  1  0.16049561  -0.01401604  0.00648321  1
  Te2-  Te114  1  0.16556286  -0.01043739  0.33762767  1
  Te2-  Te115  1  0.15685706  -0.00303790  0.66572705  1
  Te2-  Te116  1  0.17676090  0.33164391  -0.00004127  1
  Te2-  Te117  1  0.16781996  0.33458443  0.33697048  1
  Te2-  Te118  1  0.17130387  0.33868312  0.66792124  1
  Te2-  Te119  1  0.16643229  0.68326913  -0.00288690  1
  Te2-  Te120  1  0.16718830  0.67334836  0.32989300  1
  Te2-  Te121  1  0.17169078  0.66939429  0.67717750  1
  Te2-  Te122  1  0.50643781  -0.00096277  0.01086195  1
  Te2-  Te123  1  0.49953112  -0.00032790  0.32365281  1
  Te2-  Te124  1  0.51162814  -0.00014398  0.66420124  1
  Te2-  Te125  1  0.48902775  0.33807587  -0.00370850  1
  Te2-  Te126  1  0.50016007  0.33570513  0.33506808  1
  Te2-  Te127  1  0.48954152  0.34514833  0.67069058  1
  Te2-  Te128  1  0.50384523  0.66602218  0.01308916  1
  Te2-  Te129  1  0.50032873  0.66705531  0.32138861  1
  Te2-  Te130  1  0.48648354  0.66085434  0.67051316  1
  Te2-  Te131  1  0.83267740  -0.00673669  -0.00067902  1
  Te2-  Te132  1  0.83538921  0.00822774  0.33439980  1
  Te2-  Te133  1  0.82884160  -0.00991968  0.67356553  1
  Te2-  Te134  1  0.83413747  0.33118715  -0.00130029  1
  Te2-  Te135  1  0.82374502  0.32939480  0.31838223  1
  Te2-  Te136  1  0.84164617  0.33804159  0.67102049  1
  Te2-  Te137  1  0.82782717  0.66543145  -0.01973408  1
  Te2-  Te138  1  0.82968853  0.66377674  0.33563791  1
  Te2-  Te139  1  0.83801926  0.66444049  0.67475151  1
  Te2-  Te140  1  0.00268543  0.16179340  0.00396430  1
  Te2-  Te141  1  -0.00170413  0.16337177  0.33189659  1
  Te2-  Te142  1  -0.01374472  0.16174361  0.66419547  1
  Te2-  Te143  1  -0.00563934  0.50182958  0.00231315  1
  Te2-  Te144  1  -0.01655884  0.50049657  0.32249158  1
  Te2-  Te145  1  0.00545788  0.50273307  0.66425564  1
  Te2-  Te146  1  -0.01152177  0.83529801  0.01151367  1
  Te2-  Te147  1  -0.02407846  0.83770705  0.32827056  1
  Te2-  Te148  1  0.00349983  0.83470278  0.66679519  1
  Te2-  Te149  1  0.33292279  0.16542685  0.00166118  1
  Te2-  Te150  1  0.33910075  0.16409844  0.33760308  1
  Te2-  Te151  1  0.33552900  0.16138911  0.66321249  1
  Te2-  Te152  1  0.32976601  0.50890940  0.00643264  1
  Te2-  Te153  1  0.33442121  0.49730156  0.33844232  1
  Te2-  Te154  1  0.32793947  0.50888823  0.66873959  1
  Te2-  Te155  1  0.33892332  0.83149405  0.00418580  1
  Te2-  Te156  1  0.34122589  0.83295712  0.34041092  1
  Te2-  Te157  1  0.33274550  0.82869786  0.66545188  1
  Te2-  Te158  1  0.66902372  0.17716069  -0.00339716  1
  Te2-  Te159  1  0.66186298  0.16857102  0.33400994  1
  Te2-  Te160  1  0.68057003  0.16649723  0.66632388  1
  Te2-  Te161  1  0.66891979  0.49529316  0.00293411  1
  Te2-  Te162  1  0.67565883  0.49113941  0.33303942  1
  Te2-  Te163  1  0.65343167  0.50632814  0.67832791  1
  Te2-  Te164  1  0.66698621  0.82769412  0.00611187  1
  Te2-  Te165  1  0.67817935  0.83636901  0.34163458  1
  Te2-  Te166  1  0.66487019  0.82984001  0.66261172  1
  Te2-  Te167  1  0.00133953  -0.00624507  0.16940060  1
  Te2-  Te168  1  -0.01375919  -0.00108285  0.50042444  1
  Te2-  Te169  1  -0.00092204  -0.00006809  0.83760023  1
  Te2-  Te170  1  -0.00490664  0.32879318  0.16516106  1
  Te2-  Te171  1  0.00758509  0.34806468  0.50232718  1
  Te2-  Te172  1  0.00304939  0.33298160  0.83096601  1
  Te2-  Te173  1  -0.01288123  0.67999959  0.15851549  1
  Te2-  Te174  1  -0.00548785  0.65290367  0.49973794  1
  Te2-  Te175  1  0.00507848  0.66811516  0.83438869  1
  Te2-  Te176  1  0.32992703  -0.01465297  0.17333598  1
  Te2-  Te177  1  0.33313850  -0.00393170  0.49737305  1
  Te2-  Te178  1  0.33376759  0.00211069  0.83411860  1
  Te2-  Te179  1  0.33087511  0.33353256  0.17759175  1
  Te2-  Te180  1  0.32463838  0.32464185  0.50272776  1
  Te2-  Te181  1  0.33157136  0.33398933  0.83026284  1
  Te2-  Te182  1  0.32623765  0.68272434  0.16617383  1
  Te2-  Te183  1  0.34694595  0.67294567  0.50053867  1
  Te2-  Te184  1  0.33210145  0.66858222  0.84342099  1
  Te2-  Te185  1  0.66398741  0.01375329  0.16138326  1
  Te2-  Te186  1  0.68215630  0.00142317  0.50055901  1
  Te2-  Te187  1  0.66849849  0.00217355  0.84955881  1
  Te2-  Te188  1  0.67419003  0.33097016  0.15262946  1
  Te2-  Te189  1  0.65899991  0.32904248  0.50567954  1
  Te2-  Te190  1  0.66552604  0.33003645  0.83140476  1
  Te2-  Te191  1  0.68624009  0.66089824  0.16057652  1
  Te2-  Te192  1  0.66135240  0.66122636  0.50484721  1
  Te2-  Te193  1  0.66198217  0.66283688  0.83254842  1
  Pb2+  Pb194  1  0.00033799  0.17475064  0.50066988  1
  Pb2+  Pb195  1  0.00709577  0.33350508  -0.00229239  1
  Pb2+  Pb196  1  0.66396004  0.66319996  0.33580028  1
  Pb2+  Pb197  1  0.16394828  0.17070485  0.66789075  1
  Pb2+  Pb198  1  0.66591676  0.83024498  0.83075468  1
  Pb2+  Pb199  1  -0.00093948  0.66811525  0.32737753  1
  Pb2+  Pb200  1  -0.00076151  0.50112082  0.82916854  1
  Pb2+  Pb201  1  0.16106787  0.50332704  0.33595148  1
  Pb2+  Pb202  1  -0.00335580  0.82675594  0.49769914  1
  Pb2+  Pb203  1  -0.00122812  0.83425402  0.83939989  1
  Pb2+  Pb204  1  0.32859780  -0.00154003  0.00197899  1
  Pb2+  Pb205  1  0.50093953  -0.00122720  0.83500730  1
  Pb2+  Pb206  1  0.16980098  0.16270801  0.33750781  1
  Pb2+  Pb207  1  0.33603432  0.15614787  0.16918168  1
  Pb2+  Pb208  1  0.51175237  -0.00240198  0.49215167  1
  Pb2+  Pb209  1  0.16451925  0.50824967  0.00278703  1
  Pb2+  Pb210  1  -0.00352998  0.16559291  0.83118268  1
  Pb2+  Pb211  1  0.33466710  -0.00384940  0.66738023  1
  Pb2+  Pb212  1  0.50790225  0.17731801  0.66305379  1
  Pb2+  Pb213  1  0.50578365  0.34344742  0.16383727  1
  Pb2+  Pb214  1  -0.00675965  0.33645995  0.33589343  1
  Pb2+  Pb215  1  0.50361139  0.17128795  0.00161579  1
