# generated using pymatgen
data_In22Ag21Sn22Bi21(Te54Pb11)2
_symmetry_space_group_name_H-M   'P 1'
_cell_length_a   19.11120691
_cell_length_b   19.12914492
_cell_length_c   19.10253155
_cell_angle_alpha   89.99572821
_cell_angle_beta   90.01194580
_cell_angle_gamma   90.00923816
_symmetry_Int_Tables_number   1
_chemical_formula_structural   In22Ag21Sn22Bi21(Te54Pb11)2
_chemical_formula_sum   'In22 Ag21 Sn22 Bi21 Te108 Pb22'
_cell_volume   6983.52321361
_cell_formula_units_Z   1
loop_
 _symmetry_equiv_pos_site_id
 _symmetry_equiv_pos_as_xyz
  1  'x, y, z'
loop_
 _atom_type_symbol
 _atom_type_oxidation_number
  In3+  3.0
  Ag+  1.0
  Sn2+  2.0
  Bi3+  3.0
  Te2-  -2.0
  Pb2+  2.0
loop_
 _atom_site_type_symbol
 _atom_site_label
 _atom_site_symmetry_multiplicity
 _atom_site_fract_x
 _atom_site_fract_y
 _atom_site_fract_z
 _atom_site_occupancy
  In3+  In0  1  0.31708453  0.16609104  0.50030007  1
  In3+  In1  1  0.66667236  -0.00827471  0.32730076  1
  In3+  In2  1  -0.00417095  0.64773540  0.32917538  1
  In3+  In3  1  0.32747203  0.34182850  0.33500206  1
  In3+  In4  1  0.68143849  0.50817163  0.17232252  1
  In3+  In5  1  0.67151954  -0.01590483  -0.00151979  1
  In3+  In6  1  0.82968460  0.82160827  0.68598696  1
  In3+  In7  1  0.49761795  0.18026596  0.32679577  1
  In3+  In8  1  0.00466097  0.00304362  0.32896859  1
  In3+  In9  1  0.83131186  0.66668415  0.50545593  1
  In3+  In10  1  0.66824302  0.16524629  0.82946873  1
  In3+  In11  1  0.01322462  0.33022764  0.63728427  1
  In3+  In12  1  0.02307837  -0.00073952  0.01293699  1
  In3+  In13  1  0.66544220  0.33805511  -0.00514664  1
  In3+  In14  1  0.50397987  0.34169628  0.16890092  1
  In3+  In15  1  0.00424529  0.16639013  0.47845054  1
  In3+  In16  1  0.49588249  0.49825022  0.68590507  1
  In3+  In17  1  0.30711017  0.16422930  0.16104801  1
  In3+  In18  1  0.66415624  0.17478307  0.49557965  1
  In3+  In19  1  0.49616876  0.01118680  0.50303648  1
  In3+  In20  1  0.32651436  0.65930976  0.32163258  1
  In3+  In21  1  0.00742349  -0.00269416  0.68123206  1
  Ag+  Ag22  1  0.66955217  0.33045846  0.30631814  1
  Ag+  Ag23  1  0.16618078  0.33017892  0.47607208  1
  Ag+  Ag24  1  0.67310528  0.65085865  0.67669200  1
  Ag+  Ag25  1  0.00343285  0.80355706  0.86584208  1
  Ag+  Ag26  1  0.32130157  0.80615227  0.17595194  1
  Ag+  Ag27  1  0.50406273  0.52781135  0.02907363  1
  Ag+  Ag28  1  0.14996103  0.49810135  0.33512550  1
  Ag+  Ag29  1  0.14234135  0.15287066  0.00237960  1
  Ag+  Ag30  1  0.16398471  0.81497257  -0.02247373  1
  Ag+  Ag31  1  0.84989702  0.51492795  0.33144462  1
  Ag+  Ag32  1  0.68625827  0.35408565  0.65021483  1
  Ag+  Ag33  1  0.02410614  0.48486611  0.14804333  1
  Ag+  Ag34  1  0.83583419  0.66794235  0.85749143  1
  Ag+  Ag35  1  0.00083108  0.18814348  0.17714598  1
  Ag+  Ag36  1  0.64286218  0.80678707  0.83545988  1
  Ag+  Ag37  1  -0.00122393  0.64353365  -0.01995791  1
  Ag+  Ag38  1  0.30440382  -0.02438535  0.68369163  1
  Ag+  Ag39  1  0.16178289  -0.02259171  0.17070225  1
  Ag+  Ag40  1  0.30456493  0.52617768  0.85367364  1
  Ag+  Ag41  1  0.51255658  0.63854244  0.13511403  1
  Ag+  Ag42  1  -0.03151320  0.34921339  0.33494215  1
  Sn2+  Sn43  1  0.32407894  0.82883570  0.84375607  1
  Sn2+  Sn44  1  0.00748804  0.33058960  0.01373141  1
  Sn2+  Sn45  1  0.49941196  0.17009488  0.66401627  1
  Sn2+  Sn46  1  0.83384689  0.33844306  0.83127411  1
  Sn2+  Sn47  1  0.82944053  -0.01526163  0.83279708  1
  Sn2+  Sn48  1  0.83457446  0.81837690  0.32660824  1
  Sn2+  Sn49  1  0.16730424  0.82745900  0.33122678  1
  Sn2+  Sn50  1  0.51161046  0.66036110  0.83247958  1
  Sn2+  Sn51  1  0.49765741  -0.00682796  0.82825388  1
  Sn2+  Sn52  1  0.16645581  0.00121047  0.48587082  1
  Sn2+  Sn53  1  0.66252304  0.65988597  0.33694938  1
  Sn2+  Sn54  1  0.16150539  0.66735115  0.84004845  1
  Sn2+  Sn55  1  0.82681154  0.49951561  0.66222569  1
  Sn2+  Sn56  1  0.16641402  0.67159041  0.16200364  1
  Sn2+  Sn57  1  0.16611121  0.33167942  0.83205781  1
  Sn2+  Sn58  1  0.84368016  0.83228646  -0.00383412  1
  Sn2+  Sn59  1  0.32464749  0.50147314  0.15883191  1
  Sn2+  Sn60  1  0.16347224  0.82994538  0.67312601  1
  Sn2+  Sn61  1  0.84214787  0.00254892  0.16571173  1
  Sn2+  Sn62  1  0.32420034  0.66896960  0.00111067  1
  Sn2+  Sn63  1  0.83167357  0.66817928  0.16368494  1
  Sn2+  Sn64  1  0.32539981  0.49887567  0.50229337  1
  Bi3+  Bi65  1  0.17095939  0.33855325  0.16740966  1
  Bi3+  Bi66  1  0.49961558  0.00148330  0.16979051  1
  Bi3+  Bi67  1  0.50082857  0.50509950  0.33573695  1
  Bi3+  Bi68  1  0.66920763  0.00272354  0.66801406  1
  Bi3+  Bi69  1  0.33636284  0.33755399  0.00356917  1
  Bi3+  Bi70  1  0.83041667  0.16476824  0.33468993  1
  Bi3+  Bi71  1  0.83119265  0.16657538  0.00065618  1
  Bi3+  Bi72  1  0.50384051  0.66883162  0.50020692  1
  Bi3+  Bi73  1  -0.00009804  0.49935409  0.49923793  1
  Bi3+  Bi74  1  0.67119489  0.49942121  0.83619121  1
  Bi3+  Bi75  1  0.49986189  0.83602054  0.33232738  1
  Bi3+  Bi76  1  0.00247807  0.83224699  0.16758497  1
  Bi3+  Bi77  1  -0.00187074  0.17126632  0.83635868  1
  Bi3+  Bi78  1  -0.00116177  0.49636701  0.83800635  1
  Bi3+  Bi79  1  0.83347426  0.16674488  0.66872677  1
  Bi3+  Bi80  1  0.50412956  0.83374344  0.66704501  1
  Bi3+  Bi81  1  0.33605571  0.00088632  -0.00238755  1
  Bi3+  Bi82  1  0.33572527  0.33417681  0.66639967  1
  Bi3+  Bi83  1  0.50340818  0.16866774  0.00465055  1
  Bi3+  Bi84  1  0.49918849  0.33058986  0.83620261  1
  Bi3+  Bi85  1  0.00127439  0.83770023  0.49624724  1
  Te2-  Te86  1  0.15423151  0.17741570  0.15620452  1
  Te2-  Te87  1  0.16193536  0.17364610  0.49713069  1
  Te2-  Te88  1  0.16206395  0.16812274  0.84765615  1
  Te2-  Te89  1  0.16660608  0.50243470  0.18040492  1
  Te2-  Te90  1  0.16522696  0.49325040  0.48983878  1
  Te2-  Te91  1  0.16182401  0.50091101  0.83227227  1
  Te2-  Te92  1  0.17317336  0.83033689  0.17427079  1
  Te2-  Te93  1  0.16426016  0.83492404  0.49828228  1
  Te2-  Te94  1  0.15217123  0.83165856  0.82999643  1
  Te2-  Te95  1  0.50579370  0.16629513  0.17129536  1
  Te2-  Te96  1  0.50542773  0.16591285  0.49425865  1
  Te2-  Te97  1  0.50579937  0.16645035  0.83638629  1
  Te2-  Te98  1  0.49172135  0.49675883  0.17328977  1
  Te2-  Te99  1  0.49650012  0.50542755  0.49899514  1
  Te2-  Te100  1  0.50745036  0.49593713  0.83644543  1
  Te2-  Te101  1  0.49267132  0.83950009  0.16969093  1
  Te2-  Te102  1  0.50170133  0.83515175  0.50030863  1
  Te2-  Te103  1  0.49639141  0.83217529  0.82886452  1
  Te2-  Te104  1  0.84640210  0.16510577  0.16567188  1
  Te2-  Te105  1  0.84487005  0.16705478  0.50258850  1
  Te2-  Te106  1  0.83125990  0.16700339  0.83439233  1
  Te2-  Te107  1  0.83256947  0.50438308  0.17859930  1
  Te2-  Te108  1  0.83627471  0.50658140  0.49033125  1
  Te2-  Te109  1  0.83530064  0.50832353  0.83274380  1
  Te2-  Te110  1  0.83192071  0.83748565  0.16485441  1
  Te2-  Te111  1  0.83783560  0.82736967  0.49245977  1
  Te2-  Te112  1  0.85365328  0.82200049  0.83569174  1
  Te2-  Te113  1  0.17555819  0.00890210  0.01619702  1
  Te2-  Te114  1  0.16584458  0.00311905  0.32384970  1
  Te2-  Te115  1  0.16208117  -0.00076208  0.66229608  1
  Te2-  Te116  1  0.17456183  0.33645134  0.00361383  1
  Te2-  Te117  1  0.17589141  0.34136608  0.32964523  1
  Te2-  Te118  1  0.17059723  0.33186603  0.66693138  1
  Te2-  Te119  1  0.15287528  0.66836260  -0.00053576  1
  Te2-  Te120  1  0.17298550  0.65699334  0.33042178  1
  Te2-  Te121  1  0.16730529  0.66923364  0.66740804  1
  Te2-  Te122  1  0.50218164  0.00497683  0.00040641  1
  Te2-  Te123  1  0.50456874  0.00043528  0.33658178  1
  Te2-  Te124  1  0.50466986  0.00001257  0.66142742  1
  Te2-  Te125  1  0.49934380  0.33075458  0.00197099  1
  Te2-  Te126  1  0.51135456  0.33426490  0.32872196  1
  Te2-  Te127  1  0.49895565  0.33697743  0.67141055  1
  Te2-  Te128  1  0.49639387  0.67049415  -0.00820126  1
  Te2-  Te129  1  0.50033955  0.67184307  0.33701482  1
  Te2-  Te130  1  0.51658698  0.67014716  0.66441595  1
  Te2-  Te131  1  0.82631570  0.00317427  -0.00138749  1
  Te2-  Te132  1  0.82931385  0.00272060  0.32912010  1
  Te2-  Te133  1  0.83460055  0.00435823  0.66682309  1
  Te2-  Te134  1  0.83269313  0.33081112  -0.00070994  1
  Te2-  Te135  1  0.82282239  0.32386697  0.33487572  1
  Te2-  Te136  1  0.83004016  0.33051043  0.67117337  1
  Te2-  Te137  1  0.84802396  0.67069187  0.00578076  1
  Te2-  Te138  1  0.82830122  0.66156884  0.33066108  1
  Te2-  Te139  1  0.82473967  0.66991426  0.65968426  1
  Te2-  Te140  1  -0.00662246  0.16430098  0.00017641  1
  Te2-  Te141  1  -0.00218373  0.16032290  0.32427962  1
  Te2-  Te142  1  -0.00335627  0.17146925  0.67182064  1
  Te2-  Te143  1  -0.00198209  0.49697436  0.00370657  1
  Te2-  Te144  1  -0.00154733  0.49644809  0.33764429  1
  Te2-  Te145  1  -0.00472030  0.49315327  0.66331129  1
  Te2-  Te146  1  0.01361742  0.84651039  0.00667737  1
  Te2-  Te147  1  0.00104733  0.84368714  0.33365310  1
  Te2-  Te148  1  -0.00757696  0.84083114  0.65736602  1
  Te2-  Te149  1  0.34083124  0.17023839  0.00387476  1
  Te2-  Te150  1  0.34191557  0.17421815  0.33946011  1
  Te2-  Te151  1  0.33747146  0.17099428  0.65966190  1
  Te2-  Te152  1  0.34420605  0.49995011  -0.00700057  1
  Te2-  Te153  1  0.33999122  0.49785894  0.33545657  1
  Te2-  Te154  1  0.33851882  0.49812605  0.67016660  1
  Te2-  Te155  1  0.31557346  0.83897978  0.00150734  1
  Te2-  Te156  1  0.33493046  0.82816518  0.32500132  1
  Te2-  Te157  1  0.33730379  0.83481577  0.66766789  1
  Te2-  Te158  1  0.66735924  0.17406061  -0.00167925  1
  Te2-  Te159  1  0.66745422  0.17870492  0.33917384  1
  Te2-  Te160  1  0.66880117  0.16492571  0.66794633  1
  Te2-  Te161  1  0.65592541  0.49784631  0.00366173  1
  Te2-  Te162  1  0.66183978  0.49006709  0.32491903  1
  Te2-  Te163  1  0.66783601  0.49987903  0.66998188  1
  Te2-  Te164  1  0.66762956  0.83340618  -0.01534388  1
  Te2-  Te165  1  0.66502986  0.83382241  0.33574718  1
  Te2-  Te166  1  0.67286092  0.84081263  0.68398600  1
  Te2-  Te167  1  0.01078752  -0.00459066  0.16733033  1
  Te2-  Te168  1  0.00465428  0.00495238  0.49141420  1
  Te2-  Te169  1  -0.00380985  0.00735347  0.83275586  1
  Te2-  Te170  1  0.00501388  0.34058623  0.17628572  1
  Te2-  Te171  1  0.01047151  0.33286200  0.48217514  1
  Te2-  Te172  1  0.00118749  0.33485863  0.84034104  1
  Te2-  Te173  1  -0.00239426  0.67392232  0.18104165  1
  Te2-  Te174  1  -0.00447998  0.66959809  0.49181314  1
  Te2-  Te175  1  -0.00728580  0.65945337  0.83148987  1
  Te2-  Te176  1  0.33764138  0.01237714  0.16345411  1
  Te2-  Te177  1  0.33508652  0.01015625  0.50301715  1
  Te2-  Te178  1  0.33165423  -0.00048694  0.82813920  1
  Te2-  Te179  1  0.33974651  0.32820269  0.17020048  1
  Te2-  Te180  1  0.32483667  0.32891832  0.50003649  1
  Te2-  Te181  1  0.33500387  0.33575880  0.83380178  1
  Te2-  Te182  1  0.33909118  0.66197395  0.16458447  1
  Te2-  Te183  1  0.33754803  0.66603921  0.49874683  1
  Te2-  Te184  1  0.33134140  0.67011887  0.83813434  1
  Te2-  Te185  1  0.66545467  -0.00150472  0.16267323  1
  Te2-  Te186  1  0.66301200  0.00764706  0.50149680  1
  Te2-  Te187  1  0.66515372  0.00660657  0.83442488  1
  Te2-  Te188  1  0.66150056  0.33952125  0.15767828  1
  Te2-  Te189  1  0.66378664  0.32819643  0.50856621  1
  Te2-  Te190  1  0.66348597  0.33420458  0.83553973  1
  Te2-  Te191  1  0.65743812  0.66209029  0.16577734  1
  Te2-  Te192  1  0.67079996  0.66812597  0.50277261  1
  Te2-  Te193  1  0.68009826  0.66290303  0.82730334  1
  Pb2+  Pb194  1  0.65857760  0.83008181  0.16289158  1
  Pb2+  Pb195  1  0.83561683  0.33650333  0.50020332  1
  Pb2+  Pb196  1  0.17457394  0.50353004  0.00637165  1
  Pb2+  Pb197  1  0.16353704  -0.00097731  0.84314239  1
  Pb2+  Pb198  1  -0.00340140  0.66880594  0.66542999  1
  Pb2+  Pb199  1  0.33284146  0.83695370  0.49603165  1
  Pb2+  Pb200  1  0.83337689  -0.00202498  0.49793830  1
  Pb2+  Pb201  1  0.49497044  0.33550659  0.49910005  1
  Pb2+  Pb202  1  0.16593295  0.16509082  0.67244869  1
  Pb2+  Pb203  1  0.16965585  0.17334911  0.32432863  1
  Pb2+  Pb204  1  0.16636424  0.66310117  0.49581011  1
  Pb2+  Pb205  1  0.33472795  0.00159993  0.33262851  1
  Pb2+  Pb206  1  0.67252222  0.66598421  -0.00526414  1
  Pb2+  Pb207  1  0.66540353  0.49912076  0.49562401  1
  Pb2+  Pb208  1  0.48895890  0.83547865  0.00269369  1
  Pb2+  Pb209  1  0.34405417  0.66776481  0.66965287  1
  Pb2+  Pb210  1  0.16610887  0.49923315  0.65981914  1
  Pb2+  Pb211  1  0.67343989  0.16670069  0.16988912  1
  Pb2+  Pb212  1  0.67024638  0.83643915  0.51216547  1
  Pb2+  Pb213  1  0.33513651  0.16816932  0.83318510  1
  Pb2+  Pb214  1  0.83643621  0.33608350  0.16968273  1
  Pb2+  Pb215  1  0.82837756  0.50067018  0.00593551  1
