# generated using pymatgen
data_In22Ag21Sn22Bi21(Te54Pb11)2
_symmetry_space_group_name_H-M   'P 1'
_cell_length_a   19.17344766
_cell_length_b   19.15863366
_cell_length_c   19.15956742
_cell_angle_alpha   89.99762745
_cell_angle_beta   90.00910395
_cell_angle_gamma   89.99568884
_symmetry_Int_Tables_number   1
_chemical_formula_structural   In22Ag21Sn22Bi21(Te54Pb11)2
_chemical_formula_sum   'In22 Ag21 Sn22 Bi21 Te108 Pb22'
_cell_volume   7038.01904918
_cell_formula_units_Z   1
loop_
 _symmetry_equiv_pos_site_id
 _symmetry_equiv_pos_as_xyz
  1  'x, y, z'
loop_
 _atom_type_symbol
 _atom_type_oxidation_number
  In3+  3.0
  Ag+  1.0
  Sn2+  2.0
  Bi3+  3.0
  Te2-  -2.0
  Pb2+  2.0
loop_
 _atom_site_type_symbol
 _atom_site_label
 _atom_site_symmetry_multiplicity
 _atom_site_fract_x
 _atom_site_fract_y
 _atom_site_fract_z
 _atom_site_occupancy
  In3+  In0  1  0.50416536  0.49861773  0.01267283  1
  In3+  In1  1  0.49387841  0.52978637  0.32227187  1
  In3+  In2  1  0.18110386  0.31802983  0.82922782  1
  In3+  In3  1  0.33610194  0.31862152  0.33736615  1
  In3+  In4  1  0.16309556  0.52509238  0.00405959  1
  In3+  In5  1  0.66668859  0.51949034  0.46812684  1
  In3+  In6  1  0.65308826  -0.02199135  0.31187362  1
  In3+  In7  1  0.49257043  -0.01429909  0.83898810  1
  In3+  In8  1  0.00900690  0.33286329  -0.00040466  1
  In3+  In9  1  0.81933065  0.67064931  0.17915112  1
  In3+  In10  1  -0.00985694  0.83236131  0.51351196  1
  In3+  In11  1  0.50667396  0.32913330  0.82267545  1
  In3+  In12  1  0.84409568  0.84365972  0.00623165  1
  In3+  In13  1  0.15422636  -0.01941078  0.16852141  1
  In3+  In14  1  -0.00264538  0.68468406  0.00097054  1
  In3+  In15  1  0.68214222  0.66864339  0.66334591  1
  In3+  In16  1  0.33007123  0.66754143  0.64220041  1
  In3+  In17  1  0.81704665  -0.00358342  0.82564494  1
  In3+  In18  1  0.32658870  0.83975256  0.82249532  1
  In3+  In19  1  0.65064869  0.83511206  0.17149803  1
  In3+  In20  1  0.31039524  0.14769800  0.17096899  1
  In3+  In21  1  0.32336119  0.33004859  0.00697770  1
  Ag+  Ag22  1  0.01881045  0.80519707  0.18547208  1
  Ag+  Ag23  1  0.29715207  0.85965129  0.45974030  1
  Ag+  Ag24  1  0.67843577  0.48092539  0.16794823  1
  Ag+  Ag25  1  0.69332435  -0.02224209  0.01179162  1
  Ag+  Ag26  1  -0.01225761  -0.01585825  0.01548768  1
  Ag+  Ag27  1  0.13438104  0.68777122  0.18722189  1
  Ag+  Ag28  1  0.35542917  0.18202405  0.80534913  1
  Ag+  Ag29  1  0.64982528  0.67970625  0.30584174  1
  Ag+  Ag30  1  0.48116957  0.83854353  0.33405265  1
  Ag+  Ag31  1  0.48351496  0.68777886  0.19881850  1
  Ag+  Ag32  1  0.84222898  0.83069652  0.64912349  1
  Ag+  Ag33  1  0.69460788  0.37337099  0.63298286  1
  Ag+  Ag34  1  0.18712387  0.83644450  0.35915883  1
  Ag+  Ag35  1  0.01499346  0.16370030  0.13882504  1
  Ag+  Ag36  1  0.85227924  0.66498076  0.47814914  1
  Ag+  Ag37  1  0.85926136  0.30967723  0.16853875  1
  Ag+  Ag38  1  0.18630717  0.83328216  0.00427190  1
  Ag+  Ag39  1  0.18988695  0.16803149  0.66624590  1
  Ag+  Ag40  1  0.30573074  0.68259196  0.34371922  1
  Ag+  Ag41  1  0.30334923  -0.03085142  0.34082920  1
  Ag+  Ag42  1  0.03374719  0.69879440  0.64120449  1
  Sn2+  Sn43  1  0.16711860  0.00007643  0.49846549  1
  Sn2+  Sn44  1  0.16904435  0.15403332  -0.00501794  1
  Sn2+  Sn45  1  0.66209827  0.33756153  0.32919466  1
  Sn2+  Sn46  1  0.16791256  0.33770423  0.16117827  1
  Sn2+  Sn47  1  0.34154014  0.50298242  0.49277873  1
  Sn2+  Sn48  1  0.32673313  -0.00605571  0.65944592  1
  Sn2+  Sn49  1  0.50403061  0.33104150  0.49880402  1
  Sn2+  Sn50  1  -0.00009060  -0.00125708  0.68394229  1
  Sn2+  Sn51  1  0.50695780  0.50408959  0.66543599  1
  Sn2+  Sn52  1  0.83434927  0.16696111  0.32832688  1
  Sn2+  Sn53  1  0.50358828  0.83463456  0.65499968  1
  Sn2+  Sn54  1  -0.00194067  0.83411526  0.83764837  1
  Sn2+  Sn55  1  0.67176378  0.66942237  0.00259560  1
  Sn2+  Sn56  1  0.50319872  0.16769545  0.66919288  1
  Sn2+  Sn57  1  0.83393829  -0.00546826  0.49896276  1
  Sn2+  Sn58  1  0.33013954  0.15598450  0.50206664  1
  Sn2+  Sn59  1  0.50244648  -0.00788976  0.50146712  1
  Sn2+  Sn60  1  0.50147154  0.17297052  0.00578571  1
  Sn2+  Sn61  1  -0.01322100  0.33149492  0.67005481  1
  Sn2+  Sn62  1  0.84775297  -0.00796197  0.16893831  1
  Sn2+  Sn63  1  0.00358720  0.67873872  0.32686653  1
  Sn2+  Sn64  1  0.83056173  0.51636547  0.66487363  1
  Bi3+  Bi65  1  0.49683134  0.66241314  0.83417496  1
  Bi3+  Bi66  1  0.83094637  0.49886545  0.00264174  1
  Bi3+  Bi67  1  -0.00024164  0.49896695  0.83268602  1
  Bi3+  Bi68  1  0.83275824  0.49989691  0.33075329  1
  Bi3+  Bi69  1  0.33566991  0.66278993  0.00222111  1
  Bi3+  Bi70  1  0.16661595  0.66848293  0.83802160  1
  Bi3+  Bi71  1  0.33629201  0.50215188  0.16501375  1
  Bi3+  Bi72  1  0.50096950  0.66647895  0.50489364  1
  Bi3+  Bi73  1  0.32631144  0.82642024  0.16079067  1
  Bi3+  Bi74  1  0.66279412  0.33363674  0.00247935  1
  Bi3+  Bi75  1  0.65944671  0.16265789  0.83574907  1
  Bi3+  Bi76  1  0.66411521  0.16363188  0.50381969  1
  Bi3+  Bi77  1  0.00229547  0.16569349  0.83155190  1
  Bi3+  Bi78  1  -0.00067667  0.16056911  0.50433164  1
  Bi3+  Bi79  1  0.16856969  0.00110311  0.83652959  1
  Bi3+  Bi80  1  0.66587725  0.83156946  0.83838266  1
  Bi3+  Bi81  1  0.49754325  0.33316122  0.16844060  1
  Bi3+  Bi82  1  0.33143181  0.00276264  0.00218485  1
  Bi3+  Bi83  1  0.83407964  0.66915334  0.83638492  1
  Bi3+  Bi84  1  -0.00200249  -0.00136010  0.33303043  1
  Bi3+  Bi85  1  0.16898202  0.33216877  0.50288326  1
  Te2-  Te86  1  0.16130936  0.17669433  0.16753410  1
  Te2-  Te87  1  0.16380752  0.16862317  0.51154757  1
  Te2-  Te88  1  0.16520496  0.16518904  0.82497842  1
  Te2-  Te89  1  0.16963508  0.50103406  0.15842394  1
  Te2-  Te90  1  0.16798007  0.49713754  0.50051935  1
  Te2-  Te91  1  0.16257160  0.50220491  0.84181449  1
  Te2-  Te92  1  0.16335946  0.82898809  0.15302254  1
  Te2-  Te93  1  0.15905888  0.84022032  0.50562994  1
  Te2-  Te94  1  0.16752223  0.83436374  0.84067269  1
  Te2-  Te95  1  0.50280137  0.16891086  0.16898552  1
  Te2-  Te96  1  0.50015062  0.16175655  0.50435946  1
  Te2-  Te97  1  0.49823072  0.17014285  0.83700936  1
  Te2-  Te98  1  0.50172571  0.49933353  0.17004172  1
  Te2-  Te99  1  0.51008604  0.50020343  0.49900086  1
  Te2-  Te100  1  0.49637568  0.49895491  0.83445854  1
  Te2-  Te101  1  0.49814250  0.83260549  0.17496026  1
  Te2-  Te102  1  0.50049802  0.83196792  0.49593951  1
  Te2-  Te103  1  0.50157371  0.82929103  0.83022394  1
  Te2-  Te104  1  0.83809750  0.16362942  0.17201827  1
  Te2-  Te105  1  0.83387228  0.16703008  0.50008310  1
  Te2-  Te106  1  0.83154355  0.16009545  0.83449458  1
  Te2-  Te107  1  0.82485657  0.51426898  0.16564270  1
  Te2-  Te108  1  0.82329367  0.51167794  0.49591791  1
  Te2-  Te109  1  0.83448177  0.50125367  0.83727553  1
  Te2-  Te110  1  0.84685802  0.82605866  0.15792195  1
  Te2-  Te111  1  0.83725939  0.82166919  0.50173239  1
  Te2-  Te112  1  0.82911344  0.83450214  0.84789260  1
  Te2-  Te113  1  0.17137908  -0.00640677  0.00254810  1
  Te2-  Te114  1  0.15933937  -0.01082299  0.32568633  1
  Te2-  Te115  1  0.16899207  0.00956456  0.67176093  1
  Te2-  Te116  1  0.17146159  0.32638164  -0.00832006  1
  Te2-  Te117  1  0.17482977  0.33407893  0.33789142  1
  Te2-  Te118  1  0.16712977  0.32477373  0.67035775  1
  Te2-  Te119  1  0.17023200  0.67885676  -0.00190807  1
  Te2-  Te120  1  0.16086576  0.67371345  0.32992295  1
  Te2-  Te121  1  0.17245104  0.66683344  0.67417650  1
  Te2-  Te122  1  0.49220331  0.00190167  -0.00530733  1
  Te2-  Te123  1  0.50664219  -0.01272819  0.33502937  1
  Te2-  Te124  1  0.49127544  -0.00244417  0.67172159  1
  Te2-  Te125  1  0.49856964  0.33976519  0.00171410  1
  Te2-  Te126  1  0.49324915  0.33224401  0.33324264  1
  Te2-  Te127  1  0.50060367  0.33668923  0.66995227  1
  Te2-  Te128  1  0.49990952  0.65760573  -0.00369751  1
  Te2-  Te129  1  0.50785511  0.67695482  0.34310023  1
  Te2-  Te130  1  0.49102533  0.66861093  0.67107680  1
  Te2-  Te131  1  0.83777542  -0.00312515  0.00021253  1
  Te2-  Te132  1  0.83681472  0.00000839  0.33581717  1
  Te2-  Te133  1  0.83311328  -0.01525606  0.67198140  1
  Te2-  Te134  1  0.82696786  0.33777269  0.01570252  1
  Te2-  Te135  1  0.83207691  0.33854354  0.32003157  1
  Te2-  Te136  1  0.83051188  0.33875526  0.66746720  1
  Te2-  Te137  1  0.83801999  0.66092819  -0.00383687  1
  Te2-  Te138  1  0.83648394  0.66177138  0.33213981  1
  Te2-  Te139  1  0.83319030  0.67640347  0.67803660  1
  Te2-  Te140  1  0.00169815  0.17729963  -0.00731625  1
  Te2-  Te141  1  0.00043770  0.16298443  0.34273094  1
  Te2-  Te142  1  -0.00390701  0.16381488  0.66774423  1
  Te2-  Te143  1  -0.00027304  0.49114312  -0.00345481  1
  Te2-  Te144  1  -0.00108663  0.50187378  0.33361180  1
  Te2-  Te145  1  -0.00367886  0.49930545  0.67015074  1
  Te2-  Te146  1  -0.00247531  0.83870108  -0.00324394  1
  Te2-  Te147  1  0.00813017  0.83779512  0.32868598  1
  Te2-  Te148  1  -0.00841031  0.83508516  0.66990342  1
  Te2-  Te149  1  0.33288947  0.16647886  0.01316924  1
  Te2-  Te150  1  0.33347627  0.16463347  0.32641550  1
  Te2-  Te151  1  0.33734613  0.16330201  0.66173350  1
  Te2-  Te152  1  0.32650135  0.49605151  0.00075918  1
  Te2-  Te153  1  0.34143734  0.50839796  0.33064588  1
  Te2-  Te154  1  0.33424553  0.50738701  0.66135602  1
  Te2-  Te155  1  0.33581595  0.83542604  -0.00252750  1
  Te2-  Te156  1  0.33457095  0.82630333  0.32101015  1
  Te2-  Te157  1  0.33531979  0.82812289  0.66864478  1
  Te2-  Te158  1  0.66481614  0.16973012  -0.00261539  1
  Te2-  Te159  1  0.67038991  0.16756451  0.34229396  1
  Te2-  Te160  1  0.66415061  0.16584951  0.67108132  1
  Te2-  Te161  1  0.66565529  0.49853608  0.01297784  1
  Te2-  Te162  1  0.66560636  0.50635616  0.31948773  1
  Te2-  Te163  1  0.66656695  0.50941170  0.67286360  1
  Te2-  Te164  1  0.66848378  0.83300424  0.00272476  1
  Te2-  Te165  1  0.67571891  0.82724011  0.32614667  1
  Te2-  Te166  1  0.66978914  0.82723846  0.67567699  1
  Te2-  Te167  1  0.00451662  0.01405584  0.16049272  1
  Te2-  Te168  1  -0.00168766  -0.00425974  0.50264505  1
  Te2-  Te169  1  0.00712388  0.00376232  0.84595700  1
  Te2-  Te170  1  0.00526792  0.32532721  0.15925978  1
  Te2-  Te171  1  0.00279238  0.32971626  0.50124716  1
  Te2-  Te172  1  0.00004798  0.33275929  0.83656788  1
  Te2-  Te173  1  -0.00514789  0.66331474  0.15314677  1
  Te2-  Te174  1  -0.00272774  0.67511027  0.50136651  1
  Te2-  Te175  1  0.00119390  0.66325536  0.83906195  1
  Te2-  Te176  1  0.32479153  -0.00364558  0.17185859  1
  Te2-  Te177  1  0.33093755  -0.00009209  0.48761209  1
  Te2-  Te178  1  0.33153611  0.00135838  0.83658488  1
  Te2-  Te179  1  0.33609196  0.33945299  0.16599154  1
  Te2-  Te180  1  0.33195935  0.33283374  0.49445264  1
  Te2-  Te181  1  0.33376942  0.32420588  0.83873702  1
  Te2-  Te182  1  0.34214512  0.66312381  0.16199658  1
  Te2-  Te183  1  0.33728824  0.66765056  0.48825943  1
  Te2-  Te184  1  0.33286725  0.67060022  0.84079100  1
  Te2-  Te185  1  0.67157638  -0.00777900  0.15956776  1
  Te2-  Te186  1  0.67031446  0.00193940  0.50415363  1
  Te2-  Te187  1  0.66045456  -0.00197454  0.84608475  1
  Te2-  Te188  1  0.65917032  0.33389790  0.16753934  1
  Te2-  Te189  1  0.66402087  0.32634811  0.49935564  1
  Te2-  Te190  1  0.66200396  0.32789122  0.83666147  1
  Te2-  Te191  1  0.66725353  0.68051206  0.16140910  1
  Te2-  Te192  1  0.66405339  0.66574926  0.50916668  1
  Te2-  Te193  1  0.66327585  0.66808220  0.83460858  1
  Pb2+  Pb194  1  0.83425281  0.16434716  0.00520772  1
  Pb2+  Pb195  1  0.84411155  0.83169186  0.32874067  1
  Pb2+  Pb196  1  0.00157578  0.33149480  0.32958295  1
  Pb2+  Pb197  1  0.33092049  0.49865733  0.83132273  1
  Pb2+  Pb198  1  0.16652393  0.67002993  0.49730912  1
  Pb2+  Pb199  1  0.67238109  0.16626204  0.17175754  1
  Pb2+  Pb200  1  0.33539793  0.33472113  0.66488721  1
  Pb2+  Pb201  1  0.83273139  0.33095785  0.84371746  1
  Pb2+  Pb202  1  0.17246287  0.50470394  0.32858531  1
  Pb2+  Pb203  1  0.50294278  0.15997798  0.33776903  1
  Pb2+  Pb204  1  0.66330382  0.49796152  0.84208833  1
  Pb2+  Pb205  1  -0.00591179  0.49646480  0.16564433  1
  Pb2+  Pb206  1  0.66845552  0.83451558  0.49939232  1
  Pb2+  Pb207  1  0.16568061  0.83989016  0.67270509  1
  Pb2+  Pb208  1  0.49484086  0.00157167  0.16435490  1
  Pb2+  Pb209  1  0.50121826  0.82821970  0.00252235  1
  Pb2+  Pb210  1  0.82996872  0.16008662  0.66684353  1
  Pb2+  Pb211  1  0.16774336  0.16108884  0.33925538  1
  Pb2+  Pb212  1  -0.00454588  0.50421781  0.50288732  1
  Pb2+  Pb213  1  0.16356984  0.49360301  0.66974340  1
  Pb2+  Pb214  1  0.83076035  0.33661008  0.49207234  1
  Pb2+  Pb215  1  0.65846509  -0.00365727  0.67365862  1
