# generated using pymatgen
data_In22Ag21Sn22Bi21(Te54Pb11)2
_symmetry_space_group_name_H-M   'P 1'
_cell_length_a   19.13027158
_cell_length_b   19.16769887
_cell_length_c   19.14530863
_cell_angle_alpha   89.98789457
_cell_angle_beta   89.99687538
_cell_angle_gamma   89.99919894
_symmetry_Int_Tables_number   1
_chemical_formula_structural   In22Ag21Sn22Bi21(Te54Pb11)2
_chemical_formula_sum   'In22 Ag21 Sn22 Bi21 Te108 Pb22'
_cell_volume   7020.26449408
_cell_formula_units_Z   1
loop_
 _symmetry_equiv_pos_site_id
 _symmetry_equiv_pos_as_xyz
  1  'x, y, z'
loop_
 _atom_type_symbol
 _atom_type_oxidation_number
  In3+  3.0
  Ag+  1.0
  Sn2+  2.0
  Bi3+  3.0
  Te2-  -2.0
  Pb2+  2.0
loop_
 _atom_site_type_symbol
 _atom_site_label
 _atom_site_symmetry_multiplicity
 _atom_site_fract_x
 _atom_site_fract_y
 _atom_site_fract_z
 _atom_site_occupancy
  In3+  In0  1  0.48918851  0.68826056  0.50474005  1
  In3+  In1  1  0.33831048  0.16212921  0.50084120  1
  In3+  In2  1  0.16190276  -0.00955034  0.49962917  1
  In3+  In3  1  0.81571421  0.83243354  0.65503721  1
  In3+  In4  1  -0.01115393  -0.00297272  0.66088185  1
  In3+  In5  1  0.34280269  -0.00152384  0.66867203  1
  In3+  In6  1  0.66325407  0.00458312  -0.01689894  1
  In3+  In7  1  0.68299444  0.83678294  0.16817590  1
  In3+  In8  1  0.30534618  0.67695092  -0.00135511  1
  In3+  In9  1  -0.01247054  -0.01259484  0.00548762  1
  In3+  In10  1  0.14971211  0.16212379  -0.00247115  1
  In3+  In11  1  0.15956524  0.83597462  0.66082401  1
  In3+  In12  1  -0.00268685  0.84238824  0.84658694  1
  In3+  In13  1  0.33342335  0.85332697  0.50401926  1
  In3+  In14  1  -0.01068355  0.33612396  -0.02159843  1
  In3+  In15  1  0.52392142  0.49008245  0.34279483  1
  In3+  In16  1  0.66817585  0.67352236  0.34745541  1
  In3+  In17  1  -0.00412088  0.48757196  0.17443693  1
  In3+  In18  1  0.83277153  0.69586343  0.17366540  1
  In3+  In19  1  0.15596885  0.48228864  0.65736062  1
  In3+  In20  1  0.51330163  0.82231636  0.00010346  1
  In3+  In21  1  0.16831114  0.14890934  0.65761456  1
  Ag+  Ag22  1  0.52049455  0.16028584  0.64357452  1
  Ag+  Ag23  1  -0.02327668  0.83491849  0.52841540  1
  Ag+  Ag24  1  -0.01050027  0.69141466  0.02126871  1
  Ag+  Ag25  1  -0.00427036  0.46847710  0.47644352  1
  Ag+  Ag26  1  0.50783897  0.36082192  0.17239015  1
  Ag+  Ag27  1  0.51528092  0.01279538  0.48296500  1
  Ag+  Ag28  1  0.81776432  0.00202417  0.14398318  1
  Ag+  Ag29  1  0.52338184  -0.00587115  0.13880343  1
  Ag+  Ag30  1  -0.01368223  0.30290440  0.66996674  1
  Ag+  Ag31  1  0.16650929  0.30648736  0.52610390  1
  Ag+  Ag32  1  0.83949976  0.14052465  -0.01725705  1
  Ag+  Ag33  1  0.83596451  0.00631814  0.84751579  1
  Ag+  Ag34  1  0.80754267  0.02026248  0.50469713  1
  Ag+  Ag35  1  0.82082743  0.52291341  0.30483757  1
  Ag+  Ag36  1  0.63748746  0.69027744  0.64233434  1
  Ag+  Ag37  1  0.82930219  0.85357248  0.35662688  1
  Ag+  Ag38  1  0.50409004  0.30087209  0.81075684  1
  Ag+  Ag39  1  0.47780635  0.19262841  0.01146904  1
  Ag+  Ag40  1  0.18289366  0.86260611  -0.00863996  1
  Ag+  Ag41  1  0.69351199  0.02366695  0.65574950  1
  Ag+  Ag42  1  0.81597573  0.84398613  -0.00663797  1
  Sn2+  Sn43  1  0.33933941  0.49898200  0.16758472  1
  Sn2+  Sn44  1  0.65941971  0.32272615  0.00106745  1
  Sn2+  Sn45  1  0.50996859  0.67992174  0.16714672  1
  Sn2+  Sn46  1  0.49818998  0.48706809  0.66091581  1
  Sn2+  Sn47  1  0.50025071  0.15790908  0.31326105  1
  Sn2+  Sn48  1  0.49919518  0.49931275  0.00116976  1
  Sn2+  Sn49  1  0.66701816  0.50462506  0.16758201  1
  Sn2+  Sn50  1  0.34384873  0.66964983  0.32774578  1
  Sn2+  Sn51  1  0.34131917  0.49615453  0.83406456  1
  Sn2+  Sn52  1  0.67708857  0.83742983  0.83565109  1
  Sn2+  Sn53  1  0.17652796  0.32463145  0.83320021  1
  Sn2+  Sn54  1  0.66724050  0.33475426  0.32492211  1
  Sn2+  Sn55  1  0.34188428  -0.00157663  0.32812210  1
  Sn2+  Sn56  1  0.67948572  0.66392153  -0.00578059  1
  Sn2+  Sn57  1  0.34597088  0.16680308  0.83126718  1
  Sn2+  Sn58  1  -0.00255769  0.33605715  0.35078441  1
  Sn2+  Sn59  1  0.33718539  0.66883089  0.66540779  1
  Sn2+  Sn60  1  0.15316296  -0.00286060  0.83007460  1
  Sn2+  Sn61  1  0.00111909  0.16356427  0.83838457  1
  Sn2+  Sn62  1  0.67904226  0.49392084  0.50606871  1
  Sn2+  Sn63  1  0.16287196  0.66026902  0.50118971  1
  Sn2+  Sn64  1  0.50389024  0.85159492  0.67371566  1
  Bi3+  Bi65  1  0.33455119  0.33607163  0.00086455  1
  Bi3+  Bi66  1  0.83417278  0.50143859  0.00148358  1
  Bi3+  Bi67  1  0.32943101  0.49957646  0.50141782  1
  Bi3+  Bi68  1  -0.00008783  0.83408217  0.16592262  1
  Bi3+  Bi69  1  0.33364487  0.83028256  0.16785478  1
  Bi3+  Bi70  1  0.16598053  0.49346212  -0.00493452  1
  Bi3+  Bi71  1  0.15968873  0.50237524  0.33502399  1
  Bi3+  Bi72  1  0.00415997  0.50014498  0.83131890  1
  Bi3+  Bi73  1  0.83537608  0.67413641  0.83841247  1
  Bi3+  Bi74  1  0.33224926  0.33336172  0.66963984  1
  Bi3+  Bi75  1  -0.00121380  -0.00241713  0.33311656  1
  Bi3+  Bi76  1  0.66748857  0.16189116  0.16471533  1
  Bi3+  Bi77  1  0.66584108  0.49982826  0.83583384  1
  Bi3+  Bi78  1  0.83389744  0.16392157  0.33444196  1
  Bi3+  Bi79  1  0.00221706  0.67179165  0.66535438  1
  Bi3+  Bi80  1  0.50454915  0.00357872  0.83118279  1
  Bi3+  Bi81  1  0.66725745  0.16399181  0.83853529  1
  Bi3+  Bi82  1  0.84347560  0.33316642  0.50226557  1
  Bi3+  Bi83  1  0.16820285  0.33577655  0.16587885  1
  Bi3+  Bi84  1  -0.00264190  0.16833150  0.16469412  1
  Bi3+  Bi85  1  0.83472669  0.50472979  0.66896077  1
  Te2-  Te86  1  0.16396694  0.17107980  0.16215654  1
  Te2-  Te87  1  0.17037773  0.16063662  0.50509375  1
  Te2-  Te88  1  0.16524527  0.16641697  0.84009436  1
  Te2-  Te89  1  0.16398254  0.49722681  0.16364986  1
  Te2-  Te90  1  0.15993590  0.50139482  0.50038610  1
  Te2-  Te91  1  0.16872421  0.49528055  0.83114254  1
  Te2-  Te92  1  0.16596008  0.83173998  0.16103616  1
  Te2-  Te93  1  0.18126237  0.83318854  0.50190923  1
  Te2-  Te94  1  0.15783756  0.83816465  0.84529712  1
  Te2-  Te95  1  0.50722207  0.14669262  0.15466093  1
  Te2-  Te96  1  0.49088373  0.15961950  0.49824954  1
  Te2-  Te97  1  0.50726851  0.16243072  0.86026645  1
  Te2-  Te98  1  0.50357077  0.50899566  0.17824359  1
  Te2-  Te99  1  0.49728562  0.49385488  0.49482015  1
  Te2-  Te100  1  0.50409281  0.50099113  0.83019808  1
  Te2-  Te101  1  0.49439237  0.84351343  0.16048323  1
  Te2-  Te102  1  0.49089398  0.84053956  0.50260900  1
  Te2-  Te103  1  0.50199196  0.83779109  0.83619828  1
  Te2-  Te104  1  0.83217448  0.15438124  0.17321261  1
  Te2-  Te105  1  0.83386531  0.16671138  0.50215207  1
  Te2-  Te106  1  0.83275303  0.15813967  0.83633075  1
  Te2-  Te107  1  0.83606040  0.49260852  0.16313179  1
  Te2-  Te108  1  0.84769590  0.49407247  0.50836002  1
  Te2-  Te109  1  0.83392545  0.49963872  0.83432421  1
  Te2-  Te110  1  0.83562901  0.84615395  0.14855033  1
  Te2-  Te111  1  0.83027902  0.82668467  0.50253135  1
  Te2-  Te112  1  0.84021130  0.83497305  0.84417996  1
  Te2-  Te113  1  0.16157861  0.00813541  -0.00552365  1
  Te2-  Te114  1  0.16591255  0.00121440  0.34032501  1
  Te2-  Te115  1  0.17631489  -0.00681690  0.66424784  1
  Te2-  Te116  1  0.16856731  0.33120650  0.00116544  1
  Te2-  Te117  1  0.16265293  0.34046238  0.32960442  1
  Te2-  Te118  1  0.16917207  0.33152889  0.67177584  1
  Te2-  Te119  1  0.15303407  0.65523440  -0.00013070  1
  Te2-  Te120  1  0.16752779  0.66580596  0.33388417  1
  Te2-  Te121  1  0.17003818  0.68125334  0.66619316  1
  Te2-  Te122  1  0.50915561  -0.01383602  -0.00723817  1
  Te2-  Te123  1  0.49861102  -0.00046239  0.33812564  1
  Te2-  Te124  1  0.49218894  0.01535409  0.67340624  1
  Te2-  Te125  1  0.49474884  0.34078748  0.01946574  1
  Te2-  Te126  1  0.50165161  0.33577383  0.32374139  1
  Te2-  Te127  1  0.49424211  0.32117286  0.66515705  1
  Te2-  Te128  1  0.50782437  0.66814811  0.00335589  1
  Te2-  Te129  1  0.51160144  0.66422909  0.33875886  1
  Te2-  Te130  1  0.49520368  0.66309092  0.65919443  1
  Te2-  Te131  1  0.83700011  -0.00680823  -0.00399407  1
  Te2-  Te132  1  0.83782107  0.00223855  0.35169039  1
  Te2-  Te133  1  0.83573825  -0.01273908  0.65384670  1
  Te2-  Te134  1  0.83154082  0.33836836  0.00223947  1
  Te2-  Te135  1  0.83488996  0.32894122  0.34034147  1
  Te2-  Te136  1  0.84154066  0.33522370  0.66621886  1
  Te2-  Te137  1  0.84255719  0.66224191  0.00126346  1
  Te2-  Te138  1  0.82276717  0.66670966  0.32547815  1
  Te2-  Te139  1  0.83561582  0.67084068  0.67303964  1
  Te2-  Te140  1  -0.01064675  0.17398120  0.00337308  1
  Te2-  Te141  1  0.00029489  0.16322900  0.33046727  1
  Te2-  Te142  1  0.01008514  0.15604912  0.67060287  1
  Te2-  Te143  1  0.00064159  0.49331219  -0.00542431  1
  Te2-  Te144  1  -0.00332449  0.50198627  0.33319926  1
  Te2-  Te145  1  0.00258313  0.50894762  0.66959659  1
  Te2-  Te146  1  0.00763303  0.83519785  0.00088743  1
  Te2-  Te147  1  -0.01519211  0.83811130  0.32625118  1
  Te2-  Te148  1  0.00845152  0.83983448  0.67441943  1
  Te2-  Te149  1  0.33184148  0.17040280  -0.00195409  1
  Te2-  Te150  1  0.33617950  0.16699541  0.34115720  1
  Te2-  Te151  1  0.32080580  0.17011709  0.66570354  1
  Te2-  Te152  1  0.33100340  0.50051556  0.00107336  1
  Te2-  Te153  1  0.32533607  0.50742068  0.33571624  1
  Te2-  Te154  1  0.33116610  0.49969124  0.66440400  1
  Te2-  Te155  1  0.32601466  0.82966190  0.00149307  1
  Te2-  Te156  1  0.33226587  0.83132282  0.33356135  1
  Te2-  Te157  1  0.33979526  0.83754392  0.66145226  1
  Te2-  Te158  1  0.68470110  0.15718077  0.00377094  1
  Te2-  Te159  1  0.66693164  0.16631901  0.33018462  1
  Te2-  Te160  1  0.66521144  0.16750684  0.67416218  1
  Te2-  Te161  1  0.66825899  0.49557959  -0.00048262  1
  Te2-  Te162  1  0.67740494  0.50095158  0.33495189  1
  Te2-  Te163  1  0.66969700  0.50257562  0.67106944  1
  Te2-  Te164  1  0.66833668  0.83422227  0.00373420  1
  Te2-  Te165  1  0.67973512  0.82788211  0.32579274  1
  Te2-  Te166  1  0.66433858  0.82996041  0.67105925  1
  Te2-  Te167  1  -0.00459585  0.00351520  0.16540407  1
  Te2-  Te168  1  0.00874864  -0.01692193  0.50480527  1
  Te2-  Te169  1  -0.01089013  -0.00148396  0.83091950  1
  Te2-  Te170  1  0.00304936  0.33035578  0.17305989  1
  Te2-  Te171  1  0.00906777  0.32650888  0.51289659  1
  Te2-  Te172  1  0.00171369  0.33422276  0.82210339  1
  Te2-  Te173  1  -0.01220308  0.66863774  0.16700738  1
  Te2-  Te174  1  0.00337981  0.68595177  0.50515891  1
  Te2-  Te175  1  -0.00321822  0.66505338  0.82754353  1
  Te2-  Te176  1  0.32937870  -0.00449404  0.16625028  1
  Te2-  Te177  1  0.32940342  0.00502871  0.50345561  1
  Te2-  Te178  1  0.33406090  0.00273744  0.82828241  1
  Te2-  Te179  1  0.33440395  0.33329697  0.16581800  1
  Te2-  Te180  1  0.31719660  0.33774886  0.50529532  1
  Te2-  Te181  1  0.35002340  0.33380437  0.83505399  1
  Te2-  Te182  1  0.33744698  0.66820829  0.15973876  1
  Te2-  Te183  1  0.33860272  0.66082252  0.49698919  1
  Te2-  Te184  1  0.33433619  0.66590198  0.84088349  1
  Te2-  Te185  1  0.67023296  -0.00880702  0.16896368  1
  Te2-  Te186  1  0.65977285  -0.00061730  0.51338707  1
  Te2-  Te187  1  0.67550602  -0.00050691  0.82919566  1
  Te2-  Te188  1  0.65581312  0.32880343  0.16655633  1
  Te2-  Te189  1  0.66847343  0.33512505  0.49783938  1
  Te2-  Te190  1  0.65463956  0.33310862  0.83731208  1
  Te2-  Te191  1  0.67541268  0.67279515  0.15960933  1
  Te2-  Te192  1  0.66054053  0.66047535  0.50175495  1
  Te2-  Te193  1  0.67299845  0.66491644  0.83267671  1
  Pb2+  Pb194  1  0.32919155  0.83513296  0.82993220  1
  Pb2+  Pb195  1  0.66801424  0.33674301  0.66702246  1
  Pb2+  Pb196  1  0.15729692  0.83420409  0.33290777  1
  Pb2+  Pb197  1  0.00011036  0.15569231  0.50004253  1
  Pb2+  Pb198  1  0.34133198  0.16430091  0.16709583  1
  Pb2+  Pb199  1  0.16403954  0.66608270  0.16573724  1
  Pb2+  Pb200  1  -0.00422273  0.67074956  0.33712389  1
  Pb2+  Pb201  1  0.83529920  0.15890110  0.67215096  1
  Pb2+  Pb202  1  0.16397720  0.66674939  0.83264440  1
  Pb2+  Pb203  1  0.16195681  -0.00087687  0.16497321  1
  Pb2+  Pb204  1  0.50396723  0.66743682  0.83455421  1
  Pb2+  Pb205  1  0.50331702  0.83145678  0.32811812  1
  Pb2+  Pb206  1  0.33935511  0.00260365  -0.00222549  1
  Pb2+  Pb207  1  0.16912074  0.17189725  0.33379607  1
  Pb2+  Pb208  1  0.66110704  0.16529867  0.50015125  1
  Pb2+  Pb209  1  0.83503587  0.66091917  0.50217868  1
  Pb2+  Pb210  1  0.83047909  0.32365336  0.16976008  1
  Pb2+  Pb211  1  0.66273869  0.83608078  0.49985489  1
  Pb2+  Pb212  1  0.33258723  0.33990434  0.33506103  1
  Pb2+  Pb213  1  0.82866157  0.32666554  0.83551748  1
  Pb2+  Pb214  1  0.67141457  -0.00166986  0.33714579  1
  Pb2+  Pb215  1  0.49297200  0.32707951  0.49647517  1
