# generated using pymatgen
data_In22Ag21Sn22Bi21(Te54Pb11)2
_symmetry_space_group_name_H-M   'P 1'
_cell_length_a   19.13246261
_cell_length_b   19.12639014
_cell_length_c   19.09653828
_cell_angle_alpha   90.00067485
_cell_angle_beta   90.00227093
_cell_angle_gamma   90.00857961
_symmetry_Int_Tables_number   1
_chemical_formula_structural   In22Ag21Sn22Bi21(Te54Pb11)2
_chemical_formula_sum   'In22 Ag21 Sn22 Bi21 Te108 Pb22'
_cell_volume   6988.09058458
_cell_formula_units_Z   1
loop_
 _symmetry_equiv_pos_site_id
 _symmetry_equiv_pos_as_xyz
  1  'x, y, z'
loop_
 _atom_type_symbol
 _atom_type_oxidation_number
  In3+  3.0
  Ag+  1.0
  Sn2+  2.0
  Bi3+  3.0
  Te2-  -2.0
  Pb2+  2.0
loop_
 _atom_site_type_symbol
 _atom_site_label
 _atom_site_symmetry_multiplicity
 _atom_site_fract_x
 _atom_site_fract_y
 _atom_site_fract_z
 _atom_site_occupancy
  In3+  In0  1  0.17785505  0.16963867  0.32790652  1
  In3+  In1  1  0.00597021  0.00125302  0.34117104  1
  In3+  In2  1  0.49271860  0.15211031  0.32828261  1
  In3+  In3  1  0.33255506  -0.01368590  0.01915182  1
  In3+  In4  1  0.50063129  0.50336084  0.68209263  1
  In3+  In5  1  0.16857791  0.35416292  0.50805468  1
  In3+  In6  1  0.34432986  0.83471790  0.82743097  1
  In3+  In7  1  0.49368707  0.68931120  0.16468188  1
  In3+  In8  1  0.65978565  0.82813247  0.82957445  1
  In3+  In9  1  0.32986863  0.50319518  0.50756741  1
  In3+  In10  1  0.83139568  0.16463824  0.01492602  1
  In3+  In11  1  0.49263592  0.33695060  0.82491025  1
  In3+  In12  1  0.83233448  0.64843345  0.51118270  1
  In3+  In13  1  0.67160361  0.66812730  0.32512321  1
  In3+  In14  1  -0.01059725  0.00858644  0.66390320  1
  In3+  In15  1  0.66245177  0.33456968  0.00276472  1
  In3+  In16  1  0.66776774  0.31950318  0.33007032  1
  In3+  In17  1  0.81672354  0.83005336  -0.00140210  1
  In3+  In18  1  0.64968241  0.84097123  0.16873976  1
  In3+  In19  1  0.66358032  0.50986418  0.16515417  1
  In3+  In20  1  0.18447839  0.17498614  0.00654328  1
  In3+  In21  1  0.83630632  0.33394512  0.82071049  1
  Ag+  Ag22  1  0.69076183  0.02617587  0.66773155  1
  Ag+  Ag23  1  0.79975687  0.13397408  0.68256880  1
  Ag+  Ag24  1  0.34718818  0.33984245  0.66868789  1
  Ag+  Ag25  1  0.19463746  0.64127924  0.16197529  1
  Ag+  Ag26  1  0.85587689  0.50146578  0.69133114  1
  Ag+  Ag27  1  0.34890874  0.64553691  0.67031277  1
  Ag+  Ag28  1  0.48694605  0.81579497  -0.00502045  1
  Ag+  Ag29  1  0.81226823  -0.00002513  0.51412445  1
  Ag+  Ag30  1  0.31498963  0.80699477  0.18185212  1
  Ag+  Ag31  1  0.64699139  0.66517710  0.64104683  1
  Ag+  Ag32  1  0.66876524  0.15634880  0.18542663  1
  Ag+  Ag33  1  0.19319588  0.47497246  0.32432084  1
  Ag+  Ag34  1  0.15886205  -0.02111620  0.15075287  1
  Ag+  Ag35  1  0.48060190  0.51888415  0.00821962  1
  Ag+  Ag36  1  0.02630730  0.48275955  0.82768711  1
  Ag+  Ag37  1  0.82994544  0.69253722  0.16930491  1
  Ag+  Ag38  1  0.51635492  0.80897773  0.35796903  1
  Ag+  Ag39  1  -0.00265581  0.48281425  0.47710698  1
  Ag+  Ag40  1  0.18205727  0.49918898  -0.01608172  1
  Ag+  Ag41  1  0.33522881  -0.01995426  0.68852611  1
  Ag+  Ag42  1  0.31324810  0.17071146  0.15501948  1
  Sn2+  Sn43  1  0.00102244  0.66345778  0.33076262  1
  Sn2+  Sn44  1  0.83590568  0.49994631  -0.00214692  1
  Sn2+  Sn45  1  -0.00166470  0.34169500  0.00336494  1
  Sn2+  Sn46  1  0.33590733  0.17141079  0.50663357  1
  Sn2+  Sn47  1  -0.00040409  0.33879299  0.33210740  1
  Sn2+  Sn48  1  0.82819552  0.82856226  0.33493773  1
  Sn2+  Sn49  1  0.00257139  0.50748936  0.16285369  1
  Sn2+  Sn50  1  0.33068770  0.50436020  0.83368970  1
  Sn2+  Sn51  1  0.16823377  0.33364935  0.83261616  1
  Sn2+  Sn52  1  -0.00321903  0.17289804  0.82936481  1
  Sn2+  Sn53  1  0.49679664  0.33968742  0.50233007  1
  Sn2+  Sn54  1  0.82852809  0.82006725  0.66401280  1
  Sn2+  Sn55  1  0.67184409  -0.00409611  0.34131734  1
  Sn2+  Sn56  1  0.67418187  0.16134526  0.49888156  1
  Sn2+  Sn57  1  0.50106339  0.00688472  0.82772174  1
  Sn2+  Sn58  1  0.16812461  0.66934584  0.84291242  1
  Sn2+  Sn59  1  0.49346492  0.16029636  0.65862140  1
  Sn2+  Sn60  1  0.84434989  -0.00291869  0.17257609  1
  Sn2+  Sn61  1  0.17445981  0.83798173  0.67030947  1
  Sn2+  Sn62  1  0.49864961  0.49903579  0.32350425  1
  Sn2+  Sn63  1  0.82941450  0.33639473  0.15540045  1
  Sn2+  Sn64  1  0.50411403  0.83378149  0.67225542  1
  Bi3+  Bi65  1  0.66157532  0.49949433  0.83760133  1
  Bi3+  Bi66  1  0.00056874  0.33803171  0.66856497  1
  Bi3+  Bi67  1  0.00042641  0.66435815  0.00377341  1
  Bi3+  Bi68  1  0.00257504  0.16888151  0.49860159  1
  Bi3+  Bi69  1  -0.00039186  0.83212788  0.83330028  1
  Bi3+  Bi70  1  0.33294327  -0.00126418  0.32750509  1
  Bi3+  Bi71  1  0.66666121  0.16544154  0.83114850  1
  Bi3+  Bi72  1  0.16765159  0.00223565  0.83452545  1
  Bi3+  Bi73  1  0.67026549  0.66316605  0.00370360  1
  Bi3+  Bi74  1  -0.00299720  0.83320041  0.50046247  1
  Bi3+  Bi75  1  0.16049697  0.66788313  0.49678000  1
  Bi3+  Bi76  1  0.83097977  0.50239791  0.32639986  1
  Bi3+  Bi77  1  0.50524686  0.16837211  0.00296742  1
  Bi3+  Bi78  1  0.83367194  0.16351689  0.33646917  1
  Bi3+  Bi79  1  0.00107811  0.00325707  -0.00115564  1
  Bi3+  Bi80  1  0.16909567  0.83627031  0.33133936  1
  Bi3+  Bi81  1  0.49829806  0.00461614  0.16244533  1
  Bi3+  Bi82  1  0.16436183  0.33815173  0.16798010  1
  Bi3+  Bi83  1  0.16973184  0.00459512  0.49518841  1
  Bi3+  Bi84  1  0.00063431  0.66864207  0.66808433  1
  Bi3+  Bi85  1  0.50303866  0.33113205  0.16685096  1
  Te2-  Te86  1  0.16457478  0.17636417  0.16305950  1
  Te2-  Te87  1  0.16581876  0.16609385  0.49181443  1
  Te2-  Te88  1  0.16505143  0.16584946  0.84163159  1
  Te2-  Te89  1  0.16578530  0.49825336  0.18016672  1
  Te2-  Te90  1  0.15316296  0.50624006  0.48930455  1
  Te2-  Te91  1  0.17166761  0.50178468  0.83715161  1
  Te2-  Te92  1  0.17127979  0.83321838  0.16893254  1
  Te2-  Te93  1  0.16297919  0.83718352  0.49766481  1
  Te2-  Te94  1  0.16453502  0.83791908  0.83496590  1
  Te2-  Te95  1  0.51787685  0.16735889  0.16927351  1
  Te2-  Te96  1  0.49997874  0.17377774  0.48987027  1
  Te2-  Te97  1  0.50399165  0.17501450  0.83513268  1
  Te2-  Te98  1  0.50861600  0.49364164  0.15653928  1
  Te2-  Te99  1  0.49704277  0.49679414  0.49359202  1
  Te2-  Te100  1  0.49946653  0.49504190  0.84933709  1
  Te2-  Te101  1  0.49819357  0.84113225  0.14775783  1
  Te2-  Te102  1  0.50003162  0.82970654  0.50215745  1
  Te2-  Te103  1  0.50022315  0.83596675  0.84139001  1
  Te2-  Te104  1  0.81938730  0.16451417  0.17052422  1
  Te2-  Te105  1  0.83944889  0.15307533  0.49948699  1
  Te2-  Te106  1  0.82997362  0.17524513  0.82077471  1
  Te2-  Te107  1  0.82468982  0.49529426  0.16535540  1
  Te2-  Te108  1  0.84416451  0.49855058  0.48916593  1
  Te2-  Te109  1  0.82276885  0.49158347  0.83631375  1
  Te2-  Te110  1  0.82833569  0.84182939  0.16453021  1
  Te2-  Te111  1  0.83737086  0.84785494  0.49651845  1
  Te2-  Te112  1  0.83605480  0.83411829  0.83455043  1
  Te2-  Te113  1  0.16637574  0.00698613  0.00327699  1
  Te2-  Te114  1  0.16757805  0.00286741  0.32941257  1
  Te2-  Te115  1  0.18375801  -0.00089096  0.66560866  1
  Te2-  Te116  1  0.16401612  0.33914800  0.00165035  1
  Te2-  Te117  1  0.16543390  0.33073068  0.33522829  1
  Te2-  Te118  1  0.16254793  0.33470974  0.66577723  1
  Te2-  Te119  1  0.16218104  0.65332450  0.01306435  1
  Te2-  Te120  1  0.16262152  0.67406931  0.33225159  1
  Te2-  Te121  1  0.16177774  0.67341136  0.66405241  1
  Te2-  Te122  1  0.49431433  0.00737326  -0.00285504  1
  Te2-  Te123  1  0.50197148  -0.00280240  0.32634155  1
  Te2-  Te124  1  0.48449475  0.00077217  0.67012059  1
  Te2-  Te125  1  0.50503592  0.32965097  0.00172371  1
  Te2-  Te126  1  0.51019089  0.33584066  0.32992749  1
  Te2-  Te127  1  0.49593257  0.34043544  0.66917328  1
  Te2-  Te128  1  0.50481283  0.66573358  0.00963221  1
  Te2-  Te129  1  0.50439141  0.66762771  0.31889765  1
  Te2-  Te130  1  0.49818974  0.65937296  0.66652170  1
  Te2-  Te131  1  0.83563846  0.00425693  0.00212920  1
  Te2-  Te132  1  0.83012711  0.00115541  0.33230681  1
  Te2-  Te133  1  0.83512806  -0.00917846  0.66212121  1
  Te2-  Te134  1  0.83011487  0.32482574  -0.00275563  1
  Te2-  Te135  1  0.82675517  0.33081488  0.33010389  1
  Te2-  Te136  1  0.83643948  0.35003285  0.66691006  1
  Te2-  Te137  1  0.83355036  0.67076851  0.01101828  1
  Te2-  Te138  1  0.82852006  0.66893147  0.32164974  1
  Te2-  Te139  1  0.83857995  0.65321512  0.66552721  1
  Te2-  Te140  1  -0.01277758  0.16589478  -0.00575462  1
  Te2-  Te141  1  -0.00459620  0.16671347  0.33569130  1
  Te2-  Te142  1  -0.00210413  0.17142084  0.66164703  1
  Te2-  Te143  1  -0.00461378  0.50284277  -0.00673318  1
  Te2-  Te144  1  -0.00752446  0.50102448  0.33000146  1
  Te2-  Te145  1  0.00315613  0.50303474  0.67950708  1
  Te2-  Te146  1  -0.00064187  0.83706168  -0.00374990  1
  Te2-  Te147  1  -0.00016006  0.83755302  0.33676384  1
  Te2-  Te148  1  -0.00092081  0.83540537  0.66732451  1
  Te2-  Te149  1  0.33947728  0.16419819  0.00576309  1
  Te2-  Te150  1  0.33960961  0.16474917  0.33540297  1
  Te2-  Te151  1  0.33682591  0.17964091  0.66380783  1
  Te2-  Te152  1  0.33191740  0.50006513  -0.00332035  1
  Te2-  Te153  1  0.33699027  0.50168045  0.34166218  1
  Te2-  Te154  1  0.34066546  0.49630913  0.66516969  1
  Te2-  Te155  1  0.33899362  0.83719486  -0.00576842  1
  Te2-  Te156  1  0.33470448  0.83604755  0.32559832  1
  Te2-  Te157  1  0.33970200  0.83281174  0.67086028  1
  Te2-  Te158  1  0.67169165  0.16811994  -0.00663000  1
  Te2-  Te159  1  0.66889354  0.16233537  0.33354384  1
  Te2-  Te160  1  0.65937335  0.17413705  0.66616108  1
  Te2-  Te161  1  0.66941681  0.49749181  0.00259951  1
  Te2-  Te162  1  0.66773439  0.51052352  0.32839692  1
  Te2-  Te163  1  0.65417261  0.51216337  0.67158442  1
  Te2-  Te164  1  0.66335141  0.83065082  -0.00808548  1
  Te2-  Te165  1  0.65909886  0.82907671  0.32742689  1
  Te2-  Te166  1  0.66656495  0.81187272  0.67561160  1
  Te2-  Te167  1  0.01178891  0.00276785  0.16100164  1
  Te2-  Te168  1  0.00794247  0.00107620  0.50264125  1
  Te2-  Te169  1  0.00436745  0.00010712  0.83026606  1
  Te2-  Te170  1  0.00018629  0.33585728  0.16803363  1
  Te2-  Te171  1  0.00792580  0.33664064  0.50166055  1
  Te2-  Te172  1  -0.00176126  0.33836057  0.83277424  1
  Te2-  Te173  1  -0.01635327  0.66734178  0.16450835  1
  Te2-  Te174  1  -0.00599574  0.67146261  0.50160010  1
  Te2-  Te175  1  0.00346510  0.67027141  0.83681717  1
  Te2-  Te176  1  0.33132064  0.01861450  0.16668344  1
  Te2-  Te177  1  0.33112010  0.00397890  0.49221236  1
  Te2-  Te178  1  0.32870758  -0.00718247  0.83774703  1
  Te2-  Te179  1  0.33391946  0.32312881  0.17126814  1
  Te2-  Te180  1  0.32353072  0.34304598  0.51116346  1
  Te2-  Te181  1  0.33388556  0.33446768  0.82382670  1
  Te2-  Te182  1  0.34041905  0.66302696  0.16538729  1
  Te2-  Te183  1  0.32586804  0.66026952  0.51456525  1
  Te2-  Te184  1  0.32812626  0.67379492  0.82051145  1
  Te2-  Te185  1  0.66458776  -0.00481432  0.16518677  1
  Te2-  Te186  1  0.66392334  0.00275706  0.51435590  1
  Te2-  Te187  1  0.66489569  -0.00025638  0.81832584  1
  Te2-  Te188  1  0.66511579  0.33290163  0.16708493  1
  Te2-  Te189  1  0.66689345  0.33118773  0.49179542  1
  Te2-  Te190  1  0.66345274  0.33363677  0.83867380  1
  Te2-  Te191  1  0.67446344  0.67340610  0.16496743  1
  Te2-  Te192  1  0.67627677  0.66700984  0.49425013  1
  Te2-  Te193  1  0.66777430  0.66767540  0.84089690  1
  Pb2+  Pb194  1  0.16956477  0.82954678  0.00274411  1
  Pb2+  Pb195  1  0.32951045  0.66932369  0.33973918  1
  Pb2+  Pb196  1  0.16805117  0.50632053  0.66340141  1
  Pb2+  Pb197  1  -0.00595330  0.16813715  0.16423059  1
  Pb2+  Pb198  1  0.33316693  0.83433364  0.49877343  1
  Pb2+  Pb199  1  0.49881814  0.66517586  0.83513623  1
  Pb2+  Pb200  1  0.00325650  0.83263424  0.16768893  1
  Pb2+  Pb201  1  0.66659544  0.34330123  0.66924006  1
  Pb2+  Pb202  1  0.33826203  0.33312015  0.34049098  1
  Pb2+  Pb203  1  0.16718810  0.16415551  0.66431386  1
  Pb2+  Pb204  1  0.33045912  0.66843143  -0.00737924  1
  Pb2+  Pb205  1  0.50030930  0.66222841  0.49714449  1
  Pb2+  Pb206  1  0.49841325  0.00426829  0.50051469  1
  Pb2+  Pb207  1  0.83503372  0.66477063  0.83850538  1
  Pb2+  Pb208  1  0.33539441  0.16282816  0.83223577  1
  Pb2+  Pb209  1  0.33481812  0.33318062  -0.00323314  1
  Pb2+  Pb210  1  0.33493263  0.49118694  0.16716852  1
  Pb2+  Pb211  1  0.66234145  -0.00089121  -0.00527344  1
  Pb2+  Pb212  1  0.67074875  0.83560031  0.50377697  1
  Pb2+  Pb213  1  0.83338303  0.00393000  0.83411111  1
  Pb2+  Pb214  1  0.66918643  0.49783931  0.50068497  1
  Pb2+  Pb215  1  0.83600657  0.32369407  0.49955483  1
