# generated using pymatgen
data_In22Ag21Sn22Bi21(Te54Pb11)2
_symmetry_space_group_name_H-M   'P 1'
_cell_length_a   19.14201893
_cell_length_b   19.15403779
_cell_length_c   19.14531195
_cell_angle_alpha   89.98953131
_cell_angle_beta   90.00605020
_cell_angle_gamma   89.99122776
_symmetry_Int_Tables_number   1
_chemical_formula_structural   In22Ag21Sn22Bi21(Te54Pb11)2
_chemical_formula_sum   'In22 Ag21 Sn22 Bi21 Te108 Pb22'
_cell_volume   7019.57007053
_cell_formula_units_Z   1
loop_
 _symmetry_equiv_pos_site_id
 _symmetry_equiv_pos_as_xyz
  1  'x, y, z'
loop_
 _atom_type_symbol
 _atom_type_oxidation_number
  In3+  3.0
  Ag+  1.0
  Sn2+  2.0
  Bi3+  3.0
  Te2-  -2.0
  Pb2+  2.0
loop_
 _atom_site_type_symbol
 _atom_site_label
 _atom_site_symmetry_multiplicity
 _atom_site_fract_x
 _atom_site_fract_y
 _atom_site_fract_z
 _atom_site_occupancy
  In3+  In0  1  0.49679751  0.16794266  0.02300788  1
  In3+  In1  1  0.65338843  0.17679779  0.16411893  1
  In3+  In2  1  0.18326287  0.68072298  0.83658447  1
  In3+  In3  1  0.32489012  -0.00787698  0.31380468  1
  In3+  In4  1  0.66379176  0.67285242  0.01526514  1
  In3+  In5  1  0.16881942  0.64587373  0.16404018  1
  In3+  In6  1  0.49939633  0.47599188  0.00671530  1
  In3+  In7  1  0.66692581  0.50335546  0.47168511  1
  In3+  In8  1  0.67170356  0.32706965  0.01665591  1
  In3+  In9  1  0.19271425  0.16312889  0.65650951  1
  In3+  In10  1  0.34119764  0.15633674  0.50007206  1
  In3+  In11  1  0.01528127  0.67041451  0.32274326  1
  In3+  In12  1  0.49770971  0.47780490  0.31078134  1
  In3+  In13  1  0.82251145  0.83751944  0.32549205  1
  In3+  In14  1  0.47819925  0.84863248  0.66324675  1
  In3+  In15  1  0.50543880  0.01012581  0.84675869  1
  In3+  In16  1  0.18183274  0.16777066  0.31955512  1
  In3+  In17  1  0.48707537  0.01652565  0.49720728  1
  In3+  In18  1  0.80935349  0.00657034  0.16669607  1
  In3+  In19  1  0.83360481  0.70592625  0.85530699  1
  In3+  In20  1  -0.01901807  0.16387361  0.16808096  1
  In3+  In21  1  0.17476304  0.48881584  0.66956266  1
  Ag+  Ag22  1  0.17822073  0.80413835  0.64359012  1
  Ag+  Ag23  1  -0.02603038  0.52914861  0.16025561  1
  Ag+  Ag24  1  0.33483752  0.46994432  0.14914106  1
  Ag+  Ag25  1  0.17174975  0.81105825  0.30236816  1
  Ag+  Ag26  1  0.86236615  0.34572249  0.13665657  1
  Ag+  Ag27  1  0.80296805  0.00555639  0.86678321  1
  Ag+  Ag28  1  0.33749338  0.31253826  0.66345536  1
  Ag+  Ag29  1  0.48193649  0.15176557  0.32546739  1
  Ag+  Ag30  1  0.80888843  0.81182241  0.03206621  1
  Ag+  Ag31  1  0.34981190  0.01260141  0.66920715  1
  Ag+  Ag32  1  0.68190646  0.47722141  0.15781462  1
  Ag+  Ag33  1  0.47728968  0.35331757  0.15843692  1
  Ag+  Ag34  1  0.50203443  0.14511809  0.68474382  1
  Ag+  Ag35  1  0.84046228  0.63684894  0.15166162  1
  Ag+  Ag36  1  0.14863202  0.00763787  0.19129036  1
  Ag+  Ag37  1  0.32294647  0.85572734  0.51608085  1
  Ag+  Ag38  1  0.85513484  0.16574716  0.02016521  1
  Ag+  Ag39  1  0.67138830  0.02377423  0.01533885  1
  Ag+  Ag40  1  0.50171120  -0.00399911  0.16246531  1
  Ag+  Ag41  1  0.31636392  0.33335549  0.02462988  1
  Ag+  Ag42  1  0.80650320  -0.03211543  0.52630553  1
  Sn2+  Sn43  1  0.51013598  0.67331874  0.83616556  1
  Sn2+  Sn44  1  0.82366905  0.16193943  0.67112208  1
  Sn2+  Sn45  1  -0.00002554  0.33966933  0.00080888  1
  Sn2+  Sn46  1  -0.00497931  0.15990181  0.83466566  1
  Sn2+  Sn47  1  0.00303890  0.16262408  0.49826627  1
  Sn2+  Sn48  1  0.49438577  0.33226100  0.83088992  1
  Sn2+  Sn49  1  0.33280800  0.83985164  0.83199198  1
  Sn2+  Sn50  1  0.16795751  -0.00428960  0.50476618  1
  Sn2+  Sn51  1  0.66461504  0.82960375  0.83463687  1
  Sn2+  Sn52  1  0.33421908  0.67544910  0.66279677  1
  Sn2+  Sn53  1  0.16407791  0.32597856  0.16027057  1
  Sn2+  Sn54  1  0.00140573  -0.00402488  0.33027492  1
  Sn2+  Sn55  1  0.16996169  0.16274540  0.00379599  1
  Sn2+  Sn56  1  0.50255176  0.84286304  -0.00366407  1
  Sn2+  Sn57  1  -0.02086015  0.00498100  0.00090042  1
  Sn2+  Sn58  1  0.33653060  0.16606045  0.16454474  1
  Sn2+  Sn59  1  0.67261061  0.66327838  0.32641503  1
  Sn2+  Sn60  1  0.49741152  0.32941784  0.49215990  1
  Sn2+  Sn61  1  0.00124902  0.66795951  0.66161796  1
  Sn2+  Sn62  1  0.33990575  0.49537701  0.49706703  1
  Sn2+  Sn63  1  0.67283562  0.16505524  0.49362481  1
  Sn2+  Sn64  1  -0.00432183  0.33578165  0.32735014  1
  Bi3+  Bi65  1  0.83378060  0.32117106  0.83402377  1
  Bi3+  Bi66  1  0.00831572  0.83714257  0.49860454  1
  Bi3+  Bi67  1  0.66610508  0.33060716  0.33422584  1
  Bi3+  Bi68  1  0.66753746  0.66768928  0.66869656  1
  Bi3+  Bi69  1  0.17002576  0.33108435  0.83204719  1
  Bi3+  Bi70  1  0.33380464  0.83588718  0.16551645  1
  Bi3+  Bi71  1  0.83506841  0.16508414  0.33378235  1
  Bi3+  Bi72  1  0.16943165  0.00327274  0.83336050  1
  Bi3+  Bi73  1  0.00301318  0.00253622  0.66345252  1
  Bi3+  Bi74  1  0.16714265  0.33352545  0.49968927  1
  Bi3+  Bi75  1  0.83248251  0.66736799  0.49548586  1
  Bi3+  Bi76  1  0.66495506  0.49858202  0.84099869  1
  Bi3+  Bi77  1  0.82980541  0.33404482  0.50018773  1
  Bi3+  Bi78  1  0.66616367  0.00333259  0.33033422  1
  Bi3+  Bi79  1  0.49752336  0.66336190  0.50146736  1
  Bi3+  Bi80  1  0.00078389  0.83528335  0.83375992  1
  Bi3+  Bi81  1  0.16928780  0.83798440  0.00094245  1
  Bi3+  Bi82  1  0.00123970  0.50075750  0.49400929  1
  Bi3+  Bi83  1  0.49565956  0.50133842  0.66574566  1
  Bi3+  Bi84  1  0.65671535  0.33386925  0.66819854  1
  Bi3+  Bi85  1  0.33899188  0.66968837  0.33161477  1
  Te2-  Te86  1  0.17393552  0.15752397  0.16814581  1
  Te2-  Te87  1  0.16811660  0.17298240  0.50535301  1
  Te2-  Te88  1  0.16297399  0.16918908  0.83236579  1
  Te2-  Te89  1  0.18221618  0.49241849  0.16614413  1
  Te2-  Te90  1  0.16445965  0.49839461  0.50344211  1
  Te2-  Te91  1  0.16291810  0.49496486  0.82958960  1
  Te2-  Te92  1  0.17351001  0.85890760  0.16112319  1
  Te2-  Te93  1  0.17252133  0.83546960  0.50145798  1
  Te2-  Te94  1  0.16434190  0.83713231  0.83596488  1
  Te2-  Te95  1  0.50251621  0.15217754  0.17521902  1
  Te2-  Te96  1  0.49819686  0.17190503  0.48641896  1
  Te2-  Te97  1  0.49874335  0.16330744  0.83110020  1
  Te2-  Te98  1  0.48765969  0.50112721  0.15991569  1
  Te2-  Te99  1  0.50339960  0.49997504  0.50095842  1
  Te2-  Te100  1  0.50332697  0.50114376  0.83484633  1
  Te2-  Te101  1  0.49722377  0.84025069  0.16582843  1
  Te2-  Te102  1  0.48701871  0.82642702  0.51033176  1
  Te2-  Te103  1  0.49794127  0.83917135  0.82201081  1
  Te2-  Te104  1  0.82735365  0.16480615  0.16878203  1
  Te2-  Te105  1  0.83535229  0.17278408  0.49791367  1
  Te2-  Te106  1  0.83417597  0.15956092  0.83534845  1
  Te2-  Te107  1  0.83235789  0.48753570  0.16719658  1
  Te2-  Te108  1  0.83524166  0.50027889  0.49825755  1
  Te2-  Te109  1  0.83073217  0.48776179  0.83634969  1
  Te2-  Te110  1  0.83692028  0.84943164  0.17077341  1
  Te2-  Te111  1  0.84132391  0.83023686  0.49104192  1
  Te2-  Te112  1  0.83732418  0.85581006  0.83908662  1
  Te2-  Te113  1  0.16972621  0.00269232  -0.00640458  1
  Te2-  Te114  1  0.17386972  0.01541405  0.33736050  1
  Te2-  Te115  1  0.16416285  0.01232424  0.67165781  1
  Te2-  Te116  1  0.16994975  0.32887829  -0.00557251  1
  Te2-  Te117  1  0.16631423  0.32372784  0.33627772  1
  Te2-  Te118  1  0.17517170  0.32902341  0.66573338  1
  Te2-  Te119  1  0.16980147  0.67126247  -0.00014098  1
  Te2-  Te120  1  0.17244971  0.66481575  0.32855468  1
  Te2-  Te121  1  0.16510322  0.66210732  0.67839266  1
  Te2-  Te122  1  0.50802275  0.00293801  -0.00172506  1
  Te2-  Te123  1  0.50157593  0.00569893  0.34603444  1
  Te2-  Te124  1  0.49656191  0.00100000  0.65274900  1
  Te2-  Te125  1  0.51185850  0.32400044  0.01221592  1
  Te2-  Te126  1  0.50552618  0.32601347  0.31853246  1
  Te2-  Te127  1  0.49507285  0.34002880  0.66390832  1
  Te2-  Te128  1  0.50944563  0.67462129  -0.00257796  1
  Te2-  Te129  1  0.50403365  0.67103199  0.33837820  1
  Te2-  Te130  1  0.50449152  0.66520077  0.66759763  1
  Te2-  Te131  1  0.82232048  0.01676428  0.01202515  1
  Te2-  Te132  1  0.83191195  0.00047037  0.32657262  1
  Te2-  Te133  1  0.83682099  0.00429081  0.66377053  1
  Te2-  Te134  1  0.82889648  0.31734522  -0.00403324  1
  Te2-  Te135  1  0.82961608  0.33128975  0.33844846  1
  Te2-  Te136  1  0.82762836  0.32983095  0.66655866  1
  Te2-  Te137  1  0.82819872  0.66868071  0.00666623  1
  Te2-  Te138  1  0.83037870  0.67735025  0.33473114  1
  Te2-  Te139  1  0.83120180  0.66809827  0.66019365  1
  Te2-  Te140  1  0.00116604  0.16579033  0.00900476  1
  Te2-  Te141  1  -0.00321809  0.16613096  0.32872421  1
  Te2-  Te142  1  -0.00580089  0.16441216  0.66423216  1
  Te2-  Te143  1  0.00068460  0.49870804  0.01399425  1
  Te2-  Te144  1  0.00196767  0.50661601  0.32879373  1
  Te2-  Te145  1  0.00215456  0.50154126  0.66035280  1
  Te2-  Te146  1  0.00391868  0.83880422  -0.00342646  1
  Te2-  Te147  1  0.02339743  0.82930131  0.33823663  1
  Te2-  Te148  1  0.01130160  0.83599419  0.66496828  1
  Te2-  Te149  1  0.34288226  0.18103149  0.00088557  1
  Te2-  Te150  1  0.33491072  0.15975783  0.34339352  1
  Te2-  Te151  1  0.34790252  0.16393856  0.65532960  1
  Te2-  Te152  1  0.34428324  0.48440658  0.00162370  1
  Te2-  Te153  1  0.34506585  0.50398174  0.33165425  1
  Te2-  Te154  1  0.33209668  0.50992073  0.66363161  1
  Te2-  Te155  1  0.33546549  0.83433910  -0.00085512  1
  Te2-  Te156  1  0.32051709  0.83804699  0.33092212  1
  Te2-  Te157  1  0.32452167  0.83225661  0.66315731  1
  Te2-  Te158  1  0.65416555  0.16950684  0.00628208  1
  Te2-  Te159  1  0.67218513  0.16599060  0.32802810  1
  Te2-  Te160  1  0.65251555  0.17209087  0.66158901  1
  Te2-  Te161  1  0.65616598  0.49620984  0.00684933  1
  Te2-  Te162  1  0.65628414  0.49492383  0.31112131  1
  Te2-  Te163  1  0.66038982  0.50022037  0.67469593  1
  Te2-  Te164  1  0.66853991  0.82756886  -0.00661804  1
  Te2-  Te165  1  0.66537490  0.83882302  0.33559535  1
  Te2-  Te166  1  0.67122309  0.83014004  0.66878210  1
  Te2-  Te167  1  0.00297919  0.01151862  0.16930399  1
  Te2-  Te168  1  -0.00076529  -0.00176378  0.49840408  1
  Te2-  Te169  1  0.00484416  -0.00132186  0.82972087  1
  Te2-  Te170  1  0.00357265  0.32074190  0.16813453  1
  Te2-  Te171  1  -0.00066571  0.33778423  0.49693634  1
  Te2-  Te172  1  -0.00023478  0.33147538  0.83445406  1
  Te2-  Te173  1  -0.01179843  0.67311342  0.17229552  1
  Te2-  Te174  1  -0.00124779  0.66516250  0.49468000  1
  Te2-  Te175  1  -0.01489117  0.67005925  0.83192913  1
  Te2-  Te176  1  0.35185892  0.00094470  0.16597643  1
  Te2-  Te177  1  0.33413038  0.00228426  0.51327962  1
  Te2-  Te178  1  0.33614743  -0.00024100  0.82179837  1
  Te2-  Te179  1  0.33232246  0.32360776  0.17231797  1
  Te2-  Te180  1  0.32921244  0.33602625  0.51002999  1
  Te2-  Te181  1  0.33307423  0.33299227  0.81612076  1
  Te2-  Te182  1  0.33075436  0.67312092  0.16985124  1
  Te2-  Te183  1  0.33574338  0.66303342  0.49436435  1
  Te2-  Te184  1  0.33568138  0.66885340  0.83505520  1
  Te2-  Te185  1  0.65507542  0.00273165  0.16439748  1
  Te2-  Te186  1  0.66763389  0.00245433  0.49444187  1
  Te2-  Te187  1  0.65931100  -0.00154008  0.83469226  1
  Te2-  Te188  1  0.67041258  0.33039590  0.16921789  1
  Te2-  Te189  1  0.66627784  0.33856075  0.50107056  1
  Te2-  Te190  1  0.66555503  0.33577687  0.83096821  1
  Te2-  Te191  1  0.67899374  0.66733900  0.16762380  1
  Te2-  Te192  1  0.66639233  0.66446091  0.50101981  1
  Te2-  Te193  1  0.67844157  0.66088196  0.83115703  1
  Pb2+  Pb194  1  0.83229026  0.50596843  0.32944448  1
  Pb2+  Pb195  1  0.84195628  0.83545383  0.66995001  1
  Pb2+  Pb196  1  0.33591871  0.00650053  -0.00322731  1
  Pb2+  Pb197  1  0.33790385  0.33120219  0.34094883  1
  Pb2+  Pb198  1  0.33357625  0.49813102  0.83280294  1
  Pb2+  Pb199  1  0.17236248  0.49420563  0.33173094  1
  Pb2+  Pb200  1  0.50489853  0.66977437  0.16946750  1
  Pb2+  Pb201  1  0.33141734  0.16769322  0.83261279  1
  Pb2+  Pb202  1  0.00481616  0.33013101  0.66568533  1
  Pb2+  Pb203  1  0.00113780  0.67144527  0.00165619  1
  Pb2+  Pb204  1  0.16902875  0.67048454  0.50515000  1
  Pb2+  Pb205  1  0.00626169  0.84250795  0.16845069  1
  Pb2+  Pb206  1  0.66671735  0.83460023  0.16357920  1
  Pb2+  Pb207  1  0.65778773  0.83392227  0.50361501  1
  Pb2+  Pb208  1  0.17012064  0.49762439  0.00167316  1
  Pb2+  Pb209  1  0.66709204  0.16588673  0.83545611  1
  Pb2+  Pb210  1  -0.00277253  0.50171337  0.83804472  1
  Pb2+  Pb211  1  0.83019512  0.50133158  0.66940204  1
  Pb2+  Pb212  1  0.66670995  0.00115176  0.66946479  1
  Pb2+  Pb213  1  0.82805723  0.49325014  0.00226192  1
  Pb2+  Pb214  1  0.34069873  0.65960643  0.00401668  1
  Pb2+  Pb215  1  0.48976969  0.84041815  0.33832841  1
