# generated using pymatgen
data_In22Ag21Sn22Bi21(Te54Pb11)2
_symmetry_space_group_name_H-M   'P 1'
_cell_length_a   19.13473959
_cell_length_b   19.13475768
_cell_length_c   19.14373985
_cell_angle_alpha   89.99252547
_cell_angle_beta   90.00284999
_cell_angle_gamma   89.99425241
_symmetry_Int_Tables_number   1
_chemical_formula_structural   In22Ag21Sn22Bi21(Te54Pb11)2
_chemical_formula_sum   'In22 Ag21 Sn22 Bi21 Te108 Pb22'
_cell_volume   7009.26210693
_cell_formula_units_Z   1
loop_
 _symmetry_equiv_pos_site_id
 _symmetry_equiv_pos_as_xyz
  1  'x, y, z'
loop_
 _atom_type_symbol
 _atom_type_oxidation_number
  In3+  3.0
  Ag+  1.0
  Sn2+  2.0
  Bi3+  3.0
  Te2-  -2.0
  Pb2+  2.0
loop_
 _atom_site_type_symbol
 _atom_site_label
 _atom_site_symmetry_multiplicity
 _atom_site_fract_x
 _atom_site_fract_y
 _atom_site_fract_z
 _atom_site_occupancy
  In3+  In0  1  0.47924594  0.82892611  0.32980300  1
  In3+  In1  1  0.83266682  0.16040778  0.67501822  1
  In3+  In2  1  0.00324725  0.31802234  0.32584153  1
  In3+  In3  1  0.31388004  -0.02352484  0.66948387  1
  In3+  In4  1  0.51972275  0.32860253  0.15682494  1
  In3+  In5  1  0.16798827  0.82769123  0.65086873  1
  In3+  In6  1  0.00585265  0.66775291  0.00381702  1
  In3+  In7  1  0.15774496  0.19753752  -0.00234821  1
  In3+  In8  1  0.17028550  0.33504314  0.17691817  1
  In3+  In9  1  0.32493038  0.50217324  0.82870070  1
  In3+  In10  1  0.82379982  -0.00191320  0.81843260  1
  In3+  In11  1  -0.00024922  0.83607467  0.82338456  1
  In3+  In12  1  0.00752518  -0.01254063  0.31981990  1
  In3+  In13  1  0.83922871  0.83568947  0.32130514  1
  In3+  In14  1  0.16751705  0.51418033  0.34287235  1
  In3+  In15  1  0.66528654  0.82577281  0.48665804  1
  In3+  In16  1  0.66334287  0.66673097  0.33230765  1
  In3+  In17  1  0.83417872  0.82658892  0.65890092  1
  In3+  In18  1  0.83181998  0.65494763  0.18981584  1
  In3+  In19  1  0.01794033  0.49957325  0.17021218  1
  In3+  In20  1  0.66995074  0.82662267  0.83474943  1
  In3+  In21  1  0.67228154  0.51586901  0.49365737  1
  Ag+  Ag22  1  0.82826639  0.68758525  0.49770443  1
  Ag+  Ag23  1  -0.00005279  0.80553754  0.16699606  1
  Ag+  Ag24  1  0.18464441  0.85436190  0.30862821  1
  Ag+  Ag25  1  0.64318139  0.02631974  0.31783847  1
  Ag+  Ag26  1  0.14311003  0.35906162  0.83210988  1
  Ag+  Ag27  1  0.67477758  0.52150447  0.80139220  1
  Ag+  Ag28  1  0.47746670  0.19499840  0.33061550  1
  Ag+  Ag29  1  0.19470894  0.66930203  0.50140238  1
  Ag+  Ag30  1  0.13597662  -0.02879998  0.19054562  1
  Ag+  Ag31  1  0.69299261  0.16449620  0.85523199  1
  Ag+  Ag32  1  0.30447216  0.66478413  0.63640005  1
  Ag+  Ag33  1  0.50731992  0.83781790  -0.02494524  1
  Ag+  Ag34  1  0.02802307  0.14865776  0.16562090  1
  Ag+  Ag35  1  0.14513001  0.30067360  0.47095341  1
  Ag+  Ag36  1  0.68748853  0.16648337  0.18908037  1
  Ag+  Ag37  1  0.66646790  0.69373371  0.67329964  1
  Ag+  Ag38  1  0.14512836  0.50189846  -0.02225086  1
  Ag+  Ag39  1  0.46827866  0.14629274  0.69438938  1
  Ag+  Ag40  1  0.66968513  0.52156105  0.17240283  1
  Ag+  Ag41  1  0.30852288  0.66703089  0.34557327  1
  Ag+  Ag42  1  0.01456619  -0.01087580  0.64276065  1
  Sn2+  Sn43  1  0.00145948  0.82864501  0.49420131  1
  Sn2+  Sn44  1  0.66266678  0.00167696  0.66171415  1
  Sn2+  Sn45  1  0.33365814  0.17182464  0.82823533  1
  Sn2+  Sn46  1  0.00389412  0.33318613  0.00209731  1
  Sn2+  Sn47  1  0.50235479  0.49577842  0.67261650  1
  Sn2+  Sn48  1  0.00422757  -0.00978703  0.00046448  1
  Sn2+  Sn49  1  0.15835856  0.17166740  0.67563114  1
  Sn2+  Sn50  1  0.50734745  0.66310947  0.51266795  1
  Sn2+  Sn51  1  0.17247748  0.66880564  0.83377920  1
  Sn2+  Sn52  1  0.34319398  -0.00394214  0.33530022  1
  Sn2+  Sn53  1  0.83743150  0.50479882  0.33582857  1
  Sn2+  Sn54  1  0.82865852  0.50819360  0.66705676  1
  Sn2+  Sn55  1  0.33302829  0.82813913  0.49738650  1
  Sn2+  Sn56  1  0.32695622  -0.00056599  0.00145239  1
  Sn2+  Sn57  1  0.00495751  0.66912840  0.34003434  1
  Sn2+  Sn58  1  0.34140369  0.50415709  0.16445144  1
  Sn2+  Sn59  1  0.00739206  0.16265458  0.83954627  1
  Sn2+  Sn60  1  0.49370244  0.50909197  0.33509753  1
  Sn2+  Sn61  1  0.33507198  0.33914336  0.33507181  1
  Sn2+  Sn62  1  0.50404617  0.15547849  0.00974324  1
  Sn2+  Sn63  1  0.32777458  0.83520294  0.16255998  1
  Sn2+  Sn64  1  0.66669954  0.33914610  -0.00807737  1
  Bi3+  Bi65  1  0.66659376  0.16268517  0.50081882  1
  Bi3+  Bi66  1  0.83440165  0.33427929  0.16734225  1
  Bi3+  Bi67  1  0.83128111  0.83356551  0.00290289  1
  Bi3+  Bi68  1  0.00204530  0.32840008  0.66855403  1
  Bi3+  Bi69  1  0.83146487  0.00061969  0.50073159  1
  Bi3+  Bi70  1  0.50345698  0.50105577  0.00144820  1
  Bi3+  Bi71  1  0.33690883  0.16629788  0.16341106  1
  Bi3+  Bi72  1  0.33711650  0.50261697  0.49975280  1
  Bi3+  Bi73  1  0.83637164  0.16260885  0.33325357  1
  Bi3+  Bi74  1  0.50377379  0.00128160  0.49895030  1
  Bi3+  Bi75  1  0.33196814  0.66588448  0.00314287  1
  Bi3+  Bi76  1  0.16398058  -0.00335205  0.84235238  1
  Bi3+  Bi77  1  0.66559520  0.00219614  0.00162767  1
  Bi3+  Bi78  1  0.33153863  0.82912863  0.83619722  1
  Bi3+  Bi79  1  0.50456227  0.33426733  0.83065781  1
  Bi3+  Bi80  1  0.49690907  0.00046496  0.16787674  1
  Bi3+  Bi81  1  0.83942553  0.33182148  0.49991684  1
  Bi3+  Bi82  1  0.49917485  0.33196185  0.49727750  1
  Bi3+  Bi83  1  0.83157148  0.00033450  0.16943172  1
  Bi3+  Bi84  1  0.50055975  0.66003546  0.83257469  1
  Bi3+  Bi85  1  0.66538514  0.32881773  0.66486553  1
  Te2-  Te86  1  0.17156212  0.17934745  0.15349206  1
  Te2-  Te87  1  0.16938263  0.16098943  0.50306018  1
  Te2-  Te88  1  0.16846565  0.15871209  0.84507863  1
  Te2-  Te89  1  0.17070153  0.49103544  0.17086166  1
  Te2-  Te90  1  0.17188853  0.51440593  0.49649265  1
  Te2-  Te91  1  0.16869690  0.50635586  0.83115449  1
  Te2-  Te92  1  0.15627359  0.82754324  0.16841813  1
  Te2-  Te93  1  0.16343340  0.82031885  0.50024313  1
  Te2-  Te94  1  0.16498154  0.83394777  0.83436150  1
  Te2-  Te95  1  0.49574362  0.16887724  0.17898956  1
  Te2-  Te96  1  0.50397789  0.16666653  0.48284959  1
  Te2-  Te97  1  0.49183862  0.17004316  0.83744113  1
  Te2-  Te98  1  0.50430631  0.48917779  0.16624505  1
  Te2-  Te99  1  0.50289872  0.49540823  0.50066349  1
  Te2-  Te100  1  0.52590751  0.49710012  0.83744782  1
  Te2-  Te101  1  0.49946607  0.83549975  0.17830664  1
  Te2-  Te102  1  0.50799909  0.83578997  0.49306229  1
  Te2-  Te103  1  0.49794031  0.83049538  0.82825082  1
  Te2-  Te104  1  0.83526226  0.16848673  0.17127054  1
  Te2-  Te105  1  0.83485468  0.16569136  0.49914700  1
  Te2-  Te106  1  0.83948639  0.15798719  0.83352654  1
  Te2-  Te107  1  0.82003486  0.49815661  0.17514370  1
  Te2-  Te108  1  0.82748208  0.49251885  0.49832452  1
  Te2-  Te109  1  0.82107328  0.50155359  0.83380902  1
  Te2-  Te110  1  0.84225126  0.83419878  0.16700062  1
  Te2-  Te111  1  0.82908158  0.83828989  0.50723574  1
  Te2-  Te112  1  0.83510576  0.84215772  0.83954600  1
  Te2-  Te113  1  0.16837889  -0.00338944  0.00364294  1
  Te2-  Te114  1  0.16527387  -0.00257991  0.33263295  1
  Te2-  Te115  1  0.16010795  -0.00356851  0.67477074  1
  Te2-  Te116  1  0.16340713  0.34910803  -0.01496696  1
  Te2-  Te117  1  0.16250601  0.33763431  0.33201411  1
  Te2-  Te118  1  0.16318014  0.33125201  0.68111417  1
  Te2-  Te119  1  0.16581077  0.65315142  0.00211275  1
  Te2-  Te120  1  0.16135647  0.66664341  0.34452560  1
  Te2-  Te121  1  0.16085672  0.67498458  0.66257541  1
  Te2-  Te122  1  0.50093984  -0.01308204  0.00514247  1
  Te2-  Te123  1  0.50229437  -0.01266957  0.33373350  1
  Te2-  Te124  1  0.49924256  0.00656289  0.66029058  1
  Te2-  Te125  1  0.50018704  0.33262753  0.00090787  1
  Te2-  Te126  1  0.49860313  0.34109999  0.33459402  1
  Te2-  Te127  1  0.50191408  0.32697110  0.66143444  1
  Te2-  Te128  1  0.49896309  0.67052103  -0.00129723  1
  Te2-  Te129  1  0.51112901  0.67340556  0.33833829  1
  Te2-  Te130  1  0.51585125  0.66340681  0.67063826  1
  Te2-  Te131  1  0.83109592  -0.00371290  0.00596570  1
  Te2-  Te132  1  0.83840936  -0.00388840  0.33402844  1
  Te2-  Te133  1  0.83473403  -0.00105062  0.66516599  1
  Te2-  Te134  1  0.83451934  0.33313686  0.00286825  1
  Te2-  Te135  1  0.84146134  0.33202123  0.33488641  1
  Te2-  Te136  1  0.83602451  0.33201271  0.66144081  1
  Te2-  Te137  1  0.83506767  0.67238537  -0.00040310  1
  Te2-  Te138  1  0.83114772  0.66903587  0.34195935  1
  Te2-  Te139  1  0.81930948  0.67262643  0.66049433  1
  Te2-  Te140  1  0.00723877  0.16869382  0.01140919  1
  Te2-  Te141  1  0.00086221  0.16429824  0.32038073  1
  Te2-  Te142  1  -0.00540982  0.16414954  0.67120961  1
  Te2-  Te143  1  -0.00058882  0.50672086  0.00653472  1
  Te2-  Te144  1  0.00461822  0.50125034  0.32569658  1
  Te2-  Te145  1  -0.00518909  0.49844403  0.66862452  1
  Te2-  Te146  1  -0.00492532  0.82295511  0.01461993  1
  Te2-  Te147  1  -0.00712125  0.83377565  0.32506657  1
  Te2-  Te148  1  -0.00706391  0.84398472  0.67102089  1
  Te2-  Te149  1  0.33836556  0.16287059  0.00122470  1
  Te2-  Te150  1  0.33344987  0.16492976  0.32912954  1
  Te2-  Te151  1  0.32522102  0.16593173  0.67025748  1
  Te2-  Te152  1  0.34201747  0.50435883  -0.00221328  1
  Te2-  Te153  1  0.32803333  0.51244831  0.33510104  1
  Te2-  Te154  1  0.33682409  0.51622325  0.66463893  1
  Te2-  Te155  1  0.34076317  0.82863473  -0.00118049  1
  Te2-  Te156  1  0.32479263  0.82200181  0.33474736  1
  Te2-  Te157  1  0.32867048  0.82057104  0.66950428  1
  Te2-  Te158  1  0.66147981  0.16379216  -0.00016037  1
  Te2-  Te159  1  0.67393252  0.16768984  0.33758338  1
  Te2-  Te160  1  0.67456777  0.16568614  0.66239821  1
  Te2-  Te161  1  0.66334120  0.49826029  0.01840149  1
  Te2-  Te162  1  0.66428083  0.50965201  0.33084956  1
  Te2-  Te163  1  0.66997277  0.49144451  0.65604563  1
  Te2-  Te164  1  0.66182842  0.83702540  -0.00446108  1
  Te2-  Te165  1  0.68233666  0.82423619  0.33649848  1
  Te2-  Te166  1  0.67326481  0.84204449  0.67796541  1
  Te2-  Te167  1  -0.00524935  0.00516015  0.16710700  1
  Te2-  Te168  1  -0.00434754  -0.00335468  0.49782019  1
  Te2-  Te169  1  -0.00031685  -0.00429489  0.84096706  1
  Te2-  Te170  1  -0.00262535  0.34365912  0.16760871  1
  Te2-  Te171  1  0.00474544  0.33571099  0.50255247  1
  Te2-  Te172  1  -0.00255468  0.33138125  0.83347534  1
  Te2-  Te173  1  -0.01144100  0.65626631  0.16779943  1
  Te2-  Te174  1  -0.01997389  0.67174598  0.50059428  1
  Te2-  Te175  1  0.00261854  0.67420003  0.83690493  1
  Te2-  Te176  1  0.33580696  -0.00026130  0.17015973  1
  Te2-  Te177  1  0.33806188  -0.00650133  0.50529946  1
  Te2-  Te178  1  0.33139943  -0.00765168  0.82844894  1
  Te2-  Te179  1  0.32627200  0.33313927  0.17127396  1
  Te2-  Te180  1  0.33415442  0.34030841  0.49833231  1
  Te2-  Te181  1  0.34267218  0.34400131  0.83316417  1
  Te2-  Te182  1  0.33389759  0.66748633  0.16799214  1
  Te2-  Te183  1  0.34542370  0.66750367  0.49365800  1
  Te2-  Te184  1  0.33848458  0.66559798  0.83681193  1
  Te2-  Te185  1  0.66492526  0.01070788  0.17017025  1
  Te2-  Te186  1  0.66838159  -0.00394373  0.49225149  1
  Te2-  Te187  1  0.67071122  0.01186589  0.83582594  1
  Te2-  Te188  1  0.67118824  0.31683261  0.16348548  1
  Te2-  Te189  1  0.66957175  0.32895468  0.50047920  1
  Te2-  Te190  1  0.66416445  0.31496957  0.82893400  1
  Te2-  Te191  1  0.67496991  0.67005659  0.17249034  1
  Te2-  Te192  1  0.67698149  0.66932928  0.50235011  1
  Te2-  Te193  1  0.66388363  0.67028513  0.82571592  1
  Pb2+  Pb194  1  -0.00846311  0.50241745  0.83642357  1
  Pb2+  Pb195  1  0.82958497  0.33329237  0.83018552  1
  Pb2+  Pb196  1  0.66797755  0.33880227  0.33115326  1
  Pb2+  Pb197  1  0.16825083  0.16496882  0.32581846  1
  Pb2+  Pb198  1  0.50118941  0.66185235  0.16901150  1
  Pb2+  Pb199  1  0.33287162  0.33875653  0.66740018  1
  Pb2+  Pb200  1  0.00468875  0.16523885  0.49777812  1
  Pb2+  Pb201  1  0.16583553  0.49858868  0.66077373  1
  Pb2+  Pb202  1  0.16698870  0.82777821  0.00337126  1
  Pb2+  Pb203  1  0.50370876  0.00275499  0.83320692  1
  Pb2+  Pb204  1  0.83163958  0.50330477  0.00670052  1
  Pb2+  Pb205  1  0.66777276  0.66473762  -0.00218359  1
  Pb2+  Pb206  1  0.16592508  -0.00965806  0.50043152  1
  Pb2+  Pb207  1  0.33830915  0.16606070  0.50368194  1
  Pb2+  Pb208  1  0.83423980  0.67115004  0.83039406  1
  Pb2+  Pb209  1  0.50094828  0.83530558  0.66072482  1
  Pb2+  Pb210  1  0.33078308  0.33364500  0.00232102  1
  Pb2+  Pb211  1  0.66959489  0.84146975  0.16895737  1
  Pb2+  Pb212  1  0.83366549  0.16445447  0.00447878  1
  Pb2+  Pb213  1  -0.00744191  0.67257658  0.66464504  1
  Pb2+  Pb214  1  0.16396440  0.66269013  0.17360375  1
  Pb2+  Pb215  1  -0.00045786  0.50602689  0.49578525  1
