# generated using pymatgen
data_In22Ag21Sn22Bi21(Te54Pb11)2
_symmetry_space_group_name_H-M   'P 1'
_cell_length_a   19.21039262
_cell_length_b   19.21338864
_cell_length_c   19.18277459
_cell_angle_alpha   89.99891142
_cell_angle_beta   90.00086576
_cell_angle_gamma   89.99645145
_symmetry_Int_Tables_number   1
_chemical_formula_structural   In22Ag21Sn22Bi21(Te54Pb11)2
_chemical_formula_sum   'In22 Ag21 Sn22 Bi21 Te108 Pb22'
_cell_volume   7080.29953986
_cell_formula_units_Z   1
loop_
 _symmetry_equiv_pos_site_id
 _symmetry_equiv_pos_as_xyz
  1  'x, y, z'
loop_
 _atom_type_symbol
 _atom_type_oxidation_number
  In3+  3.0
  Ag+  1.0
  Sn2+  2.0
  Bi3+  3.0
  Te2-  -2.0
  Pb2+  2.0
loop_
 _atom_site_type_symbol
 _atom_site_label
 _atom_site_symmetry_multiplicity
 _atom_site_fract_x
 _atom_site_fract_y
 _atom_site_fract_z
 _atom_site_occupancy
  In3+  In0  1  0.01968071  0.16440632  0.85244682  1
  In3+  In1  1  0.50450992  0.68634093  0.49782552  1
  In3+  In2  1  0.00370388  0.15447258  0.16035461  1
  In3+  In3  1  0.67893058  0.66871759  0.32253991  1
  In3+  In4  1  0.64971291  0.49860891  0.48984090  1
  In3+  In5  1  0.66333494  0.84610208  0.14714158  1
  In3+  In6  1  0.49177189  -0.00764115  0.50331540  1
  In3+  In7  1  0.66229601  0.16614199  0.49996657  1
  In3+  In8  1  0.31684505  -0.00676643  0.66537595  1
  In3+  In9  1  0.16407606  -0.00173880  0.84981977  1
  In3+  In10  1  0.33761086  0.53282076  0.17540621  1
  In3+  In11  1  0.16361088  0.34612945  0.16325330  1
  In3+  In12  1  0.00916062  0.00376831  0.33064179  1
  In3+  In13  1  0.33644777  0.70192196  0.33813984  1
  In3+  In14  1  0.66113878  0.16007985  0.85358844  1
  In3+  In15  1  0.67071349  0.85179190  0.49950064  1
  In3+  In16  1  0.83378910  0.67896284  0.15605978  1
  In3+  In17  1  0.16799176  0.52767158  -0.00953946  1
  In3+  In18  1  0.66116216  -0.00997948  0.01712702  1
  In3+  In19  1  0.66432611  0.67850063  0.66325172  1
  In3+  In20  1  0.82749732  0.15008700  0.32825289  1
  In3+  In21  1  0.85782232  0.49010306  0.33144832  1
  Ag+  Ag22  1  0.63743267  0.36000110  0.00273563  1
  Ag+  Ag23  1  0.19493180  0.85760200  -0.01412628  1
  Ag+  Ag24  1  0.15350585  0.47078585  0.31875766  1
  Ag+  Ag25  1  -0.02289733  0.30486799  0.32453631  1
  Ag+  Ag26  1  0.30738951  0.82970259  0.13237578  1
  Ag+  Ag27  1  0.01919688  0.86071153  0.16127032  1
  Ag+  Ag28  1  0.50538642  0.14462226  0.68701280  1
  Ag+  Ag29  1  0.30606234  -0.00667275  0.02008071  1
  Ag+  Ag30  1  0.45867833  0.47081654  0.02581149  1
  Ag+  Ag31  1  0.14240822  0.14249708  0.66619326  1
  Ag+  Ag32  1  0.83693428  0.86909265  0.03396786  1
  Ag+  Ag33  1  0.19662477  0.63539681  0.86905891  1
  Ag+  Ag34  1  0.48117200  0.85266858  0.66102959  1
  Ag+  Ag35  1  0.36904083  -0.00264206  0.31124647  1
  Ag+  Ag36  1  0.30336832  0.86547207  0.49925756  1
  Ag+  Ag37  1  0.83765843  -0.02423111  0.13933332  1
  Ag+  Ag38  1  0.48466983  0.83140752  0.03172325  1
  Ag+  Ag39  1  0.50956066  0.11799504  0.02947136  1
  Ag+  Ag40  1  0.47743576  -0.00275459  0.13231056  1
  Ag+  Ag41  1  0.19461772  -0.02902800  0.49630982  1
  Ag+  Ag42  1  0.80534129  0.31719409  0.47289329  1
  Sn2+  Sn43  1  0.33029025  0.32012018  0.32871198  1
  Sn2+  Sn44  1  0.17272383  -0.00390207  0.18113771  1
  Sn2+  Sn45  1  0.00627309  0.67749047  0.33511263  1
  Sn2+  Sn46  1  0.82919294  0.65304998  0.49353359  1
  Sn2+  Sn47  1  0.49578221  0.31899800  0.16070138  1
  Sn2+  Sn48  1  0.66159782  0.66734917  -0.00448205  1
  Sn2+  Sn49  1  0.50229013  0.50028017  0.67798518  1
  Sn2+  Sn50  1  0.66392804  -0.00952941  0.32802870  1
  Sn2+  Sn51  1  0.33997025  0.83819585  0.83199963  1
  Sn2+  Sn52  1  0.83294124  0.83484007  0.33864407  1
  Sn2+  Sn53  1  0.82450604  0.17233932  0.00158513  1
  Sn2+  Sn54  1  -0.00592451  0.83429497  0.49060753  1
  Sn2+  Sn55  1  0.82771098  0.49920692  0.00135894  1
  Sn2+  Sn56  1  0.00041401  -0.01212957  0.00877387  1
  Sn2+  Sn57  1  0.66624618  0.00445500  0.66715650  1
  Sn2+  Sn58  1  0.67025861  0.32740002  0.67901699  1
  Sn2+  Sn59  1  0.49989073  0.16889479  0.32845522  1
  Sn2+  Sn60  1  0.18364466  0.16606224  -0.00490378  1
  Sn2+  Sn61  1  0.49423525  0.83478521  0.33083184  1
  Sn2+  Sn62  1  0.33788155  0.31275508  0.00542163  1
  Sn2+  Sn63  1  0.83609450  -0.00340207  0.83798290  1
  Sn2+  Sn64  1  0.82462008  0.17035074  0.66614190  1
  Bi3+  Bi65  1  0.00312305  0.49657839  0.16784225  1
  Bi3+  Bi66  1  0.33625913  0.17453569  0.50237986  1
  Bi3+  Bi67  1  0.50243877  0.33246286  0.49388647  1
  Bi3+  Bi68  1  0.32951641  0.15472505  0.16711026  1
  Bi3+  Bi69  1  0.49915220  0.67088398  0.83137387  1
  Bi3+  Bi70  1  0.16458908  0.83513324  0.33278177  1
  Bi3+  Bi71  1  0.49461872  0.50319120  0.32917125  1
  Bi3+  Bi72  1  0.16564658  0.33363824  0.49788674  1
  Bi3+  Bi73  1  0.00326918  0.49897063  0.49841985  1
  Bi3+  Bi74  1  0.33761695  0.33241359  0.66754071  1
  Bi3+  Bi75  1  0.34075167  0.16467350  0.83019187  1
  Bi3+  Bi76  1  0.00394754  0.33227404  0.65945338  1
  Bi3+  Bi77  1  0.17101253  0.66431615  0.49855744  1
  Bi3+  Bi78  1  0.33766511  0.67092418  0.66118251  1
  Bi3+  Bi79  1  0.33286259  0.50464543  0.49209910  1
  Bi3+  Bi80  1  0.83208790  0.32795045  0.83252686  1
  Bi3+  Bi81  1  0.83379150  0.33463589  0.16287504  1
  Bi3+  Bi82  1  0.83681582  0.83496602  0.66773299  1
  Bi3+  Bi83  1  0.66585714  0.49725116  0.83511110  1
  Bi3+  Bi84  1  0.83352037  0.00849915  0.50454640  1
  Bi3+  Bi85  1  0.83208770  0.66440637  0.83430497  1
  Te2-  Te86  1  0.16453334  0.15556334  0.16633516  1
  Te2-  Te87  1  0.17379240  0.17409409  0.51195358  1
  Te2-  Te88  1  0.17388817  0.15546163  0.81820646  1
  Te2-  Te89  1  0.16919426  0.49791799  0.17412535  1
  Te2-  Te90  1  0.16973170  0.50214599  0.48641162  1
  Te2-  Te91  1  0.16668913  0.49715302  0.83726647  1
  Te2-  Te92  1  0.16500445  0.83805781  0.17204357  1
  Te2-  Te93  1  0.15684892  0.82528252  0.49707519  1
  Te2-  Te94  1  0.16622799  0.84613188  0.84132438  1
  Te2-  Te95  1  0.49426587  0.14954249  0.17048053  1
  Te2-  Te96  1  0.50243955  0.17366917  0.49275986  1
  Te2-  Te97  1  0.50639942  0.16854683  0.83231562  1
  Te2-  Te98  1  0.49073749  0.50644431  0.16409690  1
  Te2-  Te99  1  0.49434645  0.49631759  0.49776588  1
  Te2-  Te100  1  0.50275758  0.50788834  0.84562126  1
  Te2-  Te101  1  0.51542997  0.85162750  0.17522681  1
  Te2-  Te102  1  0.51313989  0.83544499  0.51049508  1
  Te2-  Te103  1  0.50087237  0.83023051  0.80880099  1
  Te2-  Te104  1  0.84206969  0.17522784  0.17150154  1
  Te2-  Te105  1  0.82696665  0.17370490  0.49548560  1
  Te2-  Te106  1  0.81640079  0.16857845  0.83055971  1
  Te2-  Te107  1  0.83697092  0.49561462  0.17039530  1
  Te2-  Te108  1  0.84083341  0.49147108  0.48669720  1
  Te2-  Te109  1  0.83079715  0.49778889  0.83205493  1
  Te2-  Te110  1  0.81973101  0.82902281  0.17761719  1
  Te2-  Te111  1  0.83073104  0.83151483  0.50515672  1
  Te2-  Te112  1  0.83367267  0.82891421  0.82970606  1
  Te2-  Te113  1  0.15898869  0.00062951  0.00315640  1
  Te2-  Te114  1  0.16082540  -0.00475269  0.34954093  1
  Te2-  Te115  1  0.16817171  0.00026453  0.64460213  1
  Te2-  Te116  1  0.17170766  0.32390791  0.00651880  1
  Te2-  Te117  1  0.17208861  0.32696119  0.33321930  1
  Te2-  Te118  1  0.17107287  0.33636232  0.66466429  1
  Te2-  Te119  1  0.16799840  0.68056177  0.00381608  1
  Te2-  Te120  1  0.17786235  0.67323390  0.33616022  1
  Te2-  Te121  1  0.17171788  0.66795830  0.66403881  1
  Te2-  Te122  1  0.51492248  -0.02317224  -0.00855775  1
  Te2-  Te123  1  0.50964635  -0.00064754  0.35134216  1
  Te2-  Te124  1  0.50853523  0.00090406  0.65461542  1
  Te2-  Te125  1  0.49492836  0.33146383  0.00457958  1
  Te2-  Te126  1  0.49975926  0.33750937  0.32746649  1
  Te2-  Te127  1  0.49906856  0.33920688  0.65951322  1
  Te2-  Te128  1  0.50419498  0.68694871  -0.00419132  1
  Te2-  Te129  1  0.49261396  0.66469146  0.33743238  1
  Te2-  Te130  1  0.50230288  0.66230423  0.66393065  1
  Te2-  Te131  1  0.83368777  0.01468543  -0.00681427  1
  Te2-  Te132  1  0.82675496  0.00044147  0.34330337  1
  Te2-  Te133  1  0.83348204  0.00123739  0.66665534  1
  Te2-  Te134  1  0.83783811  0.33276976  -0.00149539  1
  Te2-  Te135  1  0.83369292  0.33719942  0.32895478  1
  Te2-  Te136  1  0.83885477  0.33249015  0.66950074  1
  Te2-  Te137  1  0.83034844  0.65985808  -0.00151923  1
  Te2-  Te138  1  0.82996333  0.66177290  0.33638736  1
  Te2-  Te139  1  0.82713537  0.66745478  0.66690922  1
  Te2-  Te140  1  0.00447132  0.16198768  0.00375605  1
  Te2-  Te141  1  -0.00406241  0.16067537  0.32942518  1
  Te2-  Te142  1  -0.00246894  0.17288263  0.66529568  1
  Te2-  Te143  1  0.01182238  0.49737956  0.00582015  1
  Te2-  Te144  1  0.01027787  0.50729654  0.33310935  1
  Te2-  Te145  1  -0.00110746  0.49692193  0.66380979  1
  Te2-  Te146  1  -0.01622658  0.83655235  0.01675043  1
  Te2-  Te147  1  -0.00071791  0.83632621  0.32015015  1
  Te2-  Te148  1  -0.00219541  0.83690703  0.66661170  1
  Te2-  Te149  1  0.33885849  0.14571565  -0.00551431  1
  Te2-  Te150  1  0.33634863  0.14908072  0.33351827  1
  Te2-  Te151  1  0.35169821  0.17269074  0.66708389  1
  Te2-  Te152  1  0.31937489  0.50463055  0.01185778  1
  Te2-  Te153  1  0.33526640  0.49408433  0.32664351  1
  Te2-  Te154  1  0.33560560  0.50145569  0.66311341  1
  Te2-  Te155  1  0.34012664  0.84899215  -0.00976376  1
  Te2-  Te156  1  0.33459374  0.85206931  0.35131376  1
  Te2-  Te157  1  0.33506218  0.83596932  0.65087385  1
  Te2-  Te158  1  0.65471098  0.14933345  0.00375144  1
  Te2-  Te159  1  0.67058472  0.16824322  0.33773829  1
  Te2-  Te160  1  0.65537500  0.17331461  0.65493046  1
  Te2-  Te161  1  0.66689216  0.50594769  -0.00161845  1
  Te2-  Te162  1  0.65910875  0.50853735  0.33389790  1
  Te2-  Te163  1  0.66261086  0.49210904  0.67408318  1
  Te2-  Te164  1  0.68934467  0.83711446  -0.00095717  1
  Te2-  Te165  1  0.66357605  0.81839498  0.35023223  1
  Te2-  Te166  1  0.67457022  0.83189410  0.65763332  1
  Te2-  Te167  1  -0.01664136  0.00298077  0.17596359  1
  Te2-  Te168  1  -0.00887016  -0.00026955  0.48904822  1
  Te2-  Te169  1  0.00397816  0.01099767  0.83352262  1
  Te2-  Te170  1  0.00480313  0.33438408  0.18070810  1
  Te2-  Te171  1  0.00490458  0.33753351  0.49506208  1
  Te2-  Te172  1  -0.00243625  0.32383857  0.83123071  1
  Te2-  Te173  1  -0.01309029  0.65825087  0.17143018  1
  Te2-  Te174  1  0.00184579  0.66327388  0.49827394  1
  Te2-  Te175  1  -0.00685190  0.66733999  0.83384004  1
  Te2-  Te176  1  0.33291068  -0.00663223  0.16793357  1
  Te2-  Te177  1  0.33980760  0.01203537  0.50987176  1
  Te2-  Te178  1  0.32899653  0.00448660  0.81824956  1
  Te2-  Te179  1  0.32995722  0.31620094  0.16549062  1
  Te2-  Te180  1  0.33529217  0.33863353  0.49972905  1
  Te2-  Te181  1  0.33513647  0.33179079  0.83308745  1
  Te2-  Te182  1  0.33613626  0.68748953  0.17077408  1
  Te2-  Te183  1  0.33826963  0.66575641  0.49901965  1
  Te2-  Te184  1  0.33452647  0.67056674  0.82565781  1
  Te2-  Te185  1  0.68841587  -0.00180068  0.16874660  1
  Te2-  Te186  1  0.67288557  0.00810650  0.49870930  1
  Te2-  Te187  1  0.67039183  0.00605877  0.82593327  1
  Te2-  Te188  1  0.66746258  0.33383028  0.15292980  1
  Te2-  Te189  1  0.66502369  0.34464090  0.50199310  1
  Te2-  Te190  1  0.67143815  0.33319802  0.85126380  1
  Te2-  Te191  1  0.67271116  0.67009322  0.16871175  1
  Te2-  Te192  1  0.66354754  0.64926447  0.50778771  1
  Te2-  Te193  1  0.66705962  0.66332618  0.82647941  1
  Pb2+  Pb194  1  0.66498399  0.83560485  0.83020443  1
  Pb2+  Pb195  1  0.49906524  -0.00113677  0.82878357  1
  Pb2+  Pb196  1  -0.00076275  0.67156227  0.66721922  1
  Pb2+  Pb197  1  0.16818973  0.50263706  0.65680793  1
  Pb2+  Pb198  1  0.15963671  0.66829582  0.16984293  1
  Pb2+  Pb199  1  -0.00185049  0.49918530  0.83682803  1
  Pb2+  Pb200  1  0.00266305  0.00463384  0.66247421  1
  Pb2+  Pb201  1  -0.00192026  0.67130485  0.00323810  1
  Pb2+  Pb202  1  -0.00008636  0.83894916  0.84807963  1
  Pb2+  Pb203  1  0.82753621  0.49816116  0.65417468  1
  Pb2+  Pb204  1  0.66881927  0.16746356  0.16955752  1
  Pb2+  Pb205  1  0.66736229  0.33682006  0.32721464  1
  Pb2+  Pb206  1  0.50502596  0.68081354  0.16649091  1
  Pb2+  Pb207  1  0.33885145  0.67647135  -0.00097950  1
  Pb2+  Pb208  1  0.00445689  0.32883247  0.00951191  1
  Pb2+  Pb209  1  0.50512556  0.33548393  0.83099777  1
  Pb2+  Pb210  1  0.16974799  0.16211053  0.33763908  1
  Pb2+  Pb211  1  0.17105750  0.83428375  0.67669556  1
  Pb2+  Pb212  1  0.00332506  0.16919246  0.49853618  1
  Pb2+  Pb213  1  0.16687674  0.32345034  0.83452727  1
  Pb2+  Pb214  1  0.66535964  0.50147207  0.16451454  1
  Pb2+  Pb215  1  0.33693959  0.50193676  0.83965552  1
