# generated using pymatgen
data_In22Ag21Sn22Bi21(Te54Pb11)2
_symmetry_space_group_name_H-M   'P 1'
_cell_length_a   19.18107081
_cell_length_b   19.15053453
_cell_length_c   19.19634945
_cell_angle_alpha   89.99811518
_cell_angle_beta   90.01144127
_cell_angle_gamma   89.99892452
_symmetry_Int_Tables_number   1
_chemical_formula_structural   In22Ag21Sn22Bi21(Te54Pb11)2
_chemical_formula_sum   'In22 Ag21 Sn22 Bi21 Te108 Pb22'
_cell_volume   7051.35187474
_cell_formula_units_Z   1
loop_
 _symmetry_equiv_pos_site_id
 _symmetry_equiv_pos_as_xyz
  1  'x, y, z'
loop_
 _atom_type_symbol
 _atom_type_oxidation_number
  In3+  3.0
  Ag+  1.0
  Sn2+  2.0
  Bi3+  3.0
  Te2-  -2.0
  Pb2+  2.0
loop_
 _atom_site_type_symbol
 _atom_site_label
 _atom_site_symmetry_multiplicity
 _atom_site_fract_x
 _atom_site_fract_y
 _atom_site_fract_z
 _atom_site_occupancy
  In3+  In0  1  0.85356916  0.66622603  0.81859178  1
  In3+  In1  1  0.17459616  0.69352002  0.83227406  1
  In3+  In2  1  0.32129039  0.15989340  0.82777528  1
  In3+  In3  1  0.84888543  0.00628161  0.84072457  1
  In3+  In4  1  0.16584754  0.47562780  0.34204134  1
  In3+  In5  1  0.83437941  0.00258717  0.48219214  1
  In3+  In6  1  0.83289165  0.14424127  0.65457688  1
  In3+  In7  1  0.50065575  0.31646327  0.16913498  1
  In3+  In8  1  0.18131187  0.83733592  -0.00090587  1
  In3+  In9  1  0.34994302  0.33430551  0.00113147  1
  In3+  In10  1  0.50808302  0.32178736  0.83881384  1
  In3+  In11  1  0.33317151  0.69352877  0.33653814  1
  In3+  In12  1  0.33649159  0.84611309  0.17221813  1
  In3+  In13  1  0.65178280  0.00773850  0.00357388  1
  In3+  In14  1  0.48517985  0.16416376  0.65278295  1
  In3+  In15  1  0.17597349  0.15947453  0.34242212  1
  In3+  In16  1  0.50331822  0.00393473  0.15794432  1
  In3+  In17  1  0.83487391  0.15387501  0.30188463  1
  In3+  In18  1  0.15246513  0.00185151  0.16701328  1
  In3+  In19  1  0.65440952  0.51253214  0.83294528  1
  In3+  In20  1  0.47846394  0.33232974  0.51648781  1
  In3+  In21  1  0.83942215  0.81640108  0.34095433  1
  Ag+  Ag22  1  0.49487778  0.18558743  0.00071932  1
  Ag+  Ag23  1  0.00189202  0.30371689  0.31551376  1
  Ag+  Ag24  1  0.85467779  0.13714777  0.00267955  1
  Ag+  Ag25  1  0.19269180  0.15461412  0.63561808  1
  Ag+  Ag26  1  0.02506636  -0.00062421  0.69236056  1
  Ag+  Ag27  1  0.20367609  0.00210954  0.52583151  1
  Ag+  Ag28  1  -0.00031070  0.30304345  0.02231121  1
  Ag+  Ag29  1  0.68641547  0.16632794  0.13938694  1
  Ag+  Ag30  1  0.48526319  0.80571485  0.64115832  1
  Ag+  Ag31  1  0.02083737  0.17479800  0.14054079  1
  Ag+  Ag32  1  0.36120214  0.16873756  0.47135631  1
  Ag+  Ag33  1  0.31467024  -0.00002403  0.34273380  1
  Ag+  Ag34  1  0.16840541  0.00205650  0.81893035  1
  Ag+  Ag35  1  0.03028699  0.65429192  0.33219302  1
  Ag+  Ag36  1  0.85413910  -0.00122247  0.18395037  1
  Ag+  Ag37  1  0.30224669  0.88246569  0.53464686  1
  Ag+  Ag38  1  0.31530978  -0.00686211  0.63606515  1
  Ag+  Ag39  1  0.48045723  0.82831633  -0.02926498  1
  Ag+  Ag40  1  0.35553557  0.52445066  0.49634034  1
  Ag+  Ag41  1  0.46976616  0.69449091  0.50533296  1
  Ag+  Ag42  1  0.85725325  0.64850425  0.51365925  1
  Sn2+  Sn43  1  0.34023695  0.84117457  0.82748262  1
  Sn2+  Sn44  1  0.32808233  0.49339616  0.82484286  1
  Sn2+  Sn45  1  0.50320074  0.16615799  0.32085309  1
  Sn2+  Sn46  1  0.68097534  0.32950077  0.33549837  1
  Sn2+  Sn47  1  0.65932338  0.51414725  0.50281829  1
  Sn2+  Sn48  1  0.65824781  0.83721671  0.83557254  1
  Sn2+  Sn49  1  0.00124480  0.50150001  0.84019591  1
  Sn2+  Sn50  1  0.49015210  0.00812050  0.83625379  1
  Sn2+  Sn51  1  -0.00446039  -0.00236693  0.00747544  1
  Sn2+  Sn52  1  0.83288803  0.33791303  0.50112359  1
  Sn2+  Sn53  1  0.16647801  0.67467998  0.49652609  1
  Sn2+  Sn54  1  -0.00337087  0.67118089  0.00914311  1
  Sn2+  Sn55  1  0.32912745  0.16646081  0.16485664  1
  Sn2+  Sn56  1  0.48700540  0.50079240  0.66514205  1
  Sn2+  Sn57  1  0.65961014  -0.00235013  0.67616869  1
  Sn2+  Sn58  1  0.33452548  0.50196201  0.18900945  1
  Sn2+  Sn59  1  0.17172096  0.49362326  0.00076325  1
  Sn2+  Sn60  1  0.83397948  0.32558373  0.84181493  1
  Sn2+  Sn61  1  0.00162642  0.00118814  0.33851168  1
  Sn2+  Sn62  1  0.17649773  0.16872178  -0.00003792  1
  Sn2+  Sn63  1  0.66628168  0.17278924  0.50004683  1
  Sn2+  Sn64  1  0.50216626  -0.00213855  0.50129538  1
  Bi3+  Bi65  1  0.66790998  0.83820782  0.50057366  1
  Bi3+  Bi66  1  0.82679578  0.83617017  0.66671903  1
  Bi3+  Bi67  1  0.33484888  0.00482229  0.00212629  1
  Bi3+  Bi68  1  0.66315877  0.00492928  0.33325396  1
  Bi3+  Bi69  1  0.16676625  0.83947219  0.33339264  1
  Bi3+  Bi70  1  0.00227752  0.83790015  0.49924424  1
  Bi3+  Bi71  1  -0.00612299  0.16425071  0.50091432  1
  Bi3+  Bi72  1  0.83651263  0.49986357  0.33395799  1
  Bi3+  Bi73  1  -0.00172664  0.17008557  0.83332227  1
  Bi3+  Bi74  1  0.83397158  0.67698259  0.16706519  1
  Bi3+  Bi75  1  -0.00155003  0.32462310  0.66674552  1
  Bi3+  Bi76  1  0.66365111  0.16272321  0.83540928  1
  Bi3+  Bi77  1  0.66416981  0.66902943  -0.00068856  1
  Bi3+  Bi78  1  -0.00260152  0.50297419  0.50011471  1
  Bi3+  Bi79  1  0.16670877  0.32715589  0.83607191  1
  Bi3+  Bi80  1  0.50204099  0.83785435  0.33664882  1
  Bi3+  Bi81  1  0.83147872  0.49977519  0.66785752  1
  Bi3+  Bi82  1  0.83426106  0.32543315  0.16850825  1
  Bi3+  Bi83  1  0.83278643  0.83234975  -0.00185007  1
  Bi3+  Bi84  1  0.83787921  0.50176962  -0.00321197  1
  Bi3+  Bi85  1  0.66024824  0.66747901  0.33534174  1
  Te2-  Te86  1  0.16531969  0.15904048  0.16858499  1
  Te2-  Te87  1  0.15394620  0.14822021  0.49419767  1
  Te2-  Te88  1  0.16437648  0.16097496  0.84043836  1
  Te2-  Te89  1  0.16839753  0.49789497  0.17260904  1
  Te2-  Te90  1  0.15735230  0.50075742  0.49555547  1
  Te2-  Te91  1  0.17020618  0.49137907  0.83227198  1
  Te2-  Te92  1  0.17353765  0.83769570  0.16782940  1
  Te2-  Te93  1  0.16457128  0.84669696  0.49629243  1
  Te2-  Te94  1  0.16872085  0.84686021  0.83918656  1
  Te2-  Te95  1  0.49483941  0.16460073  0.15669879  1
  Te2-  Te96  1  0.50728244  0.17623642  0.49805604  1
  Te2-  Te97  1  0.49959287  0.17068525  0.84693989  1
  Te2-  Te98  1  0.49727404  0.50087899  0.16776938  1
  Te2-  Te99  1  0.49690461  0.48211308  0.50211777  1
  Te2-  Te100  1  0.49731691  0.49326784  0.82903468  1
  Te2-  Te101  1  0.49349321  0.83510830  0.17588107  1
  Te2-  Te102  1  0.50373337  0.83813570  0.49867416  1
  Te2-  Te103  1  0.49807595  0.83606423  0.82577503  1
  Te2-  Te104  1  0.83197469  0.16178801  0.15256554  1
  Te2-  Te105  1  0.83220404  0.16852249  0.50256196  1
  Te2-  Te106  1  0.83114498  0.16367609  0.85309478  1
  Te2-  Te107  1  0.83299511  0.50245156  0.16748166  1
  Te2-  Te108  1  0.83127784  0.50454291  0.50028582  1
  Te2-  Te109  1  0.83210688  0.50243672  0.83201821  1
  Te2-  Te110  1  0.83337277  0.84457372  0.16299629  1
  Te2-  Te111  1  0.83237276  0.84237798  0.50359079  1
  Te2-  Te112  1  0.82776620  0.82740482  0.83074856  1
  Te2-  Te113  1  0.17088282  -0.00591847  0.01328498  1
  Te2-  Te114  1  0.16717746  0.00161237  0.32338123  1
  Te2-  Te115  1  0.16902075  0.01077284  0.67054924  1
  Te2-  Te116  1  0.14802132  0.33439912  -0.00385462  1
  Te2-  Te117  1  0.15358538  0.32163397  0.33251360  1
  Te2-  Te118  1  0.16143428  0.31542390  0.67164330  1
  Te2-  Te119  1  0.16422631  0.67348851  -0.00859896  1
  Te2-  Te120  1  0.17517735  0.67695346  0.33465148  1
  Te2-  Te121  1  0.16605471  0.67097473  0.67328846  1
  Te2-  Te122  1  0.49750129  -0.02171581  0.00370346  1
  Te2-  Te123  1  0.50580203  0.00173229  0.32912072  1
  Te2-  Te124  1  0.50221116  0.01640068  0.66905910  1
  Te2-  Te125  1  0.50339075  0.33617962  0.00330575  1
  Te2-  Te126  1  0.50457763  0.32638603  0.32193574  1
  Te2-  Te127  1  0.49839436  0.32252410  0.67401193  1
  Te2-  Te128  1  0.50190476  0.67708979  0.00020474  1
  Te2-  Te129  1  0.49553144  0.66853541  0.34958284  1
  Te2-  Te130  1  0.49708743  0.65964035  0.65352560  1
  Te2-  Te131  1  0.82379716  -0.00707420  -0.00923376  1
  Te2-  Te132  1  0.82699085  -0.00104345  0.32755483  1
  Te2-  Te133  1  0.82674149  -0.00476044  0.68546770  1
  Te2-  Te134  1  0.84895184  0.34157884  0.00509703  1
  Te2-  Te135  1  0.84621218  0.34020778  0.33053348  1
  Te2-  Te136  1  0.83659621  0.33883901  0.67179866  1
  Te2-  Te137  1  0.82967364  0.66648226  0.00449600  1
  Te2-  Te138  1  0.82444573  0.66389359  0.32774202  1
  Te2-  Te139  1  0.83432912  0.66814072  0.65931302  1
  Te2-  Te140  1  0.00197338  0.15805735  -0.00531152  1
  Te2-  Te141  1  -0.01648267  0.15993054  0.33978434  1
  Te2-  Te142  1  -0.01347929  0.15710111  0.67154846  1
  Te2-  Te143  1  -0.00027577  0.51078237  0.00173946  1
  Te2-  Te144  1  0.00230586  0.50867495  0.33923570  1
  Te2-  Te145  1  -0.00478330  0.49973708  0.66587260  1
  Te2-  Te146  1  -0.00328856  0.83131697  -0.00085622  1
  Te2-  Te147  1  0.00160704  0.83596364  0.33637265  1
  Te2-  Te148  1  -0.00489273  0.84776762  0.66320163  1
  Te2-  Te149  1  0.34021836  0.17233580  0.00137981  1
  Te2-  Te150  1  0.32962818  0.15483685  0.32620108  1
  Te2-  Te151  1  0.33427342  0.15444476  0.67721179  1
  Te2-  Te152  1  0.32972941  0.49256839  -0.00120239  1
  Te2-  Te153  1  0.32161220  0.48845261  0.34886474  1
  Te2-  Te154  1  0.32989097  0.49681590  0.65245509  1
  Te2-  Te155  1  0.33401525  0.83410321  0.00156084  1
  Te2-  Te156  1  0.33527336  0.84819969  0.33240260  1
  Te2-  Te157  1  0.34607541  0.84529551  0.67050810  1
  Te2-  Te158  1  0.64742515  0.16021652  -0.00392346  1
  Te2-  Te159  1  0.67640252  0.16536146  0.33778087  1
  Te2-  Te160  1  0.68013557  0.16494516  0.67440371  1
  Te2-  Te161  1  0.67145291  0.50236757  -0.00482980  1
  Te2-  Te162  1  0.66829491  0.50155622  0.33521008  1
  Te2-  Te163  1  0.66809277  0.49870103  0.67225017  1
  Te2-  Te164  1  0.67097929  0.83061717  0.00045562  1
  Te2-  Te165  1  0.66720015  0.83676953  0.33490068  1
  Te2-  Te166  1  0.66339732  0.83483924  0.66483956  1
  Te2-  Te167  1  -0.00254308  0.01354700  0.16628967  1
  Te2-  Te168  1  -0.01194265  0.00016378  0.49973019  1
  Te2-  Te169  1  0.00356449  0.00516775  0.83779642  1
  Te2-  Te170  1  -0.00337726  0.32066056  0.16971789  1
  Te2-  Te171  1  -0.00196976  0.33410803  0.50614120  1
  Te2-  Te172  1  0.00099654  0.33283156  0.82904747  1
  Te2-  Te173  1  -0.00504430  0.67027226  0.18079620  1
  Te2-  Te174  1  -0.00047869  0.67258978  0.48933221  1
  Te2-  Te175  1  0.00830900  0.66613901  0.83256107  1
  Te2-  Te176  1  0.34232733  -0.00179334  0.16202117  1
  Te2-  Te177  1  0.34712343  0.01760304  0.48812525  1
  Te2-  Te178  1  0.32262485  0.00542598  0.84318779  1
  Te2-  Te179  1  0.33958686  0.33576759  0.16011749  1
  Te2-  Te180  1  0.33118373  0.31121230  0.50078947  1
  Te2-  Te181  1  0.33099754  0.32780819  0.84334903  1
  Te2-  Te182  1  0.33075977  0.66003387  0.17536771  1
  Te2-  Te183  1  0.32534898  0.66849568  0.49031773  1
  Te2-  Te184  1  0.32687405  0.66412507  0.83180424  1
  Te2-  Te185  1  0.65824041  0.01474971  0.16492034  1
  Te2-  Te186  1  0.67640061  0.00144407  0.49995418  1
  Te2-  Te187  1  0.65804299  0.00114548  0.84489929  1
  Te2-  Te188  1  0.66909282  0.31970835  0.16714091  1
  Te2-  Te189  1  0.67219002  0.34031022  0.49478119  1
  Te2-  Te190  1  0.66375561  0.32972854  0.83433429  1
  Te2-  Te191  1  0.66893389  0.66709825  0.16916397  1
  Te2-  Te192  1  0.66804137  0.67415380  0.49490146  1
  Te2-  Te193  1  0.66084811  0.66604188  0.83597401  1
  Pb2+  Pb194  1  0.66474584  0.48921302  0.16906872  1
  Pb2+  Pb195  1  0.32941856  0.32582169  0.67201156  1
  Pb2+  Pb196  1  0.66485533  0.66754760  0.66293666  1
  Pb2+  Pb197  1  0.16170163  0.66537299  0.16367595  1
  Pb2+  Pb198  1  0.33049606  0.66343550  0.00246610  1
  Pb2+  Pb199  1  0.00306205  0.67551603  0.65785120  1
  Pb2+  Pb200  1  0.33411582  0.32274936  0.33312713  1
  Pb2+  Pb201  1  0.16406267  0.49359658  0.66518457  1
  Pb2+  Pb202  1  0.49389924  0.66843370  0.82657750  1
  Pb2+  Pb203  1  0.16471639  0.32191156  0.50149416  1
  Pb2+  Pb204  1  0.33074173  0.67573849  0.65856900  1
  Pb2+  Pb205  1  0.00108467  0.49225703  0.17164001  1
  Pb2+  Pb206  1  0.49765618  0.66903348  0.17716827  1
  Pb2+  Pb207  1  0.17250101  0.84782437  0.66735151  1
  Pb2+  Pb208  1  0.00023568  0.84269624  0.16862646  1
  Pb2+  Pb209  1  -0.00332814  0.83549099  0.82977377  1
  Pb2+  Pb210  1  0.49245847  0.49702701  0.33485530  1
  Pb2+  Pb211  1  0.49916351  0.50776275  -0.00217243  1
  Pb2+  Pb212  1  0.68005308  0.32657894  0.00035808  1
  Pb2+  Pb213  1  0.16992188  0.32911493  0.16160360  1
  Pb2+  Pb214  1  0.66685712  0.32984237  0.66065143  1
  Pb2+  Pb215  1  0.66466873  0.84501880  0.16517732  1
