# generated using pymatgen
data_In22Ag21Sn22Bi21(Te54Pb11)2
_symmetry_space_group_name_H-M   'P 1'
_cell_length_a   19.18342549
_cell_length_b   19.19772215
_cell_length_c   19.18861288
_cell_angle_alpha   89.99054028
_cell_angle_beta   89.98807206
_cell_angle_gamma   89.98071361
_symmetry_Int_Tables_number   1
_chemical_formula_structural   In22Ag21Sn22Bi21(Te54Pb11)2
_chemical_formula_sum   'In22 Ag21 Sn22 Bi21 Te108 Pb22'
_cell_volume   7066.74471508
_cell_formula_units_Z   1
loop_
 _symmetry_equiv_pos_site_id
 _symmetry_equiv_pos_as_xyz
  1  'x, y, z'
loop_
 _atom_type_symbol
 _atom_type_oxidation_number
  In3+  3.0
  Ag+  1.0
  Sn2+  2.0
  Bi3+  3.0
  Te2-  -2.0
  Pb2+  2.0
loop_
 _atom_site_type_symbol
 _atom_site_label
 _atom_site_symmetry_multiplicity
 _atom_site_fract_x
 _atom_site_fract_y
 _atom_site_fract_z
 _atom_site_occupancy
  In3+  In0  1  0.51837334  -0.00192131  0.16074209  1
  In3+  In1  1  0.16971462  0.47574326  0.65337672  1
  In3+  In2  1  0.67934932  0.14177829  0.81163524  1
  In3+  In3  1  0.32736120  0.51038384  0.83705489  1
  In3+  In4  1  0.16175156  0.82358155  0.00459014  1
  In3+  In5  1  0.82796523  0.00443526  0.15266964  1
  In3+  In6  1  0.33354092  0.69321162  0.65012772  1
  In3+  In7  1  0.66851149  0.34226788  0.36148737  1
  In3+  In8  1  0.33528765  0.16288992  0.82524591  1
  In3+  In9  1  0.66465333  -0.00341049  0.65572204  1
  In3+  In10  1  0.67814967  0.65169039  -0.01474516  1
  In3+  In11  1  0.34458710  0.16862565  0.51401617  1
  In3+  In12  1  0.82666583  0.34637259  0.83949035  1
  In3+  In13  1  0.35878785  0.66080157  0.00151395  1
  In3+  In14  1  0.82769308  0.34065772  0.14337391  1
  In3+  In15  1  0.33236898  0.01597567  -0.01334548  1
  In3+  In16  1  0.50260759  0.34845805  0.15934517  1
  In3+  In17  1  0.32277962  -0.00116897  0.64924109  1
  In3+  In18  1  0.66628124  0.82158722  0.15391641  1
  In3+  In19  1  0.50378709  0.17968336  0.32834584  1
  In3+  In20  1  0.66241194  -0.01067306  0.34925639  1
  In3+  In21  1  0.49327168  0.84632234  0.34204259  1
  Ag+  Ag22  1  0.33583066  0.47355007  0.53118303  1
  Ag+  Ag23  1  0.69547996  0.35216253  0.66913877  1
  Ag+  Ag24  1  0.36627060  0.33327679  0.35906572  1
  Ag+  Ag25  1  0.69897331  0.63549126  0.63991052  1
  Ag+  Ag26  1  0.80960239  0.63916471  0.16989591  1
  Ag+  Ag27  1  0.80860864  0.15522734  -0.02537692  1
  Ag+  Ag28  1  0.19013595  0.69633574  0.13457595  1
  Ag+  Ag29  1  0.83218657  0.64965865  0.81016596  1
  Ag+  Ag30  1  0.50101779  0.02459493  0.52482785  1
  Ag+  Ag31  1  -0.02361073  0.49183885  0.52654570  1
  Ag+  Ag32  1  0.80617070  0.80135942  0.70621333  1
  Ag+  Ag33  1  0.34920805  0.85342558  0.47200486  1
  Ag+  Ag34  1  0.20586169  0.36395836  0.19290886  1
  Ag+  Ag35  1  0.85539133  0.00055083  0.80291706  1
  Ag+  Ag36  1  0.81023328  0.53395294  -0.01836991  1
  Ag+  Ag37  1  0.50185390  0.17618156  0.69162153  1
  Ag+  Ag38  1  0.68354887  0.00598167  0.00140053  1
  Ag+  Ag39  1  0.52537237  0.52132445  -0.00014693  1
  Ag+  Ag40  1  0.68909238  0.49879699  0.53122232  1
  Ag+  Ag41  1  -0.02012498  -0.00049339  -0.01931778  1
  Ag+  Ag42  1  0.14210735  0.14631847  0.63372912  1
  Sn2+  Sn43  1  0.50236690  -0.00087828  0.83042541  1
  Sn2+  Sn44  1  0.50253331  0.33091994  0.83063827  1
  Sn2+  Sn45  1  0.82957501  0.50021010  0.33564009  1
  Sn2+  Sn46  1  0.66409686  0.17042141  0.50222541  1
  Sn2+  Sn47  1  0.00347470  0.82127925  0.50137658  1
  Sn2+  Sn48  1  0.33980738  0.01626174  0.33316515  1
  Sn2+  Sn49  1  -0.00035193  0.66259926  0.32637360  1
  Sn2+  Sn50  1  0.83209315  -0.00431714  0.50308968  1
  Sn2+  Sn51  1  0.51121847  0.66035768  0.82500713  1
  Sn2+  Sn52  1  0.32995013  0.16021849  0.17140938  1
  Sn2+  Sn53  1  0.50755392  0.83910035  0.65575077  1
  Sn2+  Sn54  1  0.66886605  0.66490417  0.34045907  1
  Sn2+  Sn55  1  0.33528841  0.84071149  0.16526305  1
  Sn2+  Sn56  1  0.66264923  0.32102678  -0.01291830  1
  Sn2+  Sn57  1  0.66357113  0.82492405  0.50189809  1
  Sn2+  Sn58  1  0.16189061  0.00893899  0.16686946  1
  Sn2+  Sn59  1  0.16231309  0.83501720  0.66053581  1
  Sn2+  Sn60  1  0.82756188  0.16418190  0.66683437  1
  Sn2+  Sn61  1  0.50651778  0.16909904  0.00209601  1
  Sn2+  Sn62  1  0.16743110  0.33116822  0.84205663  1
  Sn2+  Sn63  1  0.82674401  0.17076142  0.32999994  1
  Sn2+  Sn64  1  0.49492002  0.50306503  0.34093071  1
  Bi3+  Bi65  1  0.33519035  0.32576429  0.67267327  1
  Bi3+  Bi66  1  0.16631254  0.16430649  0.00082769  1
  Bi3+  Bi67  1  0.16964674  0.49789123  0.33468615  1
  Bi3+  Bi68  1  0.33100331  0.49898199  0.16493018  1
  Bi3+  Bi69  1  0.66103941  0.49692929  0.83580061  1
  Bi3+  Bi70  1  0.33356470  0.82897391  0.83815144  1
  Bi3+  Bi71  1  0.82593661  0.83513399  0.33426889  1
  Bi3+  Bi72  1  0.66603279  0.16850238  0.16881153  1
  Bi3+  Bi73  1  0.49848253  0.66433023  0.50241486  1
  Bi3+  Bi74  1  -0.01132179  0.67072739  0.00352177  1
  Bi3+  Bi75  1  -0.00415927  0.83198579  0.16826936  1
  Bi3+  Bi76  1  0.17267135  0.16688163  0.32936863  1
  Bi3+  Bi77  1  0.00473901  0.33302695  0.66779719  1
  Bi3+  Bi78  1  0.16822130  0.66805275  0.50114339  1
  Bi3+  Bi79  1  0.00640073  0.66973349  0.66503814  1
  Bi3+  Bi80  1  -0.00049436  0.32535469  -0.00023906  1
  Bi3+  Bi81  1  -0.00427939  0.16314789  0.16700532  1
  Bi3+  Bi82  1  0.66339426  0.83582867  0.83515644  1
  Bi3+  Bi83  1  0.33488608  0.33599460  -0.00140471  1
  Bi3+  Bi84  1  0.83131654  0.84297886  0.00244638  1
  Bi3+  Bi85  1  -0.00224718  0.50295705  0.16578326  1
  Te2-  Te86  1  0.16066227  0.17145093  0.16688356  1
  Te2-  Te87  1  0.17264975  0.16581023  0.49273227  1
  Te2-  Te88  1  0.17788761  0.16798988  0.83704839  1
  Te2-  Te89  1  0.16251899  0.50245021  0.17231951  1
  Te2-  Te90  1  0.18771634  0.50429617  0.50209906  1
  Te2-  Te91  1  0.17271244  0.49862962  0.83443293  1
  Te2-  Te92  1  0.16076469  0.83611942  0.16437586  1
  Te2-  Te93  1  0.17056831  0.83232676  0.50162790  1
  Te2-  Te94  1  0.16933532  0.83357892  0.83342537  1
  Te2-  Te95  1  0.50164107  0.15514323  0.17541333  1
  Te2-  Te96  1  0.49788177  0.16561428  0.48329801  1
  Te2-  Te97  1  0.49070360  0.16587025  0.83966294  1
  Te2-  Te98  1  0.49582377  0.50092601  0.15256109  1
  Te2-  Te99  1  0.48100992  0.50291206  0.50030870  1
  Te2-  Te100  1  0.50012812  0.50182475  0.84649664  1
  Te2-  Te101  1  0.50723524  0.84066928  0.16846990  1
  Te2-  Te102  1  0.49453684  0.82850401  0.49576278  1
  Te2-  Te103  1  0.49937412  0.82758634  0.83001812  1
  Te2-  Te104  1  0.83307735  0.16329866  0.17121362  1
  Te2-  Te105  1  0.82564660  0.16414164  0.50019663  1
  Te2-  Te106  1  0.82703332  0.15026919  0.82805591  1
  Te2-  Te107  1  0.83442534  0.49327750  0.17029205  1
  Te2-  Te108  1  0.83250123  0.50272871  0.49395997  1
  Te2-  Te109  1  0.82650972  0.50158972  0.83804685  1
  Te2-  Te110  1  0.82987496  0.84473212  0.16996554  1
  Te2-  Te111  1  0.83054493  0.83664556  0.49522299  1
  Te2-  Te112  1  0.82496721  0.85312659  0.84104275  1
  Te2-  Te113  1  0.18001127  0.00086287  0.00653217  1
  Te2-  Te114  1  0.17121421  0.00190359  0.33199651  1
  Te2-  Te115  1  0.17090597  0.00638481  0.66660858  1
  Te2-  Te116  1  0.16402805  0.32825323  0.00367603  1
  Te2-  Te117  1  0.16144917  0.33252098  0.32892134  1
  Te2-  Te118  1  0.16933790  0.32185044  0.67171640  1
  Te2-  Te119  1  0.14936961  0.66866512  -0.00264585  1
  Te2-  Te120  1  0.16795333  0.66213408  0.33825475  1
  Te2-  Te121  1  0.17237603  0.67089586  0.66629630  1
  Te2-  Te122  1  0.48230721  0.00252360  0.00818526  1
  Te2-  Te123  1  0.50695333  -0.00496694  0.32551381  1
  Te2-  Te124  1  0.51189319  -0.00093020  0.66994493  1
  Te2-  Te125  1  0.49705102  0.33198812  0.00054086  1
  Te2-  Te126  1  0.50898620  0.33473772  0.32494152  1
  Te2-  Te127  1  0.49415369  0.32440015  0.67070743  1
  Te2-  Te128  1  0.51225888  0.66783059  -0.00187376  1
  Te2-  Te129  1  0.50169297  0.66636602  0.33709890  1
  Te2-  Te130  1  0.48825639  0.66620629  0.66579500  1
  Te2-  Te131  1  0.83480217  0.00731035  0.00248613  1
  Te2-  Te132  1  0.81781913  -0.00006082  0.33827523  1
  Te2-  Te133  1  0.82001239  0.00361077  0.66098286  1
  Te2-  Te134  1  0.83551333  0.31311008  -0.00666837  1
  Te2-  Te135  1  0.82090277  0.33240029  0.33353636  1
  Te2-  Te136  1  0.84136001  0.33185642  0.67505678  1
  Te2-  Te137  1  0.82860304  0.67541968  0.01715259  1
  Te2-  Te138  1  0.82826050  0.67105426  0.31981970  1
  Te2-  Te139  1  0.84155531  0.66755295  0.66197198  1
  Te2-  Te140  1  0.00461693  0.15770610  0.00497493  1
  Te2-  Te141  1  0.00007792  0.16655496  0.33232927  1
  Te2-  Te142  1  0.00075872  0.16970370  0.66558612  1
  Te2-  Te143  1  -0.01121123  0.49644260  0.00463698  1
  Te2-  Te144  1  0.00224851  0.50277655  0.32774580  1
  Te2-  Te145  1  0.01139504  0.50138271  0.66899111  1
  Te2-  Te146  1  -0.00179533  0.84273727  0.00531823  1
  Te2-  Te147  1  -0.00552780  0.82992173  0.33366667  1
  Te2-  Te148  1  -0.00212440  0.83078374  0.66211466  1
  Te2-  Te149  1  0.33006551  0.17170487  0.00289120  1
  Te2-  Te150  1  0.33558378  0.18140275  0.33058015  1
  Te2-  Te151  1  0.34964649  0.15879526  0.66784729  1
  Te2-  Te152  1  0.32902557  0.50148239  -0.00144072  1
  Te2-  Te153  1  0.33399072  0.48271864  0.32466157  1
  Te2-  Te154  1  0.32563793  0.49052909  0.67974569  1
  Te2-  Te155  1  0.32641591  0.81951220  -0.00058541  1
  Te2-  Te156  1  0.33912364  0.83260612  0.32706512  1
  Te2-  Te157  1  0.33385344  0.84565077  0.67570754  1
  Te2-  Te158  1  0.66485918  0.16184565  0.00595268  1
  Te2-  Te159  1  0.66101969  0.17606527  0.33341611  1
  Te2-  Te160  1  0.65280528  0.16013455  0.66709824  1
  Te2-  Te161  1  0.67129037  0.49328361  -0.00149105  1
  Te2-  Te162  1  0.66128615  0.49428315  0.33476736  1
  Te2-  Te163  1  0.66152120  0.49914633  0.67500751  1
  Te2-  Te164  1  0.66726413  0.84818321  0.00313978  1
  Te2-  Te165  1  0.66361565  0.83593355  0.33591660  1
  Te2-  Te166  1  0.66930547  0.83986686  0.67056255  1
  Te2-  Te167  1  -0.00461580  -0.00218275  0.16853223  1
  Te2-  Te168  1  0.00070123  -0.00311130  0.49943937  1
  Te2-  Te169  1  0.00025705  0.00034920  0.83564350  1
  Te2-  Te170  1  -0.00983651  0.33042269  0.16006189  1
  Te2-  Te171  1  -0.00021110  0.34456765  0.50602562  1
  Te2-  Te172  1  -0.00347009  0.33329174  0.83430719  1
  Te2-  Te173  1  0.00036175  0.66974129  0.16393082  1
  Te2-  Te174  1  0.00645199  0.65668638  0.50239528  1
  Te2-  Te175  1  -0.01643011  0.66751100  0.83417426  1
  Te2-  Te176  1  0.32961392  -0.00226337  0.17472289  1
  Te2-  Te177  1  0.35113187  -0.00191663  0.50030160  1
  Te2-  Te178  1  0.33715708  -0.00477929  0.83447367  1
  Te2-  Te179  1  0.34504772  0.33295390  0.15826413  1
  Te2-  Te180  1  0.33470571  0.32558142  0.50463453  1
  Te2-  Te181  1  0.33498532  0.32943776  0.83639821  1
  Te2-  Te182  1  0.32969533  0.66370544  0.16057453  1
  Te2-  Te183  1  0.33342713  0.67953861  0.50107211  1
  Te2-  Te184  1  0.33670783  0.66562221  0.84135347  1
  Te2-  Te185  1  0.66932305  0.00602597  0.15623736  1
  Te2-  Te186  1  0.65133133  -0.00180732  0.50039853  1
  Te2-  Te187  1  0.65873118  -0.00001076  0.85121389  1
  Te2-  Te188  1  0.66517702  0.32901362  0.15667959  1
  Te2-  Te189  1  0.66692330  0.34515955  0.51628787  1
  Te2-  Te190  1  0.67318879  0.33348717  0.82185288  1
  Te2-  Te191  1  0.66579759  0.67124785  0.17014044  1
  Te2-  Te192  1  0.66070973  0.65781124  0.50129445  1
  Te2-  Te193  1  0.68132249  0.67172157  0.83522671  1
  Pb2+  Pb194  1  0.33475313  0.65563237  0.33490825  1
  Pb2+  Pb195  1  -0.00625324  0.83225148  0.83385119  1
  Pb2+  Pb196  1  0.83579256  0.67024139  0.48983505  1
  Pb2+  Pb197  1  0.17378033  0.00019743  0.49785932  1
  Pb2+  Pb198  1  -0.00697787  0.33628960  0.32748267  1
  Pb2+  Pb199  1  0.16722966  0.00140323  0.83905189  1
  Pb2+  Pb200  1  0.49811255  0.83766238  -0.00212294  1
  Pb2+  Pb201  1  -0.00424923  0.16640662  0.49981951  1
  Pb2+  Pb202  1  0.50240321  0.33533634  0.50197771  1
  Pb2+  Pb203  1  0.49683160  0.67012151  0.17024306  1
  Pb2+  Pb204  1  0.49324557  0.49567065  0.67095994  1
  Pb2+  Pb205  1  0.83328794  0.33215320  0.50249758  1
  Pb2+  Pb206  1  0.16572974  0.33622155  0.49533074  1
  Pb2+  Pb207  1  0.00105280  0.50129597  0.84002401  1
  Pb2+  Pb208  1  0.83774928  0.49946906  0.66767079  1
  Pb2+  Pb209  1  -0.00681707  -0.00152879  0.66567060  1
  Pb2+  Pb210  1  0.00096756  0.16685849  0.83787906  1
  Pb2+  Pb211  1  0.16830898  0.82971932  0.33217053  1
  Pb2+  Pb212  1  0.16145770  0.49700713  0.00572712  1
  Pb2+  Pb213  1  0.66479628  0.49981754  0.16944028  1
  Pb2+  Pb214  1  0.16395546  0.66767112  0.83147021  1
  Pb2+  Pb215  1  -0.01036593  -0.00165310  0.33185880  1
