# generated using pymatgen
data_In22Ag21Sn22Bi21(Te54Pb11)2
_symmetry_space_group_name_H-M   'P 1'
_cell_length_a   19.16400809
_cell_length_b   19.13203884
_cell_length_c   19.14764164
_cell_angle_alpha   90.00869693
_cell_angle_beta   90.00150103
_cell_angle_gamma   89.99786227
_symmetry_Int_Tables_number   1
_chemical_formula_structural   In22Ag21Sn22Bi21(Te54Pb11)2
_chemical_formula_sum   'In22 Ag21 Sn22 Bi21 Te108 Pb22'
_cell_volume   7020.41660373
_cell_formula_units_Z   1
loop_
 _symmetry_equiv_pos_site_id
 _symmetry_equiv_pos_as_xyz
  1  'x, y, z'
loop_
 _atom_type_symbol
 _atom_type_oxidation_number
  In3+  3.0
  Ag+  1.0
  Sn2+  2.0
  Bi3+  3.0
  Te2-  -2.0
  Pb2+  2.0
loop_
 _atom_site_type_symbol
 _atom_site_label
 _atom_site_symmetry_multiplicity
 _atom_site_fract_x
 _atom_site_fract_y
 _atom_site_fract_z
 _atom_site_occupancy
  In3+  In0  1  0.16694894  -0.00841321  0.18275146  1
  In3+  In1  1  0.00157658  -0.00025766  0.34942969  1
  In3+  In2  1  0.65173459  0.34818277  0.00212265  1
  In3+  In3  1  0.67410030  0.84758139  0.50332789  1
  In3+  In4  1  0.83688524  0.83627490  0.35469015  1
  In3+  In5  1  0.16770953  0.33080045  0.49554968  1
  In3+  In6  1  0.68008565  -0.00110888  0.66779798  1
  In3+  In7  1  0.66548003  0.48236230  0.84737451  1
  In3+  In8  1  0.67911613  0.50523185  0.50133692  1
  In3+  In9  1  0.52428356  0.84040517  0.00263714  1
  In3+  In10  1  -0.00044249  0.01446501  0.65844756  1
  In3+  In11  1  0.33251886  0.34550147  0.66561368  1
  In3+  In12  1  0.14797333  0.66012824  0.82284070  1
  In3+  In13  1  0.33488209  0.67796489  0.00888791  1
  In3+  In14  1  0.50933590  0.33239005  0.48986452  1
  In3+  In15  1  0.02677074  0.16486049  0.16500826  1
  In3+  In16  1  0.01781361  0.49779882  0.51355856  1
  In3+  In17  1  0.65527936  0.00048867  0.32459540  1
  In3+  In18  1  0.32113412  0.83450646  0.49953834  1
  In3+  In19  1  0.32731770  0.66369474  0.67767901  1
  In3+  In20  1  0.67928617  0.66061652  0.66585673  1
  In3+  In21  1  0.33393198  0.50480581  0.83627501  1
  Ag+  Ag22  1  0.66673281  0.48320560  0.14424322  1
  Ag+  Ag23  1  0.31554580  0.36442684  0.02348220  1
  Ag+  Ag24  1  0.36195416  0.01793171  0.35562388  1
  Ag+  Ag25  1  0.33639967  0.13659196  0.16758622  1
  Ag+  Ag26  1  0.52268368  0.02857762  0.16527397  1
  Ag+  Ag27  1  0.14091159  0.63562627  0.13079617  1
  Ag+  Ag28  1  0.47010496  0.18644678  0.34348792  1
  Ag+  Ag29  1  -0.02756884  0.49105314  0.85467624  1
  Ag+  Ag30  1  0.19630785  0.01829834  0.51966177  1
  Ag+  Ag31  1  0.35486888  -0.00369121  0.02475163  1
  Ag+  Ag32  1  0.64412841  0.66993400  0.02322444  1
  Ag+  Ag33  1  0.83246100  0.02136950  0.49930480  1
  Ag+  Ag34  1  -0.00191049  0.01332341  0.02245439  1
  Ag+  Ag35  1  0.82095706  0.85990999  0.01467382  1
  Ag+  Ag36  1  0.81067570  0.66100716  0.47166782  1
  Ag+  Ag37  1  0.30687433  0.48305518  0.19563235  1
  Ag+  Ag38  1  0.86288557  0.00087998  0.85722200  1
  Ag+  Ag39  1  -0.02158019  0.65868026  0.64237920  1
  Ag+  Ag40  1  -0.02070066  0.35766714  0.33833688  1
  Ag+  Ag41  1  0.68969017  0.36072419  0.66024132  1
  Ag+  Ag42  1  0.16253680  0.48303889  0.67785561  1
  Sn2+  Sn43  1  0.16398070  0.49839833  0.33284841  1
  Sn2+  Sn44  1  0.67640185  0.32798853  0.33960919  1
  Sn2+  Sn45  1  0.17564027  0.15428714  -0.00056930  1
  Sn2+  Sn46  1  0.15992782  -0.00301573  0.83289101  1
  Sn2+  Sn47  1  -0.00138677  0.82323690  0.83134976  1
  Sn2+  Sn48  1  0.32902800  0.50661424  0.50038553  1
  Sn2+  Sn49  1  0.50151106  0.83882022  0.66292325  1
  Sn2+  Sn50  1  0.66703672  0.16884812  0.49859125  1
  Sn2+  Sn51  1  0.84146999  0.83780819  0.67482058  1
  Sn2+  Sn52  1  0.16226744  0.33979412  0.83314033  1
  Sn2+  Sn53  1  0.83524486  0.33090928  0.16497786  1
  Sn2+  Sn54  1  0.49769489  0.16692494  0.65930554  1
  Sn2+  Sn55  1  0.67176903  0.66388180  0.33228514  1
  Sn2+  Sn56  1  0.49366860  0.49763494  0.66226421  1
  Sn2+  Sn57  1  0.33366707  0.83401498  0.84073771  1
  Sn2+  Sn58  1  0.83492668  0.50562757  0.33306985  1
  Sn2+  Sn59  1  0.00340251  0.66369422  0.33867474  1
  Sn2+  Sn60  1  0.83451922  0.16135970  0.33003308  1
  Sn2+  Sn61  1  0.83211762  0.66944525  0.15572114  1
  Sn2+  Sn62  1  0.16701666  0.67246227  0.50088341  1
  Sn2+  Sn63  1  0.49071253  0.00182178  0.83960916  1
  Sn2+  Sn64  1  0.50340852  0.66002138  0.50777155  1
  Bi3+  Bi65  1  0.33128778  0.83132951  0.16562277  1
  Bi3+  Bi66  1  0.16098881  0.83653781  -0.00285732  1
  Bi3+  Bi67  1  0.66862906  0.83164189  0.82692200  1
  Bi3+  Bi68  1  0.49882295  0.33609973  0.16293409  1
  Bi3+  Bi69  1  0.33259360  0.16631097  0.83776103  1
  Bi3+  Bi70  1  0.17086521  0.33161778  0.16942817  1
  Bi3+  Bi71  1  0.16712634  0.16283495  0.33184405  1
  Bi3+  Bi72  1  0.33439665  0.67339896  0.33151774  1
  Bi3+  Bi73  1  0.49614639  0.33428436  0.82789898  1
  Bi3+  Bi74  1  0.00183827  0.66939782  -0.00035822  1
  Bi3+  Bi75  1  0.83428039  0.67431099  0.83543222  1
  Bi3+  Bi76  1  0.83097005  0.49766316  0.00281760  1
  Bi3+  Bi77  1  0.49580774  0.16431841  0.00274579  1
  Bi3+  Bi78  1  0.50366571  0.66902335  0.82928255  1
  Bi3+  Bi79  1  0.49649322  0.66708047  0.16847925  1
  Bi3+  Bi80  1  0.66674154  0.83000674  0.16955975  1
  Bi3+  Bi81  1  0.66543143  0.16362846  0.83041257  1
  Bi3+  Bi82  1  0.83117380  0.16732271  0.00102072  1
  Bi3+  Bi83  1  0.16461845  0.82980020  0.66611450  1
  Bi3+  Bi84  1  0.16460364  0.82934881  0.33270834  1
  Bi3+  Bi85  1  0.50127697  0.83490151  0.33093660  1
  Te2-  Te86  1  0.18276744  0.16674573  0.16663970  1
  Te2-  Te87  1  0.16587413  0.16037355  0.49570424  1
  Te2-  Te88  1  0.16811942  0.17043429  0.83342648  1
  Te2-  Te89  1  0.16441607  0.49537019  0.16658010  1
  Te2-  Te90  1  0.16895131  0.50151051  0.49710327  1
  Te2-  Te91  1  0.17911941  0.50349171  0.82368250  1
  Te2-  Te92  1  0.16744093  0.83108937  0.16681753  1
  Te2-  Te93  1  0.16508059  0.83922057  0.49812231  1
  Te2-  Te94  1  0.16852360  0.82530496  0.83048198  1
  Te2-  Te95  1  0.48698241  0.17195085  0.16463911  1
  Te2-  Te96  1  0.50166036  0.17074293  0.48847573  1
  Te2-  Te97  1  0.49972667  0.16771285  0.83453278  1
  Te2-  Te98  1  0.51475795  0.50276863  0.16618199  1
  Te2-  Te99  1  0.49434255  0.48927056  0.50258451  1
  Te2-  Te100  1  0.50312923  0.50134295  0.82954591  1
  Te2-  Te101  1  0.50003933  0.83009049  0.16469373  1
  Te2-  Te102  1  0.51914204  0.83198825  0.49418590  1
  Te2-  Te103  1  0.50233656  0.83323081  0.83787395  1
  Te2-  Te104  1  0.82727916  0.16951413  0.16374473  1
  Te2-  Te105  1  0.83162542  0.17213496  0.49631289  1
  Te2-  Te106  1  0.83010486  0.15146914  0.83572473  1
  Te2-  Te107  1  0.81944522  0.49910365  0.16514989  1
  Te2-  Te108  1  0.83210700  0.51165305  0.49642626  1
  Te2-  Te109  1  0.82550825  0.50102515  0.83534679  1
  Te2-  Te110  1  0.82871846  0.83369479  0.15884138  1
  Te2-  Te111  1  0.82612036  0.81015277  0.50320676  1
  Te2-  Te112  1  0.82979715  0.84003164  0.83576942  1
  Te2-  Te113  1  0.14582996  -0.00415425  -0.01035508  1
  Te2-  Te114  1  0.15835645  -0.00604065  0.33605642  1
  Te2-  Te115  1  0.15686929  -0.00714610  0.65985879  1
  Te2-  Te116  1  0.17450167  0.32844062  0.00312682  1
  Te2-  Te117  1  0.16689090  0.32858210  0.33654367  1
  Te2-  Te118  1  0.17430506  0.33637009  0.65710722  1
  Te2-  Te119  1  0.16832733  0.67164989  -0.00814698  1
  Te2-  Te120  1  0.17227517  0.66896044  0.33353738  1
  Te2-  Te121  1  0.17370499  0.66866966  0.66921345  1
  Te2-  Te122  1  0.50365941  -0.00131957  0.01064649  1
  Te2-  Te123  1  0.50164329  -0.00361325  0.31799818  1
  Te2-  Te124  1  0.50012689  -0.00344009  0.66561522  1
  Te2-  Te125  1  0.49363662  0.33013790  -0.00716484  1
  Te2-  Te126  1  0.50662599  0.32915318  0.33424684  1
  Te2-  Te127  1  0.48871350  0.33050526  0.66637709  1
  Te2-  Te128  1  0.49891180  0.67442043  -0.00425260  1
  Te2-  Te129  1  0.50054076  0.67144186  0.33527835  1
  Te2-  Te130  1  0.49256217  0.66922278  0.66766290  1
  Te2-  Te131  1  0.84427390  0.00530575  0.00259911  1
  Te2-  Te132  1  0.84200493  -0.00986454  0.34705540  1
  Te2-  Te133  1  0.83290431  -0.00598808  0.65173484  1
  Te2-  Te134  1  0.83255407  0.33212020  -0.00099623  1
  Te2-  Te135  1  0.83432268  0.33250571  0.32874620  1
  Te2-  Te136  1  0.83540325  0.33551566  0.66610458  1
  Te2-  Te137  1  0.83954889  0.65978733  -0.00492053  1
  Te2-  Te138  1  0.83179820  0.67403906  0.32535731  1
  Te2-  Te139  1  0.83290726  0.66893203  0.67478145  1
  Te2-  Te140  1  -0.00156932  0.16239670  0.00697825  1
  Te2-  Te141  1  0.00255093  0.15716650  0.32446884  1
  Te2-  Te142  1  -0.00063442  0.17035116  0.66524869  1
  Te2-  Te143  1  -0.00254227  0.49911469  -0.00000686  1
  Te2-  Te144  1  -0.00053444  0.50291481  0.33298586  1
  Te2-  Te145  1  0.01300066  0.51010609  0.66230166  1
  Te2-  Te146  1  -0.00035398  0.83019414  -0.00667018  1
  Te2-  Te147  1  -0.00088178  0.83394396  0.33432616  1
  Te2-  Te148  1  0.00465650  0.80818655  0.67056043  1
  Te2-  Te149  1  0.33577652  0.14897032  -0.00151650  1
  Te2-  Te150  1  0.32811125  0.15869733  0.32525517  1
  Te2-  Te151  1  0.33651653  0.16284518  0.66909703  1
  Te2-  Te152  1  0.33279604  0.50645083  -0.01101176  1
  Te2-  Te153  1  0.33438776  0.50791521  0.33635137  1
  Te2-  Te154  1  0.32488267  0.50374226  0.66655881  1
  Te2-  Te155  1  0.32430576  0.84422849  0.00078159  1
  Te2-  Te156  1  0.33252331  0.83618435  0.33446574  1
  Te2-  Te157  1  0.33064694  0.82504861  0.66365916  1
  Te2-  Te158  1  0.66452531  0.16803559  -0.00709570  1
  Te2-  Te159  1  0.67446891  0.15733209  0.33283143  1
  Te2-  Te160  1  0.65933025  0.15573945  0.66783906  1
  Te2-  Te161  1  0.67003847  0.51653988  -0.00100502  1
  Te2-  Te162  1  0.67077493  0.49441551  0.34735990  1
  Te2-  Te163  1  0.66406519  0.50644351  0.65633464  1
  Te2-  Te164  1  0.67753166  0.82296340  -0.00167995  1
  Te2-  Te165  1  0.66825575  0.83859079  0.33404949  1
  Te2-  Te166  1  0.66597703  0.83268804  0.66321306  1
  Te2-  Te167  1  0.00727615  0.00700383  0.16960523  1
  Te2-  Te168  1  -0.01369240  -0.00263552  0.50429838  1
  Te2-  Te169  1  0.00047970  -0.00476895  0.81086147  1
  Te2-  Te170  1  0.00606867  0.32353063  0.17693698  1
  Te2-  Te171  1  0.00705894  0.34292670  0.48681444  1
  Te2-  Te172  1  0.00472369  0.34274423  0.83394388  1
  Te2-  Te173  1  0.00123119  0.66710502  0.16533363  1
  Te2-  Te174  1  0.00494201  0.65538792  0.49694674  1
  Te2-  Te175  1  -0.00293559  0.64812098  0.83746708  1
  Te2-  Te176  1  0.31830349  -0.00989356  0.16684924  1
  Te2-  Te177  1  0.33854004  -0.00927822  0.49789561  1
  Te2-  Te178  1  0.33003668  0.00267659  0.83501629  1
  Te2-  Te179  1  0.33709858  0.34185398  0.16674891  1
  Te2-  Te180  1  0.32554532  0.33451125  0.50450492  1
  Te2-  Te181  1  0.33374593  0.33048707  0.82462878  1
  Te2-  Te182  1  0.33564971  0.66604515  0.16537461  1
  Te2-  Te183  1  0.33716982  0.67718599  0.49463129  1
  Te2-  Te184  1  0.34243719  0.66609396  0.82974836  1
  Te2-  Te185  1  0.66700082  -0.00535635  0.16720412  1
  Te2-  Te186  1  0.67913737  -0.00136907  0.50028793  1
  Te2-  Te187  1  0.66057233  -0.00380706  0.82490847  1
  Te2-  Te188  1  0.66140612  0.33681709  0.16561610  1
  Te2-  Te189  1  0.66029107  0.33256908  0.51234797  1
  Te2-  Te190  1  0.66015181  0.32809084  0.80986874  1
  Te2-  Te191  1  0.66081622  0.67032693  0.17052545  1
  Te2-  Te192  1  0.66550087  0.65994773  0.50356769  1
  Te2-  Te193  1  0.66629809  0.67005426  0.82276891  1
  Pb2+  Pb194  1  0.49789569  0.50181293  0.00195759  1
  Pb2+  Pb195  1  0.00648296  0.34311283  0.66428526  1
  Pb2+  Pb196  1  0.84201079  0.50324472  0.66532067  1
  Pb2+  Pb197  1  0.50996684  0.00027796  0.49415856  1
  Pb2+  Pb198  1  0.16935866  0.16655482  0.66704161  1
  Pb2+  Pb199  1  0.83224376  0.34191414  0.49747844  1
  Pb2+  Pb200  1  0.65653407  0.17066528  0.16647562  1
  Pb2+  Pb201  1  0.82715409  0.16267825  0.66487458  1
  Pb2+  Pb202  1  0.83792859  0.00148158  0.17915635  1
  Pb2+  Pb203  1  0.00024966  0.16346685  0.83806749  1
  Pb2+  Pb204  1  -0.01219392  0.49785761  0.16764087  1
  Pb2+  Pb205  1  0.16679205  0.49940096  -0.00731083  1
  Pb2+  Pb206  1  -0.00129501  0.16908406  0.49228366  1
  Pb2+  Pb207  1  0.67501753  -0.00338313  -0.00753737  1
  Pb2+  Pb208  1  0.33145495  -0.00648657  0.66921012  1
  Pb2+  Pb209  1  0.33471294  0.16718622  0.49769018  1
  Pb2+  Pb210  1  -0.00256264  0.83564408  0.16297285  1
  Pb2+  Pb211  1  0.50373601  0.50004954  0.33239921  1
  Pb2+  Pb212  1  0.00725425  0.32852584  0.00670588  1
  Pb2+  Pb213  1  -0.00439464  0.82817774  0.50538485  1
  Pb2+  Pb214  1  0.33375235  0.33129990  0.33355027  1
  Pb2+  Pb215  1  0.82866288  0.32647280  0.83290038  1
