# generated using pymatgen
data_AgSbTe2
_symmetry_space_group_name_H-M   'P 1'
_cell_length_a   18.33739546
_cell_length_b   18.33191136
_cell_length_c   18.33583523
_cell_angle_alpha   89.99820737
_cell_angle_beta   90.00298487
_cell_angle_gamma   90.00177062
_symmetry_Int_Tables_number   1
_chemical_formula_structural   AgSbTe2
_chemical_formula_sum   'Ag54 Sb54 Te108'
_cell_volume   6163.76533654
_cell_formula_units_Z   54
loop_
 _symmetry_equiv_pos_site_id
 _symmetry_equiv_pos_as_xyz
  1  'x, y, z'
loop_
 _atom_site_type_symbol
 _atom_site_label
 _atom_site_symmetry_multiplicity
 _atom_site_fract_x
 _atom_site_fract_y
 _atom_site_fract_z
 _atom_site_occupancy
  Ag  Ag0  1  0.16609541  0.50832534  0.33383185  1
  Ag  Ag1  1  0.16244404  0.32678479  0.15846529  1
  Ag  Ag2  1  0.66862295  0.32395608  0.00145188  1
  Ag  Ag3  1  0.16504972  -0.00443173  0.84178150  1
  Ag  Ag4  1  0.66285092  0.00317523  0.00183623  1
  Ag  Ag5  1  0.83884304  0.33652740  0.49608288  1
  Ag  Ag6  1  0.66511313  0.83029161  0.49876773  1
  Ag  Ag7  1  -0.00038763  0.16959703  0.50095976  1
  Ag  Ag8  1  0.49298673  0.50052075  -0.00385354  1
  Ag  Ag9  1  0.16363843  0.34773186  0.83766085  1
  Ag  Ag10  1  0.32866291  0.83749837  0.16314867  1
  Ag  Ag11  1  0.84179826  -0.00072643  0.84086713  1
  Ag  Ag12  1  0.66960138  0.66632039  0.66342117  1
  Ag  Ag13  1  0.16890207  0.50164260  -0.01149106  1
  Ag  Ag14  1  0.33022089  -0.00142609  0.00232707  1
  Ag  Ag15  1  0.49342169  -0.00079075  0.84260283  1
  Ag  Ag16  1  0.49540751  0.50930439  0.33764108  1
  Ag  Ag17  1  0.16742335  0.82088457  0.67759088  1
  Ag  Ag18  1  0.32127479  0.66864566  0.33972925  1
  Ag  Ag19  1  0.00499601  0.66378511  -0.01242094  1
  Ag  Ag20  1  0.16341072  0.66209878  0.50883581  1
  Ag  Ag21  1  0.83728551  0.00677566  0.16165486  1
  Ag  Ag22  1  0.00081866  -0.00384778  0.33025702  1
  Ag  Ag23  1  0.00854507  0.66196717  0.67022095  1
  Ag  Ag24  1  0.00092961  0.16527876  0.16198212  1
  Ag  Ag25  1  0.84642446  0.66983891  0.82444622  1
  Ag  Ag26  1  0.16376443  0.66099087  0.82185571  1
  Ag  Ag27  1  0.00191397  0.33724052  0.66642463  1
  Ag  Ag28  1  0.32656033  0.82970777  0.83824242  1
  Ag  Ag29  1  0.49793684  0.66469354  0.50050392  1
  Ag  Ag30  1  0.16790170  0.50980675  0.67699754  1
  Ag  Ag31  1  0.84292732  0.82839770  0.33408422  1
  Ag  Ag32  1  0.32258976  0.15819305  0.16425482  1
  Ag  Ag33  1  0.84109255  0.32552535  0.16896751  1
  Ag  Ag34  1  0.49165207  0.50398653  0.66482511  1
  Ag  Ag35  1  0.50043104  0.34204391  0.50020427  1
  Ag  Ag36  1  0.84134479  0.66349735  0.50221478  1
  Ag  Ag37  1  0.00134706  0.16827707  0.83666826  1
  Ag  Ag38  1  0.83918490  0.16707134  0.67330665  1
  Ag  Ag39  1  0.49090285  0.00115806  0.16470001  1
  Ag  Ag40  1  0.32179441  0.66565623  0.66280013  1
  Ag  Ag41  1  0.00739521  0.66864373  0.33669452  1
  Ag  Ag42  1  0.16903954  0.00462580  0.16019119  1
  Ag  Ag43  1  0.84407529  0.50647401  0.33509485  1
  Ag  Ag44  1  0.50067836  -0.00866856  0.49506714  1
  Ag  Ag45  1  0.16732883  0.82716429  0.33177596  1
  Ag  Ag46  1  0.00658850  0.50589477  0.83230784  1
  Ag  Ag47  1  0.49596816  0.82982662  0.33639408  1
  Ag  Ag48  1  0.16842263  0.83905773  -0.00577435  1
  Ag  Ag49  1  0.15831507  0.34308474  0.50190386  1
  Ag  Ag50  1  0.16143807  0.16195746  0.00203604  1
  Ag  Ag51  1  0.67943383  0.16424838  0.16156672  1
  Ag  Ag52  1  0.84176644  0.16398293  0.00211242  1
  Ag  Ag53  1  0.31885437  0.50858090  0.83321682  1
  Sb  Sb54  1  0.32703910  0.16652357  0.49576544  1
  Sb  Sb55  1  0.66259531  0.83424490  0.82922719  1
  Sb  Sb56  1  0.50543917  0.16968707  0.66592196  1
  Sb  Sb57  1  0.00758769  0.83157313  0.83443525  1
  Sb  Sb58  1  0.66789392  0.33438678  0.33095951  1
  Sb  Sb59  1  0.32456285  0.34048841  0.66687124  1
  Sb  Sb60  1  0.84210840  0.33288827  0.83357268  1
  Sb  Sb61  1  0.83605872  0.66797318  0.17046636  1
  Sb  Sb62  1  0.49291545  0.66860705  0.82752241  1
  Sb  Sb63  1  0.83164268  -0.00097612  0.49792780  1
  Sb  Sb64  1  0.33053561  0.34232954  0.33270312  1
  Sb  Sb65  1  0.16918064  -0.00307218  0.49760747  1
  Sb  Sb66  1  0.00097781  -0.00036744  0.66553560  1
  Sb  Sb67  1  0.00751675  0.83983007  0.16888993  1
  Sb  Sb68  1  0.00408659  0.49535027  0.16385359  1
  Sb  Sb69  1  0.32966902  0.50169812  0.16301823  1
  Sb  Sb70  1  0.00415095  0.49955709  0.50504516  1
  Sb  Sb71  1  0.00101524  0.33642744  0.33692438  1
  Sb  Sb72  1  0.33260369  -0.00733105  0.67391342  1
  Sb  Sb73  1  0.67039373  0.66868990  -0.00783052  1
  Sb  Sb74  1  0.67205819  0.16336836  0.49633553  1
  Sb  Sb75  1  0.66371277  0.84042461  0.17042627  1
  Sb  Sb76  1  0.33162145  0.33082065  0.00074809  1
  Sb  Sb77  1  0.00101245  0.33322836  -0.00388683  1
  Sb  Sb78  1  0.66674977  -0.00403565  0.67062091  1
  Sb  Sb79  1  0.67511720  0.16449026  0.83931348  1
  Sb  Sb80  1  0.33238845  0.50372386  0.50488745  1
  Sb  Sb81  1  0.33435096  0.83073909  0.49799642  1
  Sb  Sb82  1  0.83843605  0.83227294  0.66447974  1
  Sb  Sb83  1  0.49948548  0.16587653  0.00084900  1
  Sb  Sb84  1  0.83773133  0.16616958  0.32842699  1
  Sb  Sb85  1  0.32589131  0.67002842  -0.00214239  1
  Sb  Sb86  1  0.66865447  0.50055352  0.83226318  1
  Sb  Sb87  1  0.66554262  0.50497830  0.50008525  1
  Sb  Sb88  1  0.66667222  0.49416714  0.16627418  1
  Sb  Sb89  1  0.67148243  0.33774196  0.66929331  1
  Sb  Sb90  1  0.84041349  0.83840624  0.00382412  1
  Sb  Sb91  1  0.32409457  0.16377498  0.83850227  1
  Sb  Sb92  1  0.00515973  0.00069250  0.00286882  1
  Sb  Sb93  1  0.16378853  0.16641726  0.32594797  1
  Sb  Sb94  1  -0.00088723  0.83162198  0.49748951  1
  Sb  Sb95  1  0.15935225  0.17056115  0.67285544  1
  Sb  Sb96  1  0.66843225  0.66864120  0.33994804  1
  Sb  Sb97  1  0.32925462  -0.00850362  0.32519073  1
  Sb  Sb98  1  0.49849782  0.16342821  0.33169395  1
  Sb  Sb99  1  0.49417100  0.83258345  0.00300914  1
  Sb  Sb100  1  0.16569889  0.66978221  0.16758092  1
  Sb  Sb101  1  0.67004481  -0.00211863  0.32713159  1
  Sb  Sb102  1  0.83679977  0.49653840  0.00289648  1
  Sb  Sb103  1  0.49424522  0.82719250  0.66229165  1
  Sb  Sb104  1  0.83910109  0.50046990  0.66342582  1
  Sb  Sb105  1  0.49832070  0.32937700  0.16931961  1
  Sb  Sb106  1  0.49375045  0.33264435  0.83119445  1
  Sb  Sb107  1  0.49797315  0.67046072  0.17378952  1
  Te  Te108  1  0.16332157  0.16680344  0.16434877  1
  Te  Te109  1  0.16127119  0.16793116  0.50088312  1
  Te  Te110  1  0.16196970  0.15758736  0.83850175  1
  Te  Te111  1  0.16823237  0.49022894  0.17436488  1
  Te  Te112  1  0.16800358  0.50149522  0.49346972  1
  Te  Te113  1  0.16334889  0.50268060  0.83242281  1
  Te  Te114  1  0.16930532  0.83800967  0.17060161  1
  Te  Te115  1  0.16683395  0.82930084  0.49339594  1
  Te  Te116  1  0.16836691  0.83536088  0.83508001  1
  Te  Te117  1  0.49683681  0.16138834  0.16640673  1
  Te  Te118  1  0.50149929  0.16802725  0.49988826  1
  Te  Te119  1  0.49881070  0.16101202  0.83221663  1
  Te  Te120  1  0.49855094  0.49954534  0.16780425  1
  Te  Te121  1  0.49912312  0.50284509  0.49972785  1
  Te  Te122  1  0.50011246  0.49950301  0.83365678  1
  Te  Te123  1  0.49575892  0.83853171  0.17050878  1
  Te  Te124  1  0.50064921  0.83060165  0.49797498  1
  Te  Te125  1  0.49388371  0.83831572  0.83355340  1
  Te  Te126  1  0.83703115  0.16739098  0.16549818  1
  Te  Te127  1  0.83667670  0.16845716  0.49925536  1
  Te  Te128  1  0.83914991  0.16516980  0.83633372  1
  Te  Te129  1  0.83407487  0.49469086  0.17274574  1
  Te  Te130  1  0.83235208  0.50051353  0.49609063  1
  Te  Te131  1  0.83901273  0.50484725  0.83294732  1
  Te  Te132  1  0.83212007  0.83793753  0.17293836  1
  Te  Te133  1  0.82935325  0.83017891  0.49669470  1
  Te  Te134  1  0.83168405  0.83482919  0.83370117  1
  Te  Te135  1  0.16590543  -0.00067518  0.00153997  1
  Te  Te136  1  0.16253962  -0.00413470  0.33217717  1
  Te  Te137  1  0.16739025  -0.00192659  0.66709430  1
  Te  Te138  1  0.16653307  0.33572763  -0.00051817  1
  Te  Te139  1  0.16646543  0.33598728  0.34132815  1
  Te  Te140  1  0.16118733  0.33548099  0.66227283  1
  Te  Te141  1  0.16422348  0.66185698  0.00169149  1
  Te  Te142  1  0.16606379  0.66756627  0.32832738  1
  Te  Te143  1  0.16582553  0.66585237  0.66489989  1
  Te  Te144  1  0.49832899  -0.00131894  0.00191927  1
  Te  Te145  1  0.49959512  -0.00337269  0.33241270  1
  Te  Te146  1  0.50075359  0.00028721  0.66470388  1
  Te  Te147  1  0.50360136  0.33861619  -0.00003506  1
  Te  Te148  1  0.49931092  0.33661946  0.33856258  1
  Te  Te149  1  0.50122750  0.33866011  0.66244239  1
  Te  Te150  1  0.50119577  0.66124775  -0.00076728  1
  Te  Te151  1  0.50276326  0.66810632  0.33868528  1
  Te  Te152  1  0.50130520  0.66283750  0.66316868  1
  Te  Te153  1  0.83518937  0.00208317  0.00011441  1
  Te  Te154  1  0.83731314  -0.00522813  0.33060824  1
  Te  Te155  1  0.83299802  0.00347009  0.67113955  1
  Te  Te156  1  0.83081513  0.33010108  0.00284430  1
  Te  Te157  1  0.83385162  0.33848253  0.33416143  1
  Te  Te158  1  0.83756812  0.33200039  0.66388075  1
  Te  Te159  1  0.83884177  0.66697268  -0.00288077  1
  Te  Te160  1  0.83426502  0.66693562  0.33713866  1
  Te  Te161  1  0.83502899  0.66661321  0.66440588  1
  Te  Te162  1  0.00076282  0.16737764  -0.00020418  1
  Te  Te163  1  0.00009530  0.16270630  0.33425666  1
  Te  Te164  1  -0.00382066  0.16665498  0.66659388  1
  Te  Te165  1  0.00454562  0.50268623  -0.00420958  1
  Te  Te166  1  0.00124092  0.50351018  0.33226264  1
  Te  Te167  1  0.00400251  0.50013492  0.67092488  1
  Te  Te168  1  0.00813133  0.82369376  0.00270872  1
  Te  Te169  1  0.00026911  0.83220442  0.33366379  1
  Te  Te170  1  0.00683488  0.82776220  0.66461785  1
  Te  Te171  1  0.32944641  0.16167798  0.00428884  1
  Te  Te172  1  0.33213709  0.16647692  0.32628260  1
  Te  Te173  1  0.33459872  0.16681894  0.66608587  1
  Te  Te174  1  0.33179668  0.50023248  -0.00431578  1
  Te  Te175  1  0.33410407  0.50813471  0.33071736  1
  Te  Te176  1  0.33077222  0.50455784  0.67239659  1
  Te  Te177  1  0.32866613  0.83607625  0.00067625  1
  Te  Te178  1  0.33367290  0.82857349  0.33171585  1
  Te  Te179  1  0.32780196  0.82697281  0.67136109  1
  Te  Te180  1  0.66604481  0.16401808  0.00341160  1
  Te  Te181  1  0.66700602  0.16638280  0.32383696  1
  Te  Te182  1  0.67723933  0.16776197  0.66622573  1
  Te  Te183  1  0.66468392  0.49884393  0.00000403  1
  Te  Te184  1  0.65947909  0.50076269  0.33231092  1
  Te  Te185  1  0.66044482  0.50514152  0.66712806  1
  Te  Te186  1  0.66708971  0.83877089  -0.00008648  1
  Te  Te187  1  0.66018860  0.83411975  0.33758932  1
  Te  Te188  1  0.66685476  0.82846811  0.66089562  1
  Te  Te189  1  -0.00027140  0.00456944  0.16862528  1
  Te  Te190  1  -0.00027701  0.00584096  0.49526317  1
  Te  Te191  1  0.00013092  0.00330545  0.83287153  1
  Te  Te192  1  0.00078835  0.32828789  0.16766530  1
  Te  Te193  1  -0.00141630  0.33182113  0.50236950  1
  Te  Te194  1  0.00523216  0.33006732  0.82924809  1
  Te  Te195  1  -0.00171846  0.66568684  0.17531034  1
  Te  Te196  1  0.00068166  0.66604036  0.49753108  1
  Te  Te197  1  0.00333376  0.66837562  0.83054788  1
  Te  Te198  1  0.33085334  -0.00154309  0.16459342  1
  Te  Te199  1  0.34097378  0.00125017  0.50083386  1
  Te  Te200  1  0.33150607  -0.00208810  0.83848012  1
  Te  Te201  1  0.32796897  0.32788155  0.16658656  1
  Te  Te202  1  0.33741075  0.33193817  0.49989722  1
  Te  Te203  1  0.32454719  0.33560763  0.83324163  1
  Te  Te204  1  0.33423034  0.67349667  0.17141735  1
  Te  Te205  1  0.33125699  0.66733342  0.50044923  1
  Te  Te206  1  0.32864279  0.66772901  0.83161775  1
  Te  Te207  1  0.67043046  0.00407761  0.16173056  1
  Te  Te208  1  0.66130243  -0.00399172  0.50033603  1
  Te  Te209  1  0.66414632  -0.00016960  0.83839758  1
  Te  Te210  1  0.66701930  0.32699200  0.16211799  1
  Te  Te211  1  0.66840585  0.33149655  0.50096176  1
  Te  Te212  1  0.66542699  0.33245709  0.83982535  1
  Te  Te213  1  0.66716791  0.66708808  0.16237794  1
  Te  Te214  1  0.66666902  0.67030245  0.50421205  1
  Te  Te215  1  0.67192895  0.66772095  0.82632759  1
