# generated using pymatgen
data_AgSbTe2
_symmetry_space_group_name_H-M   'P 1'
_cell_length_a   18.32678094
_cell_length_b   18.32617588
_cell_length_c   18.31665711
_cell_angle_alpha   90.00030150
_cell_angle_beta   89.99826890
_cell_angle_gamma   89.99753720
_symmetry_Int_Tables_number   1
_chemical_formula_structural   AgSbTe2
_chemical_formula_sum   'Ag54 Sb54 Te108'
_cell_volume   6151.82898293
_cell_formula_units_Z   54
loop_
 _symmetry_equiv_pos_site_id
 _symmetry_equiv_pos_as_xyz
  1  'x, y, z'
loop_
 _atom_site_type_symbol
 _atom_site_label
 _atom_site_symmetry_multiplicity
 _atom_site_fract_x
 _atom_site_fract_y
 _atom_site_fract_z
 _atom_site_occupancy
  Ag  Ag0  1  0.32481506  0.00796206  0.66216916  1
  Ag  Ag1  1  0.50163812  0.82853407  0.00367320  1
  Ag  Ag2  1  0.00826279  0.66927036  0.32793999  1
  Ag  Ag3  1  0.66617186  0.66513792  0.33138548  1
  Ag  Ag4  1  0.17108417  0.50065270  0.67061433  1
  Ag  Ag5  1  0.84204448  0.00502873  0.83070355  1
  Ag  Ag6  1  0.15982273  -0.00453039  0.82502140  1
  Ag  Ag7  1  0.00527825  0.83162633  0.50468268  1
  Ag  Ag8  1  0.00809022  0.00128553  0.67182752  1
  Ag  Ag9  1  0.66766735  0.50035710  0.82845389  1
  Ag  Ag10  1  0.32650593  0.66998904  0.33731746  1
  Ag  Ag11  1  0.00589366  0.50375969  0.82940551  1
  Ag  Ag12  1  0.66975877  0.33682509  0.67090943  1
  Ag  Ag13  1  0.83426043  0.66423515  0.17152626  1
  Ag  Ag14  1  0.49646313  0.00160417  0.49660296  1
  Ag  Ag15  1  0.16729317  0.33599268  0.16753074  1
  Ag  Ag16  1  0.17149605  0.16696640  0.66462592  1
  Ag  Ag17  1  0.16380680  0.66389908  0.82389720  1
  Ag  Ag18  1  0.66971327  0.82741615  0.83039929  1
  Ag  Ag19  1  0.32607106  0.33595333  0.66809724  1
  Ag  Ag20  1  0.83567198  0.49445679  0.67034147  1
  Ag  Ag21  1  0.32483502  0.49901741  0.82462014  1
  Ag  Ag22  1  0.50289641  0.33697407  0.82893543  1
  Ag  Ag23  1  0.00173882  0.82753785  0.16633224  1
  Ag  Ag24  1  -0.00066335  -0.00821652  -0.01174145  1
  Ag  Ag25  1  0.17668440  0.16147409  0.33771975  1
  Ag  Ag26  1  0.00520978  0.33076848  0.67061647  1
  Ag  Ag27  1  0.66743230  0.50118261  0.16980538  1
  Ag  Ag28  1  0.00173877  0.67219811  0.00251777  1
  Ag  Ag29  1  0.33325552  0.16576687  0.49964914  1
  Ag  Ag30  1  0.66810752  0.32860185  0.33410734  1
  Ag  Ag31  1  0.32608193  0.65759598  0.66214691  1
  Ag  Ag32  1  0.16520010  0.82991489  0.66736741  1
  Ag  Ag33  1  0.82392658  0.17044311  0.33430196  1
  Ag  Ag34  1  0.49622933  0.83634562  0.33179241  1
  Ag  Ag35  1  0.65767980  0.00775121  0.33284177  1
  Ag  Ag36  1  0.16865819  0.82897171  0.33792958  1
  Ag  Ag37  1  0.82965765  0.50037831  0.33621269  1
  Ag  Ag38  1  0.83516060  0.17516232  0.66873600  1
  Ag  Ag39  1  0.33134708  0.49962530  0.50792910  1
  Ag  Ag40  1  0.16789848  0.66870401  0.50267188  1
  Ag  Ag41  1  0.83470297  0.33332131  0.82793242  1
  Ag  Ag42  1  0.66324225  0.65748775  0.66855532  1
  Ag  Ag43  1  0.33649136  0.00399408  0.34033347  1
  Ag  Ag44  1  0.49698037  0.16115329  0.33647011  1
  Ag  Ag45  1  0.83438831  0.16525146  -0.00666877  1
  Ag  Ag46  1  0.49204655  0.16845416  0.66029672  1
  Ag  Ag47  1  0.16411138  0.33760925  0.82331229  1
  Ag  Ag48  1  0.33540725  0.16725104  0.17843349  1
  Ag  Ag49  1  0.50082577  0.66663304  0.17000122  1
  Ag  Ag50  1  0.50167545  0.50580855  -0.00318442  1
  Ag  Ag51  1  0.66531370  0.17355140  0.17534361  1
  Ag  Ag52  1  0.00177121  0.83403768  0.83302252  1
  Ag  Ag53  1  0.16445202  0.66448881  0.17414087  1
  Sb  Sb54  1  0.32986697  0.83415011  0.17127295  1
  Sb  Sb55  1  0.67072306  0.00003576  0.00276206  1
  Sb  Sb56  1  0.00008436  0.33484984  -0.00849540  1
  Sb  Sb57  1  0.66842124  0.82948862  0.16614937  1
  Sb  Sb58  1  0.83075433  0.49762086  -0.00393249  1
  Sb  Sb59  1  0.49856693  0.00223886  0.82859864  1
  Sb  Sb60  1  0.49715056  0.66189168  0.83458062  1
  Sb  Sb61  1  0.32786219  0.83458791  0.49922378  1
  Sb  Sb62  1  0.16409052  0.50368305  0.33748273  1
  Sb  Sb63  1  -0.00268207  0.50663475  0.16256144  1
  Sb  Sb64  1  0.83248016  0.33283647  0.50777347  1
  Sb  Sb65  1  0.66238240  0.50152570  0.50140494  1
  Sb  Sb66  1  -0.00065368  0.16373768  0.83034862  1
  Sb  Sb67  1  0.50375338  0.16614241  0.00224965  1
  Sb  Sb68  1  0.83541862  0.33556791  0.16411788  1
  Sb  Sb69  1  0.33275335  0.33324787  -0.00700266  1
  Sb  Sb70  1  0.17148157  -0.00517213  0.50680725  1
  Sb  Sb71  1  0.83460604  -0.00080096  0.16513128  1
  Sb  Sb72  1  0.66953095  0.16918644  0.83237530  1
  Sb  Sb73  1  0.00564751  0.66705809  0.66867258  1
  Sb  Sb74  1  0.66922717  0.66609005  0.00036232  1
  Sb  Sb75  1  0.16594056  0.83167605  -0.00175382  1
  Sb  Sb76  1  0.66993059  0.83125055  0.50223700  1
  Sb  Sb77  1  0.49961159  -0.00377378  0.17296063  1
  Sb  Sb78  1  0.33166714  0.17199680  0.82577667  1
  Sb  Sb79  1  0.83100299  0.00246812  0.50352874  1
  Sb  Sb80  1  0.83403202  0.83496122  -0.00206515  1
  Sb  Sb81  1  0.33566887  0.33155110  0.33802702  1
  Sb  Sb82  1  -0.00295334  0.33709091  0.33696922  1
  Sb  Sb83  1  0.00663217  0.16137170  0.50355124  1
  Sb  Sb84  1  0.00004895  0.16389483  0.16887427  1
  Sb  Sb85  1  0.83831440  0.66352040  0.83444637  1
  Sb  Sb86  1  0.49494335  0.83639373  0.66420980  1
  Sb  Sb87  1  0.49854467  0.33563612  0.16473466  1
  Sb  Sb88  1  0.83475799  0.83126019  0.33211624  1
  Sb  Sb89  1  0.83891895  0.66518295  0.49751347  1
  Sb  Sb90  1  0.16861359  0.50180888  -0.00736292  1
  Sb  Sb91  1  0.16223792  0.16590176  -0.00278664  1
  Sb  Sb92  1  0.00456641  0.50561502  0.50677121  1
  Sb  Sb93  1  0.49333263  0.67028543  0.49532740  1
  Sb  Sb94  1  0.32996498  0.82868584  0.83024948  1
  Sb  Sb95  1  0.50371110  0.50082109  0.33021147  1
  Sb  Sb96  1  0.49704796  0.49413551  0.67209397  1
  Sb  Sb97  1  0.00273424  -0.00541789  0.33675421  1
  Sb  Sb98  1  0.83923003  0.83141728  0.66971397  1
  Sb  Sb99  1  0.33043256  0.66632786  0.00043771  1
  Sb  Sb100  1  0.16597314  -0.00152322  0.16683086  1
  Sb  Sb101  1  0.49864263  0.32886033  0.50543593  1
  Sb  Sb102  1  0.66088982  0.16634695  0.49572461  1
  Sb  Sb103  1  0.66705988  0.00262149  0.66413534  1
  Sb  Sb104  1  0.66733754  0.33400035  -0.00221459  1
  Sb  Sb105  1  0.16850419  0.33632675  0.50392407  1
  Sb  Sb106  1  0.32905852  0.00077530  -0.00257683  1
  Sb  Sb107  1  0.33515549  0.49815856  0.16695421  1
  Te  Te108  1  0.16846258  0.16725642  0.16884967  1
  Te  Te109  1  0.17247664  0.16718175  0.49960154  1
  Te  Te110  1  0.16671594  0.17181126  0.82923596  1
  Te  Te111  1  0.16672255  0.50051455  0.16511875  1
  Te  Te112  1  0.17161785  0.50609198  0.50573419  1
  Te  Te113  1  0.16604379  0.50032768  0.83104942  1
  Te  Te114  1  0.16317356  0.83007829  0.16914244  1
  Te  Te115  1  0.16283452  0.82925726  0.49854546  1
  Te  Te116  1  0.16435040  0.83118456  0.83137625  1
  Te  Te117  1  0.50164142  0.16749729  0.16908476  1
  Te  Te118  1  0.49505240  0.16355222  0.49955127  1
  Te  Te119  1  0.50092367  0.17166402  0.83278772  1
  Te  Te120  1  0.50329788  0.50331180  0.16163539  1
  Te  Te121  1  0.49081008  0.50107481  0.49946017  1
  Te  Te122  1  0.50720438  0.49740960  0.83672854  1
  Te  Te123  1  0.50071006  0.82740230  0.16994821  1
  Te  Te124  1  0.50262351  0.83975275  0.49376804  1
  Te  Te125  1  0.50322874  0.83288817  0.83324154  1
  Te  Te126  1  0.82999961  0.16755769  0.17352712  1
  Te  Te127  1  0.83540658  0.16625469  0.49861427  1
  Te  Te128  1  0.83280985  0.16705676  0.82953273  1
  Te  Te129  1  0.82905947  0.50271569  0.16749643  1
  Te  Te130  1  0.83349907  0.49963488  0.49982846  1
  Te  Te131  1  0.82871600  0.49751868  0.83107129  1
  Te  Te132  1  0.83855350  0.82679207  0.16515899  1
  Te  Te133  1  0.84357998  0.83413929  0.50080190  1
  Te  Te134  1  0.83350633  0.83628885  0.83363398  1
  Te  Te135  1  0.16073301  -0.00046678  -0.00929307  1
  Te  Te136  1  0.16993654  0.00023339  0.33414056  1
  Te  Te137  1  0.16744321  0.00210606  0.66797481  1
  Te  Te138  1  0.16559490  0.33309794  0.00285758  1
  Te  Te139  1  0.16576468  0.33142463  0.33089165  1
  Te  Te140  1  0.16639719  0.33382818  0.66599066  1
  Te  Te141  1  0.16273421  0.66714374  0.00364058  1
  Te  Te142  1  0.16803701  0.66587230  0.33328677  1
  Te  Te143  1  0.16651139  0.66598241  0.66624662  1
  Te  Te144  1  0.49919774  -0.00447016  -0.00127400  1
  Te  Te145  1  0.49741379  0.00006180  0.33343734  1
  Te  Te146  1  0.49797844  0.00525476  0.66219415  1
  Te  Te147  1  0.49991611  0.33568049  -0.00714077  1
  Te  Te148  1  0.50588032  0.32883190  0.33271703  1
  Te  Te149  1  0.50263757  0.32813661  0.67006568  1
  Te  Te150  1  0.49899001  0.66790019  0.00398971  1
  Te  Te151  1  0.50099703  0.66757863  0.33061042  1
  Te  Te152  1  0.50170821  0.66863688  0.66534376  1
  Te  Te153  1  0.83766781  0.00407104  -0.00454176  1
  Te  Te154  1  0.83255094  0.00451649  0.33430031  1
  Te  Te155  1  0.83465250  0.00204618  0.67111904  1
  Te  Te156  1  0.83477781  0.32672155  -0.00701157  1
  Te  Te157  1  0.83077517  0.33428087  0.33184238  1
  Te  Te158  1  0.83066244  0.33455565  0.67000302  1
  Te  Te159  1  0.83985129  0.66554145  0.00641230  1
  Te  Te160  1  0.82832940  0.66474540  0.33161769  1
  Te  Te161  1  0.82609815  0.66194958  0.66573486  1
  Te  Te162  1  -0.00606944  0.16312208  0.00285924  1
  Te  Te163  1  0.00193883  0.16707436  0.33554376  1
  Te  Te164  1  0.00010688  0.16719191  0.66494668  1
  Te  Te165  1  -0.00123410  0.50470435  -0.00868491  1
  Te  Te166  1  -0.00660741  0.50520048  0.33454805  1
  Te  Te167  1  -0.00200377  0.49993093  0.67011951  1
  Te  Te168  1  0.00027925  0.83305246  -0.00373720  1
  Te  Te169  1  0.00229988  0.83006081  0.32950869  1
  Te  Te170  1  0.00442267  0.83404554  0.67149243  1
  Te  Te171  1  0.33369412  0.16524806  0.00928823  1
  Te  Te172  1  0.33425915  0.16903091  0.33653282  1
  Te  Te173  1  0.33245063  0.16728711  0.66507194  1
  Te  Te174  1  0.34114647  0.50015119  -0.00410163  1
  Te  Te175  1  0.33354094  0.50306480  0.33572058  1
  Te  Te176  1  0.33345720  0.50006122  0.66860607  1
  Te  Te177  1  0.34227667  0.83486956  0.00052491  1
  Te  Te178  1  0.33213811  0.83145526  0.33303126  1
  Te  Te179  1  0.32688971  0.83261077  0.66642409  1
  Te  Te180  1  0.67234796  0.16602570  0.00905547  1
  Te  Te181  1  0.66486993  0.16776949  0.33338836  1
  Te  Te182  1  0.66959358  0.17061911  0.66511734  1
  Te  Te183  1  0.66329299  0.50038207  0.00116437  1
  Te  Te184  1  0.66898579  0.50264487  0.33406185  1
  Te  Te185  1  0.66464999  0.49857915  0.66709241  1
  Te  Te186  1  0.66222911  0.83385921  -0.00569275  1
  Te  Te187  1  0.66441113  0.82927018  0.33394946  1
  Te  Te188  1  0.66573117  0.83254901  0.67044835  1
  Te  Te189  1  0.00006509  -0.00757960  0.16410626  1
  Te  Te190  1  -0.00099038  -0.00730008  0.50674794  1
  Te  Te191  1  -0.00038888  -0.00068537  0.83034726  1
  Te  Te192  1  0.00599805  0.33418393  0.16608951  1
  Te  Te193  1  0.00057129  0.33416348  0.50913303  1
  Te  Te194  1  0.00166432  0.33750060  0.82920826  1
  Te  Te195  1  0.00183200  0.66704128  0.16743460  1
  Te  Te196  1  0.00560346  0.67140705  0.49414670  1
  Te  Te197  1  0.00256290  0.66712211  0.83492289  1
  Te  Te198  1  0.33216824  0.00568535  0.17026209  1
  Te  Te199  1  0.33603345  0.00213906  0.50013329  1
  Te  Te200  1  0.32932938  -0.00000639  0.82831549  1
  Te  Te201  1  0.32976258  0.33001115  0.16636488  1
  Te  Te202  1  0.33403004  0.33390380  0.50693695  1
  Te  Te203  1  0.32999575  0.33775891  0.82805723  1
  Te  Te204  1  0.33182413  0.66585638  0.17005717  1
  Te  Te205  1  0.32938631  0.66644851  0.50040497  1
  Te  Te206  1  0.32836043  0.66104495  0.83088128  1
  Te  Te207  1  0.66778138  0.00116308  0.17307743  1
  Te  Te208  1  0.66120953  -0.00207517  0.49268760  1
  Te  Te209  1  0.66819083  -0.00272310  0.83384068  1
  Te  Te210  1  0.66667029  0.33694289  0.16997194  1
  Te  Te211  1  0.66566200  0.33447088  0.49786563  1
  Te  Te212  1  0.66781320  0.33504058  0.83129460  1
  Te  Te213  1  0.66615690  0.66446533  0.16760356  1
  Te  Te214  1  0.66620311  0.66717600  0.49969506  1
  Te  Te215  1  0.66783802  0.66561708  0.83165447  1
