# generated using pymatgen
data_AgSbTe2
_symmetry_space_group_name_H-M   'P 1'
_cell_length_a   18.35829224
_cell_length_b   18.36554675
_cell_length_c   18.36553160
_cell_angle_alpha   89.99756466
_cell_angle_beta   89.99616166
_cell_angle_gamma   90.00210186
_symmetry_Int_Tables_number   1
_chemical_formula_structural   AgSbTe2
_chemical_formula_sum   'Ag54 Sb54 Te108'
_cell_volume   6192.12397670
_cell_formula_units_Z   54
loop_
 _symmetry_equiv_pos_site_id
 _symmetry_equiv_pos_as_xyz
  1  'x, y, z'
loop_
 _atom_site_type_symbol
 _atom_site_label
 _atom_site_symmetry_multiplicity
 _atom_site_fract_x
 _atom_site_fract_y
 _atom_site_fract_z
 _atom_site_occupancy
  Ag  Ag0  1  0.33206063  0.33045366  -0.00055604  1
  Ag  Ag1  1  0.84602500  0.66500146  0.84110536  1
  Ag  Ag2  1  0.16302637  0.67299608  0.15641560  1
  Ag  Ag3  1  0.67460334  0.65955250  0.67274513  1
  Ag  Ag4  1  0.16808744  0.83872811  0.68007419  1
  Ag  Ag5  1  0.67684692  0.17153781  0.83735126  1
  Ag  Ag6  1  0.16894783  0.49901945  0.33348873  1
  Ag  Ag7  1  0.00418797  -0.00163068  0.67852288  1
  Ag  Ag8  1  0.66728933  0.49119771  0.83853867  1
  Ag  Ag9  1  0.00688738  0.50044189  0.49596749  1
  Ag  Ag10  1  0.32524628  0.67511232  0.00034111  1
  Ag  Ag11  1  -0.00322124  0.49496971  0.16640620  1
  Ag  Ag12  1  0.01093894  0.84574952  0.83576062  1
  Ag  Ag13  1  0.16320283  0.15883758  -0.00150266  1
  Ag  Ag14  1  0.50706404  0.33021080  0.16125095  1
  Ag  Ag15  1  0.15680586  -0.01293536  0.84289941  1
  Ag  Ag16  1  -0.00564735  0.16798964  0.15973263  1
  Ag  Ag17  1  0.83572501  0.16557617  -0.00052432  1
  Ag  Ag18  1  0.82817539  0.32289118  0.16067116  1
  Ag  Ag19  1  0.83267550  0.16633606  0.68647053  1
  Ag  Ag20  1  0.16120563  0.67649908  0.83953452  1
  Ag  Ag21  1  0.32763661  0.50093510  0.49972996  1
  Ag  Ag22  1  0.67520260  0.48839657  0.16188777  1
  Ag  Ag23  1  0.66952334  0.01679363  0.32878670  1
  Ag  Ag24  1  0.32838698  0.50008783  0.83451783  1
  Ag  Ag25  1  0.66926101  0.33123329  0.68075740  1
  Ag  Ag26  1  0.83922345  0.00990265  0.15977413  1
  Ag  Ag27  1  0.50540544  0.16915745  0.00170559  1
  Ag  Ag28  1  0.32352140  0.83312054  0.83925763  1
  Ag  Ag29  1  0.66210258  0.32931036  0.32045151  1
  Ag  Ag30  1  0.68173731  0.16779741  0.17393279  1
  Ag  Ag31  1  0.32396935  0.00077042  -0.00214787  1
  Ag  Ag32  1  0.16682081  0.84534895  -0.00645043  1
  Ag  Ag33  1  0.16810169  0.00484953  0.50870915  1
  Ag  Ag34  1  0.82321701  0.16780792  0.31146394  1
  Ag  Ag35  1  0.00835901  0.00441231  -0.00594245  1
  Ag  Ag36  1  0.33513902  0.33535155  0.32270963  1
  Ag  Ag37  1  0.00702323  0.67103407  -0.00259117  1
  Ag  Ag38  1  0.16799557  0.33087061  0.50591156  1
  Ag  Ag39  1  0.16245520  -0.00312103  0.15676256  1
  Ag  Ag40  1  0.32194295  -0.00206613  0.68105207  1
  Ag  Ag41  1  0.32964706  0.83136285  0.50006483  1
  Ag  Ag42  1  0.50790348  0.33154210  0.83995161  1
  Ag  Ag43  1  0.32914359  0.83166080  0.15954912  1
  Ag  Ag44  1  0.84514260  0.01265434  0.83967836  1
  Ag  Ag45  1  0.51175140  0.16984130  0.32049435  1
  Ag  Ag46  1  0.84122889  0.66578143  0.15994956  1
  Ag  Ag47  1  0.67038889  0.16944828  0.48631577  1
  Ag  Ag48  1  -0.00097559  0.66917859  0.68023703  1
  Ag  Ag49  1  0.82871128  0.32554548  0.83941607  1
  Ag  Ag50  1  0.16553148  0.33076988  0.83271866  1
  Ag  Ag51  1  -0.00726619  0.15733236  0.84102821  1
  Ag  Ag52  1  0.32954837  0.66059506  0.32401751  1
  Ag  Ag53  1  0.66629492  0.83955981  0.16682616  1
  Sb  Sb54  1  0.16837337  0.66565750  0.50090537  1
  Sb  Sb55  1  0.00260950  0.83565560  0.15975851  1
  Sb  Sb56  1  0.49838981  0.49468270  0.00020402  1
  Sb  Sb57  1  0.16508278  0.16975947  0.32844777  1
  Sb  Sb58  1  0.00473155  0.32758264  -0.00091669  1
  Sb  Sb59  1  0.50002997  0.49841173  0.66872951  1
  Sb  Sb60  1  -0.00256372  0.00235015  0.32790007  1
  Sb  Sb61  1  0.83820676  0.00405058  0.50071253  1
  Sb  Sb62  1  0.16575040  0.50218924  0.00150766  1
  Sb  Sb63  1  0.67063178  0.00304921  0.00482581  1
  Sb  Sb64  1  0.49862308  0.66127857  0.16470668  1
  Sb  Sb65  1  0.83847320  0.83656742  0.67005308  1
  Sb  Sb66  1  0.16514432  0.33294039  0.16427632  1
  Sb  Sb67  1  0.33203083  0.16528708  0.16190956  1
  Sb  Sb68  1  0.33491773  0.00238186  0.32771006  1
  Sb  Sb69  1  0.49512691  0.00342248  0.49911106  1
  Sb  Sb70  1  0.83417173  0.49626999  0.67027705  1
  Sb  Sb71  1  0.32855731  0.67038702  0.67127772  1
  Sb  Sb72  1  0.49632361  0.83846252  0.32992281  1
  Sb  Sb73  1  0.00823372  0.83075664  0.51073437  1
  Sb  Sb74  1  0.66944214  0.66740349  -0.00188416  1
  Sb  Sb75  1  -0.00052865  0.33326870  0.33194922  1
  Sb  Sb76  1  0.66634689  0.49224016  0.50047778  1
  Sb  Sb77  1  0.50531052  0.16833579  0.67068503  1
  Sb  Sb78  1  0.83368419  0.49400262  -0.00011615  1
  Sb  Sb79  1  0.16542271  0.50252998  0.66509777  1
  Sb  Sb80  1  0.49026485  0.83956552  0.00132978  1
  Sb  Sb81  1  0.33558074  0.33010498  0.67148145  1
  Sb  Sb82  1  0.83100152  0.83882307  0.32607204  1
  Sb  Sb83  1  0.49277172  0.83305148  0.66933686  1
  Sb  Sb84  1  0.66799872  0.83360008  0.83773633  1
  Sb  Sb85  1  0.33444193  0.16784691  0.49896893  1
  Sb  Sb86  1  0.50198885  0.00657678  0.16490234  1
  Sb  Sb87  1  0.67176760  0.00581191  0.66536228  1
  Sb  Sb88  1  0.32953818  0.16737040  0.83684042  1
  Sb  Sb89  1  -0.00207158  0.16820474  0.50130006  1
  Sb  Sb90  1  0.84053268  0.83667946  -0.00104882  1
  Sb  Sb91  1  0.49734913  0.00615977  0.83603295  1
  Sb  Sb92  1  0.16852487  0.83062089  0.32972041  1
  Sb  Sb93  1  0.00153184  0.49998349  0.83701442  1
  Sb  Sb94  1  0.32901575  0.50202075  0.16390190  1
  Sb  Sb95  1  0.49415420  0.49342796  0.33018847  1
  Sb  Sb96  1  0.83554664  0.66518865  0.50077249  1
  Sb  Sb97  1  -0.00299361  0.33240081  0.66829609  1
  Sb  Sb98  1  0.83480024  0.33010288  0.49952644  1
  Sb  Sb99  1  0.00555294  0.66444203  0.32759338  1
  Sb  Sb100  1  0.66388386  0.66132780  0.33025859  1
  Sb  Sb101  1  0.49727713  0.66578608  0.50040460  1
  Sb  Sb102  1  0.16107651  0.15986690  0.67630069  1
  Sb  Sb103  1  0.49599662  0.66110364  0.83494292  1
  Sb  Sb104  1  0.66132443  0.32850742  0.00039954  1
  Sb  Sb105  1  0.49723481  0.33130509  0.49844060  1
  Sb  Sb106  1  0.83650475  0.49454371  0.32812698  1
  Sb  Sb107  1  0.66236632  0.83768803  0.49729562  1
  Te  Te108  1  0.16356116  0.16199504  0.16277332  1
  Te  Te109  1  0.16567087  0.16916555  0.49760162  1
  Te  Te110  1  0.16327088  0.17035559  0.83749414  1
  Te  Te111  1  0.16242883  0.50109370  0.17193188  1
  Te  Te112  1  0.16817753  0.49925056  0.49892291  1
  Te  Te113  1  0.16857771  0.49184338  0.83197737  1
  Te  Te114  1  0.16772651  0.83296529  0.16406631  1
  Te  Te115  1  0.17130579  0.83618845  0.49763079  1
  Te  Te116  1  0.16898943  0.83145497  0.83447551  1
  Te  Te117  1  0.49712574  0.17117346  0.16352632  1
  Te  Te118  1  0.50766738  0.16682442  0.50137870  1
  Te  Te119  1  0.50116345  0.17241658  0.83756163  1
  Te  Te120  1  0.50935857  0.49257880  0.16670877  1
  Te  Te121  1  0.49158694  0.49940326  0.49926071  1
  Te  Te122  1  0.50463712  0.49243710  0.83368544  1
  Te  Te123  1  0.50008793  0.83310217  0.16624831  1
  Te  Te124  1  0.49177561  0.83404460  0.49981029  1
  Te  Te125  1  0.49387854  0.83384496  0.83387330  1
  Te  Te126  1  0.83649571  0.16577660  0.15716778  1
  Te  Te127  1  0.83016609  0.16602103  0.49949898  1
  Te  Te128  1  0.83504947  0.16900147  0.84131742  1
  Te  Te129  1  0.83454813  0.50659976  0.16590917  1
  Te  Te130  1  0.83861457  0.49918182  0.49877098  1
  Te  Te131  1  0.82770471  0.50734521  0.83387917  1
  Te  Te132  1  0.82969331  0.82675702  0.16505717  1
  Te  Te133  1  0.83075350  0.83434096  0.49847828  1
  Te  Te134  1  0.83422098  0.82334913  0.83275314  1
  Te  Te135  1  0.16780997  0.00154461  0.00129111  1
  Te  Te136  1  0.16687818  0.00037068  0.33413068  1
  Te  Te137  1  0.16467022  0.00059754  0.66729839  1
  Te  Te138  1  0.17111828  0.33325246  -0.00252234  1
  Te  Te139  1  0.17043508  0.33702923  0.33375040  1
  Te  Te140  1  0.16688571  0.33150843  0.66506117  1
  Te  Te141  1  0.16842884  0.66121740  -0.00061367  1
  Te  Te142  1  0.17187413  0.66204051  0.33238745  1
  Te  Te143  1  0.16265059  0.67126431  0.67042696  1
  Te  Te144  1  0.48839106  0.00773769  0.00070972  1
  Te  Te145  1  0.50688357  0.00837520  0.33293606  1
  Te  Te146  1  0.49487893  -0.00004160  0.66663130  1
  Te  Te147  1  0.49510494  0.32990564  0.00053722  1
  Te  Te148  1  0.49811419  0.32891280  0.33311292  1
  Te  Te149  1  0.50723804  0.33254645  0.67274387  1
  Te  Te150  1  0.49036390  0.66732886  0.00003735  1
  Te  Te151  1  0.49160300  0.66676989  0.33323477  1
  Te  Te152  1  0.51108819  0.66639347  0.66728773  1
  Te  Te153  1  0.83645158  0.00003302  -0.00074716  1
  Te  Te154  1  0.82942047  0.00497454  0.32993422  1
  Te  Te155  1  0.83845427  0.00354400  0.67042609  1
  Te  Te156  1  0.83809498  0.32927976  -0.00005866  1
  Te  Te157  1  0.83014351  0.32822345  0.33033333  1
  Te  Te158  1  0.82929475  0.32897660  0.66899554  1
  Te  Te159  1  0.83536439  0.66932879  0.00085039  1
  Te  Te160  1  0.83260247  0.66677901  0.32921331  1
  Te  Te161  1  0.83520574  0.66741445  0.66723707  1
  Te  Te162  1  0.00269160  0.16734028  0.00015688  1
  Te  Te163  1  -0.00447955  0.16671495  0.32926548  1
  Te  Te164  1  -0.00607711  0.16434540  0.66776467  1
  Te  Te165  1  -0.00183912  0.50827894  0.00704858  1
  Te  Te166  1  0.00504971  0.49987640  0.33161623  1
  Te  Te167  1  -0.00052962  0.50476274  0.66213215  1
  Te  Te168  1  0.00610837  0.83328948  -0.00380020  1
  Te  Te169  1  -0.00119787  0.83293522  0.33905581  1
  Te  Te170  1  0.00427682  0.83191887  0.67400167  1
  Te  Te171  1  0.32779677  0.16860690  -0.00108636  1
  Te  Te172  1  0.33440850  0.17426054  0.33319158  1
  Te  Te173  1  0.33451123  0.15844890  0.66517914  1
  Te  Te174  1  0.33419011  0.49421260  -0.00458879  1
  Te  Te175  1  0.33016922  0.49857501  0.33205122  1
  Te  Te176  1  0.33350845  0.50028537  0.67017103  1
  Te  Te177  1  0.32869456  0.83369494  -0.00014283  1
  Te  Te178  1  0.33347650  0.83029469  0.33378850  1
  Te  Te179  1  0.32837256  0.83639008  0.66642665  1
  Te  Te180  1  0.66458323  0.16364911  -0.00253091  1
  Te  Te181  1  0.66708255  0.17233632  0.32937669  1
  Te  Te182  1  0.67139069  0.16883030  0.67848888  1
  Te  Te183  1  0.66682170  0.50298525  -0.00035195  1
  Te  Te184  1  0.66685414  0.49276652  0.33105417  1
  Te  Te185  1  0.66719905  0.49816249  0.66744312  1
  Te  Te186  1  0.66194872  0.83447707  0.00661280  1
  Te  Te187  1  0.66406091  0.83157853  0.32876140  1
  Te  Te188  1  0.66473894  0.83234116  0.66404657  1
  Te  Te189  1  -0.00028468  0.00173534  0.16284517  1
  Te  Te190  1  0.00685497  -0.00037334  0.49949729  1
  Te  Te191  1  0.00077399  0.00124830  0.83349530  1
  Te  Te192  1  -0.00408346  0.33335951  0.16612131  1
  Te  Te193  1  0.00560271  0.33792997  0.49953905  1
  Te  Te194  1  -0.00062263  0.33297016  0.83182537  1
  Te  Te195  1  0.00314112  0.66933637  0.16376296  1
  Te  Te196  1  -0.00021490  0.66180803  0.49866776  1
  Te  Te197  1  0.00258801  0.65931044  0.83588669  1
  Te  Te198  1  0.33019878  -0.00482627  0.16371217  1
  Te  Te199  1  0.32855431  -0.00231734  0.49511568  1
  Te  Te200  1  0.33310930  -0.00071903  0.83654889  1
  Te  Te201  1  0.33364223  0.33546232  0.16510229  1
  Te  Te202  1  0.32999299  0.33714264  0.50300333  1
  Te  Te203  1  0.32959765  0.33479320  0.83385084  1
  Te  Te204  1  0.33242879  0.66748195  0.16566677  1
  Te  Te205  1  0.33406063  0.66462989  0.50250335  1
  Te  Te206  1  0.33137367  0.66389759  0.83488358  1
  Te  Te207  1  0.66933371  0.00244170  0.16837453  1
  Te  Te208  1  0.66682995  0.00502051  0.49521116  1
  Te  Te209  1  0.66860460  0.00146386  0.83353611  1
  Te  Te210  1  0.66841273  0.32992453  0.16400735  1
  Te  Te211  1  0.66642360  0.33040070  0.50171659  1
  Te  Te212  1  0.66946999  0.33357075  0.83707184  1
  Te  Te213  1  0.66721749  0.66886083  0.16675467  1
  Te  Te214  1  0.66626195  0.66551082  0.50404753  1
  Te  Te215  1  0.66354403  0.66792570  0.83075615  1
