# generated using pymatgen
data_AgSbTe2
_symmetry_space_group_name_H-M   'P 1'
_cell_length_a   18.35528968
_cell_length_b   18.35109452
_cell_length_c   18.35048429
_cell_angle_alpha   89.99969594
_cell_angle_beta   89.99958369
_cell_angle_gamma   89.99654023
_symmetry_Int_Tables_number   1
_chemical_formula_structural   AgSbTe2
_chemical_formula_sum   'Ag54 Sb54 Te108'
_cell_volume   6181.17080019
_cell_formula_units_Z   54
loop_
 _symmetry_equiv_pos_site_id
 _symmetry_equiv_pos_as_xyz
  1  'x, y, z'
loop_
 _atom_site_type_symbol
 _atom_site_label
 _atom_site_symmetry_multiplicity
 _atom_site_fract_x
 _atom_site_fract_y
 _atom_site_fract_z
 _atom_site_occupancy
  Ag  Ag0  1  0.33628145  0.16588071  0.16735887  1
  Ag  Ag1  1  0.83208210  0.32260197  0.17645308  1
  Ag  Ag2  1  0.15497946  0.66926520  0.82819389  1
  Ag  Ag3  1  0.83795714  0.67071277  0.17213080  1
  Ag  Ag4  1  0.50577832  0.00819268  0.49225422  1
  Ag  Ag5  1  0.66534735  0.48314854  0.50097066  1
  Ag  Ag6  1  0.34443130  0.32890332  0.66735913  1
  Ag  Ag7  1  -0.00793338  0.32153599  0.33206258  1
  Ag  Ag8  1  0.50660653  0.16481662  0.32951963  1
  Ag  Ag9  1  0.50239446  0.66664476  0.49877253  1
  Ag  Ag10  1  0.66920193  0.32730540  0.65812317  1
  Ag  Ag11  1  0.00419878  0.16560478  0.17118794  1
  Ag  Ag12  1  -0.00147331  0.66488266  0.67104518  1
  Ag  Ag13  1  0.49700251  0.66758728  0.16948684  1
  Ag  Ag14  1  0.33535369  0.66890362  0.32776266  1
  Ag  Ag15  1  0.15696145  0.84540090  0.33202613  1
  Ag  Ag16  1  0.50746476  0.32521466  0.49830970  1
  Ag  Ag17  1  0.33458503  0.83703936  0.17171990  1
  Ag  Ag18  1  0.67519369  0.32357526  0.34437985  1
  Ag  Ag19  1  0.65956451  0.16672833  0.82521896  1
  Ag  Ag20  1  0.50484874  0.01073477  0.83529795  1
  Ag  Ag21  1  -0.00002675  0.50353002  0.83229606  1
  Ag  Ag22  1  0.67822643  0.00505148  0.33959663  1
  Ag  Ag23  1  -0.00823533  0.00454357  0.33036718  1
  Ag  Ag24  1  0.66546511  0.66587539  0.66509782  1
  Ag  Ag25  1  -0.00002026  0.67051570  0.33073620  1
  Ag  Ag26  1  0.83882410  0.84766677  0.33526563  1
  Ag  Ag27  1  0.34294301  0.66413035  0.66586804  1
  Ag  Ag28  1  0.83159642  0.16423637  0.33173258  1
  Ag  Ag29  1  0.82633710  0.00507319  0.49022974  1
  Ag  Ag30  1  0.83699503  0.00417997  0.17463407  1
  Ag  Ag31  1  0.83369533  0.83470640  0.66143946  1
  Ag  Ag32  1  0.16492446  0.16658996  0.66077601  1
  Ag  Ag33  1  0.15889927  0.16237292  0.33088008  1
  Ag  Ag34  1  -0.00157668  0.67285302  -0.00522249  1
  Ag  Ag35  1  0.50232615  0.00615438  0.17152834  1
  Ag  Ag36  1  -0.00500154  0.00066232  0.01065426  1
  Ag  Ag37  1  0.83088115  0.32787611  0.82388504  1
  Ag  Ag38  1  -0.00561937  0.32920804  0.66685751  1
  Ag  Ag39  1  0.49881145  0.66606083  0.82595004  1
  Ag  Ag40  1  0.66896848  0.00555463  0.01126751  1
  Ag  Ag41  1  0.15677903  0.00406781  0.48846166  1
  Ag  Ag42  1  0.16745809  0.32236195  0.17100260  1
  Ag  Ag43  1  0.50147360  0.32369427  0.17350743  1
  Ag  Ag44  1  -0.00132547  0.16614858  0.83746918  1
  Ag  Ag45  1  0.66483739  0.16676359  0.50026655  1
  Ag  Ag46  1  -0.00067206  0.82842048  0.83089076  1
  Ag  Ag47  1  0.33431914  0.49549753  0.16965837  1
  Ag  Ag48  1  0.66696206  0.01110228  0.66053192  1
  Ag  Ag49  1  0.50330001  0.16440048  0.00931664  1
  Ag  Ag50  1  0.50623143  0.32511426  0.82480118  1
  Ag  Ag51  1  0.15690670  0.00401454  0.17232992  1
  Ag  Ag52  1  0.34300352  0.16830887  0.83370888  1
  Ag  Ag53  1  0.82287699  0.32639609  0.49416495  1
  Sb  Sb54  1  0.50025325  0.83973656  0.00136395  1
  Sb  Sb55  1  0.33491401  0.00364695  0.00439296  1
  Sb  Sb56  1  -0.00213519  0.83416428  0.49887660  1
  Sb  Sb57  1  -0.00428124  0.00243437  0.66385662  1
  Sb  Sb58  1  0.83305195  0.49865367  0.66631870  1
  Sb  Sb59  1  0.82839065  0.16559732  0.00476895  1
  Sb  Sb60  1  0.66575298  0.16457233  0.17312531  1
  Sb  Sb61  1  0.00169472  0.83953811  0.16831751  1
  Sb  Sb62  1  0.83592406  0.83486777  0.00234459  1
  Sb  Sb63  1  0.82976805  0.66828315  0.49808547  1
  Sb  Sb64  1  0.33108579  -0.00063254  0.33026429  1
  Sb  Sb65  1  0.66915166  0.49400619  0.82821201  1
  Sb  Sb66  1  0.66829305  0.67307692  -0.00196469  1
  Sb  Sb67  1  0.00165573  0.49589060  0.16539807  1
  Sb  Sb68  1  0.49941051  0.16776077  0.66531987  1
  Sb  Sb69  1  0.83438643  0.16658325  0.66244828  1
  Sb  Sb70  1  0.16670371  0.16574566  0.00521024  1
  Sb  Sb71  1  0.16847094  0.67175867  0.50170921  1
  Sb  Sb72  1  0.16429766  0.83434544  0.00521366  1
  Sb  Sb73  1  0.66604632  0.66904488  0.33655845  1
  Sb  Sb74  1  0.50469363  0.83254637  0.66603867  1
  Sb  Sb75  1  0.66994755  0.83958389  0.82934116  1
  Sb  Sb76  1  -0.00186258  0.32876693  0.00055366  1
  Sb  Sb77  1  0.83024135  0.00469720  0.83306906  1
  Sb  Sb78  1  0.16758772  0.49723816  0.33097427  1
  Sb  Sb79  1  0.33430646  0.32972074  0.00191122  1
  Sb  Sb80  1  0.50044148  0.49458345  0.33290791  1
  Sb  Sb81  1  0.83577347  0.50037420  -0.00045439  1
  Sb  Sb82  1  0.33885665  0.49979662  0.49725764  1
  Sb  Sb83  1  0.66406374  0.49752034  0.17165577  1
  Sb  Sb84  1  0.50021567  0.49519863  0.00229335  1
  Sb  Sb85  1  0.33110663  0.83486732  0.83552299  1
  Sb  Sb86  1  0.50132177  0.83849323  0.33231671  1
  Sb  Sb87  1  0.33761585  0.16677844  0.49842174  1
  Sb  Sb88  1  0.16562434  0.66956958  0.16699556  1
  Sb  Sb89  1  0.33376258  0.33275619  0.33324087  1
  Sb  Sb90  1  0.33726497  0.00227103  0.66756282  1
  Sb  Sb91  1  0.16672765  0.32618195  0.49831244  1
  Sb  Sb92  1  0.16646911  0.00035531  0.83555170  1
  Sb  Sb93  1  0.33199296  0.49692865  0.83519390  1
  Sb  Sb94  1  0.83517339  0.66543006  0.83286404  1
  Sb  Sb95  1  0.16213879  0.83725273  0.66320127  1
  Sb  Sb96  1  0.66631259  0.83825408  0.16872242  1
  Sb  Sb97  1  0.16519983  0.33185800  0.83314233  1
  Sb  Sb98  1  0.33381346  0.83340127  0.49523525  1
  Sb  Sb99  1  -0.00457101  0.16640055  0.49573625  1
  Sb  Sb100  1  0.50104643  0.49861930  0.66497826  1
  Sb  Sb101  1  -0.00525560  0.49735404  0.50179808  1
  Sb  Sb102  1  0.66686407  0.84170198  0.50073364  1
  Sb  Sb103  1  0.83284153  0.49406345  0.33379877  1
  Sb  Sb104  1  0.16501927  0.50157341  -0.00021172  1
  Sb  Sb105  1  0.16469121  0.49508940  0.66783191  1
  Sb  Sb106  1  0.66500142  0.32461972  -0.00094272  1
  Sb  Sb107  1  0.33225984  0.66648132  0.00132586  1
  Te  Te108  1  0.16433625  0.16464459  0.16639136  1
  Te  Te109  1  0.16981951  0.16148718  0.49778508  1
  Te  Te110  1  0.16427358  0.16652628  0.83493674  1
  Te  Te111  1  0.17255546  0.49475971  0.16611418  1
  Te  Te112  1  0.16699221  0.49855520  0.50012129  1
  Te  Te113  1  0.16199631  0.50599132  0.83353609  1
  Te  Te114  1  0.17058263  0.83785812  0.17273712  1
  Te  Te115  1  0.16724203  0.84239943  0.49333019  1
  Te  Te116  1  0.16242818  0.82992050  0.83167617  1
  Te  Te117  1  0.50168523  0.16638873  0.16729822  1
  Te  Te118  1  0.50259607  0.16715905  0.49618120  1
  Te  Te119  1  0.49971428  0.16796438  0.82847248  1
  Te  Te120  1  0.49627570  0.50666134  0.16675959  1
  Te  Te121  1  0.50517177  0.50499239  0.49929525  1
  Te  Te122  1  0.50004363  0.50400727  0.83599390  1
  Te  Te123  1  0.49643309  0.82835322  0.16639372  1
  Te  Te124  1  0.49953569  0.82798587  0.49951455  1
  Te  Te125  1  0.49930887  0.82588741  0.83401482  1
  Te  Te126  1  0.83473831  0.16474621  0.16999875  1
  Te  Te127  1  0.82992337  0.16577906  0.49709787  1
  Te  Te128  1  0.83737181  0.17046830  0.83502265  1
  Te  Te129  1  0.83294356  0.50566074  0.16585001  1
  Te  Te130  1  0.82678937  0.49210135  0.50058497  1
  Te  Te131  1  0.83893672  0.49137344  0.83362314  1
  Te  Te132  1  0.83338100  0.83189367  0.17080143  1
  Te  Te133  1  0.83378171  0.83748935  0.49942510  1
  Te  Te134  1  0.83944930  0.83381650  0.83087567  1
  Te  Te135  1  0.15755742  -0.00097249  0.00439008  1
  Te  Te136  1  0.17048755  0.00133318  0.33252622  1
  Te  Te137  1  0.16900208  0.00583772  0.66571102  1
  Te  Te138  1  0.16606502  0.33449120  0.01115204  1
  Te  Te139  1  0.16436731  0.32938429  0.33007157  1
  Te  Te140  1  0.15916801  0.32751517  0.66660160  1
  Te  Te141  1  0.16134774  0.66799173  -0.00565429  1
  Te  Te142  1  0.16495849  0.66567648  0.33514928  1
  Te  Te143  1  0.15917348  0.66866548  0.66868767  1
  Te  Te144  1  0.50232991  0.00405102  -0.00148109  1
  Te  Te145  1  0.49746439  0.00336409  0.33314047  1
  Te  Te146  1  0.50524089  -0.00197707  0.66784031  1
  Te  Te147  1  0.49973113  0.32768138  0.00177622  1
  Te  Te148  1  0.49897510  0.32977085  0.33412805  1
  Te  Te149  1  0.50217234  0.33355433  0.66628528  1
  Te  Te150  1  0.50097017  0.66639626  0.00411469  1
  Te  Te151  1  0.49914847  0.66932267  0.33303975  1
  Te  Te152  1  0.50044535  0.66669824  0.66644524  1
  Te  Te153  1  0.83308915  -0.00038855  0.00480769  1
  Te  Te154  1  0.83455776  0.00245887  0.33185372  1
  Te  Te155  1  0.82848284  -0.00353515  0.66542964  1
  Te  Te156  1  0.83303641  0.33367136  0.00498702  1
  Te  Te157  1  0.83439246  0.33037211  0.33362389  1
  Te  Te158  1  0.83284545  0.33236122  0.66662465  1
  Te  Te159  1  0.83648070  0.66773279  0.00576150  1
  Te  Te160  1  0.83338220  0.66411757  0.33175925  1
  Te  Te161  1  0.83516810  0.66987651  0.66556026  1
  Te  Te162  1  -0.00158832  0.16179104  0.00108920  1
  Te  Te163  1  0.00005894  0.16512923  0.33306554  1
  Te  Te164  1  0.00235861  0.16934920  0.66592991  1
  Te  Te165  1  0.00040861  0.50709007  -0.00551701  1
  Te  Te166  1  0.00085293  0.50798691  0.33331176  1
  Te  Te167  1  0.00000118  0.50049632  0.67037808  1
  Te  Te168  1  0.00045152  0.83488887  -0.00575399  1
  Te  Te169  1  -0.00094526  0.83203926  0.33292903  1
  Te  Te170  1  -0.00351661  0.83306064  0.66961660  1
  Te  Te171  1  0.33919382  0.16703569  -0.00248966  1
  Te  Te172  1  0.33312086  0.16837061  0.32964095  1
  Te  Te173  1  0.32828366  0.16940764  0.66884734  1
  Te  Te174  1  0.33236733  0.49934826  0.00861653  1
  Te  Te175  1  0.33372172  0.50858413  0.32847575  1
  Te  Te176  1  0.33086922  0.50263066  0.66750351  1
  Te  Te177  1  0.33221892  0.83398690  0.00847864  1
  Te  Te178  1  0.33497094  0.82612121  0.32952061  1
  Te  Te179  1  0.33119148  0.82547351  0.66851077  1
  Te  Te180  1  0.66266660  0.16127498  -0.01254223  1
  Te  Te181  1  0.66603783  0.16594079  0.33324314  1
  Te  Te182  1  0.66898104  0.16929063  0.66614912  1
  Te  Te183  1  0.66719207  0.50309409  -0.00017314  1
  Te  Te184  1  0.66581832  0.49490782  0.34011797  1
  Te  Te185  1  0.66700688  0.50305391  0.66187422  1
  Te  Te186  1  0.66781714  0.84473852  -0.00282248  1
  Te  Te187  1  0.67440829  0.84085883  0.33285319  1
  Te  Te188  1  0.67285910  0.82511282  0.66702529  1
  Te  Te189  1  -0.00138131  0.00019134  0.16945930  1
  Te  Te190  1  0.00038301  -0.00038728  0.49537659  1
  Te  Te191  1  -0.00038803  0.00483483  0.83038268  1
  Te  Te192  1  -0.00561404  0.33145526  0.16933116  1
  Te  Te193  1  -0.00113181  0.33430922  0.49992832  1
  Te  Te194  1  0.00049348  0.32922269  0.83323077  1
  Te  Te195  1  -0.00075866  0.66521185  0.16877293  1
  Te  Te196  1  -0.00094998  0.66523614  0.50091661  1
  Te  Te197  1  -0.00375268  0.66724076  0.83301690  1
  Te  Te198  1  0.34212851  0.00460075  0.16519627  1
  Te  Te199  1  0.34541739  -0.00133523  0.50302276  1
  Te  Te200  1  0.33896190  0.00258094  0.83402502  1
  Te  Te201  1  0.33934967  0.32799943  0.16815756  1
  Te  Te202  1  0.33834113  0.33561187  0.50707403  1
  Te  Te203  1  0.33427437  0.33128668  0.82758850  1
  Te  Te204  1  0.33185038  0.66940086  0.16770060  1
  Te  Te205  1  0.33683466  0.66607614  0.50380150  1
  Te  Te206  1  0.33662892  0.66619878  0.83104264  1
  Te  Te207  1  0.66314309  -0.00119233  0.16782189  1
  Te  Te208  1  0.66576522  0.00476554  0.49957151  1
  Te  Te209  1  0.66374723  0.00285451  0.82343799  1
  Te  Te210  1  0.66616201  0.33513722  0.16637712  1
  Te  Te211  1  0.66394125  0.32749462  0.50103273  1
  Te  Te212  1  0.66625293  0.32972127  0.83314981  1
  Te  Te213  1  0.66552546  0.66645810  0.16587186  1
  Te  Te214  1  0.66368975  0.67141543  0.50264177  1
  Te  Te215  1  0.66502204  0.66501262  0.82974515  1
