# generated using pymatgen
data_AgSbTe2
_symmetry_space_group_name_H-M   'P 1'
_cell_length_a   18.33492538
_cell_length_b   18.33789685
_cell_length_c   18.33753171
_cell_angle_alpha   90.00045259
_cell_angle_beta   90.00350447
_cell_angle_gamma   90.00065285
_symmetry_Int_Tables_number   1
_chemical_formula_structural   AgSbTe2
_chemical_formula_sum   'Ag54 Sb54 Te108'
_cell_volume   6165.51770644
_cell_formula_units_Z   54
loop_
 _symmetry_equiv_pos_site_id
 _symmetry_equiv_pos_as_xyz
  1  'x, y, z'
loop_
 _atom_site_type_symbol
 _atom_site_label
 _atom_site_symmetry_multiplicity
 _atom_site_fract_x
 _atom_site_fract_y
 _atom_site_fract_z
 _atom_site_occupancy
  Ag  Ag0  1  0.66442880  0.83304833  0.83280206  1
  Ag  Ag1  1  0.66744931  0.66417156  0.33608097  1
  Ag  Ag2  1  0.84717046  -0.00139609  0.82126136  1
  Ag  Ag3  1  0.01233165  -0.00011592  -0.00503642  1
  Ag  Ag4  1  0.66775613  0.32828892  0.66403703  1
  Ag  Ag5  1  0.16449922  0.00402560  0.15254103  1
  Ag  Ag6  1  0.34112135  0.16133960  0.49711804  1
  Ag  Ag7  1  0.16355113  0.00531944  0.83733889  1
  Ag  Ag8  1  0.48899054  0.33381120  0.82488999  1
  Ag  Ag9  1  0.32679137  0.32955899  0.00338128  1
  Ag  Ag10  1  0.00549951  0.16352835  0.82419124  1
  Ag  Ag11  1  0.16753878  0.49651299  -0.00145348  1
  Ag  Ag12  1  0.32886761  0.83569468  0.83431732  1
  Ag  Ag13  1  0.84533237  -0.00264054  0.50540588  1
  Ag  Ag14  1  0.32403261  0.48966002  0.16032882  1
  Ag  Ag15  1  0.17111412  0.32632902  0.15726134  1
  Ag  Ag16  1  0.16237267  0.84277030  0.66552725  1
  Ag  Ag17  1  0.67512549  0.00342029  0.66335643  1
  Ag  Ag18  1  0.49634933  0.16763822  0.34863065  1
  Ag  Ag19  1  0.83201755  0.50030189  0.33440277  1
  Ag  Ag20  1  0.49612335  0.00963094  0.50228780  1
  Ag  Ag21  1  0.00583013  0.32836277  0.34091819  1
  Ag  Ag22  1  0.66801463  0.66671179  0.00362889  1
  Ag  Ag23  1  0.32519810  0.00256658  0.00185813  1
  Ag  Ag24  1  0.66746242  0.49923159  0.50084469  1
  Ag  Ag25  1  0.00759003  0.84406085  0.50466745  1
  Ag  Ag26  1  0.32943150  0.83944081  0.16429287  1
  Ag  Ag27  1  0.00124632  0.00200256  0.66454892  1
  Ag  Ag28  1  0.00314901  0.15669896  0.50635071  1
  Ag  Ag29  1  0.84637453  -0.00074811  0.16791337  1
  Ag  Ag30  1  0.66604303  0.83058288  0.16177721  1
  Ag  Ag31  1  0.49488154  0.16692927  0.66103872  1
  Ag  Ag32  1  0.84216988  0.83862552  0.66404539  1
  Ag  Ag33  1  0.00788040  0.49273809  0.83404717  1
  Ag  Ag34  1  0.66900360  0.50304997  0.16891348  1
  Ag  Ag35  1  0.32578850  0.84351171  0.50332351  1
  Ag  Ag36  1  0.32403731  0.49273569  0.83962897  1
  Ag  Ag37  1  0.00131519  0.67959522  0.66388206  1
  Ag  Ag38  1  0.65443470  0.16569672  0.50387531  1
  Ag  Ag39  1  0.16088411  0.67849592  0.50348123  1
  Ag  Ag40  1  0.16037047  -0.00058753  0.50514817  1
  Ag  Ag41  1  0.00758562  0.49680674  0.16350853  1
  Ag  Ag42  1  0.16825491  0.32537522  0.83841952  1
  Ag  Ag43  1  -0.00040142  0.32231788  0.66449043  1
  Ag  Ag44  1  0.00079998  0.00673871  0.34887904  1
  Ag  Ag45  1  0.50465941  0.66821113  0.50010251  1
  Ag  Ag46  1  0.32867658  0.33022103  0.32832403  1
  Ag  Ag47  1  0.50045557  0.32149674  0.50422214  1
  Ag  Ag48  1  0.83358345  0.67425227  0.50027114  1
  Ag  Ag49  1  0.32927012  0.16908626  0.16998125  1
  Ag  Ag50  1  0.66834772  0.50189998  0.83102253  1
  Ag  Ag51  1  0.16880169  0.84683807  -0.00780773  1
  Ag  Ag52  1  0.16862816  0.16111511  -0.00593220  1
  Ag  Ag53  1  0.16365870  0.16195726  0.66895283  1
  Sb  Sb54  1  0.00914118  0.32892928  -0.00240221  1
  Sb  Sb55  1  0.83440741  0.50419269  0.66400121  1
  Sb  Sb56  1  0.83074936  0.32995694  0.50143756  1
  Sb  Sb57  1  0.83278295  0.83248967  0.33924059  1
  Sb  Sb58  1  0.49234899  0.33389200  0.16980982  1
  Sb  Sb59  1  0.32711130  0.00499957  0.33359585  1
  Sb  Sb60  1  0.49437997  0.00092948  0.17232501  1
  Sb  Sb61  1  -0.00354982  0.49873460  0.50179101  1
  Sb  Sb62  1  0.16879200  0.32800161  0.50322391  1
  Sb  Sb63  1  0.32814021  0.66851601  0.66493975  1
  Sb  Sb64  1  0.84265997  0.16304072  0.00024257  1
  Sb  Sb65  1  0.16683948  0.66863689  0.16973564  1
  Sb  Sb66  1  0.50242765  0.66653742  0.17124872  1
  Sb  Sb67  1  0.83186167  0.67036690  0.17216982  1
  Sb  Sb68  1  0.33193130  0.33024220  0.66804886  1
  Sb  Sb69  1  0.83240975  0.16802686  0.33618384  1
  Sb  Sb70  1  0.33424998  0.66731454  0.00005314  1
  Sb  Sb71  1  0.83827021  0.83550016  -0.00498153  1
  Sb  Sb72  1  0.83873593  0.33049015  0.83095757  1
  Sb  Sb73  1  0.16267004  0.49703363  0.32971334  1
  Sb  Sb74  1  0.16671265  0.83618903  0.33779730  1
  Sb  Sb75  1  0.83612386  0.50043103  0.00262381  1
  Sb  Sb76  1  0.67022022  0.16597348  0.82482211  1
  Sb  Sb77  1  0.16396229  0.49691061  0.67138176  1
  Sb  Sb78  1  0.50352469  0.49514462  0.33493166  1
  Sb  Sb79  1  0.66503112  0.33689614  0.33910148  1
  Sb  Sb80  1  0.67037751  0.66848157  0.66308327  1
  Sb  Sb81  1  0.49840153  0.84030617  0.66459630  1
  Sb  Sb82  1  0.49129598  0.16751068  -0.00404561  1
  Sb  Sb83  1  0.83371181  0.67206077  0.82671001  1
  Sb  Sb84  1  0.16568075  0.66966990  0.82869605  1
  Sb  Sb85  1  0.32404088  0.00112772  0.66639972  1
  Sb  Sb86  1  0.00156191  0.83591077  0.17046184  1
  Sb  Sb87  1  0.33712345  0.66241742  0.33502621  1
  Sb  Sb88  1  0.66087387  0.16619355  0.17255810  1
  Sb  Sb89  1  0.00355435  0.83990095  0.82511981  1
  Sb  Sb90  1  0.66633014  -0.00328430  -0.00462178  1
  Sb  Sb91  1  0.50157689  0.49297457  0.66609618  1
  Sb  Sb92  1  0.49512112  0.00540645  0.82543710  1
  Sb  Sb93  1  0.49465637  0.50007687  -0.00117187  1
  Sb  Sb94  1  -0.00063662  0.66934003  -0.00556669  1
  Sb  Sb95  1  0.83842126  0.15855347  0.66452288  1
  Sb  Sb96  1  0.17022074  0.16605490  0.33642124  1
  Sb  Sb97  1  0.50146812  0.66250465  0.82733624  1
  Sb  Sb98  1  0.00911482  0.16668936  0.16817388  1
  Sb  Sb99  1  0.32532344  0.16639108  0.83247292  1
  Sb  Sb100  1  0.66698738  0.83482006  0.50365837  1
  Sb  Sb101  1  0.33729169  0.49684682  0.49977655  1
  Sb  Sb102  1  0.67149243  -0.00324304  0.33950841  1
  Sb  Sb103  1  0.65728261  0.33862341  -0.00622213  1
  Sb  Sb104  1  0.50041045  0.83841037  0.33641054  1
  Sb  Sb105  1  -0.00322369  0.66568884  0.33991696  1
  Sb  Sb106  1  0.49449043  0.83451791  -0.00122003  1
  Sb  Sb107  1  0.84044910  0.33179583  0.16964476  1
  Te  Te108  1  0.17134156  0.16658587  0.16600790  1
  Te  Te109  1  0.16316163  0.16491464  0.50350693  1
  Te  Te110  1  0.16529587  0.16624145  0.83239046  1
  Te  Te111  1  0.16709595  0.50161927  0.16453366  1
  Te  Te112  1  0.16799214  0.50143701  0.50097183  1
  Te  Te113  1  0.16676205  0.50187220  0.83604300  1
  Te  Te114  1  0.16920285  0.83636494  0.16535562  1
  Te  Te115  1  0.16768204  0.83593276  0.50131314  1
  Te  Te116  1  0.16841991  0.83452927  0.83196073  1
  Te  Te117  1  0.49192715  0.16759305  0.16708696  1
  Te  Te118  1  0.49863801  0.16634407  0.50484608  1
  Te  Te119  1  0.50065380  0.17330382  0.82770191  1
  Te  Te120  1  0.50479952  0.50027704  0.16648958  1
  Te  Te121  1  0.50544918  0.50587912  0.50031861  1
  Te  Te122  1  0.50556377  0.49479665  0.83284071  1
  Te  Te123  1  0.50020341  0.83379100  0.16704043  1
  Te  Te124  1  0.49425744  0.82950925  0.50041378  1
  Te  Te125  1  0.49944306  0.83319013  0.83221843  1
  Te  Te126  1  0.83074729  0.15930130  0.16783379  1
  Te  Te127  1  0.84134389  0.16007104  0.49832526  1
  Te  Te128  1  0.84065764  0.15852923  0.83547949  1
  Te  Te129  1  0.82961177  0.49966156  0.17006912  1
  Te  Te130  1  0.82830542  0.50031797  0.49682402  1
  Te  Te131  1  0.82848824  0.50056310  0.83462087  1
  Te  Te132  1  0.83152852  0.83822913  0.16648757  1
  Te  Te133  1  0.83244873  0.83559759  0.50387345  1
  Te  Te134  1  0.82936326  0.83903294  0.82840290  1
  Te  Te135  1  0.16933435  0.00170804  -0.00252805  1
  Te  Te136  1  0.15991776  0.00035829  0.34099308  1
  Te  Te137  1  0.16443636  0.00121787  0.66583954  1
  Te  Te138  1  0.16917263  0.33581136  -0.00067399  1
  Te  Te139  1  0.16604863  0.33266109  0.33103661  1
  Te  Te140  1  0.16191508  0.32930566  0.67113205  1
  Te  Te141  1  0.16583447  0.65982755  0.00079973  1
  Te  Te142  1  0.16632921  0.66576738  0.34243029  1
  Te  Te143  1  0.16120596  0.66883249  0.66142181  1
  Te  Te144  1  0.49187427  0.00122684  -0.00104350  1
  Te  Te145  1  0.50067040  0.00625099  0.34024260  1
  Te  Te146  1  0.50582756  0.00581066  0.66172256  1
  Te  Te147  1  0.48937133  0.33342309  -0.00676399  1
  Te  Te148  1  0.49711486  0.32827598  0.33738953  1
  Te  Te149  1  0.50063908  0.32876245  0.66494063  1
  Te  Te150  1  0.50881398  0.66730105  -0.00138567  1
  Te  Te151  1  0.50582615  0.66630871  0.33919089  1
  Te  Te152  1  0.50064919  0.66698979  0.65984174  1
  Te  Te153  1  0.83465465  -0.00059172  0.00495295  1
  Te  Te154  1  0.83899339  0.00006563  0.33170619  1
  Te  Te155  1  0.83456602  -0.00280952  0.66544554  1
  Te  Te156  1  0.83097244  0.33131653  0.00070513  1
  Te  Te157  1  0.83988759  0.33873892  0.33371315  1
  Te  Te158  1  0.83492803  0.33547460  0.66688793  1
  Te  Te159  1  0.82710670  0.66805595  -0.00053869  1
  Te  Te160  1  0.82921253  0.66271946  0.33920715  1
  Te  Te161  1  0.83783655  0.67335274  0.65997130  1
  Te  Te162  1  0.00845635  0.16108870  -0.00066490  1
  Te  Te163  1  -0.00042713  0.16799750  0.33518066  1
  Te  Te164  1  0.00148708  0.16408600  0.66689968  1
  Te  Te165  1  0.00285681  0.50083219  -0.00057039  1
  Te  Te166  1  -0.00437948  0.49784108  0.33046424  1
  Te  Te167  1  -0.00074687  0.49266131  0.67187790  1
  Te  Te168  1  0.00726785  0.83603636  0.00086392  1
  Te  Te169  1  -0.00096549  0.83627627  0.34038354  1
  Te  Te170  1  0.00196498  0.83678731  0.66499000  1
  Te  Te171  1  0.32789453  0.16629243  0.00037034  1
  Te  Te172  1  0.33609875  0.16992941  0.33511606  1
  Te  Te173  1  0.33202489  0.16675219  0.66028199  1
  Te  Te174  1  0.32983998  0.50073467  0.00015234  1
  Te  Te175  1  0.33394207  0.49375129  0.32768061  1
  Te  Te176  1  0.33312226  0.50013847  0.67596470  1
  Te  Te177  1  0.32855882  0.83361614  -0.00026533  1
  Te  Te178  1  0.33417438  0.83235348  0.33149128  1
  Te  Te179  1  0.32815538  0.83414320  0.66585323  1
  Te  Te180  1  0.66524073  0.16797625  0.00119614  1
  Te  Te181  1  0.66110792  0.16731106  0.34012879  1
  Te  Te182  1  0.66826956  0.16745159  0.66253551  1
  Te  Te183  1  0.66730581  0.50343017  -0.00030562  1
  Te  Te184  1  0.66945298  0.50201840  0.33472748  1
  Te  Te185  1  0.66777684  0.49723285  0.66620876  1
  Te  Te186  1  0.66717894  0.83082183  -0.00086332  1
  Te  Te187  1  0.66696923  0.82833498  0.32491484  1
  Te  Te188  1  0.66568107  0.83652565  0.67094474  1
  Te  Te189  1  0.00434701  -0.00032904  0.15927087  1
  Te  Te190  1  0.00058583  -0.00070581  0.50369474  1
  Te  Te191  1  0.00286321  -0.00064867  0.83257095  1
  Te  Te192  1  0.00574973  0.33652129  0.16725558  1
  Te  Te193  1  0.00001005  0.33197512  0.50081672  1
  Te  Te194  1  0.00376836  0.33213352  0.83179421  1
  Te  Te195  1  -0.00054534  0.66025900  0.16674935  1
  Te  Te196  1  -0.00127037  0.66537577  0.50380449  1
  Te  Te197  1  -0.00191093  0.65704450  0.82710940  1
  Te  Te198  1  0.32946157  -0.00086416  0.16717240  1
  Te  Te199  1  0.33434471  0.00106755  0.49900214  1
  Te  Te200  1  0.32920844  -0.00296805  0.83638805  1
  Te  Te201  1  0.33066135  0.33273817  0.16606119  1
  Te  Te202  1  0.33703932  0.33182142  0.49681883  1
  Te  Te203  1  0.32980143  0.33335739  0.83426670  1
  Te  Te204  1  0.33451798  0.66955193  0.16704917  1
  Te  Te205  1  0.33250175  0.66621295  0.49897374  1
  Te  Te206  1  0.33515424  0.66957099  0.83315009  1
  Te  Te207  1  0.66437557  -0.00256280  0.16631254  1
  Te  Te208  1  0.66339290  0.00056308  0.50270158  1
  Te  Te209  1  0.66387684  -0.00286400  0.82882165  1
  Te  Te210  1  0.66624398  0.33703722  0.16550255  1
  Te  Te211  1  0.66399796  0.33374572  0.50345633  1
  Te  Te212  1  0.66855691  0.33547608  0.82781667  1
  Te  Te213  1  0.66752297  0.66637803  0.16761347  1
  Te  Te214  1  0.66991106  0.66736567  0.49885547  1
  Te  Te215  1  0.66677964  0.66664063  0.83336060  1
