# generated using pymatgen
data_AgSbTe2
_symmetry_space_group_name_H-M   'P 1'
_cell_length_a   18.34081215
_cell_length_b   18.34309828
_cell_length_c   18.33911974
_cell_angle_alpha   89.99703532
_cell_angle_beta   90.00468801
_cell_angle_gamma   90.00019719
_symmetry_Int_Tables_number   1
_chemical_formula_structural   AgSbTe2
_chemical_formula_sum   'Ag54 Sb54 Te108'
_cell_volume   6169.78087113
_cell_formula_units_Z   54
loop_
 _symmetry_equiv_pos_site_id
 _symmetry_equiv_pos_as_xyz
  1  'x, y, z'
loop_
 _atom_site_type_symbol
 _atom_site_label
 _atom_site_symmetry_multiplicity
 _atom_site_fract_x
 _atom_site_fract_y
 _atom_site_fract_z
 _atom_site_occupancy
  Ag  Ag0  1  -0.01183504  0.34303657  0.33749068  1
  Ag  Ag1  1  0.16482095  0.66039523  0.48947125  1
  Ag  Ag2  1  0.82796288  0.34095258  0.18261680  1
  Ag  Ag3  1  0.67556053  0.34479939  0.33431985  1
  Ag  Ag4  1  0.50371445  0.49838500  0.66468628  1
  Ag  Ag5  1  0.66569134  0.66928557  0.00888714  1
  Ag  Ag6  1  0.49741444  0.33643452  0.81883285  1
  Ag  Ag7  1  0.83456224  0.34243265  0.49470093  1
  Ag  Ag8  1  -0.00656098  0.17744259  0.49561963  1
  Ag  Ag9  1  0.33669509  0.66595774  0.33065444  1
  Ag  Ag10  1  0.82855930  0.66187820  0.49334347  1
  Ag  Ag11  1  0.16630536  0.82047278  0.33281914  1
  Ag  Ag12  1  0.66998755  0.66296354  0.33294022  1
  Ag  Ag13  1  0.83368887  0.18239555  0.33510892  1
  Ag  Ag14  1  0.16548396  0.66045004  0.83207217  1
  Ag  Ag15  1  -0.00259271  -0.00499185  0.33571543  1
  Ag  Ag16  1  0.67144836  0.66420018  0.65167394  1
  Ag  Ag17  1  0.82537876  0.66335418  0.17503839  1
  Ag  Ag18  1  0.82810389  0.50427752  0.65419846  1
  Ag  Ag19  1  0.82777974  0.82967352  0.00167703  1
  Ag  Ag20  1  0.50283972  0.66369804  0.17358074  1
  Ag  Ag21  1  0.16148140  -0.00395448  0.83437123  1
  Ag  Ag22  1  0.83281223  0.82091840  0.66914163  1
  Ag  Ag23  1  0.66849959  0.82149789  0.49782979  1
  Ag  Ag24  1  0.33805600  0.50578344  0.16643453  1
  Ag  Ag25  1  0.49933096  0.18000615  0.66084506  1
  Ag  Ag26  1  0.83689248  -0.00736301  0.83744526  1
  Ag  Ag27  1  0.17167301  0.50324413  0.00508674  1
  Ag  Ag28  1  0.33458965  0.82310298  0.16710206  1
  Ag  Ag29  1  -0.00306759  0.83161643  0.17134119  1
  Ag  Ag30  1  -0.00228884  0.66376687  0.33518904  1
  Ag  Ag31  1  -0.00345327  0.49768392  0.49637464  1
  Ag  Ag32  1  -0.00421458  -0.00055147  0.66046606  1
  Ag  Ag33  1  0.83333289  -0.01415184  0.16481477  1
  Ag  Ag34  1  0.33558079  0.17272903  0.49603010  1
  Ag  Ag35  1  0.51076644  0.66127701  0.49058273  1
  Ag  Ag36  1  0.16067644  0.50331637  0.33417900  1
  Ag  Ag37  1  0.15953071  0.33907209  0.50013545  1
  Ag  Ag38  1  0.16910473  0.34159375  0.82736883  1
  Ag  Ag39  1  0.50184078  0.33938426  0.49921391  1
  Ag  Ag40  1  0.50258720  0.34515273  0.17354253  1
  Ag  Ag41  1  0.33008218  0.49933841  0.83690597  1
  Ag  Ag42  1  0.66847559  -0.01113605  0.00139986  1
  Ag  Ag43  1  0.50675240  0.82871611  0.00684796  1
  Ag  Ag44  1  0.66888163  0.17041301  0.49820094  1
  Ag  Ag45  1  0.83756105  0.49839489  0.33641054  1
  Ag  Ag46  1  0.83270578  0.34135885  0.82967960  1
  Ag  Ag47  1  0.33855615  0.66822622  0.01351031  1
  Ag  Ag48  1  0.83333525  0.66562289  0.83036348  1
  Ag  Ag49  1  0.34006163  0.33635945  0.66246816  1
  Ag  Ag50  1  0.33616969  0.17213107  0.17145586  1
  Ag  Ag51  1  0.49778679  0.82354428  0.32687458  1
  Ag  Ag52  1  0.33587351  -0.00927201  0.00252240  1
  Ag  Ag53  1  0.66374769  0.50373848  0.16916158  1
  Sb  Sb54  1  -0.00516794  0.82882513  0.49391946  1
  Sb  Sb55  1  0.32973485  0.00616246  0.67177278  1
  Sb  Sb56  1  -0.00113229  0.16444907  0.17560863  1
  Sb  Sb57  1  0.49951710  0.16516655  -0.00071931  1
  Sb  Sb58  1  0.66537553  0.50087321  0.83714228  1
  Sb  Sb59  1  0.16507993  -0.00188509  0.16336184  1
  Sb  Sb60  1  0.33808032  0.66062024  0.66287755  1
  Sb  Sb61  1  -0.00161717  -0.00216928  0.00157398  1
  Sb  Sb62  1  -0.00235245  0.83180651  0.83639843  1
  Sb  Sb63  1  0.32838840  -0.00435237  0.32763431  1
  Sb  Sb64  1  0.33325165  0.17324320  0.83330367  1
  Sb  Sb65  1  0.82919529  0.17052612  0.65917369  1
  Sb  Sb66  1  0.50106324  0.00405861  0.83511780  1
  Sb  Sb67  1  0.83440458  -0.00188844  0.49682349  1
  Sb  Sb68  1  0.33500575  0.33971232  0.33700888  1
  Sb  Sb69  1  0.67243866  -0.00363757  0.32980406  1
  Sb  Sb70  1  0.66796233  0.16852349  0.82703836  1
  Sb  Sb71  1  0.83587150  0.50643192  0.00389743  1
  Sb  Sb72  1  -0.00189528  0.16633957  0.82469701  1
  Sb  Sb73  1  0.83100457  0.16278780  0.00595097  1
  Sb  Sb74  1  0.33277368  0.82656528  0.84048575  1
  Sb  Sb75  1  0.33099440  0.49779079  0.49686392  1
  Sb  Sb76  1  0.00002776  0.66712789  0.00730573  1
  Sb  Sb77  1  0.50514270  0.82717580  0.66457233  1
  Sb  Sb78  1  0.33474498  0.33853707  -0.00107987  1
  Sb  Sb79  1  0.66496018  0.17197408  0.17219246  1
  Sb  Sb80  1  0.16298723  0.17013992  0.33573288  1
  Sb  Sb81  1  0.66429392  0.34038081  0.65820896  1
  Sb  Sb82  1  0.50184408  0.66162545  0.83477851  1
  Sb  Sb83  1  0.49654005  0.50493107  0.00155781  1
  Sb  Sb84  1  -0.00793704  0.66788617  0.66005791  1
  Sb  Sb85  1  0.17037866  0.66559826  0.17172946  1
  Sb  Sb86  1  0.50090293  0.00035811  0.50013690  1
  Sb  Sb87  1  -0.00033357  0.33219153  0.65898023  1
  Sb  Sb88  1  0.16725569  0.33697566  0.17103812  1
  Sb  Sb89  1  0.16909291  0.16913107  0.66437169  1
  Sb  Sb90  1  0.16673399  0.82740615  0.00433490  1
  Sb  Sb91  1  0.17015458  0.17028169  -0.00057711  1
  Sb  Sb92  1  0.50304461  0.16702660  0.33699420  1
  Sb  Sb93  1  0.66620538  0.82579470  0.16995920  1
  Sb  Sb94  1  0.66722816  0.33766081  0.00606601  1
  Sb  Sb95  1  0.16720090  0.50031803  0.66231335  1
  Sb  Sb96  1  0.67268005  -0.00476964  0.66897527  1
  Sb  Sb97  1  0.16107433  0.83067356  0.66195336  1
  Sb  Sb98  1  0.16442670  0.00025335  0.50149601  1
  Sb  Sb99  1  0.66882090  0.83026974  0.83465705  1
  Sb  Sb100  1  0.50424256  -0.00418052  0.16684097  1
  Sb  Sb101  1  0.00167355  0.50030820  0.82662042  1
  Sb  Sb102  1  0.67166955  0.50025090  0.49293829  1
  Sb  Sb103  1  0.50261053  0.50447594  0.33550922  1
  Sb  Sb104  1  -0.00179722  0.50534794  0.17510076  1
  Sb  Sb105  1  -0.00128072  0.33625733  0.00597083  1
  Sb  Sb106  1  0.83372062  0.82557881  0.33167620  1
  Sb  Sb107  1  0.33689840  0.83220381  0.49376465  1
  Te  Te108  1  0.17464662  0.16754931  0.16684098  1
  Te  Te109  1  0.16969679  0.17130684  0.50024152  1
  Te  Te110  1  0.16603373  0.16752421  0.83306935  1
  Te  Te111  1  0.17013917  0.49860042  0.16699826  1
  Te  Te112  1  0.16466341  0.49981748  0.49724178  1
  Te  Te113  1  0.16785401  0.49989098  0.82835178  1
  Te  Te114  1  0.16768149  0.83354154  0.17186838  1
  Te  Te115  1  0.16745707  0.82906743  0.49441560  1
  Te  Te116  1  0.16571659  0.83278166  0.83311642  1
  Te  Te117  1  0.49608103  0.16802279  0.16795243  1
  Te  Te118  1  0.49902850  0.16695536  0.50101543  1
  Te  Te119  1  0.50027357  0.17537406  0.82842390  1
  Te  Te120  1  0.49877818  0.50304574  0.16727315  1
  Te  Te121  1  0.49775266  0.50074003  0.50270716  1
  Te  Te122  1  0.49626942  0.49513887  0.83170692  1
  Te  Te123  1  0.49738887  0.83017984  0.16628026  1
  Te  Te124  1  0.50474686  0.82795466  0.49817672  1
  Te  Te125  1  0.49907759  0.83437664  0.83784487  1
  Te  Te126  1  0.83274983  0.17901849  0.17278720  1
  Te  Te127  1  0.83338444  0.16512250  0.49536065  1
  Te  Te128  1  0.83338607  0.16678635  0.83257850  1
  Te  Te129  1  0.83276017  0.50104190  0.16815004  1
  Te  Te130  1  0.83367750  0.50175629  0.49745148  1
  Te  Te131  1  0.83423524  0.50177829  0.83669198  1
  Te  Te132  1  0.83249607  0.82903537  0.16546573  1
  Te  Te133  1  0.82974980  0.82996625  0.50409559  1
  Te  Te134  1  0.83351365  0.83269457  0.83368707  1
  Te  Te135  1  0.16973548  -0.00081016  -0.00518363  1
  Te  Te136  1  0.15984034  -0.00081969  0.33275597  1
  Te  Te137  1  0.16110506  -0.00104549  0.67283973  1
  Te  Te138  1  0.16627595  0.33819871  -0.00551179  1
  Te  Te139  1  0.16662166  0.33788748  0.33889501  1
  Te  Te140  1  0.16991514  0.33430151  0.66538139  1
  Te  Te141  1  0.16924532  0.66412405  -0.00486175  1
  Te  Te142  1  0.16605856  0.66429810  0.33258347  1
  Te  Te143  1  0.16752168  0.66792149  0.67115696  1
  Te  Te144  1  0.50074461  -0.00558162  -0.00083788  1
  Te  Te145  1  0.49918271  -0.00990030  0.33341688  1
  Te  Te146  1  0.49983498  0.00004150  0.66917677  1
  Te  Te147  1  0.50119034  0.33337222  0.00882975  1
  Te  Te148  1  0.50227925  0.33293275  0.33385050  1
  Te  Te149  1  0.50247766  0.33759584  0.66194367  1
  Te  Te150  1  0.49924664  0.66953124  0.00017534  1
  Te  Te151  1  0.49956521  0.66599451  0.33368014  1
  Te  Te152  1  0.50656115  0.66175931  0.66505745  1
  Te  Te153  1  0.83204013  -0.00284338  0.00111189  1
  Te  Te154  1  0.83776417  -0.00525809  0.32821006  1
  Te  Te155  1  0.83561421  0.00249608  0.67051348  1
  Te  Te156  1  0.83346441  0.33278190  -0.01012404  1
  Te  Te157  1  0.83220056  0.33761759  0.33852021  1
  Te  Te158  1  0.83189653  0.33767182  0.66866787  1
  Te  Te159  1  0.83320987  0.66966497  -0.00232286  1
  Te  Te160  1  0.83174643  0.66523208  0.33415959  1
  Te  Te161  1  0.83166842  0.66470601  0.66853559  1
  Te  Te162  1  0.00129828  0.16703019  0.00045713  1
  Te  Te163  1  -0.00356517  0.16493550  0.33813162  1
  Te  Te164  1  -0.00109023  0.16177435  0.65722813  1
  Te  Te165  1  0.01119704  0.50044160  -0.00050365  1
  Te  Te166  1  -0.00079475  0.50210175  0.33574179  1
  Te  Te167  1  -0.00838798  0.49996796  0.65932918  1
  Te  Te168  1  -0.00520074  0.83359389  0.00909993  1
  Te  Te169  1  0.00164921  0.83124700  0.33109565  1
  Te  Te170  1  -0.00642251  0.83837162  0.66577079  1
  Te  Te171  1  0.33470365  0.16156994  0.00482551  1
  Te  Te172  1  0.33406504  0.16435892  0.33327310  1
  Te  Te173  1  0.33835397  0.17275238  0.66367724  1
  Te  Te174  1  0.33099053  0.50464987  0.00085752  1
  Te  Te175  1  0.32825383  0.50489074  0.32978615  1
  Te  Te176  1  0.33683371  0.49555638  0.66934491  1
  Te  Te177  1  0.33298252  0.82933947  0.00469483  1
  Te  Te178  1  0.33289754  0.83031944  0.32904270  1
  Te  Te179  1  0.33409817  0.83586989  0.66672672  1
  Te  Te180  1  0.66490033  0.16153819  -0.00065369  1
  Te  Te181  1  0.67125363  0.16372819  0.33870281  1
  Te  Te182  1  0.66087066  0.16480798  0.65941753  1
  Te  Te183  1  0.66724890  0.50611869  0.00761808  1
  Te  Te184  1  0.66888388  0.50147655  0.32733105  1
  Te  Te185  1  0.66737428  0.50529136  0.67070631  1
  Te  Te186  1  0.66719982  0.83069288  0.00035157  1
  Te  Te187  1  0.66209746  0.83047512  0.33785110  1
  Te  Te188  1  0.67193098  0.82786942  0.66181321  1
  Te  Te189  1  -0.00487347  -0.00305536  0.17012704  1
  Te  Te190  1  0.00098304  0.00043360  0.49819342  1
  Te  Te191  1  -0.00155940  -0.00030474  0.83219214  1
  Te  Te192  1  -0.00460321  0.33338410  0.17391265  1
  Te  Te193  1  -0.00154094  0.33480903  0.49754391  1
  Te  Te194  1  0.00145347  0.33214334  0.83270663  1
  Te  Te195  1  -0.00673864  0.67072518  0.17341702  1
  Te  Te196  1  0.00248745  0.66388521  0.49576523  1
  Te  Te197  1  -0.00059967  0.66647154  0.83330768  1
  Te  Te198  1  0.33379556  -0.00047470  0.16191389  1
  Te  Te199  1  0.33208746  0.00741553  0.50152805  1
  Te  Te200  1  0.33030130  0.00064457  0.83903950  1
  Te  Te201  1  0.33574967  0.33471702  0.16716588  1
  Te  Te202  1  0.33882710  0.33238224  0.50174252  1
  Te  Te203  1  0.33346073  0.33716446  0.83206551  1
  Te  Te204  1  0.33311800  0.66574923  0.16903219  1
  Te  Te205  1  0.32852663  0.66684790  0.49602424  1
  Te  Te206  1  0.33183759  0.66061052  0.83100989  1
  Te  Te207  1  0.67287776  0.00407290  0.16146297  1
  Te  Te208  1  0.66648746  0.00380150  0.49976979  1
  Te  Te209  1  0.67264377  0.00080560  0.83830577  1
  Te  Te210  1  0.66620277  0.33726513  0.17128106  1
  Te  Te211  1  0.66677185  0.33222509  0.49566487  1
  Te  Te212  1  0.66698813  0.33337189  0.83698353  1
  Te  Te213  1  0.66466480  0.66516029  0.16887503  1
  Te  Te214  1  0.66797712  0.66376187  0.49579760  1
  Te  Te215  1  0.67089382  0.66608593  0.84038670  1
