# generated using pymatgen
data_AgSbTe2
_symmetry_space_group_name_H-M   'P 1'
_cell_length_a   18.34198313
_cell_length_b   18.34940169
_cell_length_c   18.34397871
_cell_angle_alpha   90.00067720
_cell_angle_beta   89.99909543
_cell_angle_gamma   90.00124254
_symmetry_Int_Tables_number   1
_chemical_formula_structural   AgSbTe2
_chemical_formula_sum   'Ag54 Sb54 Te108'
_cell_volume   6173.93048215
_cell_formula_units_Z   54
loop_
 _symmetry_equiv_pos_site_id
 _symmetry_equiv_pos_as_xyz
  1  'x, y, z'
loop_
 _atom_site_type_symbol
 _atom_site_label
 _atom_site_symmetry_multiplicity
 _atom_site_fract_x
 _atom_site_fract_y
 _atom_site_fract_z
 _atom_site_occupancy
  Ag  Ag0  1  0.50106129  -0.01061930  0.83402257  1
  Ag  Ag1  1  0.66042096  0.67254201  0.33770820  1
  Ag  Ag2  1  0.32630772  -0.00937712  -0.00174035  1
  Ag  Ag3  1  0.33713066  0.83313823  0.84010737  1
  Ag  Ag4  1  0.83126514  0.00366089  0.83728826  1
  Ag  Ag5  1  0.01139207  0.66544074  0.66440809  1
  Ag  Ag6  1  0.16654398  -0.00178514  0.83670420  1
  Ag  Ag7  1  -0.00022599  0.16878884  0.16228495  1
  Ag  Ag8  1  0.33276713  0.34173341  0.34199545  1
  Ag  Ag9  1  0.33273771  0.67654269  -0.00581147  1
  Ag  Ag10  1  0.16446145  0.34136762  0.83044099  1
  Ag  Ag11  1  0.33200851  0.49976238  0.50222106  1
  Ag  Ag12  1  0.83897362  0.32989039  0.83947053  1
  Ag  Ag13  1  0.84729629  0.49254755  -0.00284465  1
  Ag  Ag14  1  0.49429477  0.66141175  0.50362162  1
  Ag  Ag15  1  0.16978047  0.50596570  0.66134752  1
  Ag  Ag16  1  0.33737961  -0.00231450  0.33264893  1
  Ag  Ag17  1  0.65687447  -0.00348292  0.33319562  1
  Ag  Ag18  1  0.67617514  0.33332758  -0.00472953  1
  Ag  Ag19  1  0.49063753  0.34817450  0.50270043  1
  Ag  Ag20  1  0.00401965  0.83093317  0.50369278  1
  Ag  Ag21  1  0.33242316  0.83354073  0.15251998  1
  Ag  Ag22  1  0.00854743  0.00242511  -0.00627429  1
  Ag  Ag23  1  0.65756559  0.82990366  0.50110155  1
  Ag  Ag24  1  0.66760854  0.15783160  0.83551598  1
  Ag  Ag25  1  0.49996558  -0.00452346  0.50436324  1
  Ag  Ag26  1  -0.00271586  0.33546979  -0.00387500  1
  Ag  Ag27  1  0.17227142  0.50037727  0.34775127  1
  Ag  Ag28  1  0.16588953  0.82378094  0.66969301  1
  Ag  Ag29  1  0.16819907  -0.00840999  0.15460287  1
  Ag  Ag30  1  0.49604052  0.50719314  -0.00240584  1
  Ag  Ag31  1  0.17593688  0.83339135  -0.00811823  1
  Ag  Ag32  1  0.17322794  0.66058384  0.50378732  1
  Ag  Ag33  1  0.16910899  0.66565924  0.16654560  1
  Ag  Ag34  1  0.33048993  0.66347887  0.66811942  1
  Ag  Ag35  1  0.65610658  0.83921584  0.83419617  1
  Ag  Ag36  1  0.64619552  0.50710355  0.49848740  1
  Ag  Ag37  1  0.33238960  0.34513961  0.66161400  1
  Ag  Ag38  1  0.16764317  0.50505933  -0.00386066  1
  Ag  Ag39  1  0.83566163  0.17202649  -0.00169063  1
  Ag  Ag40  1  0.48793438  0.50042057  0.65850676  1
  Ag  Ag41  1  0.01801399  0.50079041  0.50439902  1
  Ag  Ag42  1  0.49895639  0.16612524  0.66614992  1
  Ag  Ag43  1  0.00552275  0.49725769  0.15270410  1
  Ag  Ag44  1  0.00430995  -0.00276304  0.67350223  1
  Ag  Ag45  1  0.17205209  0.34677962  0.50656777  1
  Ag  Ag46  1  0.00011468  0.16832520  0.49975554  1
  Ag  Ag47  1  0.66485052  0.00041802  -0.00876819  1
  Ag  Ag48  1  0.49369042  0.50618649  0.34611087  1
  Ag  Ag49  1  0.00540944  0.49858487  0.83539949  1
  Ag  Ag50  1  0.49912068  0.83030229  0.33938732  1
  Ag  Ag51  1  0.49738001  0.66982570  0.82747472  1
  Ag  Ag52  1  0.48736508  0.83231319  -0.01016412  1
  Ag  Ag53  1  0.83434621  0.16535554  0.32884587  1
  Sb  Sb54  1  0.00434023  0.33495037  0.33233190  1
  Sb  Sb55  1  0.66861313  0.50186054  0.16808244  1
  Sb  Sb56  1  0.83895990  0.49877557  0.67051192  1
  Sb  Sb57  1  0.00095502  0.66471777  0.33987421  1
  Sb  Sb58  1  0.33735897  0.16045822  0.83334313  1
  Sb  Sb59  1  0.49306345  0.66827473  0.16891008  1
  Sb  Sb60  1  0.83375189  0.83606498  -0.00316059  1
  Sb  Sb61  1  0.33103918  0.17236431  0.50032998  1
  Sb  Sb62  1  0.00290557  0.00074136  0.33350696  1
  Sb  Sb63  1  0.00929571  0.66474565  -0.00601572  1
  Sb  Sb64  1  0.17279392  0.82915875  0.33524574  1
  Sb  Sb65  1  0.66801108  0.16602171  0.50355404  1
  Sb  Sb66  1  0.83894370  0.83437586  0.66815524  1
  Sb  Sb67  1  0.67133662  0.16434617  0.16118046  1
  Sb  Sb68  1  0.49697931  0.33634170  0.16944102  1
  Sb  Sb69  1  0.82576786  0.83833463  0.33547378  1
  Sb  Sb70  1  0.49441462  0.82998356  0.66793267  1
  Sb  Sb71  1  0.84240316  0.66454095  0.16504219  1
  Sb  Sb72  1  0.83248336  0.66467023  0.50058661  1
  Sb  Sb73  1  -0.00319651  0.16704870  0.83397759  1
  Sb  Sb74  1  0.17306298  0.66689772  0.82951609  1
  Sb  Sb75  1  0.00501695  0.83240316  0.83055877  1
  Sb  Sb76  1  0.32999373  0.33618213  -0.00230338  1
  Sb  Sb77  1  0.49430369  -0.00127489  0.16320388  1
  Sb  Sb78  1  0.16094867  0.16327641  -0.00066840  1
  Sb  Sb79  1  0.00741814  0.33502710  0.67049284  1
  Sb  Sb80  1  0.16947777  0.16845226  0.66758912  1
  Sb  Sb81  1  0.66620373  0.50136631  0.83147864  1
  Sb  Sb82  1  0.16376334  0.17096944  0.33457412  1
  Sb  Sb83  1  0.16581179  0.33722419  0.16483633  1
  Sb  Sb84  1  0.16933793  -0.00276564  0.50189368  1
  Sb  Sb85  1  0.50242574  0.16419188  0.33986618  1
  Sb  Sb86  1  0.66159281  0.66646128  0.66249964  1
  Sb  Sb87  1  0.32577126  0.16001141  0.16707806  1
  Sb  Sb88  1  0.83418334  0.49565324  0.33179471  1
  Sb  Sb89  1  0.66110754  0.33223258  0.33248490  1
  Sb  Sb90  1  0.33439914  0.82877476  0.50316217  1
  Sb  Sb91  1  0.83518366  0.33237782  0.15965431  1
  Sb  Sb92  1  0.33607422  0.66714278  0.33528380  1
  Sb  Sb93  1  0.82865727  0.66773643  0.83477893  1
  Sb  Sb94  1  0.65839130  0.66785563  0.00250281  1
  Sb  Sb95  1  0.33116516  -0.00372097  0.66888758  1
  Sb  Sb96  1  0.49614470  0.33643771  0.82964189  1
  Sb  Sb97  1  0.83203781  0.16623936  0.67154047  1
  Sb  Sb98  1  0.01010618  0.83287068  0.16829150  1
  Sb  Sb99  1  0.66635021  -0.00271354  0.67039794  1
  Sb  Sb100  1  0.32744156  0.50545317  0.16864334  1
  Sb  Sb101  1  0.83614320  0.33391930  0.50521166  1
  Sb  Sb102  1  0.65808715  0.83492746  0.16595692  1
  Sb  Sb103  1  0.83915757  0.00107438  0.16030908  1
  Sb  Sb104  1  0.65993316  0.33487421  0.66999696  1
  Sb  Sb105  1  0.50632596  0.16231553  -0.00687957  1
  Sb  Sb106  1  0.83161998  0.00094606  0.50353746  1
  Sb  Sb107  1  0.32984132  0.50520636  0.82806087  1
  Te  Te108  1  0.15856051  0.16247423  0.16740858  1
  Te  Te109  1  0.15963809  0.16696463  0.49983808  1
  Te  Te110  1  0.16743324  0.16212691  0.83290503  1
  Te  Te111  1  0.16366689  0.50273856  0.15623353  1
  Te  Te112  1  0.17318370  0.50207524  0.50347940  1
  Te  Te113  1  0.16461738  0.50025240  0.83592217  1
  Te  Te114  1  0.17183361  0.83173788  0.16840515  1
  Te  Te115  1  0.16430312  0.82956920  0.50290870  1
  Te  Te116  1  0.16770140  0.83503530  0.83240312  1
  Te  Te117  1  0.50107339  0.16779600  0.16877349  1
  Te  Te118  1  0.50184089  0.15642176  0.50566369  1
  Te  Te119  1  0.50530966  0.16772850  0.82760953  1
  Te  Te120  1  0.49957348  0.50088034  0.15818881  1
  Te  Te121  1  0.49170271  0.50378217  0.50167195  1
  Te  Te122  1  0.50033055  0.50388657  0.83762149  1
  Te  Te123  1  0.49270246  0.83380412  0.16882077  1
  Te  Te124  1  0.49928870  0.83547358  0.50094503  1
  Te  Te125  1  0.49853443  0.83183928  0.83078645  1
  Te  Te126  1  0.83996391  0.16653185  0.16393430  1
  Te  Te127  1  0.83847162  0.16808747  0.49930095  1
  Te  Te128  1  0.83027216  0.16556347  0.83693463  1
  Te  Te129  1  0.84195204  0.49935904  0.16186994  1
  Te  Te130  1  0.83581366  0.49714737  0.49959042  1
  Te  Te131  1  0.83442298  0.49821466  0.83793281  1
  Te  Te132  1  0.83436689  0.83178741  0.16686802  1
  Te  Te133  1  0.83502576  0.83311243  0.50016445  1
  Te  Te134  1  0.82582356  0.83947668  0.83376754  1
  Te  Te135  1  0.16681334  0.00013783  -0.00205252  1
  Te  Te136  1  0.17141401  -0.00084086  0.33305118  1
  Te  Te137  1  0.16436993  -0.00023827  0.67051563  1
  Te  Te138  1  0.16267524  0.33412842  -0.00350756  1
  Te  Te139  1  0.17162685  0.33851714  0.33619154  1
  Te  Te140  1  0.17119029  0.33505449  0.66747303  1
  Te  Te141  1  0.17102599  0.67026595  -0.00145497  1
  Te  Te142  1  0.16803891  0.66145632  0.33733543  1
  Te  Te143  1  0.16936394  0.66553073  0.66576137  1
  Te  Te144  1  0.50379861  -0.00234106  -0.00331034  1
  Te  Te145  1  0.49898346  -0.00086752  0.33161060  1
  Te  Te146  1  0.49902179  -0.00026163  0.66917420  1
  Te  Te147  1  0.49852787  0.33297230  -0.00023262  1
  Te  Te148  1  0.49539074  0.33628881  0.33933140  1
  Te  Te149  1  0.49496262  0.33909899  0.66270646  1
  Te  Te150  1  0.49494879  0.67096011  0.00180995  1
  Te  Te151  1  0.50086410  0.66576242  0.33515259  1
  Te  Te152  1  0.49711181  0.66310960  0.66475450  1
  Te  Te153  1  0.82896363  0.00093928  -0.00374907  1
  Te  Te154  1  0.83170446  0.00510751  0.33335320  1
  Te  Te155  1  0.84203456  0.00132073  0.67404204  1
  Te  Te156  1  0.83627579  0.33377849  -0.00335821  1
  Te  Te157  1  0.83149888  0.32652829  0.33338048  1
  Te  Te158  1  0.83227568  0.33230400  0.67788215  1
  Te  Te159  1  0.83175594  0.66012841  -0.00006450  1
  Te  Te160  1  0.82435312  0.66615226  0.33204397  1
  Te  Te161  1  0.84288299  0.66626280  0.66865608  1
  Te  Te162  1  -0.00408646  0.16406471  0.00052560  1
  Te  Te163  1  -0.00433511  0.16776086  0.33404975  1
  Te  Te164  1  0.00025130  0.16344718  0.66256225  1
  Te  Te165  1  0.00392274  0.50203890  -0.00418644  1
  Te  Te166  1  0.00300976  0.49972318  0.34172103  1
  Te  Te167  1  0.00420177  0.50031206  0.66543919  1
  Te  Te168  1  0.00270074  0.83739042  0.00038765  1
  Te  Te169  1  -0.00198147  0.83309807  0.33992336  1
  Te  Te170  1  0.00499888  0.83398152  0.66464142  1
  Te  Te171  1  0.33561326  0.16261323  0.00156881  1
  Te  Te172  1  0.33348777  0.15986086  0.33298934  1
  Te  Te173  1  0.33965973  0.16829987  0.66591942  1
  Te  Te174  1  0.33239951  0.49929368  0.00094736  1
  Te  Te175  1  0.33371161  0.50094167  0.33370036  1
  Te  Te176  1  0.33112530  0.50306745  0.66769790  1
  Te  Te177  1  0.33209563  0.83508325  -0.00323611  1
  Te  Te178  1  0.33861212  0.83660617  0.33592708  1
  Te  Te179  1  0.32695850  0.82852641  0.67015482  1
  Te  Te180  1  0.67206367  0.16494134  -0.00382638  1
  Te  Te181  1  0.67127740  0.16232806  0.33324015  1
  Te  Te182  1  0.66162003  0.16656968  0.67249666  1
  Te  Te183  1  0.65964688  0.49920437  0.00079019  1
  Te  Te184  1  0.66439667  0.49921867  0.33614284  1
  Te  Te185  1  0.66755911  0.50091525  0.65930425  1
  Te  Te186  1  0.66411371  0.83675304  -0.00128669  1
  Te  Te187  1  0.66063310  0.83578425  0.33535416  1
  Te  Te188  1  0.66881493  0.83223463  0.66147116  1
  Te  Te189  1  0.00646906  0.00097299  0.16373678  1
  Te  Te190  1  0.00024771  -0.00174055  0.50090103  1
  Te  Te191  1  0.00290585  -0.00113551  0.83443782  1
  Te  Te192  1  0.00106199  0.33405895  0.16116499  1
  Te  Te193  1  0.00391249  0.33463146  0.50089775  1
  Te  Te194  1  0.00217608  0.33384765  0.83612194  1
  Te  Te195  1  0.00872916  0.66179568  0.16814421  1
  Te  Te196  1  -0.00011001  0.66595524  0.50341897  1
  Te  Te197  1  -0.00355823  0.66277324  0.82703918  1
  Te  Te198  1  0.32837899  -0.00422537  0.16511172  1
  Te  Te199  1  0.33762193  0.00065364  0.49864490  1
  Te  Te200  1  0.33380047  -0.00439404  0.83512531  1
  Te  Te201  1  0.33172434  0.33052558  0.17415709  1
  Te  Te202  1  0.33202885  0.33341175  0.50043936  1
  Te  Te203  1  0.32692158  0.33022733  0.82964165  1
  Te  Te204  1  0.32676957  0.67161362  0.16222708  1
  Te  Te205  1  0.33409354  0.66390412  0.50113518  1
  Te  Te206  1  0.33902083  0.67018138  0.83358435  1
  Te  Te207  1  0.66866759  -0.00036135  0.16986362  1
  Te  Te208  1  0.66449809  -0.00307270  0.49850368  1
  Te  Te209  1  0.66309807  -0.00140480  0.83192115  1
  Te  Te210  1  0.66535207  0.33317263  0.15707859  1
  Te  Te211  1  0.66377404  0.33601320  0.50024606  1
  Te  Te212  1  0.66619060  0.33366619  0.83744953  1
  Te  Te213  1  0.66886428  0.66733181  0.17446666  1
  Te  Te214  1  0.66441266  0.66685920  0.49784890  1
  Te  Te215  1  0.66057406  0.67293866  0.83297536  1
