# generated using pymatgen
data_AgSbTe2
_symmetry_space_group_name_H-M   'P 1'
_cell_length_a   18.32591643
_cell_length_b   18.32956210
_cell_length_c   18.32599074
_cell_angle_alpha   90.00322266
_cell_angle_beta   89.99781287
_cell_angle_gamma   89.99799556
_symmetry_Int_Tables_number   1
_chemical_formula_structural   AgSbTe2
_chemical_formula_sum   'Ag54 Sb54 Te108'
_cell_volume   6155.81065392
_cell_formula_units_Z   54
loop_
 _symmetry_equiv_pos_site_id
 _symmetry_equiv_pos_as_xyz
  1  'x, y, z'
loop_
 _atom_site_type_symbol
 _atom_site_label
 _atom_site_symmetry_multiplicity
 _atom_site_fract_x
 _atom_site_fract_y
 _atom_site_fract_z
 _atom_site_occupancy
  Ag  Ag0  1  0.33192439  0.66955361  0.33515522  1
  Ag  Ag1  1  0.33180114  0.17484662  0.16719379  1
  Ag  Ag2  1  0.83871290  0.82668424  0.33750880  1
  Ag  Ag3  1  0.16791718  0.33552480  0.50828561  1
  Ag  Ag4  1  0.00551394  0.33344934  -0.01119810  1
  Ag  Ag5  1  0.66532672  0.50137036  0.17011562  1
  Ag  Ag6  1  0.00342781  0.34055402  0.67634733  1
  Ag  Ag7  1  0.83964658  0.00800861  0.82998338  1
  Ag  Ag8  1  0.50459792  0.83269038  0.00122235  1
  Ag  Ag9  1  0.00099195  0.17473234  0.83208471  1
  Ag  Ag10  1  0.84681123  0.32201513  0.83197132  1
  Ag  Ag11  1  0.67024840  -0.00536980  -0.00225457  1
  Ag  Ag12  1  0.67550443  0.66517872  0.32947212  1
  Ag  Ag13  1  0.83677825  0.16272178  -0.01237160  1
  Ag  Ag14  1  0.68694241  0.16772503  0.83362814  1
  Ag  Ag15  1  0.16365815  0.49145031  0.66317468  1
  Ag  Ag16  1  0.33001095  0.00097518  0.66239398  1
  Ag  Ag17  1  0.17057749  0.33725892  0.16188059  1
  Ag  Ag18  1  0.16946362  0.83000956  0.33831053  1
  Ag  Ag19  1  0.15972660  0.01237782  0.82988637  1
  Ag  Ag20  1  0.16320058  0.17296689  0.67508791  1
  Ag  Ag21  1  0.16220113  0.83365610  0.66515922  1
  Ag  Ag22  1  0.84217940  0.16266698  0.67546394  1
  Ag  Ag23  1  0.67466574  0.33397444  0.66950526  1
  Ag  Ag24  1  0.33124540  0.83376916  0.49688788  1
  Ag  Ag25  1  0.49298737  0.50082692  0.66144077  1
  Ag  Ag26  1  0.83488730  -0.00903711  0.51068034  1
  Ag  Ag27  1  0.49740422  0.50415601  0.33298704  1
  Ag  Ag28  1  0.49396965  0.17060532  0.33189600  1
  Ag  Ag29  1  0.83821635  0.67020698  0.49810275  1
  Ag  Ag30  1  0.67080840  0.67082726  0.00477320  1
  Ag  Ag31  1  0.00553272  0.50430446  0.16887332  1
  Ag  Ag32  1  0.15713229  0.32488060  0.83306599  1
  Ag  Ag33  1  -0.00102609  0.48904456  0.82551673  1
  Ag  Ag34  1  0.83311088  0.83579073  -0.01119438  1
  Ag  Ag35  1  -0.00094622  0.66186407  0.66670048  1
  Ag  Ag36  1  -0.00359445  0.83245517  0.83275186  1
  Ag  Ag37  1  0.32385691  0.32940473  0.00408661  1
  Ag  Ag38  1  0.83546532  0.50934747  0.33411978  1
  Ag  Ag39  1  0.00533053  0.50176376  0.50711450  1
  Ag  Ag40  1  0.16456027  0.65903458  0.17004181  1
  Ag  Ag41  1  0.33401032  -0.00550812  0.34073677  1
  Ag  Ag42  1  0.16546120  0.17229312  -0.01270939  1
  Ag  Ag43  1  0.32756335  0.50002145  0.49537204  1
  Ag  Ag44  1  0.33094011  0.16568048  0.50004885  1
  Ag  Ag45  1  0.00013832  0.82457894  0.16538894  1
  Ag  Ag46  1  0.33013061  0.49437928  0.17429183  1
  Ag  Ag47  1  0.48805287  0.33675236  0.16670032  1
  Ag  Ag48  1  0.49155067  0.82749945  0.33453936  1
  Ag  Ag49  1  -0.00302079  0.66577144  0.33573670  1
  Ag  Ag50  1  0.49680360  0.82941312  0.66496062  1
  Ag  Ag51  1  0.84177360  0.83582539  0.67087759  1
  Ag  Ag52  1  0.83768783  0.67118570  0.82938974  1
  Ag  Ag53  1  0.31511282  0.16716392  0.83134534  1
  Sb  Sb54  1  0.16811359  0.50597455  0.33474887  1
  Sb  Sb55  1  0.66854157  0.50105275  0.49751764  1
  Sb  Sb56  1  0.66912374  0.33368758  -0.00346021  1
  Sb  Sb57  1  0.00126688  0.34206584  0.33333935  1
  Sb  Sb58  1  0.83413251  -0.00299296  0.16241820  1
  Sb  Sb59  1  0.00131632  0.82696457  0.50267189  1
  Sb  Sb60  1  0.67019381  0.82604974  0.16490008  1
  Sb  Sb61  1  0.32680260  0.66953905  0.66112365  1
  Sb  Sb62  1  0.32971284  0.83188618  0.17366887  1
  Sb  Sb63  1  0.00316217  -0.00200184  0.66923846  1
  Sb  Sb64  1  0.84036818  0.50068396  0.66426850  1
  Sb  Sb65  1  0.66318631  -0.00741871  0.32921315  1
  Sb  Sb66  1  0.82983704  0.16406121  0.33545903  1
  Sb  Sb67  1  0.49863330  0.16444236  0.00201711  1
  Sb  Sb68  1  0.83811823  0.33632001  0.16044136  1
  Sb  Sb69  1  0.15930995  0.66453105  0.83383014  1
  Sb  Sb70  1  0.66497549  0.33946616  0.33571902  1
  Sb  Sb71  1  0.67365200  0.66381010  0.66598917  1
  Sb  Sb72  1  0.49712465  0.66199576  0.17159769  1
  Sb  Sb73  1  0.66400089  0.16733500  0.50499684  1
  Sb  Sb74  1  0.17244891  0.16169978  0.33516922  1
  Sb  Sb75  1  0.50658881  0.66847689  0.83297243  1
  Sb  Sb76  1  -0.00429334  0.00398420  -0.00455541  1
  Sb  Sb77  1  0.84025217  0.33555545  0.50802343  1
  Sb  Sb78  1  0.67300025  0.49639279  0.83388307  1
  Sb  Sb79  1  0.33538416  0.00482215  -0.00270149  1
  Sb  Sb80  1  0.32789749  0.83870765  0.82696049  1
  Sb  Sb81  1  0.49734922  0.00170908  0.16752319  1
  Sb  Sb82  1  -0.00396740  0.66379012  -0.00034489  1
  Sb  Sb83  1  0.33569416  0.66401803  0.00633575  1
  Sb  Sb84  1  0.66737488  0.83246630  0.49979954  1
  Sb  Sb85  1  0.83938745  0.66589591  0.16967856  1
  Sb  Sb86  1  0.50039255  0.50249830  0.00275148  1
  Sb  Sb87  1  0.66779148  0.00235820  0.67131162  1
  Sb  Sb88  1  0.66271435  0.17268544  0.16197673  1
  Sb  Sb89  1  0.49540799  0.16831857  0.66462354  1
  Sb  Sb90  1  0.16239420  0.66352526  0.49668389  1
  Sb  Sb91  1  0.00613721  0.17124887  0.16022444  1
  Sb  Sb92  1  0.16789752  0.00200120  0.16302488  1
  Sb  Sb93  1  0.50082232  0.00036695  0.83267731  1
  Sb  Sb94  1  0.00499408  0.17304370  0.50833347  1
  Sb  Sb95  1  0.49885338  -0.00120719  0.50018518  1
  Sb  Sb96  1  0.33160200  0.33484883  0.32841670  1
  Sb  Sb97  1  0.16644967  0.00155917  0.50673813  1
  Sb  Sb98  1  0.83529851  0.50211281  0.00168719  1
  Sb  Sb99  1  0.16473358  0.49230498  0.00002691  1
  Sb  Sb100  1  0.49270827  0.33536176  0.49774023  1
  Sb  Sb101  1  0.00410489  -0.00946593  0.33504211  1
  Sb  Sb102  1  0.16348634  0.83828153  -0.00212571  1
  Sb  Sb103  1  0.32631201  0.32925673  0.66902683  1
  Sb  Sb104  1  0.32549752  0.49425684  0.83058324  1
  Sb  Sb105  1  0.49704099  0.33271938  0.83532490  1
  Sb  Sb106  1  0.67573923  0.83788284  0.83479009  1
  Sb  Sb107  1  0.50123323  0.66655187  0.49830112  1
  Te  Te108  1  0.17174381  0.17057063  0.16644390  1
  Te  Te109  1  0.17227145  0.16996002  0.50352523  1
  Te  Te110  1  0.15999080  0.16786169  0.83137912  1
  Te  Te111  1  0.16782382  0.49849136  0.16717620  1
  Te  Te112  1  0.16689580  0.49808276  0.50173179  1
  Te  Te113  1  0.16016754  0.49793405  0.82693770  1
  Te  Te114  1  0.16194983  0.83396134  0.16663135  1
  Te  Te115  1  0.17025127  0.83463450  0.50235284  1
  Te  Te116  1  0.16108014  0.83257961  0.82975684  1
  Te  Te117  1  0.49541655  0.17228962  0.17011481  1
  Te  Te118  1  0.49305699  0.16693608  0.49394362  1
  Te  Te119  1  0.49698222  0.16669980  0.83318477  1
  Te  Te120  1  0.49648547  0.49728153  0.16846133  1
  Te  Te121  1  0.49555063  0.50044716  0.49894779  1
  Te  Te122  1  0.49917068  0.50042402  0.82769504  1
  Te  Te123  1  0.50009907  0.83259709  0.16902029  1
  Te  Te124  1  0.49594965  0.83276035  0.49921593  1
  Te  Te125  1  0.49732269  0.83374240  0.83092801  1
  Te  Te126  1  0.83360597  0.16659239  0.16452903  1
  Te  Te127  1  0.83312812  0.16553737  0.50435829  1
  Te  Te128  1  0.84196666  0.16553671  0.83166099  1
  Te  Te129  1  0.83509379  0.49927538  0.17245768  1
  Te  Te130  1  0.83693584  0.50231938  0.49454107  1
  Te  Te131  1  0.83848808  0.50507533  0.83296663  1
  Te  Te132  1  0.83790660  0.83261392  0.17057373  1
  Te  Te133  1  0.83437070  0.83202030  0.50138177  1
  Te  Te134  1  0.83476200  0.83262582  0.83122134  1
  Te  Te135  1  0.16740250  0.00738670  -0.00759926  1
  Te  Te136  1  0.17231871  -0.00798300  0.33392550  1
  Te  Te137  1  0.16943310  -0.00345459  0.67005547  1
  Te  Te138  1  0.16570727  0.33157716  -0.00100249  1
  Te  Te139  1  0.16501417  0.33021089  0.33123506  1
  Te  Te140  1  0.16594338  0.33273892  0.66919136  1
  Te  Te141  1  0.16858584  0.66803462  0.00744327  1
  Te  Te142  1  0.16502727  0.67167765  0.33091940  1
  Te  Te143  1  0.16011627  0.67131572  0.66681542  1
  Te  Te144  1  0.50582138  -0.00680714  0.00029924  1
  Te  Te145  1  0.49549416  -0.00551265  0.33357157  1
  Te  Te146  1  0.49578279  -0.00547255  0.66603262  1
  Te  Te147  1  0.49946073  0.33385173  0.00535751  1
  Te  Te148  1  0.50116549  0.33664546  0.32940512  1
  Te  Te149  1  0.50037442  0.33765522  0.66631414  1
  Te  Te150  1  0.50505922  0.67308565  0.00048420  1
  Te  Te151  1  0.49749309  0.66597243  0.33483893  1
  Te  Te152  1  0.50086053  0.66731608  0.66571702  1
  Te  Te153  1  0.83066688  -0.00197922  -0.00385384  1
  Te  Te154  1  0.83277611  -0.00494813  0.33434505  1
  Te  Te155  1  0.83207754  -0.00124534  0.66913687  1
  Te  Te156  1  0.83620951  0.33044868  -0.00721335  1
  Te  Te157  1  0.83190522  0.33453846  0.33427475  1
  Te  Te158  1  0.83663406  0.33303735  0.67073509  1
  Te  Te159  1  0.82968301  0.67107925  -0.00221203  1
  Te  Te160  1  0.83516591  0.66703499  0.33282782  1
  Te  Te161  1  0.83640092  0.66893898  0.66624484  1
  Te  Te162  1  -0.00100956  0.17055972  -0.00159880  1
  Te  Te163  1  -0.00183706  0.16441775  0.33188398  1
  Te  Te164  1  0.00122199  0.16891818  0.66964195  1
  Te  Te165  1  -0.00053856  0.49543030  0.00329676  1
  Te  Te166  1  -0.00054219  0.50551739  0.33009967  1
  Te  Te167  1  0.00165159  0.50114242  0.66669243  1
  Te  Te168  1  -0.00379460  0.83348952  0.00027668  1
  Te  Te169  1  -0.00008301  0.82737927  0.33442229  1
  Te  Te170  1  -0.00033967  0.83093102  0.66730019  1
  Te  Te171  1  0.33248832  0.16856238  -0.00075007  1
  Te  Te172  1  0.33531309  0.16600998  0.33530458  1
  Te  Te173  1  0.33094654  0.16320178  0.66633414  1
  Te  Te174  1  0.33414232  0.49504815  0.00309502  1
  Te  Te175  1  0.33399407  0.50192786  0.33426094  1
  Te  Te176  1  0.33084299  0.50138886  0.66307922  1
  Te  Te177  1  0.33740810  0.83467286  0.00047445  1
  Te  Te178  1  0.33187759  0.83165845  0.33461837  1
  Te  Te179  1  0.33234980  0.83489784  0.66250118  1
  Te  Te180  1  0.66995403  0.16551016  -0.00405490  1
  Te  Te181  1  0.65988275  0.16477338  0.33287404  1
  Te  Te182  1  0.66613667  0.17036951  0.67149251  1
  Te  Te183  1  0.66701505  0.50504361  0.00446266  1
  Te  Te184  1  0.66408469  0.50403180  0.33101167  1
  Te  Te185  1  0.65990695  0.49645116  0.66626957  1
  Te  Te186  1  0.66890528  0.83176326  0.00028199  1
  Te  Te187  1  0.66729427  0.82712349  0.33214200  1
  Te  Te188  1  0.66147113  0.83297221  0.66724342  1
  Te  Te189  1  0.00143799  -0.00818372  0.16615070  1
  Te  Te190  1  -0.00627395  0.00393386  0.49977554  1
  Te  Te191  1  -0.00051646  -0.00628109  0.83313225  1
  Te  Te192  1  0.00567703  0.33918117  0.16530305  1
  Te  Te193  1  0.00717958  0.34018465  0.50148708  1
  Te  Te194  1  0.00100043  0.33443514  0.83283709  1
  Te  Te195  1  0.00438383  0.66554359  0.16585058  1
  Te  Te196  1  -0.00326849  0.66185367  0.50051636  1
  Te  Te197  1  -0.00312737  0.67183119  0.83255979  1
  Te  Te198  1  0.33242288  0.00566432  0.17048022  1
  Te  Te199  1  0.33257907  -0.00153857  0.50055689  1
  Te  Te200  1  0.32984411  0.00559187  0.82950787  1
  Te  Te201  1  0.33124645  0.33387372  0.16503964  1
  Te  Te202  1  0.32728023  0.33501789  0.50141290  1
  Te  Te203  1  0.32980582  0.32877252  0.83996685  1
  Te  Te204  1  0.32744589  0.66232072  0.17248354  1
  Te  Te205  1  0.33315853  0.66638554  0.49511060  1
  Te  Te206  1  0.33443657  0.66563276  0.83541052  1
  Te  Te207  1  0.66588604  0.00205527  0.15926125  1
  Te  Te208  1  0.67568466  0.00108387  0.49886909  1
  Te  Te209  1  0.67085435  0.00612179  0.83753936  1
  Te  Te210  1  0.66701408  0.34058633  0.16634024  1
  Te  Te211  1  0.66717287  0.33293914  0.50873336  1
  Te  Te212  1  0.66603657  0.32885231  0.82941201  1
  Te  Te213  1  0.66496232  0.66034011  0.16849976  1
  Te  Te214  1  0.67659221  0.66611319  0.49449653  1
  Te  Te215  1  0.67402207  0.66569909  0.83586768  1
