# generated using pymatgen
data_AgSbTe2
_symmetry_space_group_name_H-M   'P 1'
_cell_length_a   18.32278059
_cell_length_b   18.32617229
_cell_length_c   18.32500201
_cell_angle_alpha   89.99991487
_cell_angle_beta   89.99696899
_cell_angle_gamma   89.99821039
_symmetry_Int_Tables_number   1
_chemical_formula_structural   AgSbTe2
_chemical_formula_sum   'Ag54 Sb54 Te108'
_cell_volume   6153.28706678
_cell_formula_units_Z   54
loop_
 _symmetry_equiv_pos_site_id
 _symmetry_equiv_pos_as_xyz
  1  'x, y, z'
loop_
 _atom_site_type_symbol
 _atom_site_label
 _atom_site_symmetry_multiplicity
 _atom_site_fract_x
 _atom_site_fract_y
 _atom_site_fract_z
 _atom_site_occupancy
  Ag  Ag0  1  0.16791725  0.50248105  0.33441729  1
  Ag  Ag1  1  0.82500995  0.32528320  0.16531935  1
  Ag  Ag2  1  0.16289114  0.17092738  0.33393145  1
  Ag  Ag3  1  0.49795138  0.50509284  0.33658320  1
  Ag  Ag4  1  0.83149281  0.49531515  -0.00744537  1
  Ag  Ag5  1  0.66925024  0.33204248  0.32584991  1
  Ag  Ag6  1  0.82901983  0.00797331  0.15152811  1
  Ag  Ag7  1  0.66686317  0.16959859  0.50579305  1
  Ag  Ag8  1  0.49469960  0.83293901  0.67104958  1
  Ag  Ag9  1  0.49939001  0.82625435  0.32638303  1
  Ag  Ag10  1  0.82332224  0.16226655  -0.00431368  1
  Ag  Ag11  1  0.50356697  0.16514465  0.67762891  1
  Ag  Ag12  1  0.83927202  0.82611146  0.66969108  1
  Ag  Ag13  1  0.83224249  0.00567849  0.83548241  1
  Ag  Ag14  1  0.82871556  0.16540629  0.67852888  1
  Ag  Ag15  1  0.17107244  0.83120171  0.67043364  1
  Ag  Ag16  1  0.83789438  0.66808902  0.82877463  1
  Ag  Ag17  1  0.83127043  0.50776341  0.67237366  1
  Ag  Ag18  1  0.49569759  0.66871374  0.16343177  1
  Ag  Ag19  1  0.00308452  0.66245930  0.34063520  1
  Ag  Ag20  1  0.49623241  0.84488263  -0.00329456  1
  Ag  Ag21  1  0.50397184  0.15722167  -0.00554753  1
  Ag  Ag22  1  -0.00536983  0.33580537  0.33137801  1
  Ag  Ag23  1  0.33810624  0.16346807  0.83688107  1
  Ag  Ag24  1  0.17217939  0.66699087  0.16286063  1
  Ag  Ag25  1  0.16814449  0.67082997  0.50181670  1
  Ag  Ag26  1  0.34510741  -0.00016915  -0.00269947  1
  Ag  Ag27  1  0.34216314  0.32284346  -0.00421890  1
  Ag  Ag28  1  0.83393414  0.16937100  0.32809018  1
  Ag  Ag29  1  0.33457659  0.83370798  0.83481760  1
  Ag  Ag30  1  0.66012698  0.00789950  -0.00252496  1
  Ag  Ag31  1  0.33424051  0.83159006  0.51083077  1
  Ag  Ag32  1  -0.00439765  0.67056516  0.66726071  1
  Ag  Ag33  1  -0.00349571  -0.00575869  0.67384537  1
  Ag  Ag34  1  0.49986985  0.66781820  0.49927890  1
  Ag  Ag35  1  -0.00925715  0.16273900  0.83339668  1
  Ag  Ag36  1  0.33771028  0.33252660  0.67548482  1
  Ag  Ag37  1  -0.00398314  0.50218443  0.83250524  1
  Ag  Ag38  1  0.66467664  0.49882580  0.50114156  1
  Ag  Ag39  1  -0.00622843  0.00191426  -0.00772186  1
  Ag  Ag40  1  0.83206880  0.66563837  0.51140325  1
  Ag  Ag41  1  0.33733476  0.16758934  0.15386322  1
  Ag  Ag42  1  0.65972881  0.66633266  -0.00145431  1
  Ag  Ag43  1  0.50396198  0.32830786  0.16418388  1
  Ag  Ag44  1  0.66260035  0.32614526  0.00387413  1
  Ag  Ag45  1  0.66768684  0.16405422  0.83521594  1
  Ag  Ag46  1  0.16812996  -0.00874245  0.50170603  1
  Ag  Ag47  1  0.50132608  0.00317893  0.83852257  1
  Ag  Ag48  1  0.16543122  0.66867749  0.83272197  1
  Ag  Ag49  1  0.33351547  0.50300600  0.83374009  1
  Ag  Ag50  1  0.50204955  0.50205378  0.66503184  1
  Ag  Ag51  1  0.17858372  0.83190764  -0.01055432  1
  Ag  Ag52  1  0.34057480  0.67325079  -0.00288472  1
  Ag  Ag53  1  0.50260732  0.00198776  0.15365211  1
  Sb  Sb54  1  0.00345571  0.83378110  0.83176674  1
  Sb  Sb55  1  -0.00431508  0.50438705  0.50351201  1
  Sb  Sb56  1  0.66336019  0.83386536  0.16368422  1
  Sb  Sb57  1  -0.00000275  0.00053958  0.33334818  1
  Sb  Sb58  1  0.33625953  0.83576978  0.15901558  1
  Sb  Sb59  1  0.83222277  0.66673561  0.16220829  1
  Sb  Sb60  1  0.33727191  0.16230997  0.50388260  1
  Sb  Sb61  1  -0.00315010  0.32960906  0.00255814  1
  Sb  Sb62  1  0.33137231  0.66730079  0.67242549  1
  Sb  Sb63  1  0.33219633  0.66652123  0.32904828  1
  Sb  Sb64  1  0.16864932  -0.00311620  0.16592692  1
  Sb  Sb65  1  0.00010638  0.33458745  0.66562632  1
  Sb  Sb66  1  -0.00472816  0.16604681  0.50356984  1
  Sb  Sb67  1  0.16681927  0.50727829  0.66484910  1
  Sb  Sb68  1  0.16988721  0.33740815  0.83394057  1
  Sb  Sb69  1  0.66630430  0.00809526  0.32704606  1
  Sb  Sb70  1  0.82850103  0.83506213  0.33865981  1
  Sb  Sb71  1  0.66237073  0.83810738  0.83478139  1
  Sb  Sb72  1  0.66614520  0.49734507  0.83156158  1
  Sb  Sb73  1  0.83243215  0.49617537  0.33415918  1
  Sb  Sb74  1  0.16659806  0.16015836  0.66513365  1
  Sb  Sb75  1  0.50307655  0.49909998  -0.00208844  1
  Sb  Sb76  1  0.66501330  0.49735353  0.16788986  1
  Sb  Sb77  1  0.66975460  0.66562217  0.67116633  1
  Sb  Sb78  1  0.50189615  0.33833620  0.49771401  1
  Sb  Sb79  1  0.66344850  0.33167793  0.66980206  1
  Sb  Sb80  1  -0.00035345  0.50012572  0.16385186  1
  Sb  Sb81  1  0.49884833  0.32566019  0.83891420  1
  Sb  Sb82  1  0.16894722  0.33530037  0.16713107  1
  Sb  Sb83  1  0.33546817  0.49754376  0.15982549  1
  Sb  Sb84  1  0.83286275  0.33032901  0.83857371  1
  Sb  Sb85  1  0.50303763  0.16820673  0.32918695  1
  Sb  Sb86  1  0.16533282  0.50705828  0.00067786  1
  Sb  Sb87  1  0.33216522  -0.00050341  0.67403013  1
  Sb  Sb88  1  0.83038504  0.83817299  -0.00707012  1
  Sb  Sb89  1  0.17144443  0.16056753  0.00109769  1
  Sb  Sb90  1  0.67022366  0.00226055  0.67237625  1
  Sb  Sb91  1  0.66534316  0.66130932  0.33178254  1
  Sb  Sb92  1  0.83603919  -0.00272937  0.50729969  1
  Sb  Sb93  1  0.16617403  -0.00496350  0.83234872  1
  Sb  Sb94  1  -0.00037236  0.16626647  0.16212154  1
  Sb  Sb95  1  0.00099893  0.83306448  0.16505373  1
  Sb  Sb96  1  0.33634044  0.33341487  0.33042803  1
  Sb  Sb97  1  0.00651442  0.83094942  0.50384803  1
  Sb  Sb98  1  0.49962233  0.67112005  0.83413422  1
  Sb  Sb99  1  0.17259552  0.82948312  0.33613272  1
  Sb  Sb100  1  0.49744343  -0.00494497  0.50334784  1
  Sb  Sb101  1  0.66103916  0.83123627  0.50233891  1
  Sb  Sb102  1  0.16805174  0.33617892  0.49856280  1
  Sb  Sb103  1  0.83079824  0.33501980  0.49640377  1
  Sb  Sb104  1  0.33775179  0.50631649  0.50595696  1
  Sb  Sb105  1  0.66375537  0.16810873  0.15954740  1
  Sb  Sb106  1  0.33419662  -0.00061448  0.32753156  1
  Sb  Sb107  1  0.00031004  0.67077349  -0.00496776  1
  Te  Te108  1  0.17165812  0.16619356  0.17261686  1
  Te  Te109  1  0.16733385  0.16597191  0.49595278  1
  Te  Te110  1  0.16989131  0.16762153  0.83253303  1
  Te  Te111  1  0.16769231  0.50660138  0.17250033  1
  Te  Te112  1  0.16688053  0.50649162  0.49539115  1
  Te  Te113  1  0.16803519  0.50764165  0.83268249  1
  Te  Te114  1  0.16862349  0.82694903  0.16715934  1
  Te  Te115  1  0.17209316  0.83082002  0.50197358  1
  Te  Te116  1  0.17057885  0.82922559  0.83130928  1
  Te  Te117  1  0.49716777  0.16574447  0.16537764  1
  Te  Te118  1  0.50483021  0.16469145  0.50154076  1
  Te  Te119  1  0.49850129  0.16417937  0.83438008  1
  Te  Te120  1  0.49916411  0.50414292  0.17105635  1
  Te  Te121  1  0.50256520  0.50487315  0.50169545  1
  Te  Te122  1  0.49693004  0.50038486  0.82606895  1
  Te  Te123  1  0.49883261  0.83177017  0.16411321  1
  Te  Te124  1  0.49626023  0.82953652  0.50721638  1
  Te  Te125  1  0.49642215  0.83770344  0.83407232  1
  Te  Te126  1  0.83450619  0.16592251  0.16550915  1
  Te  Te127  1  0.82846406  0.16590144  0.49947748  1
  Te  Te128  1  0.83320357  0.16635407  0.83585717  1
  Te  Te129  1  0.83287180  0.49676837  0.16054488  1
  Te  Te130  1  0.82882171  0.50491670  0.50363443  1
  Te  Te131  1  0.83273051  0.49912039  0.83228188  1
  Te  Te132  1  0.83254900  0.84038616  0.16831340  1
  Te  Te133  1  0.83079756  0.82774296  0.50692422  1
  Te  Te134  1  0.83153387  0.83285192  0.82770479  1
  Te  Te135  1  0.16168425  -0.00746491  0.00131050  1
  Te  Te136  1  0.16570844  0.00258476  0.33717646  1
  Te  Te137  1  0.16255508  -0.00616244  0.66293529  1
  Te  Te138  1  0.17242446  0.33458688  0.00209544  1
  Te  Te139  1  0.16474277  0.33458354  0.33272016  1
  Te  Te140  1  0.17237762  0.33426028  0.66496664  1
  Te  Te141  1  0.16644049  0.67126064  -0.00135874  1
  Te  Te142  1  0.16576336  0.66533243  0.33620548  1
  Te  Te143  1  0.16421478  0.67101419  0.66591405  1
  Te  Te144  1  0.50062490  0.00087731  -0.00103929  1
  Te  Te145  1  0.50073432  -0.00465438  0.33042926  1
  Te  Te146  1  0.50030746  0.00088761  0.67129906  1
  Te  Te147  1  0.50033460  0.33535122  0.00503372  1
  Te  Te148  1  0.50378443  0.33703022  0.32763092  1
  Te  Te149  1  0.49734128  0.33231842  0.66498424  1
  Te  Te150  1  0.49991928  0.66348496  0.00100064  1
  Te  Te151  1  0.50024499  0.66583185  0.33277722  1
  Te  Te152  1  0.50040978  0.66706866  0.66520329  1
  Te  Te153  1  0.83358601  -0.00001078  -0.00368494  1
  Te  Te154  1  0.83422322  0.00516389  0.33344772  1
  Te  Te155  1  0.83651916  0.00398457  0.67118638  1
  Te  Te156  1  0.83324579  0.33063075  0.00531113  1
  Te  Te157  1  0.83186929  0.33085413  0.32958219  1
  Te  Te158  1  0.83378681  0.32893512  0.66520502  1
  Te  Te159  1  0.83182209  0.66842376  -0.00252388  1
  Te  Te160  1  0.83680808  0.66741788  0.33334376  1
  Te  Te161  1  0.83342706  0.66598046  0.66833733  1
  Te  Te162  1  0.00181473  0.16325065  -0.00557601  1
  Te  Te163  1  -0.00124037  0.16855677  0.33426217  1
  Te  Te164  1  -0.00228138  0.16574638  0.67164707  1
  Te  Te165  1  -0.00497209  0.49924371  -0.00713988  1
  Te  Te166  1  0.00137989  0.50153949  0.33344530  1
  Te  Te167  1  -0.00394833  0.50243986  0.67169607  1
  Te  Te168  1  0.00253754  0.83987005  -0.00084440  1
  Te  Te169  1  -0.00096984  0.82661728  0.33357989  1
  Te  Te170  1  -0.00215375  0.83205514  0.66641226  1
  Te  Te171  1  0.33304912  0.16558654  -0.00232310  1
  Te  Te172  1  0.32954740  0.16771100  0.33488283  1
  Te  Te173  1  0.33663533  0.16889021  0.67111151  1
  Te  Te174  1  0.33206130  0.50214040  -0.00710547  1
  Te  Te175  1  0.33576231  0.49887741  0.33450371  1
  Te  Te176  1  0.33577642  0.49716511  0.67205203  1
  Te  Te177  1  0.33526267  0.83350390  -0.00175661  1
  Te  Te178  1  0.34100978  0.83294682  0.33742620  1
  Te  Te179  1  0.33306262  0.83364032  0.67137923  1
  Te  Te180  1  0.66467388  0.16669517  -0.00205281  1
  Te  Te181  1  0.67058232  0.17248141  0.33797591  1
  Te  Te182  1  0.66551761  0.16758769  0.66900258  1
  Te  Te183  1  0.67163540  0.50000514  -0.00066374  1
  Te  Te184  1  0.66356960  0.49450041  0.33865001  1
  Te  Te185  1  0.66615801  0.49827683  0.66304434  1
  Te  Te186  1  0.65948659  0.82969678  -0.00048768  1
  Te  Te187  1  0.65815392  0.83417079  0.33464860  1
  Te  Te188  1  0.66173299  0.83392330  0.66742162  1
  Te  Te189  1  -0.00450606  -0.00004258  0.16369473  1
  Te  Te190  1  0.00551673  -0.00049005  0.50494537  1
  Te  Te191  1  0.00032357  0.00184055  0.83153686  1
  Te  Te192  1  -0.00264344  0.33336075  0.17258781  1
  Te  Te193  1  0.00054996  0.33432801  0.49136602  1
  Te  Te194  1  0.00241008  0.33503869  0.83287065  1
  Te  Te195  1  0.00289018  0.66616458  0.16966984  1
  Te  Te196  1  -0.00067114  0.66646329  0.50236379  1
  Te  Te197  1  -0.00123866  0.66502189  0.83053179  1
  Te  Te198  1  0.33673901  0.00571693  0.16035590  1
  Te  Te199  1  0.32894972  -0.00602831  0.49988964  1
  Te  Te200  1  0.33287307  -0.00018534  0.83756546  1
  Te  Te201  1  0.33767508  0.32923565  0.16233319  1
  Te  Te202  1  0.33414728  0.33290740  0.50599595  1
  Te  Te203  1  0.33364638  0.33324764  0.83522949  1
  Te  Te204  1  0.33407251  0.66542288  0.15993612  1
  Te  Te205  1  0.33553350  0.67123232  0.50011439  1
  Te  Te206  1  0.33271200  0.66824470  0.83717645  1
  Te  Te207  1  0.66611383  0.00008020  0.15985541  1
  Te  Te208  1  0.66665074  0.00589776  0.49795376  1
  Te  Te209  1  0.66763664  0.00413836  0.83781480  1
  Te  Te210  1  0.66588014  0.33318902  0.16492911  1
  Te  Te211  1  0.66637089  0.33303030  0.49766202  1
  Te  Te212  1  0.66576022  0.32616007  0.84127561  1
  Te  Te213  1  0.66234023  0.66569032  0.16085102  1
  Te  Te214  1  0.66511530  0.66327652  0.49923769  1
  Te  Te215  1  0.67302919  0.66570765  0.83935673  1
