# generated using pymatgen
data_AgSbTe2
_symmetry_space_group_name_H-M   'P 1'
_cell_length_a   18.31773148
_cell_length_b   18.32245441
_cell_length_c   18.32274986
_cell_angle_alpha   90.00044772
_cell_angle_beta   89.99896274
_cell_angle_gamma   90.00135136
_symmetry_Int_Tables_number   1
_chemical_formula_structural   AgSbTe2
_chemical_formula_sum   'Ag54 Sb54 Te108'
_cell_volume   6149.58757313
_cell_formula_units_Z   54
loop_
 _symmetry_equiv_pos_site_id
 _symmetry_equiv_pos_as_xyz
  1  'x, y, z'
loop_
 _atom_site_type_symbol
 _atom_site_label
 _atom_site_symmetry_multiplicity
 _atom_site_fract_x
 _atom_site_fract_y
 _atom_site_fract_z
 _atom_site_occupancy
  Ag  Ag0  1  0.16477432  0.50004165  0.00657592  1
  Ag  Ag1  1  0.50576320  0.66445010  0.16636246  1
  Ag  Ag2  1  0.50660542  0.82341152  0.33896249  1
  Ag  Ag3  1  0.51335564  0.17314722  0.00035790  1
  Ag  Ag4  1  0.15542704  0.33588922  0.17033062  1
  Ag  Ag5  1  0.50603694  0.82590302  0.65972193  1
  Ag  Ag6  1  0.66645852  0.50524895  0.15935767  1
  Ag  Ag7  1  0.00008208  0.33551597  0.65470930  1
  Ag  Ag8  1  0.83378701  0.00652893  0.49558912  1
  Ag  Ag9  1  0.65828758  0.66872133  0.32832836  1
  Ag  Ag10  1  0.34158844  0.66582837  0.33325474  1
  Ag  Ag11  1  0.67025683  0.33960222  0.00443813  1
  Ag  Ag12  1  0.16440570  0.16466113  0.65845991  1
  Ag  Ag13  1  -0.00765665  0.83573984  0.16717797  1
  Ag  Ag14  1  0.83278924  0.00386975  0.16726490  1
  Ag  Ag15  1  0.66776535  -0.00393804  0.33232260  1
  Ag  Ag16  1  -0.00582663  0.83350357  0.83019694  1
  Ag  Ag17  1  -0.00876850  0.00065944  0.00327257  1
  Ag  Ag18  1  0.32097401  0.16597739  0.50013366  1
  Ag  Ag19  1  0.83045811  0.33196297  0.84170028  1
  Ag  Ag20  1  0.15989108  0.00254988  0.50145577  1
  Ag  Ag21  1  -0.00003069  0.49112441  0.49694347  1
  Ag  Ag22  1  0.34700561  0.66445429  0.00529435  1
  Ag  Ag23  1  0.50431195  0.66481884  0.83964047  1
  Ag  Ag24  1  0.83419506  0.32756912  0.49724960  1
  Ag  Ag25  1  0.83396199  0.32874763  0.16585166  1
  Ag  Ag26  1  0.32813824  0.33295914  0.66209300  1
  Ag  Ag27  1  0.51120634  0.50280524  0.00145732  1
  Ag  Ag28  1  0.66375433  0.65391975  0.00694582  1
  Ag  Ag29  1  0.50162281  0.50316520  0.66291199  1
  Ag  Ag30  1  0.16209383  -0.00094334  0.82533794  1
  Ag  Ag31  1  0.67098929  0.82674340  0.17089383  1
  Ag  Ag32  1  0.66894894  0.83198952  0.83495057  1
  Ag  Ag33  1  0.82339681  0.49212760  0.00048543  1
  Ag  Ag34  1  0.67247719  0.33522514  0.33218265  1
  Ag  Ag35  1  0.83331492  0.83326666  0.66589227  1
  Ag  Ag36  1  0.66585961  0.50135970  0.84502055  1
  Ag  Ag37  1  0.00137182  0.17148230  0.49593335  1
  Ag  Ag38  1  0.16349016  0.49677382  0.33257523  1
  Ag  Ag39  1  0.50727287  0.33357704  0.49928176  1
  Ag  Ag40  1  0.33828471  0.83518750  0.50074750  1
  Ag  Ag41  1  0.67276790  0.00433345  0.00377459  1
  Ag  Ag42  1  0.00226933  0.66102734  0.33822278  1
  Ag  Ag43  1  -0.00367089  0.16980853  0.17306329  1
  Ag  Ag44  1  0.66771146  0.16817429  0.84527420  1
  Ag  Ag45  1  0.00247776  0.66756925  0.65796654  1
  Ag  Ag46  1  0.66348224  0.83654469  0.49328141  1
  Ag  Ag47  1  0.82930937  0.17102815  0.00118551  1
  Ag  Ag48  1  0.16321615  0.67090406  0.49713094  1
  Ag  Ag49  1  0.16298653  0.17241033  0.34165087  1
  Ag  Ag50  1  -0.00412229  0.33547859  0.33667409  1
  Ag  Ag51  1  0.16380699  0.83725821  0.66268904  1
  Ag  Ag52  1  0.50368782  0.50481930  0.33348221  1
  Ag  Ag53  1  0.67099936  0.16672561  0.49922068  1
  Sb  Sb54  1  0.82980273  0.50072228  0.66932263  1
  Sb  Sb55  1  0.33920609  0.50039788  0.16703770  1
  Sb  Sb56  1  0.33693040  -0.00428219  0.33664367  1
  Sb  Sb57  1  -0.00431114  0.16390199  0.83234721  1
  Sb  Sb58  1  0.33239601  0.33785775  0.33836804  1
  Sb  Sb59  1  -0.00539013  0.49892798  0.17155884  1
  Sb  Sb60  1  0.16935021  0.66931324  0.83075350  1
  Sb  Sb61  1  0.50929747  0.33849347  0.82981527  1
  Sb  Sb62  1  0.50736717  0.33795633  0.17035307  1
  Sb  Sb63  1  0.50637022  0.82572384  0.00062301  1
  Sb  Sb64  1  0.49865265  0.16852539  0.66651189  1
  Sb  Sb65  1  -0.00502927  0.50359784  0.83071353  1
  Sb  Sb66  1  0.83657536  0.16892460  0.33069088  1
  Sb  Sb67  1  0.67013578  0.33354225  0.66493302  1
  Sb  Sb68  1  0.16792059  0.83144814  0.33903625  1
  Sb  Sb69  1  0.83641832  0.66628911  0.50006751  1
  Sb  Sb70  1  0.82740946  0.66717709  0.16680178  1
  Sb  Sb71  1  -0.00215132  0.83484235  0.50043744  1
  Sb  Sb72  1  0.16722417  0.49885908  0.66280224  1
  Sb  Sb73  1  0.82735056  0.83359434  0.33759456  1
  Sb  Sb74  1  0.33170284  0.66428722  0.66194448  1
  Sb  Sb75  1  0.67223652  0.16797892  0.16567636  1
  Sb  Sb76  1  -0.00880363  0.33067567  0.00418942  1
  Sb  Sb77  1  0.16788967  0.66267909  0.17259798  1
  Sb  Sb78  1  0.82688169  0.66585578  0.83426574  1
  Sb  Sb79  1  0.33021494  0.49892501  0.49829847  1
  Sb  Sb80  1  0.33599705  0.83165384  0.82669663  1
  Sb  Sb81  1  0.34039595  0.50144528  0.83386582  1
  Sb  Sb82  1  0.33768143  0.16772764  0.82904190  1
  Sb  Sb83  1  -0.00442791  0.66860008  0.00172415  1
  Sb  Sb84  1  0.83710996  0.16541763  0.66527699  1
  Sb  Sb85  1  0.33522038  -0.00407732  -0.00009977  1
  Sb  Sb86  1  0.32741714  0.16846763  0.17218133  1
  Sb  Sb87  1  0.15887499  0.33017090  0.83496428  1
  Sb  Sb88  1  0.66758546  0.66939340  0.66564062  1
  Sb  Sb89  1  0.49795619  0.66534945  0.49636093  1
  Sb  Sb90  1  0.15614905  0.00339112  0.16997476  1
  Sb  Sb91  1  0.82970561  0.83573164  -0.00194350  1
  Sb  Sb92  1  0.50061328  0.16924074  0.33117825  1
  Sb  Sb93  1  0.66907553  0.49907820  0.49704382  1
  Sb  Sb94  1  0.33684228  0.82981198  0.17237372  1
  Sb  Sb95  1  0.33072486  0.00203017  0.66334196  1
  Sb  Sb96  1  0.50502871  0.00067873  0.49922443  1
  Sb  Sb97  1  0.66844865  -0.00275187  0.66476872  1
  Sb  Sb98  1  0.50222813  -0.00406127  0.83513343  1
  Sb  Sb99  1  0.33975126  0.33837194  -0.00343654  1
  Sb  Sb100  1  0.00108854  -0.00196006  0.66765862  1
  Sb  Sb101  1  -0.00540820  0.00137722  0.33172944  1
  Sb  Sb102  1  0.83499216  0.00228744  0.83510717  1
  Sb  Sb103  1  0.16160768  0.33073375  0.49575186  1
  Sb  Sb104  1  0.83072452  0.49725818  0.32921408  1
  Sb  Sb105  1  0.16458286  0.82987405  -0.00384297  1
  Sb  Sb106  1  0.16297816  0.17007798  0.00056821  1
  Sb  Sb107  1  0.51211419  -0.00584979  0.16598719  1
  Te  Te108  1  0.15979266  0.17139359  0.16925851  1
  Te  Te109  1  0.16415225  0.16736872  0.50040713  1
  Te  Te110  1  0.16748457  0.16164998  0.83085645  1
  Te  Te111  1  0.16529976  0.49700415  0.17055980  1
  Te  Te112  1  0.16205375  0.50410902  0.49662714  1
  Te  Te113  1  0.16603227  0.49988843  0.83613576  1
  Te  Te114  1  0.16254876  0.83410440  0.16632704  1
  Te  Te115  1  0.16550314  0.83495539  0.50242092  1
  Te  Te116  1  0.16564042  0.83671934  0.82789337  1
  Te  Te117  1  0.49640959  0.16694140  0.16129697  1
  Te  Te118  1  0.50679188  0.16961560  0.50019586  1
  Te  Te119  1  0.50589082  0.16659056  0.83708960  1
  Te  Te120  1  0.50520988  0.50274250  0.16790588  1
  Te  Te121  1  0.50032391  0.49666828  0.49936216  1
  Te  Te122  1  0.50601752  0.50375844  0.83623758  1
  Te  Te123  1  0.50500673  0.82749921  0.17203070  1
  Te  Te124  1  0.50181968  0.83379776  0.49966467  1
  Te  Te125  1  0.50377127  0.82883111  0.82926893  1
  Te  Te126  1  0.83741124  0.16730178  0.16357846  1
  Te  Te127  1  0.83217517  0.16659042  0.50053958  1
  Te  Te128  1  0.82799893  0.16971065  0.83493529  1
  Te  Te129  1  0.82791403  0.49545558  0.16195131  1
  Te  Te130  1  0.83897766  0.49468124  0.50124225  1
  Te  Te131  1  0.82744700  0.49537408  0.83692912  1
  Te  Te132  1  0.83184287  0.83710909  0.16521054  1
  Te  Te133  1  0.82884412  0.83604044  0.50496448  1
  Te  Te134  1  0.83250483  0.83433388  0.82920273  1
  Te  Te135  1  0.16547690  -0.00017895  0.00070718  1
  Te  Te136  1  0.16747482  0.00358300  0.33808118  1
  Te  Te137  1  0.16607225  0.00037170  0.66369885  1
  Te  Te138  1  0.16859323  0.33820253  0.00333751  1
  Te  Te139  1  0.16572968  0.33510366  0.33085513  1
  Te  Te140  1  0.16338255  0.33091607  0.66842439  1
  Te  Te141  1  0.16548234  0.66131253  0.00018238  1
  Te  Te142  1  0.16287701  0.66454858  0.33658006  1
  Te  Te143  1  0.16387391  0.66786592  0.66319348  1
  Te  Te144  1  0.50354379  0.00534932  0.00017511  1
  Te  Te145  1  0.50743871  -0.00307561  0.33200458  1
  Te  Te146  1  0.49844734  -0.00942911  0.66773526  1
  Te  Te147  1  0.50582491  0.33689658  -0.00023694  1
  Te  Te148  1  0.50173448  0.33768450  0.33722635  1
  Te  Te149  1  0.49931534  0.33580621  0.66225735  1
  Te  Te150  1  0.50381663  0.66434146  0.00181801  1
  Te  Te151  1  0.50112912  0.66426934  0.33453926  1
  Te  Te152  1  0.49803926  0.66555094  0.66690132  1
  Te  Te153  1  0.83304597  0.00173758  0.00139349  1
  Te  Te154  1  0.82676771  0.00033826  0.33395103  1
  Te  Te155  1  0.83490876  -0.00565724  0.66025497  1
  Te  Te156  1  0.83061067  0.33127109  0.00147974  1
  Te  Te157  1  0.83385849  0.33365687  0.33451385  1
  Te  Te158  1  0.83969050  0.33333213  0.65965702  1
  Te  Te159  1  0.82684825  0.65867454  -0.00029655  1
  Te  Te160  1  0.83971889  0.66514864  0.33357945  1
  Te  Te161  1  0.84088981  0.67164309  0.66722039  1
  Te  Te162  1  -0.00371590  0.16263702  0.00108003  1
  Te  Te163  1  0.00311842  0.16783053  0.33356415  1
  Te  Te164  1  0.00384346  0.16963457  0.66477675  1
  Te  Te165  1  0.00439792  0.50008818  -0.00031054  1
  Te  Te166  1  0.00048961  0.49803630  0.33531109  1
  Te  Te167  1  -0.00094377  0.50121969  0.66298680  1
  Te  Te168  1  -0.00169039  0.83623110  -0.00003118  1
  Te  Te169  1  -0.00042990  0.83137363  0.32845443  1
  Te  Te170  1  0.00216964  0.83188047  0.66733077  1
  Te  Te171  1  0.33586336  0.16710739  -0.00043148  1
  Te  Te172  1  0.32967692  0.16665960  0.34020325  1
  Te  Te173  1  0.33073195  0.17114884  0.66139215  1
  Te  Te174  1  0.32899007  0.50524193  0.00036003  1
  Te  Te175  1  0.33373019  0.50564875  0.33323219  1
  Te  Te176  1  0.33905213  0.49524084  0.66633392  1
  Te  Te177  1  0.33441960  0.82631551  0.00037294  1
  Te  Te178  1  0.33871910  0.82816475  0.33957289  1
  Te  Te179  1  0.32952342  0.83192517  0.65984453  1
  Te  Te180  1  0.66947483  0.16596309  0.00328438  1
  Te  Te181  1  0.66458471  0.17087657  0.33665303  1
  Te  Te182  1  0.66621719  0.16489909  0.66147655  1
  Te  Te183  1  0.66674414  0.49739405  0.00072596  1
  Te  Te184  1  0.66454560  0.49832958  0.33288743  1
  Te  Te185  1  0.66132315  0.50155701  0.66905032  1
  Te  Te186  1  0.66649262  0.83955683  -0.00096646  1
  Te  Te187  1  0.66629429  0.83130517  0.33237421  1
  Te  Te188  1  0.66635974  0.83235340  0.66886302  1
  Te  Te189  1  -0.00646424  -0.00055791  0.16429192  1
  Te  Te190  1  -0.00210910  0.00548936  0.49926003  1
  Te  Te191  1  0.00238129  -0.00402676  0.83799726  1
  Te  Te192  1  -0.00382718  0.33233063  0.17027460  1
  Te  Te193  1  -0.00038652  0.33172708  0.49732722  1
  Te  Te194  1  -0.00840837  0.33379621  0.83078635  1
  Te  Te195  1  -0.00108250  0.67097533  0.17051471  1
  Te  Te196  1  0.00250661  0.66803268  0.49905161  1
  Te  Te197  1  0.00007365  0.67298268  0.83239260  1
  Te  Te198  1  0.33308245  -0.00118218  0.16711311  1
  Te  Te199  1  0.32802485  0.00098984  0.49938335  1
  Te  Te200  1  0.32392767  -0.00035796  0.83412499  1
  Te  Te201  1  0.32674650  0.33256835  0.16611165  1
  Te  Te202  1  0.33712032  0.33054940  0.50282826  1
  Te  Te203  1  0.33194539  0.33323023  0.82566445  1
  Te  Te204  1  0.33834016  0.66699601  0.16820363  1
  Te  Te205  1  0.32801185  0.66943466  0.49588065  1
  Te  Te206  1  0.33944690  0.66761536  0.83857327  1
  Te  Te207  1  0.67308736  -0.00128412  0.16736066  1
  Te  Te208  1  0.66982987  -0.00111288  0.49776547  1
  Te  Te209  1  0.66687553  -0.00084601  0.83732355  1
  Te  Te210  1  0.67016385  0.33475067  0.16920457  1
  Te  Te211  1  0.66860430  0.33310367  0.49785847  1
  Te  Te212  1  0.67123537  0.33055752  0.83307806  1
  Te  Te213  1  0.66627695  0.66728050  0.16768618  1
  Te  Te214  1  0.66801922  0.67172341  0.49378397  1
  Te  Te215  1  0.66339219  0.66972422  0.83229397  1
