# generated using pymatgen
data_AgSbTe2
_symmetry_space_group_name_H-M   'P 1'
_cell_length_a   18.31972020
_cell_length_b   18.32611343
_cell_length_c   18.32165591
_cell_angle_alpha   90.00041309
_cell_angle_beta   89.99560337
_cell_angle_gamma   90.00176249
_symmetry_Int_Tables_number   1
_chemical_formula_structural   AgSbTe2
_chemical_formula_sum   'Ag54 Sb54 Te108'
_cell_volume   6151.11614842
_cell_formula_units_Z   54
loop_
 _symmetry_equiv_pos_site_id
 _symmetry_equiv_pos_as_xyz
  1  'x, y, z'
loop_
 _atom_site_type_symbol
 _atom_site_label
 _atom_site_symmetry_multiplicity
 _atom_site_fract_x
 _atom_site_fract_y
 _atom_site_fract_z
 _atom_site_occupancy
  Ag  Ag0  1  0.83385465  -0.00352295  0.16280983  1
  Ag  Ag1  1  0.32725810  0.15418890  0.83259674  1
  Ag  Ag2  1  0.32762771  0.66790831  0.67359825  1
  Ag  Ag3  1  0.50568982  0.67113858  0.16539596  1
  Ag  Ag4  1  0.31776165  -0.00046892  0.33002519  1
  Ag  Ag5  1  0.00417143  -0.00868713  0.33434117  1
  Ag  Ag6  1  0.15686515  0.67283847  0.83419467  1
  Ag  Ag7  1  0.50649919  0.32415203  0.16762048  1
  Ag  Ag8  1  0.83576538  -0.00752065  0.49789137  1
  Ag  Ag9  1  0.15614247  0.00067913  0.48763182  1
  Ag  Ag10  1  0.50100371  0.83935697  0.66817077  1
  Ag  Ag11  1  0.15864226  0.83485940  0.00170216  1
  Ag  Ag12  1  0.50987860  0.16001224  0.66576247  1
  Ag  Ag13  1  0.33499405  0.66929381  -0.00264687  1
  Ag  Ag14  1  -0.00456036  0.33391061  0.00245319  1
  Ag  Ag15  1  0.84142130  0.83528047  0.33145247  1
  Ag  Ag16  1  0.68022869  0.50270553  0.50388326  1
  Ag  Ag17  1  0.49864995  0.16280201  0.33121413  1
  Ag  Ag18  1  0.83773267  0.83363377  0.00412907  1
  Ag  Ag19  1  0.83791855  0.66479388  0.83587768  1
  Ag  Ag20  1  0.50584041  0.00007058  0.16637652  1
  Ag  Ag21  1  -0.00140126  0.67894916  0.33861359  1
  Ag  Ag22  1  0.68077433  0.50519958  0.83149444  1
  Ag  Ag23  1  -0.00453486  0.83084301  0.49136661  1
  Ag  Ag24  1  0.16011774  -0.00282865  0.17621109  1
  Ag  Ag25  1  -0.00380621  0.66367047  0.66387410  1
  Ag  Ag26  1  0.83402164  0.33096063  0.16444160  1
  Ag  Ag27  1  0.67257165  -0.00371620  -0.00284256  1
  Ag  Ag28  1  0.66921317  0.16267631  0.16959027  1
  Ag  Ag29  1  -0.00290067  0.34033545  0.66498089  1
  Ag  Ag30  1  0.83299231  -0.00259288  0.83769143  1
  Ag  Ag31  1  0.83665220  0.50021645  0.67318257  1
  Ag  Ag32  1  0.33302073  0.50336340  0.16662909  1
  Ag  Ag33  1  0.83420397  0.50997994  -0.00705140  1
  Ag  Ag34  1  0.67968409  0.83994056  0.50204320  1
  Ag  Ag35  1  0.16027989  0.50175410  0.33316690  1
  Ag  Ag36  1  -0.00380481  0.50645353  0.50290593  1
  Ag  Ag37  1  0.16539658  0.15417198  0.33396638  1
  Ag  Ag38  1  -0.00471039  0.83515954  0.17682322  1
  Ag  Ag39  1  0.83278726  0.67310725  0.15856439  1
  Ag  Ag40  1  0.67591263  0.67182897  0.00029950  1
  Ag  Ag41  1  0.66951934  0.16012477  0.49893628  1
  Ag  Ag42  1  0.83444709  0.15795052  -0.00256425  1
  Ag  Ag43  1  0.16001750  0.32692925  0.49533466  1
  Ag  Ag44  1  0.15300178  0.84243689  0.32969840  1
  Ag  Ag45  1  0.83666288  0.67485228  0.50148964  1
  Ag  Ag46  1  0.66994537  0.00146534  0.66929254  1
  Ag  Ag47  1  -0.00232247  0.16535115  0.83203530  1
  Ag  Ag48  1  0.16429916  -0.00518165  0.83431948  1
  Ag  Ag49  1  0.83202868  0.16463776  0.67010482  1
  Ag  Ag50  1  0.50365428  -0.00022999  0.83331589  1
  Ag  Ag51  1  0.32907721  0.83644258  0.83414862  1
  Ag  Ag52  1  -0.00324291  0.50208722  0.82639752  1
  Ag  Ag53  1  0.00160424  0.33271815  0.33509473  1
  Sb  Sb54  1  0.50586996  0.00026620  0.49995883  1
  Sb  Sb55  1  0.83196358  0.83424998  0.66547763  1
  Sb  Sb56  1  0.50147987  0.32409680  0.83731742  1
  Sb  Sb57  1  0.15975099  0.50667752  0.00269288  1
  Sb  Sb58  1  0.00128710  0.83347457  0.83255271  1
  Sb  Sb59  1  0.67336377  0.16439485  0.83319327  1
  Sb  Sb60  1  0.50674669  0.16328061  0.00166464  1
  Sb  Sb61  1  0.00016171  0.50400885  0.16911022  1
  Sb  Sb62  1  0.49871215  0.33050483  0.49607901  1
  Sb  Sb63  1  0.83958571  0.33308663  0.49660903  1
  Sb  Sb64  1  0.50236076  0.67235642  0.83631555  1
  Sb  Sb65  1  0.15664827  0.50149622  0.66293960  1
  Sb  Sb66  1  0.32897217  0.83441398  0.50313522  1
  Sb  Sb67  1  -0.00430072  0.16525934  0.50129317  1
  Sb  Sb68  1  0.83684198  0.33503115  0.83834857  1
  Sb  Sb69  1  0.32574972  0.50320222  0.49701445  1
  Sb  Sb70  1  0.16009877  0.15883264  0.00247923  1
  Sb  Sb71  1  0.83665184  0.16025714  0.33341790  1
  Sb  Sb72  1  0.32780241  0.32815026  0.33126776  1
  Sb  Sb73  1  0.16156831  0.67314586  0.16362955  1
  Sb  Sb74  1  0.50023737  0.83865894  0.33447078  1
  Sb  Sb75  1  0.16105233  0.33226305  0.83095985  1
  Sb  Sb76  1  0.50687398  0.50139180  0.00042196  1
  Sb  Sb77  1  0.49651774  0.49632777  0.33056615  1
  Sb  Sb78  1  0.67550335  0.33207103  0.00105806  1
  Sb  Sb79  1  0.66828651  0.49883416  0.16624524  1
  Sb  Sb80  1  0.66711308  0.83381351  0.83085805  1
  Sb  Sb81  1  0.67464419  0.83894215  0.16875725  1
  Sb  Sb82  1  0.15616038  0.67106062  0.50233086  1
  Sb  Sb83  1  0.33727204  0.16591761  0.16443287  1
  Sb  Sb84  1  0.16263627  0.16459176  0.66385509  1
  Sb  Sb85  1  -0.00507350  0.66548942  -0.00150377  1
  Sb  Sb86  1  0.32572522  0.67177327  0.33151409  1
  Sb  Sb87  1  -0.00710306  0.16157806  0.16583933  1
  Sb  Sb88  1  0.32897635  0.83192199  0.16189726  1
  Sb  Sb89  1  0.67253734  0.00076015  0.33284161  1
  Sb  Sb90  1  0.67239854  0.67151048  0.66998648  1
  Sb  Sb91  1  0.50874483  0.50119701  0.66740477  1
  Sb  Sb92  1  0.67334947  0.33204158  0.33274037  1
  Sb  Sb93  1  0.50901661  0.66865839  0.49652050  1
  Sb  Sb94  1  0.50327745  0.83358239  -0.00205763  1
  Sb  Sb95  1  0.67552719  0.66789009  0.32930537  1
  Sb  Sb96  1  0.33503237  0.16311719  0.50241741  1
  Sb  Sb97  1  0.16140041  0.32830252  0.17176570  1
  Sb  Sb98  1  -0.00715801  -0.00017619  0.00330618  1
  Sb  Sb99  1  0.33511250  -0.00411220  0.00040204  1
  Sb  Sb100  1  0.33794203  -0.00315641  0.66720365  1
  Sb  Sb101  1  -0.00624619  -0.00208568  0.66351002  1
  Sb  Sb102  1  0.32899199  0.50709589  0.83640735  1
  Sb  Sb103  1  0.84074613  0.50561288  0.33443161  1
  Sb  Sb104  1  0.32722969  0.33757223  0.00237077  1
  Sb  Sb105  1  0.32861624  0.33550479  0.66739133  1
  Sb  Sb106  1  0.16766987  0.83351248  0.66696659  1
  Sb  Sb107  1  0.67445367  0.32820258  0.66621449  1
  Te  Te108  1  0.16838336  0.15945957  0.17103213  1
  Te  Te109  1  0.16703875  0.16297444  0.49644143  1
  Te  Te110  1  0.16343598  0.16416632  0.83381120  1
  Te  Te111  1  0.16928530  0.49891567  0.16989782  1
  Te  Te112  1  0.16035415  0.50061770  0.49499451  1
  Te  Te113  1  0.16032470  0.50509515  0.83373530  1
  Te  Te114  1  0.16302099  0.83785054  0.16614932  1
  Te  Te115  1  0.16216308  0.83875952  0.49607963  1
  Te  Te116  1  0.16733737  0.83204662  0.83389721  1
  Te  Te117  1  0.50266555  0.16262473  0.16845349  1
  Te  Te118  1  0.50457956  0.16719434  0.50045809  1
  Te  Te119  1  0.50108099  0.16041334  0.83051719  1
  Te  Te120  1  0.49882648  0.50468093  0.16691344  1
  Te  Te121  1  0.50309381  0.49884360  0.49960890  1
  Te  Te122  1  0.50012483  0.49820163  0.83288217  1
  Te  Te123  1  0.50028713  0.83541444  0.16689280  1
  Te  Te124  1  0.50060928  0.83271148  0.50517557  1
  Te  Te125  1  0.49719493  0.83948204  0.83018152  1
  Te  Te126  1  0.82995622  0.16249044  0.16629584  1
  Te  Te127  1  0.82860665  0.16423238  0.50218774  1
  Te  Te128  1  0.83609366  0.16562143  0.83278427  1
  Te  Te129  1  0.83240105  0.50223627  0.16385735  1
  Te  Te130  1  0.83611496  0.49935117  0.49996935  1
  Te  Te131  1  0.83693575  0.49929730  0.83338263  1
  Te  Te132  1  0.83359198  0.83414592  0.16610885  1
  Te  Te133  1  0.83519341  0.83349731  0.50291402  1
  Te  Te134  1  0.83367189  0.83457111  0.83707209  1
  Te  Te135  1  0.16751898  -0.00601479  -0.00736580  1
  Te  Te136  1  0.16250309  -0.00174138  0.33201767  1
  Te  Te137  1  0.16743720  0.00015912  0.67649026  1
  Te  Te138  1  0.15814346  0.33286539  0.00149307  1
  Te  Te139  1  0.16266384  0.33735345  0.33539337  1
  Te  Te140  1  0.15995292  0.33313222  0.65972008  1
  Te  Te141  1  0.16888385  0.67212487  -0.00378038  1
  Te  Te142  1  0.16105931  0.66577781  0.33315622  1
  Te  Te143  1  0.16624211  0.66685000  0.67222866  1
  Te  Te144  1  0.50611915  -0.00044653  0.00083900  1
  Te  Te145  1  0.50226369  0.00372338  0.33096812  1
  Te  Te146  1  0.50362846  0.00126103  0.66677081  1
  Te  Te147  1  0.49839066  0.33284635  0.00770757  1
  Te  Te148  1  0.49820170  0.32716791  0.32764973  1
  Te  Te149  1  0.49865098  0.32640510  0.66647496  1
  Te  Te150  1  0.49890721  0.66713362  0.00440766  1
  Te  Te151  1  0.49793875  0.66691902  0.32631079  1
  Te  Te152  1  0.50004799  0.66976464  0.66674543  1
  Te  Te153  1  0.83266639  -0.00174683  0.00004805  1
  Te  Te154  1  0.83887942  -0.00389489  0.33406813  1
  Te  Te155  1  0.83041327  0.00161317  0.66774646  1
  Te  Te156  1  0.83709337  0.33003663  0.00499569  1
  Te  Te157  1  0.83954328  0.33278955  0.32617792  1
  Te  Te158  1  0.83890397  0.33170117  0.66504371  1
  Te  Te159  1  0.83389428  0.66875035  -0.00170867  1
  Te  Te160  1  0.83833542  0.67221242  0.33527873  1
  Te  Te161  1  0.83523384  0.66533054  0.66864117  1
  Te  Te162  1  -0.00529594  0.17091105  -0.00402033  1
  Te  Te163  1  0.00454831  0.17067571  0.33358633  1
  Te  Te164  1  -0.00469832  0.16750152  0.67020127  1
  Te  Te165  1  -0.00551156  0.49616840  -0.00167210  1
  Te  Te166  1  0.00254787  0.49328984  0.33598474  1
  Te  Te167  1  -0.00430121  0.50156780  0.66597439  1
  Te  Te168  1  -0.00056379  0.83284673  0.00246623  1
  Te  Te169  1  -0.00243672  0.83457323  0.33343696  1
  Te  Te170  1  -0.00012447  0.82617393  0.65965406  1
  Te  Te171  1  0.33232788  0.16842301  -0.00788096  1
  Te  Te172  1  0.33334179  0.16102377  0.33293437  1
  Te  Te173  1  0.33599414  0.16784507  0.67257782  1
  Te  Te174  1  0.33197620  0.50594216  0.00423211  1
  Te  Te175  1  0.32811430  0.50122549  0.32875067  1
  Te  Te176  1  0.33543226  0.50553856  0.66654491  1
  Te  Te177  1  0.33149854  0.82906205  -0.00511845  1
  Te  Te178  1  0.33132547  0.83924012  0.33341737  1
  Te  Te179  1  0.33741354  0.82917266  0.67073464  1
  Te  Te180  1  0.67376553  0.16319799  0.00331026  1
  Te  Te181  1  0.66349828  0.16725401  0.33423356  1
  Te  Te182  1  0.66920925  0.16300214  0.66621328  1
  Te  Te183  1  0.67373412  0.50260925  -0.00196507  1
  Te  Te184  1  0.66561249  0.49973559  0.34172674  1
  Te  Te185  1  0.67374807  0.49919709  0.66584281  1
  Te  Te186  1  0.67163787  0.83396335  -0.00023760  1
  Te  Te187  1  0.66851527  0.83304300  0.34292147  1
  Te  Te188  1  0.66209496  0.83844310  0.66271745  1
  Te  Te189  1  -0.00187279  -0.00295725  0.16939841  1
  Te  Te190  1  -0.00295678  -0.00035872  0.49804299  1
  Te  Te191  1  -0.00370512  0.00144140  0.83194078  1
  Te  Te192  1  -0.00447053  0.33264291  0.16620808  1
  Te  Te193  1  0.00242641  0.33178737  0.50038908  1
  Te  Te194  1  0.00073705  0.33341136  0.82912170  1
  Te  Te195  1  -0.00557760  0.67126440  0.17067109  1
  Te  Te196  1  -0.00333347  0.66600192  0.49992183  1
  Te  Te197  1  -0.00197533  0.66669466  0.83197124  1
  Te  Te198  1  0.33544632  0.00014800  0.16817734  1
  Te  Te199  1  0.32623836  -0.00007794  0.49617705  1
  Te  Te200  1  0.33462888  -0.00249588  0.83337505  1
  Te  Te201  1  0.33781096  0.33845609  0.16589779  1
  Te  Te202  1  0.32370833  0.33420559  0.50011722  1
  Te  Te203  1  0.33174847  0.33150916  0.83429854  1
  Te  Te204  1  0.33254186  0.66471230  0.16414819  1
  Te  Te205  1  0.33521194  0.66676799  0.50567860  1
  Te  Te206  1  0.33519281  0.66988566  0.83434342  1
  Te  Te207  1  0.66869933  0.00200662  0.16566504  1
  Te  Te208  1  0.67065524  0.00052337  0.50185378  1
  Te  Te209  1  0.66979401  0.00047258  0.83357317  1
  Te  Te210  1  0.66722093  0.32901161  0.16650576  1
  Te  Te211  1  0.66643979  0.33356910  0.49997003  1
  Te  Te212  1  0.66518175  0.34428060  0.83366995  1
  Te  Te213  1  0.66892527  0.66667061  0.16197570  1
  Te  Te214  1  0.67452478  0.66491440  0.49976023  1
  Te  Te215  1  0.67013965  0.66458343  0.83800526  1
