# generated using pymatgen
data_AgSbTe2
_symmetry_space_group_name_H-M   'P 1'
_cell_length_a   18.34893103
_cell_length_b   18.36165755
_cell_length_c   18.36251483
_cell_angle_alpha   89.99917474
_cell_angle_beta   90.00162852
_cell_angle_gamma   90.00246247
_symmetry_Int_Tables_number   1
_chemical_formula_structural   AgSbTe2
_chemical_formula_sum   'Ag54 Sb54 Te108'
_cell_volume   6186.63950972
_cell_formula_units_Z   54
loop_
 _symmetry_equiv_pos_site_id
 _symmetry_equiv_pos_as_xyz
  1  'x, y, z'
loop_
 _atom_site_type_symbol
 _atom_site_label
 _atom_site_symmetry_multiplicity
 _atom_site_fract_x
 _atom_site_fract_y
 _atom_site_fract_z
 _atom_site_occupancy
  Ag  Ag0  1  0.50282499  0.49466882  0.32649941  1
  Ag  Ag1  1  0.17714089  0.48982245  0.00939323  1
  Ag  Ag2  1  0.82202337  0.66810813  0.50196177  1
  Ag  Ag3  1  0.83019257  0.16429194  -0.00010203  1
  Ag  Ag4  1  0.00135811  0.83242726  0.83350758  1
  Ag  Ag5  1  0.66535249  0.00025391  0.00958165  1
  Ag  Ag6  1  0.34713242  0.49514722  0.16480727  1
  Ag  Ag7  1  0.16391293  0.65338301  0.50272422  1
  Ag  Ag8  1  0.66563037  0.16043293  0.16714485  1
  Ag  Ag9  1  0.82556807  0.50632484  0.66041338  1
  Ag  Ag10  1  0.01975949  0.33516934  0.33100421  1
  Ag  Ag11  1  0.33522268  0.00241531  0.00418568  1
  Ag  Ag12  1  0.66383812  0.83441226  0.17598367  1
  Ag  Ag13  1  0.00188812  0.00793413  0.00192360  1
  Ag  Ag14  1  0.82252671  0.83551924  0.34062761  1
  Ag  Ag15  1  0.32951701  0.33837234  0.00969861  1
  Ag  Ag16  1  0.50355533  0.18180094  0.33316168  1
  Ag  Ag17  1  0.16412078  0.82768485  0.66667814  1
  Ag  Ag18  1  0.17214985  0.33693302  0.48352221  1
  Ag  Ag19  1  0.34643362  0.65600588  0.00009169  1
  Ag  Ag20  1  0.33159052  0.33358934  0.66425520  1
  Ag  Ag21  1  0.16495466  0.01142210  0.16347757  1
  Ag  Ag22  1  0.66641313  0.50413089  0.49246720  1
  Ag  Ag23  1  0.49514383  0.34128686  0.17359773  1
  Ag  Ag24  1  0.50430938  0.49525478  0.66279687  1
  Ag  Ag25  1  0.33533345  0.33559966  0.32806210  1
  Ag  Ag26  1  0.16414345  0.17792205  0.00440429  1
  Ag  Ag27  1  0.49455568  0.50661555  0.01509441  1
  Ag  Ag28  1  -0.00192007  0.49902857  0.49851548  1
  Ag  Ag29  1  0.51131215  0.82827540  0.32493540  1
  Ag  Ag30  1  0.50320824  0.81807479  0.00873301  1
  Ag  Ag31  1  0.83077926  0.83226655  0.66029361  1
  Ag  Ag32  1  0.65995889  0.50150462  0.17474560  1
  Ag  Ag33  1  0.66677186  0.16732481  0.84265931  1
  Ag  Ag34  1  0.66999102  0.82303092  0.48736931  1
  Ag  Ag35  1  0.16824364  0.33583043  0.85512113  1
  Ag  Ag36  1  0.50035799  0.66487869  0.84701364  1
  Ag  Ag37  1  0.50581714  0.17476435  0.66279574  1
  Ag  Ag38  1  0.17114162  0.17943112  0.32103438  1
  Ag  Ag39  1  0.01596589  0.32887051  0.00521986  1
  Ag  Ag40  1  0.82630643  0.16623666  0.66735998  1
  Ag  Ag41  1  0.65822689  0.66927620  0.00804377  1
  Ag  Ag42  1  0.49665497  0.33615831  0.48598013  1
  Ag  Ag43  1  0.17149355  0.66168377  0.83313749  1
  Ag  Ag44  1  0.66778770  -0.01371843  0.32706043  1
  Ag  Ag45  1  0.64967827  0.33708791  0.33119056  1
  Ag  Ag46  1  0.17203187  0.49091015  0.32938490  1
  Ag  Ag47  1  0.66669005  0.66377754  0.65854518  1
  Ag  Ag48  1  0.82118095  0.00113301  0.16715469  1
  Ag  Ag49  1  0.17427735  0.33217595  0.16882470  1
  Ag  Ag50  1  0.50328041  0.65178083  0.15911392  1
  Ag  Ag51  1  0.82974253  -0.01076972  0.49530325  1
  Ag  Ag52  1  0.66345467  0.67163434  0.33329258  1
  Ag  Ag53  1  0.16760087  0.17393913  0.66825380  1
  Sb  Sb54  1  0.33659033  0.17443627  0.16534532  1
  Sb  Sb55  1  0.82935166  0.66825933  0.82870478  1
  Sb  Sb56  1  0.00367608  0.50165743  0.82932252  1
  Sb  Sb57  1  0.33630739  0.49712288  0.49381319  1
  Sb  Sb58  1  0.82825995  0.16492907  0.33220207  1
  Sb  Sb59  1  0.16586171  0.00344382  0.83959806  1
  Sb  Sb60  1  0.50635603  0.00480960  0.49606491  1
  Sb  Sb61  1  0.33900941  0.00628505  0.32569928  1
  Sb  Sb62  1  0.49517304  0.33827763  0.83566382  1
  Sb  Sb63  1  -0.00698847  0.82730431  0.50299616  1
  Sb  Sb64  1  0.82685019  0.83857065  0.00203941  1
  Sb  Sb65  1  0.33387694  0.49827552  0.84302989  1
  Sb  Sb66  1  0.33584379  0.17016608  0.83551540  1
  Sb  Sb67  1  -0.00576958  0.83579772  0.16330421  1
  Sb  Sb68  1  0.82145514  0.67178288  0.17228317  1
  Sb  Sb69  1  0.17056921  0.49708411  0.66354226  1
  Sb  Sb70  1  0.00140600  0.66389135  -0.00165020  1
  Sb  Sb71  1  0.33141560  0.00510192  0.67010800  1
  Sb  Sb72  1  0.66372923  0.49813818  0.83326689  1
  Sb  Sb73  1  0.33077265  0.83133475  0.83479562  1
  Sb  Sb74  1  -0.00114415  0.17287796  0.49907878  1
  Sb  Sb75  1  0.82508942  0.50255943  0.33708171  1
  Sb  Sb76  1  -0.00116235  0.49695912  0.17127632  1
  Sb  Sb77  1  0.33291705  0.16921231  0.49913139  1
  Sb  Sb78  1  0.34071140  0.82998771  0.16466400  1
  Sb  Sb79  1  0.66927081  0.83447494  0.83550972  1
  Sb  Sb80  1  0.34038654  0.82824874  0.49937795  1
  Sb  Sb81  1  0.82958604  0.32936728  0.16871045  1
  Sb  Sb82  1  0.17450832  0.66141529  0.16496988  1
  Sb  Sb83  1  -0.00337340  0.66584039  0.66603940  1
  Sb  Sb84  1  0.83738198  0.33184087  0.83254813  1
  Sb  Sb85  1  -0.00202331  -0.00079934  0.67002925  1
  Sb  Sb86  1  0.83151607  0.33688450  0.49916827  1
  Sb  Sb87  1  0.50387186  0.65801428  0.49512786  1
  Sb  Sb88  1  -0.00472818  0.66126101  0.33578695  1
  Sb  Sb89  1  0.16616894  0.83161357  0.33807868  1
  Sb  Sb90  1  0.82987614  0.49560027  -0.00231304  1
  Sb  Sb91  1  -0.00127124  0.16542438  0.83646040  1
  Sb  Sb92  1  0.66130572  0.33688145  0.66211136  1
  Sb  Sb93  1  -0.00520775  0.00550828  0.32814903  1
  Sb  Sb94  1  0.66109620  0.33394796  0.00689240  1
  Sb  Sb95  1  0.83259526  -0.00029149  0.83707604  1
  Sb  Sb96  1  0.66817637  -0.00140253  0.66449810  1
  Sb  Sb97  1  0.33698472  0.65947596  0.67057335  1
  Sb  Sb98  1  0.33999328  0.66001054  0.32831176  1
  Sb  Sb99  1  0.50008798  0.17148557  0.00270135  1
  Sb  Sb100  1  0.50401271  0.82937641  0.66602566  1
  Sb  Sb101  1  0.50204285  -0.00249495  0.83565365  1
  Sb  Sb102  1  0.17043044  0.83257524  -0.00243868  1
  Sb  Sb103  1  0.66681073  0.16940774  0.49553240  1
  Sb  Sb104  1  0.00620202  0.33374436  0.66522324  1
  Sb  Sb105  1  0.50252448  0.00228321  0.16609011  1
  Sb  Sb106  1  -0.00048771  0.16810118  0.16544224  1
  Sb  Sb107  1  0.15957570  0.00542014  0.49624690  1
  Te  Te108  1  0.16698373  0.16884459  0.16410153  1
  Te  Te109  1  0.16568626  0.17119997  0.50486320  1
  Te  Te110  1  0.16623027  0.17104281  0.83341846  1
  Te  Te111  1  0.16410224  0.49851031  0.16789948  1
  Te  Te112  1  0.16863918  0.49578173  0.49871584  1
  Te  Te113  1  0.16677688  0.49925758  0.83492759  1
  Te  Te114  1  0.16530107  0.83080255  0.16786299  1
  Te  Te115  1  0.16585106  0.83645054  0.50484374  1
  Te  Te116  1  0.16400276  0.83267396  0.82892805  1
  Te  Te117  1  0.50498763  0.17008375  0.17044927  1
  Te  Te118  1  0.49970409  0.17276367  0.49898798  1
  Te  Te119  1  0.50459045  0.16697748  0.83034337  1
  Te  Te120  1  0.50409184  0.49671903  0.17013791  1
  Te  Te121  1  0.50297112  0.49545816  0.50216923  1
  Te  Te122  1  0.49984655  0.50552498  0.82353302  1
  Te  Te123  1  0.50437235  0.83638244  0.16525234  1
  Te  Te124  1  0.50732266  0.83516893  0.49906160  1
  Te  Te125  1  0.50049272  0.82696134  0.83406319  1
  Te  Te126  1  0.82789360  0.16167194  0.16445689  1
  Te  Te127  1  0.83387151  0.16574583  0.50396687  1
  Te  Te128  1  0.82966697  0.16612306  0.83257515  1
  Te  Te129  1  0.82620918  0.50128278  0.16497936  1
  Te  Te130  1  0.83043849  0.50292837  0.50220528  1
  Te  Te131  1  0.83448157  0.49981545  0.82337296  1
  Te  Te132  1  0.82710753  0.83910832  0.16952393  1
  Te  Te133  1  0.83086505  0.82966745  0.50161776  1
  Te  Te134  1  0.83772447  0.83272685  0.82588582  1
  Te  Te135  1  0.16526292  -0.00207507  0.00321009  1
  Te  Te136  1  0.16620576  0.00185873  0.32788831  1
  Te  Te137  1  0.16603702  0.00571307  0.66667465  1
  Te  Te138  1  0.17112359  0.33392496  0.00937613  1
  Te  Te139  1  0.17535541  0.33469526  0.32817401  1
  Te  Te140  1  0.16927363  0.33287735  0.65953577  1
  Te  Te141  1  0.16793709  0.66467122  -0.00408653  1
  Te  Te142  1  0.16703464  0.66475727  0.33610583  1
  Te  Te143  1  0.16862564  0.66487954  0.66836783  1
  Te  Te144  1  0.50067377  0.00408193  -0.00103033  1
  Te  Te145  1  0.50615086  -0.00631121  0.33302232  1
  Te  Te146  1  0.49850604  0.00674252  0.66602564  1
  Te  Te147  1  0.49316229  0.33904374  0.00189011  1
  Te  Te148  1  0.49394982  0.33610841  0.33113657  1
  Te  Te149  1  0.49686590  0.33313598  0.67131318  1
  Te  Te150  1  0.50196098  0.66306936  0.00230682  1
  Te  Te151  1  0.50321556  0.66746813  0.33163229  1
  Te  Te152  1  0.50419085  0.66513177  0.66321513  1
  Te  Te153  1  0.82934312  0.00355303  0.00335803  1
  Te  Te154  1  0.82958644  -0.00023649  0.33119022  1
  Te  Te155  1  0.83339515  0.00067342  0.66343261  1
  Te  Te156  1  0.83359341  0.32600665  0.00011114  1
  Te  Te157  1  0.83745250  0.33273109  0.33394572  1
  Te  Te158  1  0.83449590  0.32623495  0.66618953  1
  Te  Te159  1  0.83001126  0.66620919  -0.00151983  1
  Te  Te160  1  0.82837499  0.67102526  0.33936733  1
  Te  Te161  1  0.82981586  0.66776797  0.66335965  1
  Te  Te162  1  0.00184802  0.16773427  -0.00003292  1
  Te  Te163  1  0.00799923  0.17316999  0.33309843  1
  Te  Te164  1  0.00107118  0.16591582  0.66776167  1
  Te  Te165  1  -0.00082631  0.49472783  -0.00085295  1
  Te  Te166  1  0.00390149  0.49542843  0.33742786  1
  Te  Te167  1  -0.00631726  0.49916984  0.66039819  1
  Te  Te168  1  -0.00203664  0.83458260  -0.00394733  1
  Te  Te169  1  -0.00423928  0.83447110  0.33280598  1
  Te  Te170  1  0.00254153  0.83299483  0.67009388  1
  Te  Te171  1  0.32922639  0.16563796  -0.00022490  1
  Te  Te172  1  0.33411988  0.17073735  0.33281032  1
  Te  Te173  1  0.33173025  0.16987450  0.66831063  1
  Te  Te174  1  0.33396682  0.49848564  0.00426064  1
  Te  Te175  1  0.33470010  0.49782552  0.32779486  1
  Te  Te176  1  0.33889002  0.49515169  0.66593690  1
  Te  Te177  1  0.34044487  0.83552616  0.00007697  1
  Te  Te178  1  0.33819041  0.83345921  0.33324261  1
  Te  Te179  1  0.32855598  0.83472384  0.66668138  1
  Te  Te180  1  0.66626520  0.16660058  0.00390682  1
  Te  Te181  1  0.66431522  0.17700904  0.32971996  1
  Te  Te182  1  0.66641630  0.16658607  0.66369316  1
  Te  Te183  1  0.66420441  0.50293163  0.00064907  1
  Te  Te184  1  0.66479938  0.49844792  0.33440736  1
  Te  Te185  1  0.66645520  0.50180800  0.66761574  1
  Te  Te186  1  0.66298698  0.83419650  0.00027305  1
  Te  Te187  1  0.66734538  0.83152524  0.33259867  1
  Te  Te188  1  0.66992194  0.82999681  0.66749987  1
  Te  Te189  1  0.00327710  0.00045819  0.16062728  1
  Te  Te190  1  -0.00950856  -0.00015155  0.49821744  1
  Te  Te191  1  -0.00034461  -0.00535536  0.84107786  1
  Te  Te192  1  -0.00021276  0.33416264  0.16695788  1
  Te  Te193  1  0.00348850  0.33885191  0.49623681  1
  Te  Te194  1  0.00742465  0.33372924  0.83829915  1
  Te  Te195  1  -0.00210866  0.66667272  0.16669786  1
  Te  Te196  1  0.00568236  0.66038004  0.50002594  1
  Te  Te197  1  0.00615005  0.67022016  0.83298527  1
  Te  Te198  1  0.32611686  -0.00182258  0.16245082  1
  Te  Te199  1  0.33097838  -0.00269544  0.49951708  1
  Te  Te200  1  0.33402307  -0.00028358  0.84315023  1
  Te  Te201  1  0.33446006  0.33477485  0.16668021  1
  Te  Te202  1  0.33439546  0.33301384  0.50267938  1
  Te  Te203  1  0.32604252  0.33307261  0.82823420  1
  Te  Te204  1  0.34073343  0.66136240  0.16110493  1
  Te  Te205  1  0.32273663  0.66589697  0.50120941  1
  Te  Te206  1  0.33359784  0.66553369  0.83809313  1
  Te  Te207  1  0.66484237  0.00013874  0.16694957  1
  Te  Te208  1  0.67173952  -0.00116626  0.49675494  1
  Te  Te209  1  0.66677616  0.00581101  0.83792858  1
  Te  Te210  1  0.66450478  0.33686219  0.17027042  1
  Te  Te211  1  0.66340272  0.33871375  0.49522941  1
  Te  Te212  1  0.66770252  0.32723737  0.83425610  1
  Te  Te213  1  0.66365770  0.66914385  0.16873023  1
  Te  Te214  1  0.66503573  0.66426190  0.49884060  1
  Te  Te215  1  0.66302044  0.66605057  0.83594887  1
