# generated using pymatgen
data_AgSbTe2
_symmetry_space_group_name_H-M   'P 1'
_cell_length_a   18.32109286
_cell_length_b   18.32331380
_cell_length_c   18.32554135
_cell_angle_alpha   89.99620820
_cell_angle_beta   89.99940369
_cell_angle_gamma   90.00167990
_symmetry_Int_Tables_number   1
_chemical_formula_structural   AgSbTe2
_chemical_formula_sum   'Ag54 Sb54 Te108'
_cell_volume   6151.94163940
_cell_formula_units_Z   54
loop_
 _symmetry_equiv_pos_site_id
 _symmetry_equiv_pos_as_xyz
  1  'x, y, z'
loop_
 _atom_site_type_symbol
 _atom_site_label
 _atom_site_symmetry_multiplicity
 _atom_site_fract_x
 _atom_site_fract_y
 _atom_site_fract_z
 _atom_site_occupancy
  Ag  Ag0  1  0.17825211  0.49627667  0.33128778  1
  Ag  Ag1  1  -0.00591716  0.49783945  0.83567817  1
  Ag  Ag2  1  0.33791264  0.49911398  0.48959055  1
  Ag  Ag3  1  0.33343099  0.17786379  0.16737719  1
  Ag  Ag4  1  -0.00909033  0.00672742  0.00187959  1
  Ag  Ag5  1  0.83388205  0.84965549  -0.00161804  1
  Ag  Ag6  1  0.33049090  0.33414039  0.00847550  1
  Ag  Ag7  1  0.66930249  0.00264364  0.66324154  1
  Ag  Ag8  1  0.33523709  0.83044882  0.49572843  1
  Ag  Ag9  1  0.49643709  0.82681821  0.33584742  1
  Ag  Ag10  1  0.66752732  0.32938111  0.33102250  1
  Ag  Ag11  1  0.15929108  -0.00025669  0.83140206  1
  Ag  Ag12  1  0.83189278  0.16556279  0.00494433  1
  Ag  Ag13  1  0.83588341  0.49313524  -0.00328597  1
  Ag  Ag14  1  0.17096009  0.33224792  0.49681520  1
  Ag  Ag15  1  0.67644362  0.00940561  0.33531374  1
  Ag  Ag16  1  0.33751589  0.66497592  0.33416884  1
  Ag  Ag17  1  0.83219507  0.00496690  0.16188633  1
  Ag  Ag18  1  0.49667865  0.66004578  0.17759266  1
  Ag  Ag19  1  0.83398789  0.00188154  0.84704949  1
  Ag  Ag20  1  0.49483719  0.33619965  0.17190098  1
  Ag  Ag21  1  0.82923629  0.49381629  0.33144036  1
  Ag  Ag22  1  0.16612702  0.16866467  0.66523366  1
  Ag  Ag23  1  0.00412061  0.33461894  0.67087451  1
  Ag  Ag24  1  -0.00990202  0.16649835  0.16516559  1
  Ag  Ag25  1  0.17329942  0.33397289  0.16866991  1
  Ag  Ag26  1  0.67653226  0.49323905  0.83389467  1
  Ag  Ag27  1  0.33261008  -0.00593996  0.33286801  1
  Ag  Ag28  1  0.67615570  0.32975576  0.00303376  1
  Ag  Ag29  1  0.50088899  0.66198301  0.49529662  1
  Ag  Ag30  1  0.00127482  0.83736945  0.50018947  1
  Ag  Ag31  1  0.33469705  0.49535163  0.17283753  1
  Ag  Ag32  1  -0.00698104  0.00167080  0.33442625  1
  Ag  Ag33  1  0.83792795  0.65604444  0.83202349  1
  Ag  Ag34  1  0.82854641  0.16317855  0.32738757  1
  Ag  Ag35  1  0.16238736  0.49387490  0.00260524  1
  Ag  Ag36  1  0.16009921  0.66604940  0.83255827  1
  Ag  Ag37  1  0.32803422  0.33305780  0.66320172  1
  Ag  Ag38  1  0.83311385  -0.00161549  0.49544565  1
  Ag  Ag39  1  0.67239481  0.16838487  0.84189385  1
  Ag  Ag40  1  0.16246253  0.00401331  0.49903494  1
  Ag  Ag41  1  -0.00075715  0.66276886  0.66830017  1
  Ag  Ag42  1  0.49546821  0.50315933  0.33448206  1
  Ag  Ag43  1  0.83266025  0.33807082  0.83925919  1
  Ag  Ag44  1  0.67378954  0.16761704  0.16934324  1
  Ag  Ag45  1  0.33579133  0.83336567  0.17711628  1
  Ag  Ag46  1  0.66324043  0.49378554  0.49568055  1
  Ag  Ag47  1  0.49780394  0.34122155  0.49325387  1
  Ag  Ag48  1  0.83035511  0.66764062  0.50026978  1
  Ag  Ag49  1  0.33226437  0.83396729  0.83334459  1
  Ag  Ag50  1  0.67792290  0.01145658  -0.00023333  1
  Ag  Ag51  1  -0.00722805  0.33065596  -0.00253761  1
  Ag  Ag52  1  0.66854288  0.16858119  0.49197056  1
  Ag  Ag53  1  0.49794649  0.83382232  0.65433734  1
  Sb  Sb54  1  -0.00301853  0.00211772  0.66678777  1
  Sb  Sb55  1  0.50151684  0.49702289  0.00713971  1
  Sb  Sb56  1  0.49972332  0.50220696  0.65675772  1
  Sb  Sb57  1  0.50127852  0.66635146  0.82927421  1
  Sb  Sb58  1  0.16608768  0.49451368  0.66541518  1
  Sb  Sb59  1  0.16975549  0.83745539  0.66586983  1
  Sb  Sb60  1  0.33873929  0.33517865  0.33202901  1
  Sb  Sb61  1  0.17208577  0.65905812  0.16454162  1
  Sb  Sb62  1  0.66392575  0.49078520  0.16997782  1
  Sb  Sb63  1  0.33131801  0.00395314  0.00486215  1
  Sb  Sb64  1  0.33437227  0.16558490  0.83733833  1
  Sb  Sb65  1  0.83121533  0.83473119  0.66887892  1
  Sb  Sb66  1  0.33265822  0.66276400  0.00514410  1
  Sb  Sb67  1  0.66090166  0.66230669  0.33512823  1
  Sb  Sb68  1  0.16496951  0.17014918  0.33466165  1
  Sb  Sb69  1  0.00211902  0.49258637  0.16240575  1
  Sb  Sb70  1  0.16764592  0.66531070  0.50296809  1
  Sb  Sb71  1  0.17427017  0.83258537  0.33469320  1
  Sb  Sb72  1  0.15994428  0.17233026  -0.00074730  1
  Sb  Sb73  1  0.00242169  0.84127175  0.17065074  1
  Sb  Sb74  1  0.82848313  0.83847820  0.33251577  1
  Sb  Sb75  1  0.33464242  0.00208981  0.66278334  1
  Sb  Sb76  1  0.16301265  0.83149326  -0.00127641  1
  Sb  Sb77  1  0.33591800  0.16845645  0.49419464  1
  Sb  Sb78  1  0.67030164  0.66887761  0.66438622  1
  Sb  Sb79  1  0.83436448  0.16589958  0.66798362  1
  Sb  Sb80  1  0.83280735  0.33360218  0.50161746  1
  Sb  Sb81  1  0.00101818  0.83132228  0.83044535  1
  Sb  Sb82  1  -0.00141923  0.66328809  -0.00513015  1
  Sb  Sb83  1  0.33002527  0.66464516  0.66156720  1
  Sb  Sb84  1  0.66455518  0.83585730  0.49858840  1
  Sb  Sb85  1  0.50549892  0.33566660  0.83373991  1
  Sb  Sb86  1  -0.00096456  0.50160994  0.50156158  1
  Sb  Sb87  1  0.49878506  0.16563738  0.66355600  1
  Sb  Sb88  1  0.50445278  -0.00113845  0.83255587  1
  Sb  Sb89  1  0.50192925  -0.00128459  0.49608483  1
  Sb  Sb90  1  0.66925963  0.66181009  -0.00020492  1
  Sb  Sb91  1  0.00242766  0.66996706  0.33829655  1
  Sb  Sb92  1  0.66660850  0.83569065  0.83416864  1
  Sb  Sb93  1  -0.00425857  0.33035705  0.33073563  1
  Sb  Sb94  1  0.83409431  0.49946105  0.66848541  1
  Sb  Sb95  1  0.33155442  0.50142766  0.83533263  1
  Sb  Sb96  1  0.50235366  0.83354959  0.00447025  1
  Sb  Sb97  1  0.66776816  0.32946121  0.66566629  1
  Sb  Sb98  1  0.51006561  0.16934808  0.00352383  1
  Sb  Sb99  1  0.50359327  0.00402338  0.17061281  1
  Sb  Sb100  1  0.82861336  0.66890165  0.16739304  1
  Sb  Sb101  1  0.16393503  0.00646206  0.16877991  1
  Sb  Sb102  1  0.50599452  0.17033941  0.33270394  1
  Sb  Sb103  1  0.16129892  0.33308367  0.83372767  1
  Sb  Sb104  1  0.83209832  0.32588808  0.16042371  1
  Sb  Sb105  1  -0.00619125  0.16985188  0.83709320  1
  Sb  Sb106  1  -0.00372097  0.16350152  0.49621101  1
  Sb  Sb107  1  0.66225807  0.84134880  0.16809036  1
  Te  Te108  1  0.17226682  0.17296109  0.16664080  1
  Te  Te109  1  0.16761172  0.16701083  0.50178602  1
  Te  Te110  1  0.16675774  0.16036015  0.82987312  1
  Te  Te111  1  0.16886436  0.49476361  0.16636018  1
  Te  Te112  1  0.16857395  0.49679262  0.49683137  1
  Te  Te113  1  0.16495962  0.50237241  0.83651741  1
  Te  Te114  1  0.17415328  0.83270349  0.16590154  1
  Te  Te115  1  0.16861021  0.83675813  0.50013172  1
  Te  Te116  1  0.17039313  0.83575137  0.83314865  1
  Te  Te117  1  0.49391090  0.17302769  0.16695965  1
  Te  Te118  1  0.50644262  0.17474292  0.49975964  1
  Te  Te119  1  0.50935739  0.16678900  0.83186775  1
  Te  Te120  1  0.49755905  0.49833557  0.17229282  1
  Te  Te121  1  0.49956046  0.50096325  0.49576964  1
  Te  Te122  1  0.50603910  0.50207854  0.83308846  1
  Te  Te123  1  0.49475827  0.83101873  0.17088670  1
  Te  Te124  1  0.49775471  0.83244520  0.49664444  1
  Te  Te125  1  0.49354987  0.83147361  0.83391014  1
  Te  Te126  1  0.83306667  0.16515583  0.16775530  1
  Te  Te127  1  0.82927564  0.16483318  0.49624629  1
  Te  Te128  1  0.83046758  0.16164892  0.83430307  1
  Te  Te129  1  0.83341318  0.50253743  0.16954208  1
  Te  Te130  1  0.83130042  0.50196681  0.49684519  1
  Te  Te131  1  0.83355246  0.49952602  0.83290536  1
  Te  Te132  1  0.83381312  0.83753100  0.16063678  1
  Te  Te133  1  0.83451239  0.83217580  0.50034855  1
  Te  Te134  1  0.83334257  0.83863478  0.83716857  1
  Te  Te135  1  0.16208213  0.00032849  -0.00351869  1
  Te  Te136  1  0.16579668  0.00050948  0.33686612  1
  Te  Te137  1  0.16589759  0.00466297  0.66588471  1
  Te  Te138  1  0.16815764  0.33548948  0.00035469  1
  Te  Te139  1  0.16321836  0.33666889  0.33521118  1
  Te  Te140  1  0.16625630  0.33021307  0.66634087  1
  Te  Te141  1  0.16579615  0.66028106  -0.00690044  1
  Te  Te142  1  0.17071602  0.65820435  0.33357465  1
  Te  Te143  1  0.16154075  0.66627885  0.67211724  1
  Te  Te144  1  0.50628889  -0.00061378  0.00114148  1
  Te  Te145  1  0.49488919  -0.00394211  0.33304819  1
  Te  Te146  1  0.50479802  -0.00452644  0.66499481  1
  Te  Te147  1  0.49502185  0.33363775  0.00357836  1
  Te  Te148  1  0.50522246  0.33603738  0.33357079  1
  Te  Te149  1  0.49482041  0.33364178  0.66207859  1
  Te  Te150  1  0.50048343  0.66603636  0.00473293  1
  Te  Te151  1  0.49890610  0.66487029  0.33560713  1
  Te  Te152  1  0.49941553  0.67336348  0.66033742  1
  Te  Te153  1  0.83372048  0.00536529  0.00276194  1
  Te  Te154  1  0.83363590  -0.00050647  0.33619849  1
  Te  Te155  1  0.82952205  -0.00022662  0.65584682  1
  Te  Te156  1  0.83338003  0.33378646  -0.00045293  1
  Te  Te157  1  0.82904148  0.33317015  0.33374152  1
  Te  Te158  1  0.83917941  0.33190066  0.67414015  1
  Te  Te159  1  0.83333183  0.65601649  -0.00235332  1
  Te  Te160  1  0.83305470  0.66720264  0.33698737  1
  Te  Te161  1  0.83790928  0.66813410  0.66610230  1
  Te  Te162  1  -0.00507293  0.16769179  0.00293775  1
  Te  Te163  1  -0.00503477  0.16260678  0.32824615  1
  Te  Te164  1  0.00490800  0.17138261  0.66658676  1
  Te  Te165  1  -0.00054452  0.49700715  -0.00304371  1
  Te  Te166  1  -0.00705730  0.50062732  0.33218225  1
  Te  Te167  1  0.00090195  0.49839146  0.67084704  1
  Te  Te168  1  -0.00492846  0.83665227  0.00095548  1
  Te  Te169  1  0.00107899  0.83891063  0.33893674  1
  Te  Te170  1  0.00037925  0.83021436  0.66047979  1
  Te  Te171  1  0.33326608  0.17157597  0.00489690  1
  Te  Te172  1  0.33282552  0.15964488  0.32791221  1
  Te  Te173  1  0.33005892  0.17105144  0.66788424  1
  Te  Te174  1  0.33055180  0.49543070  0.00340893  1
  Te  Te175  1  0.33430514  0.49895482  0.33329358  1
  Te  Te176  1  0.33309210  0.49396507  0.66432927  1
  Te  Te177  1  0.33289982  0.83377987  -0.00263378  1
  Te  Te178  1  0.33448617  0.83226722  0.33575387  1
  Te  Te179  1  0.33677144  0.83353939  0.66298451  1
  Te  Te180  1  0.67046761  0.16920477  0.00141301  1
  Te  Te181  1  0.66808512  0.16780699  0.33179398  1
  Te  Te182  1  0.66659667  0.16211006  0.66410246  1
  Te  Te183  1  0.66961874  0.49436845  -0.00200160  1
  Te  Te184  1  0.66922692  0.49688747  0.33567078  1
  Te  Te185  1  0.66588849  0.49898686  0.66555998  1
  Te  Te186  1  0.67224336  0.83428219  0.00025116  1
  Te  Te187  1  0.65938788  0.83962766  0.33300708  1
  Te  Te188  1  0.65981975  0.83960457  0.66710484  1
  Te  Te189  1  -0.00254006  0.00461955  0.16749418  1
  Te  Te190  1  0.00092081  -0.00141119  0.49928664  1
  Te  Te191  1  -0.00139650  -0.00015474  0.83457425  1
  Te  Te192  1  0.00540405  0.32726710  0.16241498  1
  Te  Te193  1  0.00485773  0.33277574  0.50351809  1
  Te  Te194  1  -0.00328679  0.33617830  0.83582310  1
  Te  Te195  1  0.00036625  0.66982941  0.16788036  1
  Te  Te196  1  -0.00266981  0.66997972  0.50478663  1
  Te  Te197  1  -0.00187184  0.66438965  0.82970700  1
  Te  Te198  1  0.33231365  -0.00494595  0.16981602  1
  Te  Te199  1  0.33057769  -0.00045044  0.49640034  1
  Te  Te200  1  0.33235134  -0.00337881  0.83404153  1
  Te  Te201  1  0.33387544  0.33597415  0.16869313  1
  Te  Te202  1  0.33232643  0.33402645  0.49920445  1
  Te  Te203  1  0.33466872  0.33311301  0.83295331  1
  Te  Te204  1  0.33644584  0.66605058  0.17119461  1
  Te  Te205  1  0.33438275  0.66602497  0.49687559  1
  Te  Te206  1  0.33139536  0.67053640  0.83262875  1
  Te  Te207  1  0.67008315  0.00638032  0.16797891  1
  Te  Te208  1  0.66815277  0.00239516  0.49648988  1
  Te  Te209  1  0.67023321  0.00149116  0.83657558  1
  Te  Te210  1  0.66522828  0.32782394  0.16557763  1
  Te  Te211  1  0.66689230  0.33367078  0.50032781  1
  Te  Te212  1  0.67019732  0.33269909  0.83369471  1
  Te  Te213  1  0.65854194  0.66791103  0.16711801  1
  Te  Te214  1  0.66822769  0.66163928  0.50050058  1
  Te  Te215  1  0.67308064  0.66223821  0.83204424  1
