# generated using pymatgen
data_AgSbTe2
_symmetry_space_group_name_H-M   'P 1'
_cell_length_a   18.33547108
_cell_length_b   18.33059023
_cell_length_c   18.33377300
_cell_angle_alpha   90.00275675
_cell_angle_beta   89.99880789
_cell_angle_gamma   90.00029039
_symmetry_Int_Tables_number   1
_chemical_formula_structural   AgSbTe2
_chemical_formula_sum   'Ag54 Sb54 Te108'
_cell_volume   6161.98122294
_cell_formula_units_Z   54
loop_
 _symmetry_equiv_pos_site_id
 _symmetry_equiv_pos_as_xyz
  1  'x, y, z'
loop_
 _atom_site_type_symbol
 _atom_site_label
 _atom_site_symmetry_multiplicity
 _atom_site_fract_x
 _atom_site_fract_y
 _atom_site_fract_z
 _atom_site_occupancy
  Ag  Ag0  1  0.50594845  0.16304913  0.66312584  1
  Ag  Ag1  1  0.67475847  0.00294871  0.65919136  1
  Ag  Ag2  1  0.00076989  0.34013534  0.32980298  1
  Ag  Ag3  1  0.83499326  0.16830530  0.66149370  1
  Ag  Ag4  1  0.15614786  0.33398536  0.84015048  1
  Ag  Ag5  1  0.31778244  0.67236190  0.33796824  1
  Ag  Ag6  1  0.83764156  0.83194403  0.00482267  1
  Ag  Ag7  1  0.67707559  0.33295343  0.01000671  1
  Ag  Ag8  1  0.31988511  0.49803054  0.16793322  1
  Ag  Ag9  1  0.00154386  0.50094179  0.16497144  1
  Ag  Ag10  1  0.49870576  -0.00163879  0.82282326  1
  Ag  Ag11  1  -0.00076058  0.67044683  0.65952552  1
  Ag  Ag12  1  0.84061165  0.66413109  0.82705291  1
  Ag  Ag13  1  0.00336385  0.66339712  0.33464633  1
  Ag  Ag14  1  0.66831203  0.17150377  0.17494969  1
  Ag  Ag15  1  0.32870318  0.33684647  0.00485636  1
  Ag  Ag16  1  0.16030782  0.67368791  0.49444996  1
  Ag  Ag17  1  0.50034384  0.49701322  0.00166421  1
  Ag  Ag18  1  0.32934181  -0.00731417  0.33649990  1
  Ag  Ag19  1  -0.00294403  0.66451834  0.00302725  1
  Ag  Ag20  1  0.84070257  0.67536868  0.49808905  1
  Ag  Ag21  1  0.16147300  0.16855997  0.65721435  1
  Ag  Ag22  1  0.83953550  0.66406814  0.17224095  1
  Ag  Ag23  1  0.15979337  0.82131729  0.33722076  1
  Ag  Ag24  1  0.83269797  -0.00654454  0.49969045  1
  Ag  Ag25  1  -0.00194934  0.50531912  0.83853796  1
  Ag  Ag26  1  0.32149047  0.83176317  0.82823812  1
  Ag  Ag27  1  0.50761219  -0.00467838  0.50107462  1
  Ag  Ag28  1  0.15641962  0.33806212  0.17282542  1
  Ag  Ag29  1  0.50715241  0.00586088  0.17130545  1
  Ag  Ag30  1  0.32203579  0.66783298  0.65363327  1
  Ag  Ag31  1  0.32549799  0.83028519  0.49875874  1
  Ag  Ag32  1  0.49573276  0.67572306  0.50000671  1
  Ag  Ag33  1  0.83336446  0.00026737  0.17507792  1
  Ag  Ag34  1  0.67910078  0.83747567  0.49960487  1
  Ag  Ag35  1  0.16514673  0.50602250  0.33279614  1
  Ag  Ag36  1  -0.00305040  -0.00890035  -0.00178563  1
  Ag  Ag37  1  0.83932936  0.83056439  0.33756358  1
  Ag  Ag38  1  0.83619927  0.49822809  0.66221548  1
  Ag  Ag39  1  0.50452179  0.33236823  0.16454856  1
  Ag  Ag40  1  0.83659212  0.33449313  0.16962081  1
  Ag  Ag41  1  0.83745742  0.33457379  0.49646833  1
  Ag  Ag42  1  -0.00142783  0.34040838  0.00862044  1
  Ag  Ag43  1  0.16291483  -0.00698128  0.49711536  1
  Ag  Ag44  1  0.67169567  0.49779583  0.49910405  1
  Ag  Ag45  1  0.83910801  0.33889286  0.83685824  1
  Ag  Ag46  1  0.15571539  0.65563381  0.18092866  1
  Ag  Ag47  1  0.16543805  0.17192242  0.33890268  1
  Ag  Ag48  1  0.67071523  0.16397442  0.49888984  1
  Ag  Ag49  1  0.15746004  0.33157190  0.48964655  1
  Ag  Ag50  1  0.00034956  0.82589199  0.82877142  1
  Ag  Ag51  1  0.67967034  0.33229367  0.33069801  1
  Ag  Ag52  1  -0.00039296  0.82932130  0.50048381  1
  Ag  Ag53  1  -0.00389573  -0.00561640  0.66318589  1
  Sb  Sb54  1  0.15806400  0.66383809  0.82949847  1
  Sb  Sb55  1  0.67155380  0.83903736  0.17386397  1
  Sb  Sb56  1  0.16474226  0.83540857  0.65754785  1
  Sb  Sb57  1  -0.00192165  0.33540212  0.66374022  1
  Sb  Sb58  1  0.33159915  0.16128206  0.49899864  1
  Sb  Sb59  1  0.67170761  0.32774292  0.66142755  1
  Sb  Sb60  1  0.67571328  0.66098557  0.00156039  1
  Sb  Sb61  1  0.67414504  0.49754704  0.82979349  1
  Sb  Sb62  1  0.67231816  0.66184540  0.33705423  1
  Sb  Sb63  1  0.67268050  0.67081066  0.66069129  1
  Sb  Sb64  1  0.16456950  0.17079156  0.00282763  1
  Sb  Sb65  1  0.83972072  0.50104531  0.33719834  1
  Sb  Sb66  1  0.32621423  0.33538274  0.32953579  1
  Sb  Sb67  1  -0.00026661  0.16886147  0.83091053  1
  Sb  Sb68  1  0.83410067  0.16749290  -0.00100164  1
  Sb  Sb69  1  0.49814361  0.16587805  0.33683434  1
  Sb  Sb70  1  0.33139434  -0.00488138  0.65930032  1
  Sb  Sb71  1  -0.00267902  0.82516786  0.17068182  1
  Sb  Sb72  1  0.67128305  0.00366399  -0.00045424  1
  Sb  Sb73  1  0.67401538  0.83494986  0.82750874  1
  Sb  Sb74  1  0.50528397  0.83083724  -0.00009567  1
  Sb  Sb75  1  0.50284881  0.33150645  0.49436789  1
  Sb  Sb76  1  0.50154662  0.67058851  0.82749972  1
  Sb  Sb77  1  0.33006863  0.33797910  0.66914209  1
  Sb  Sb78  1  0.50221771  0.16972207  -0.00109097  1
  Sb  Sb79  1  0.00177463  -0.00429992  0.33578164  1
  Sb  Sb80  1  0.33263302  0.82954756  0.17142154  1
  Sb  Sb81  1  0.16410322  0.49847393  0.00834369  1
  Sb  Sb82  1  0.67223708  0.49276261  0.17172965  1
  Sb  Sb83  1  0.50481767  0.49641949  0.66751958  1
  Sb  Sb84  1  0.15888625  0.83259813  0.00483207  1
  Sb  Sb85  1  0.49997079  0.83411593  0.33730035  1
  Sb  Sb86  1  0.83722624  0.16698154  0.33791040  1
  Sb  Sb87  1  0.32513025  0.50391525  0.83824464  1
  Sb  Sb88  1  0.33268410  0.16283522  0.83078875  1
  Sb  Sb89  1  0.83771391  0.83360848  0.66141658  1
  Sb  Sb90  1  -0.00474374  0.17277443  0.16852120  1
  Sb  Sb91  1  0.32594765  0.66317671  0.00348815  1
  Sb  Sb92  1  0.49876546  0.83817780  0.66293322  1
  Sb  Sb93  1  0.50029905  0.66377506  0.17169912  1
  Sb  Sb94  1  0.33006190  0.00146209  0.00447855  1
  Sb  Sb95  1  0.83400414  -0.00114404  0.82839147  1
  Sb  Sb96  1  0.15939529  0.49781796  0.66020352  1
  Sb  Sb97  1  0.33647389  0.17309917  0.16893777  1
  Sb  Sb98  1  0.66600415  0.00427366  0.33935669  1
  Sb  Sb99  1  -0.00191310  0.16231895  0.50058930  1
  Sb  Sb100  1  0.83403411  0.50048257  -0.00153225  1
  Sb  Sb101  1  0.16642917  0.00203651  0.82562247  1
  Sb  Sb102  1  0.16178537  0.00229034  0.17470607  1
  Sb  Sb103  1  0.66824322  0.16690768  0.82901377  1
  Sb  Sb104  1  0.33341510  0.50785828  0.49505170  1
  Sb  Sb105  1  0.50193208  0.33006916  0.83983953  1
  Sb  Sb106  1  0.49585075  0.49899260  0.33013747  1
  Sb  Sb107  1  -0.00386902  0.50538862  0.49785479  1
  Te  Te108  1  0.16721282  0.17213373  0.17138112  1
  Te  Te109  1  0.16621240  0.16950669  0.49990712  1
  Te  Te110  1  0.16756261  0.17316453  0.82910965  1
  Te  Te111  1  0.16306913  0.49847321  0.16912351  1
  Te  Te112  1  0.16704831  0.49569448  0.49486866  1
  Te  Te113  1  0.16034355  0.49431533  0.83054839  1
  Te  Te114  1  0.16793512  0.83221229  0.17461265  1
  Te  Te115  1  0.16545764  0.83343535  0.49689157  1
  Te  Te116  1  0.16326710  0.83303516  0.83577039  1
  Te  Te117  1  0.50437834  0.16685106  0.16689524  1
  Te  Te118  1  0.50280996  0.16249162  0.50329688  1
  Te  Te119  1  0.50019773  0.15950295  0.82699537  1
  Te  Te120  1  0.50325569  0.49738028  0.16276996  1
  Te  Te121  1  0.50617988  0.50130977  0.50097161  1
  Te  Te122  1  0.49929986  0.50056106  0.83702148  1
  Te  Te123  1  0.50238973  0.83901434  0.16675302  1
  Te  Te124  1  0.49633473  0.83508838  0.49981322  1
  Te  Te125  1  0.50223504  0.83779906  0.83409976  1
  Te  Te126  1  0.82893502  0.16740703  0.16755641  1
  Te  Te127  1  0.83146812  0.16860579  0.50141639  1
  Te  Te128  1  0.83264733  0.17201006  0.82534214  1
  Te  Te129  1  0.83802843  0.49879864  0.16773064  1
  Te  Te130  1  0.83120965  0.49494515  0.50200919  1
  Te  Te131  1  0.83779477  0.49970545  0.82974180  1
  Te  Te132  1  0.83247679  0.83614538  0.16800007  1
  Te  Te133  1  0.83736996  0.83376914  0.49922739  1
  Te  Te134  1  0.83860833  0.83101993  0.83714582  1
  Te  Te135  1  0.15981912  0.00192895  0.00050062  1
  Te  Te136  1  0.16781857  0.00370691  0.33763967  1
  Te  Te137  1  0.16301906  0.00613454  0.65989067  1
  Te  Te138  1  0.16155005  0.33365034  0.00012182  1
  Te  Te139  1  0.16558110  0.33304764  0.33209117  1
  Te  Te140  1  0.16609549  0.32964246  0.66260305  1
  Te  Te141  1  0.15880696  0.66675354  0.00369818  1
  Te  Te142  1  0.16355207  0.66603186  0.33479173  1
  Te  Te143  1  0.16341248  0.66559178  0.66195880  1
  Te  Te144  1  0.49991398  0.00017274  0.00608971  1
  Te  Te145  1  0.49617900  0.00027446  0.33393186  1
  Te  Te146  1  0.49741068  0.00368412  0.66218487  1
  Te  Te147  1  0.49799251  0.33514340  0.00399470  1
  Te  Te148  1  0.49819420  0.33256064  0.32491497  1
  Te  Te149  1  0.49967823  0.32675106  0.66878048  1
  Te  Te150  1  0.50105084  0.66159009  -0.00040506  1
  Te  Te151  1  0.49905883  0.66628073  0.33900420  1
  Te  Te152  1  0.50052014  0.66514197  0.66112942  1
  Te  Te153  1  0.83722067  -0.00190130  -0.00240645  1
  Te  Te154  1  0.83383409  -0.00201344  0.33455345  1
  Te  Te155  1  0.83490651  0.00214546  0.66361290  1
  Te  Te156  1  0.83693411  0.33325763  0.00076926  1
  Te  Te157  1  0.83732834  0.33345776  0.33430656  1
  Te  Te158  1  0.83298160  0.33249384  0.66164310  1
  Te  Te159  1  0.83772704  0.66780702  0.00383193  1
  Te  Te160  1  0.83731481  0.66761753  0.33545852  1
  Te  Te161  1  0.83728336  0.66563565  0.66272324  1
  Te  Te162  1  -0.00053785  0.16662394  -0.00126679  1
  Te  Te163  1  0.00526347  0.17478293  0.33412593  1
  Te  Te164  1  -0.00062463  0.16099853  0.66655989  1
  Te  Te165  1  -0.00076343  0.50042171  0.00044022  1
  Te  Te166  1  0.00442216  0.50093065  0.33066162  1
  Te  Te167  1  -0.00476230  0.50507727  0.67196366  1
  Te  Te168  1  -0.00372953  0.83216267  -0.00015142  1
  Te  Te169  1  -0.00025527  0.83030929  0.33728516  1
  Te  Te170  1  0.00134592  0.83283732  0.66657370  1
  Te  Te171  1  0.33326243  0.17428118  -0.00050989  1
  Te  Te172  1  0.32721565  0.16132068  0.33363265  1
  Te  Te173  1  0.33008931  0.16727805  0.66649760  1
  Te  Te174  1  0.33732677  0.49698223  0.00460587  1
  Te  Te175  1  0.32841502  0.50493389  0.32827809  1
  Te  Te176  1  0.33497710  0.50793280  0.66869618  1
  Te  Te177  1  0.33417957  0.83304168  -0.00355324  1
  Te  Te178  1  0.33285149  0.83197597  0.33659493  1
  Te  Te179  1  0.33183255  0.82714735  0.66679192  1
  Te  Te180  1  0.66758761  0.17261492  0.00474656  1
  Te  Te181  1  0.66619635  0.17178571  0.33611028  1
  Te  Te182  1  0.66864097  0.16250379  0.66253500  1
  Te  Te183  1  0.66243801  0.49403087  -0.00089511  1
  Te  Te184  1  0.66428542  0.49318355  0.33941212  1
  Te  Te185  1  0.67306542  0.49895966  0.66097116  1
  Te  Te186  1  0.67475183  0.83297851  -0.00006433  1
  Te  Te187  1  0.67297756  0.83238788  0.34064090  1
  Te  Te188  1  0.66614274  0.84182565  0.65962105  1
  Te  Te189  1  -0.00621136  0.00222287  0.16443512  1
  Te  Te190  1  -0.00209547  -0.00428458  0.50078035  1
  Te  Te191  1  0.00089936  -0.00455727  0.83182459  1
  Te  Te192  1  -0.00227136  0.33507802  0.16733275  1
  Te  Te193  1  -0.00099951  0.33528675  0.49798432  1
  Te  Te194  1  -0.00169060  0.33468648  0.83016736  1
  Te  Te195  1  -0.00220713  0.66484882  0.16818103  1
  Te  Te196  1  0.00042184  0.66658682  0.49897981  1
  Te  Te197  1  -0.00247267  0.66681869  0.83423444  1
  Te  Te198  1  0.33428407  -0.00001260  0.17068075  1
  Te  Te199  1  0.33065930  -0.00504705  0.49653125  1
  Te  Te200  1  0.33601018  -0.00697019  0.83504346  1
  Te  Te201  1  0.33489925  0.33788407  0.16435765  1
  Te  Te202  1  0.33183690  0.33489834  0.50017084  1
  Te  Te203  1  0.33148667  0.33453231  0.83927793  1
  Te  Te204  1  0.33374753  0.66119671  0.17059914  1
  Te  Te205  1  0.33264712  0.66856827  0.49784094  1
  Te  Te206  1  0.33290075  0.67253982  0.83422134  1
  Te  Te207  1  0.66954155  0.00571715  0.16741902  1
  Te  Te208  1  0.66853510  0.00070431  0.49969407  1
  Te  Te209  1  0.66025617  -0.00031059  0.82901455  1
  Te  Te210  1  0.67069965  0.33212664  0.16904838  1
  Te  Te211  1  0.66740469  0.33069232  0.49618489  1
  Te  Te212  1  0.67197161  0.33291711  0.84009243  1
  Te  Te213  1  0.67359132  0.66685805  0.16833371  1
  Te  Te214  1  0.66957313  0.66979887  0.49980798  1
  Te  Te215  1  0.67598104  0.66695988  0.83201022  1
