# generated using pymatgen
data_AgSbTe2
_symmetry_space_group_name_H-M   'P 1'
_cell_length_a   18.33400773
_cell_length_b   18.33694578
_cell_length_c   18.33304917
_cell_angle_alpha   89.99713144
_cell_angle_beta   90.00218249
_cell_angle_gamma   90.00037196
_symmetry_Int_Tables_number   1
_chemical_formula_structural   AgSbTe2
_chemical_formula_sum   'Ag54 Sb54 Te108'
_cell_volume   6163.38239064
_cell_formula_units_Z   54
loop_
 _symmetry_equiv_pos_site_id
 _symmetry_equiv_pos_as_xyz
  1  'x, y, z'
loop_
 _atom_site_type_symbol
 _atom_site_label
 _atom_site_symmetry_multiplicity
 _atom_site_fract_x
 _atom_site_fract_y
 _atom_site_fract_z
 _atom_site_occupancy
  Ag  Ag0  1  0.00221708  0.66617761  -0.00225745  1
  Ag  Ag1  1  0.00101920  0.17217135  0.17408367  1
  Ag  Ag2  1  0.83130259  0.83295123  0.33359629  1
  Ag  Ag3  1  0.66244157  0.00213941  -0.00123711  1
  Ag  Ag4  1  -0.00062537  0.00369810  0.33397111  1
  Ag  Ag5  1  0.17659304  0.66256372  0.50455967  1
  Ag  Ag6  1  0.33441914  0.67169613  -0.00192125  1
  Ag  Ag7  1  0.48825430  0.82066826  0.67899750  1
  Ag  Ag8  1  0.50489923  0.50520836  -0.00946952  1
  Ag  Ag9  1  0.17783017  0.82881328  0.67009650  1
  Ag  Ag10  1  0.65370147  0.66630362  0.66969824  1
  Ag  Ag11  1  0.17937050  0.83157582  -0.00639130  1
  Ag  Ag12  1  0.33403558  -0.01332706  0.66573520  1
  Ag  Ag13  1  0.33381215  0.82041810  0.51104738  1
  Ag  Ag14  1  0.49579820  0.82452600  -0.01133022  1
  Ag  Ag15  1  0.33510963  0.16767301  0.50157567  1
  Ag  Ag16  1  -0.00190144  0.16973659  0.49542354  1
  Ag  Ag17  1  0.66007867  0.50501622  0.83875335  1
  Ag  Ag18  1  0.83211525  0.65742972  0.16386548  1
  Ag  Ag19  1  0.49653930  0.51102750  0.67044091  1
  Ag  Ag20  1  0.65387622  0.82266227  0.83402665  1
  Ag  Ag21  1  0.34122035  0.83076303  0.82494292  1
  Ag  Ag22  1  0.16132560  0.33320995  0.16856629  1
  Ag  Ag23  1  0.66265217  0.33941259  0.00571537  1
  Ag  Ag24  1  0.01034259  0.66535228  0.66769713  1
  Ag  Ag25  1  0.16919398  0.50045793  0.34109912  1
  Ag  Ag26  1  0.32753325  0.50959366  0.50010828  1
  Ag  Ag27  1  0.66278436  0.65996543  0.33756939  1
  Ag  Ag28  1  0.33916426  0.67457565  0.65830522  1
  Ag  Ag29  1  0.49405095  0.16574435  0.66480776  1
  Ag  Ag30  1  0.67331641  0.50003594  0.16005382  1
  Ag  Ag31  1  0.82308359  0.50470062  0.00597106  1
  Ag  Ag32  1  0.33164482  0.83098903  0.15995689  1
  Ag  Ag33  1  0.16668195  0.00015343  0.16499698  1
  Ag  Ag34  1  0.83445620  0.00811222  0.49647035  1
  Ag  Ag35  1  0.33677613  0.33824498  0.33521819  1
  Ag  Ag36  1  0.83338179  0.33993677  0.17136776  1
  Ag  Ag37  1  0.66610792  0.33715819  0.32985021  1
  Ag  Ag38  1  0.50335728  0.67175655  0.82598259  1
  Ag  Ag39  1  0.17604127  0.16452088  0.66290072  1
  Ag  Ag40  1  0.33770926  0.66551567  0.34555008  1
  Ag  Ag41  1  0.83091643  0.16701633  0.33677260  1
  Ag  Ag42  1  -0.00426396  0.49817383  0.16991605  1
  Ag  Ag43  1  0.49679939  -0.01361269  0.83259419  1
  Ag  Ag44  1  0.50322626  0.16870424  0.34126675  1
  Ag  Ag45  1  0.50079194  0.34081749  0.83450032  1
  Ag  Ag46  1  0.66317474  0.16796487  0.49731541  1
  Ag  Ag47  1  0.00603879  0.50004083  0.49647105  1
  Ag  Ag48  1  0.17411042  0.51193638  0.66000081  1
  Ag  Ag49  1  0.83195838  0.32906360  0.49040887  1
  Ag  Ag50  1  0.50200754  0.16478474  -0.00591458  1
  Ag  Ag51  1  0.82244145  0.66615349  0.83579546  1
  Ag  Ag52  1  0.17467336  -0.00673490  0.83238706  1
  Ag  Ag53  1  0.48868073  0.66565625  0.51180515  1
  Sb  Sb54  1  0.16611871  0.33874212  0.49502450  1
  Sb  Sb55  1  0.00430475  0.83045369  0.49959626  1
  Sb  Sb56  1  0.17581807  0.33075663  0.83654363  1
  Sb  Sb57  1  0.50062674  -0.00039692  0.50565805  1
  Sb  Sb58  1  0.00807397  -0.00391228  0.66164541  1
  Sb  Sb59  1  0.82468401  0.34010648  0.83734857  1
  Sb  Sb60  1  0.83188195  0.16610893  0.65664581  1
  Sb  Sb61  1  -0.00353867  0.33070820  0.33246971  1
  Sb  Sb62  1  0.83121745  0.50349951  0.66874504  1
  Sb  Sb63  1  0.50131864  0.33456802  0.50234736  1
  Sb  Sb64  1  -0.00013647  0.66606550  0.33380444  1
  Sb  Sb65  1  0.33077915  0.16512092  0.17052422  1
  Sb  Sb66  1  0.83277849  0.66379931  0.49817845  1
  Sb  Sb67  1  0.00339747  0.83008053  0.83322940  1
  Sb  Sb68  1  0.82832783  0.17201236  0.00655993  1
  Sb  Sb69  1  0.33026382  -0.00217467  0.33778425  1
  Sb  Sb70  1  0.66563199  0.49816960  0.49963802  1
  Sb  Sb71  1  0.34034847  0.33848562  0.00633224  1
  Sb  Sb72  1  0.66344413  0.66251170  -0.00498839  1
  Sb  Sb73  1  0.82834587  -0.00627888  0.82978777  1
  Sb  Sb74  1  0.82883597  0.82600864  0.00312163  1
  Sb  Sb75  1  0.16482396  0.66577620  0.16906496  1
  Sb  Sb76  1  0.65838600  -0.00396885  0.66955100  1
  Sb  Sb77  1  0.66290769  0.16840811  0.83012505  1
  Sb  Sb78  1  0.33900385  0.15981050  0.82595804  1
  Sb  Sb79  1  0.33246154  0.50482597  0.17138095  1
  Sb  Sb80  1  -0.00176477  -0.00421561  0.00468671  1
  Sb  Sb81  1  0.33512818  0.33851479  0.66063814  1
  Sb  Sb82  1  0.34087816  0.50851345  0.82680265  1
  Sb  Sb83  1  0.66935708  0.00138872  0.33124628  1
  Sb  Sb84  1  0.16884115  0.50617657  -0.00058804  1
  Sb  Sb85  1  0.00204369  0.16528732  0.82992138  1
  Sb  Sb86  1  0.33813921  -0.00740209  -0.00681703  1
  Sb  Sb87  1  0.49737739  0.49820300  0.33581651  1
  Sb  Sb88  1  0.49587844  -0.00029280  0.16016526  1
  Sb  Sb89  1  0.50288514  0.33457410  0.16502389  1
  Sb  Sb90  1  0.16526825  -0.00197067  0.50103157  1
  Sb  Sb91  1  0.16621312  0.17103619  0.33740812  1
  Sb  Sb92  1  0.83516634  0.49806386  0.32861536  1
  Sb  Sb93  1  0.66276653  0.82630810  0.16207743  1
  Sb  Sb94  1  0.50298503  0.66512638  0.16455518  1
  Sb  Sb95  1  0.00276046  0.83033854  0.16740834  1
  Sb  Sb96  1  0.66991563  0.17215015  0.17113895  1
  Sb  Sb97  1  0.17144471  0.16084343  -0.00152155  1
  Sb  Sb98  1  0.16655850  0.82929059  0.33475212  1
  Sb  Sb99  1  0.17395078  0.67050449  0.82693991  1
  Sb  Sb100  1  0.66215058  0.83419784  0.50338563  1
  Sb  Sb101  1  -0.00562753  0.34061063  0.00415788  1
  Sb  Sb102  1  -0.00289445  0.50422440  0.83254261  1
  Sb  Sb103  1  0.00159539  0.33801865  0.66293503  1
  Sb  Sb104  1  0.83106228  0.82955042  0.66282720  1
  Sb  Sb105  1  0.50056694  0.83436767  0.33523054  1
  Sb  Sb106  1  0.66337396  0.33742222  0.66537741  1
  Sb  Sb107  1  0.83674733  0.00114100  0.17168741  1
  Te  Te108  1  0.16273261  0.16651669  0.16615904  1
  Te  Te109  1  0.16383278  0.16717112  0.50252477  1
  Te  Te110  1  0.16830993  0.16089028  0.82839039  1
  Te  Te111  1  0.16391338  0.49740027  0.16629445  1
  Te  Te112  1  0.16662579  0.49984822  0.50148439  1
  Te  Te113  1  0.16695451  0.49728797  0.82675598  1
  Te  Te114  1  0.16932075  0.83513032  0.16565293  1
  Te  Te115  1  0.17175347  0.82957977  0.50313782  1
  Te  Te116  1  0.16890989  0.83502545  0.83313304  1
  Te  Te117  1  0.49996302  0.16631172  0.16569861  1
  Te  Te118  1  0.50083668  0.16695401  0.50062020  1
  Te  Te119  1  0.50203900  0.16940434  0.83467459  1
  Te  Te120  1  0.50368793  0.49905409  0.16233008  1
  Te  Te121  1  0.49746983  0.50279245  0.50385882  1
  Te  Te122  1  0.50067445  0.50196476  0.83065185  1
  Te  Te123  1  0.49368602  0.83404358  0.16414310  1
  Te  Te124  1  0.49532246  0.83114190  0.50184735  1
  Te  Te125  1  0.49904612  0.83154855  0.83367098  1
  Te  Te126  1  0.83943626  0.16895059  0.17272462  1
  Te  Te127  1  0.83649656  0.16871445  0.49594125  1
  Te  Te128  1  0.83312316  0.16597286  0.83414946  1
  Te  Te129  1  0.83441738  0.49959690  0.16698512  1
  Te  Te130  1  0.83730509  0.49510724  0.50006125  1
  Te  Te131  1  0.82813875  0.50478947  0.83907532  1
  Te  Te132  1  0.83268640  0.83201063  0.17174249  1
  Te  Te133  1  0.83296540  0.83474904  0.49457518  1
  Te  Te134  1  0.83044355  0.82834767  0.83341656  1
  Te  Te135  1  0.16581925  -0.00564367  -0.00064266  1
  Te  Te136  1  0.16181342  -0.00042999  0.32931089  1
  Te  Te137  1  0.17139407  -0.00019122  0.66843878  1
  Te  Te138  1  0.16765718  0.33185038  0.00550567  1
  Te  Te139  1  0.17104808  0.33794570  0.32885582  1
  Te  Te140  1  0.16735711  0.32704425  0.66932382  1
  Te  Te141  1  0.16711840  0.67108814  -0.00118710  1
  Te  Te142  1  0.16928959  0.66246052  0.33766329  1
  Te  Te143  1  0.16958002  0.66810782  0.66682912  1
  Te  Te144  1  0.50234279  0.00293119  -0.00516251  1
  Te  Te145  1  0.50000335  0.00690512  0.33298215  1
  Te  Te146  1  0.49551883  0.00690378  0.67135952  1
  Te  Te147  1  0.50348676  0.33516164  -0.00155848  1
  Te  Te148  1  0.50176079  0.32999949  0.33400309  1
  Te  Te149  1  0.50118762  0.32522890  0.67186002  1
  Te  Te150  1  0.49735185  0.66591029  -0.00036956  1
  Te  Te151  1  0.49953689  0.66678893  0.33396655  1
  Te  Te152  1  0.49934944  0.66654526  0.66642403  1
  Te  Te153  1  0.82803379  -0.00017688  -0.00141606  1
  Te  Te154  1  0.83571035  0.00341408  0.33591179  1
  Te  Te155  1  0.83442452  -0.00203364  0.66056734  1
  Te  Te156  1  0.82688860  0.33974282  0.00546249  1
  Te  Te157  1  0.83022606  0.33187600  0.33132187  1
  Te  Te158  1  0.83248235  0.33436857  0.66434188  1
  Te  Te159  1  0.83501212  0.66374604  0.00187789  1
  Te  Te160  1  0.83181947  0.66840450  0.33076896  1
  Te  Te161  1  0.83620759  0.66629250  0.67018243  1
  Te  Te162  1  0.00044585  0.16661892  0.00341255  1
  Te  Te163  1  -0.00007938  0.16505785  0.33427515  1
  Te  Te164  1  0.00109226  0.16566506  0.66148252  1
  Te  Te165  1  0.00039922  0.50610093  0.00353143  1
  Te  Te166  1  0.00555764  0.50067633  0.33340915  1
  Te  Te167  1  0.00292395  0.50456613  0.66387113  1
  Te  Te168  1  0.00108308  0.82665795  0.00097067  1
  Te  Te169  1  -0.00513973  0.83827567  0.33331719  1
  Te  Te170  1  0.00331781  0.82699550  0.66541713  1
  Te  Te171  1  0.34035869  0.16782684  0.00075823  1
  Te  Te172  1  0.33623408  0.16657327  0.33702327  1
  Te  Te173  1  0.33366521  0.17250528  0.66289182  1
  Te  Te174  1  0.33777578  0.50617320  0.00041218  1
  Te  Te175  1  0.33112372  0.50239679  0.33665442  1
  Te  Te176  1  0.33437023  0.50294560  0.66158618  1
  Te  Te177  1  0.33544317  0.83294114  0.00063915  1
  Te  Te178  1  0.33343094  0.82898816  0.33372586  1
  Te  Te179  1  0.33336963  0.83161790  0.66664706  1
  Te  Te180  1  0.66273894  0.16994637  0.00049543  1
  Te  Te181  1  0.66694511  0.16817340  0.33594144  1
  Te  Te182  1  0.66390664  0.16581853  0.66047277  1
  Te  Te183  1  0.66448574  0.50093464  0.00049240  1
  Te  Te184  1  0.66529016  0.49893177  0.33203506  1
  Te  Te185  1  0.66236417  0.50501942  0.66849354  1
  Te  Te186  1  0.66186033  0.83563699  -0.00377210  1
  Te  Te187  1  0.66953788  0.83082375  0.33241929  1
  Te  Te188  1  0.66313653  0.82810951  0.67083117  1
  Te  Te189  1  0.00411343  0.00265617  0.16979322  1
  Te  Te190  1  -0.00266404  0.00140658  0.49613464  1
  Te  Te191  1  0.00288250  -0.00081789  0.83374044  1
  Te  Te192  1  -0.00098967  0.33478503  0.16678078  1
  Te  Te193  1  -0.00362796  0.33395323  0.49915921  1
  Te  Te194  1  -0.00048825  0.33342633  0.83452338  1
  Te  Te195  1  -0.00323701  0.66273085  0.16524030  1
  Te  Te196  1  0.00127631  0.66268041  0.50233009  1
  Te  Te197  1  -0.00430829  0.66621381  0.83354088  1
  Te  Te198  1  0.32713880  -0.00366447  0.16849115  1
  Te  Te199  1  0.33267792  0.00802690  0.50462682  1
  Te  Te200  1  0.33444732  -0.00561719  0.82824270  1
  Te  Te201  1  0.32858636  0.33387326  0.17447112  1
  Te  Te202  1  0.33328008  0.32736712  0.49340925  1
  Te  Te203  1  0.34120428  0.33271018  0.83686145  1
  Te  Te204  1  0.33244005  0.67049738  0.16068264  1
  Te  Te205  1  0.33232077  0.66518579  0.50064498  1
  Te  Te206  1  0.33829645  0.67119985  0.83644288  1
  Te  Te207  1  0.66664135  -0.00020714  0.16039660  1
  Te  Te208  1  0.67165743  0.00435585  0.50047781  1
  Te  Te209  1  0.66291198  -0.00157357  0.83703346  1
  Te  Te210  1  0.66966147  0.33700917  0.16838974  1
  Te  Te211  1  0.67015940  0.33020489  0.49626402  1
  Te  Te212  1  0.66198445  0.33863766  0.83709073  1
  Te  Te213  1  0.67078072  0.66239525  0.17329672  1
  Te  Te214  1  0.66530943  0.66638385  0.49795257  1
  Te  Te215  1  0.66425675  0.66510784  0.83299293  1
