# generated using pymatgen
data_AgSbTe2
_symmetry_space_group_name_H-M   'P 1'
_cell_length_a   18.33007033
_cell_length_b   18.32090751
_cell_length_c   18.32934292
_cell_angle_alpha   90.00086322
_cell_angle_beta   90.00129077
_cell_angle_gamma   90.00402130
_symmetry_Int_Tables_number   1
_chemical_formula_structural   AgSbTe2
_chemical_formula_sum   'Ag54 Sb54 Te108'
_cell_volume   6155.42449922
_cell_formula_units_Z   54
loop_
 _symmetry_equiv_pos_site_id
 _symmetry_equiv_pos_as_xyz
  1  'x, y, z'
loop_
 _atom_site_type_symbol
 _atom_site_label
 _atom_site_symmetry_multiplicity
 _atom_site_fract_x
 _atom_site_fract_y
 _atom_site_fract_z
 _atom_site_occupancy
  Ag  Ag0  1  0.66978415  0.82248538  0.17332782  1
  Ag  Ag1  1  0.83136841  0.66398563  0.16733490  1
  Ag  Ag2  1  0.00670073  -0.00651029  0.33296341  1
  Ag  Ag3  1  0.67026259  0.50521156  0.16545418  1
  Ag  Ag4  1  0.66228227  0.34154377  0.33141130  1
  Ag  Ag5  1  0.50086852  0.50414833  0.00404305  1
  Ag  Ag6  1  0.82883908  0.33527135  0.83786087  1
  Ag  Ag7  1  0.82548158  0.66971453  0.49453024  1
  Ag  Ag8  1  0.15636906  0.49874491  0.00273359  1
  Ag  Ag9  1  0.16594938  0.83728022  0.66579881  1
  Ag  Ag10  1  0.34434684  0.67202384  0.33761468  1
  Ag  Ag11  1  0.16560430  0.83409857  0.00001997  1
  Ag  Ag12  1  0.82782204  0.82978103  0.33769797  1
  Ag  Ag13  1  0.33511649  0.16869084  0.83274719  1
  Ag  Ag14  1  0.83146406  0.34450268  0.16431250  1
  Ag  Ag15  1  0.16662052  0.00106438  0.83368376  1
  Ag  Ag16  1  0.00803638  -0.00535015  0.00028602  1
  Ag  Ag17  1  0.00026143  0.65988692  0.00463600  1
  Ag  Ag18  1  0.83540715  0.83023599  0.65878992  1
  Ag  Ag19  1  0.49975785  0.82414996  0.66295083  1
  Ag  Ag20  1  0.17355949  0.15816105  0.67406572  1
  Ag  Ag21  1  0.16686650  0.67219702  0.49787288  1
  Ag  Ag22  1  0.49487322  0.16912007  0.66765712  1
  Ag  Ag23  1  0.15901952  0.66390070  0.16222921  1
  Ag  Ag24  1  0.32853344  0.33169463  -0.00307977  1
  Ag  Ag25  1  0.50308998  0.50410956  0.32811766  1
  Ag  Ag26  1  0.00942177  0.34670594  0.00246381  1
  Ag  Ag27  1  0.32626517  0.00260452  0.00140360  1
  Ag  Ag28  1  0.66982922  0.82757447  0.49390803  1
  Ag  Ag29  1  0.50613110  0.82293319  0.33401342  1
  Ag  Ag30  1  -0.00275269  0.83228672  0.49550238  1
  Ag  Ag31  1  0.00712969  -0.00457848  0.66716710  1
  Ag  Ag32  1  0.33177435  -0.00707330  0.33020847  1
  Ag  Ag33  1  0.49711323  0.82562293  0.00285384  1
  Ag  Ag34  1  0.66202743  0.66847883  0.33088536  1
  Ag  Ag35  1  0.50407517  0.33985797  0.49459780  1
  Ag  Ag36  1  0.66606843  0.66507197  0.00898561  1
  Ag  Ag37  1  0.84415040  0.50062800  0.00406142  1
  Ag  Ag38  1  -0.00075579  0.49917833  0.84825355  1
  Ag  Ag39  1  0.33747310  0.33079447  0.67402374  1
  Ag  Ag40  1  0.50422362  0.66749804  0.49843205  1
  Ag  Ag41  1  0.16853218  0.16533910  -0.00411818  1
  Ag  Ag42  1  0.33993407  0.66858220  0.66155820  1
  Ag  Ag43  1  0.49962004  0.17323388  0.33921806  1
  Ag  Ag44  1  0.50003383  0.33565305  0.83430196  1
  Ag  Ag45  1  -0.00256706  0.82736554  0.16598492  1
  Ag  Ag46  1  0.65616686  0.17062499  0.83324168  1
  Ag  Ag47  1  0.65818040  0.67080863  0.65586014  1
  Ag  Ag48  1  0.16442690  -0.01018430  0.50788824  1
  Ag  Ag49  1  0.50140972  0.66372145  0.83043152  1
  Ag  Ag50  1  0.50199687  0.33770410  0.16678089  1
  Ag  Ag51  1  0.82648460  0.34000045  0.49749455  1
  Ag  Ag52  1  -0.00570528  0.50821951  0.16069606  1
  Ag  Ag53  1  0.16594023  0.34051468  0.16019135  1
  Sb  Sb54  1  0.50439457  0.66241015  0.16902459  1
  Sb  Sb55  1  0.66440787  0.17235821  0.16331177  1
  Sb  Sb56  1  0.33242888  0.49637716  0.83610603  1
  Sb  Sb57  1  0.66330486  0.16535562  0.50236740  1
  Sb  Sb58  1  0.83626227  0.82598588  0.00248909  1
  Sb  Sb59  1  0.49970086  0.00093878  0.16762716  1
  Sb  Sb60  1  0.33127152  0.83105073  0.50008196  1
  Sb  Sb61  1  0.16662596  0.50237957  0.67294218  1
  Sb  Sb62  1  0.16984672  0.32937147  0.84118280  1
  Sb  Sb63  1  0.49397315  0.00094785  0.83315437  1
  Sb  Sb64  1  0.16603396  0.83213232  0.33325353  1
  Sb  Sb65  1  0.17292589  0.16488564  0.33068698  1
  Sb  Sb66  1  0.00045895  0.16076667  0.50093647  1
  Sb  Sb67  1  0.83858274  0.17552931  -0.00127338  1
  Sb  Sb68  1  0.82820334  0.16382954  0.33342652  1
  Sb  Sb69  1  0.83676751  -0.00645922  0.16703628  1
  Sb  Sb70  1  0.33367952  0.83594490  0.83398090  1
  Sb  Sb71  1  0.00093319  0.16718768  0.16413739  1
  Sb  Sb72  1  0.49392724  -0.00611620  0.49887534  1
  Sb  Sb73  1  0.32789878  -0.00108948  0.66764619  1
  Sb  Sb74  1  0.00350483  0.32859418  0.67199593  1
  Sb  Sb75  1  0.49994306  0.50306202  0.66709903  1
  Sb  Sb76  1  0.83963143  -0.00815495  0.49967845  1
  Sb  Sb77  1  0.66372494  -0.00650837  0.33397923  1
  Sb  Sb78  1  0.82903889  0.66338257  0.83487323  1
  Sb  Sb79  1  0.33399089  0.82968294  0.16723082  1
  Sb  Sb80  1  0.16560043  -0.00416008  0.16186609  1
  Sb  Sb81  1  0.33424174  0.16657805  0.50542090  1
  Sb  Sb82  1  0.82820899  0.50633752  0.32468886  1
  Sb  Sb83  1  0.66746117  0.49819972  0.84107232  1
  Sb  Sb84  1  0.83308319  0.50413653  0.67104192  1
  Sb  Sb85  1  0.17216618  0.50357690  0.32458636  1
  Sb  Sb86  1  0.00103292  0.82944633  0.83586549  1
  Sb  Sb87  1  -0.00656040  0.33053976  0.32674558  1
  Sb  Sb88  1  0.16808867  0.33603472  0.49832293  1
  Sb  Sb89  1  -0.00270822  0.50806048  0.49475320  1
  Sb  Sb90  1  -0.00333917  0.67231368  0.32561446  1
  Sb  Sb91  1  0.00111972  0.67224647  0.66938284  1
  Sb  Sb92  1  0.33610686  0.50087215  0.16463798  1
  Sb  Sb93  1  0.83951753  0.00361385  0.83404118  1
  Sb  Sb94  1  0.49487778  0.17044976  -0.00289624  1
  Sb  Sb95  1  0.66606490  0.50760774  0.49317987  1
  Sb  Sb96  1  0.66412535  0.83178926  0.83300975  1
  Sb  Sb97  1  0.33532189  0.50307135  0.49927839  1
  Sb  Sb98  1  0.17129676  0.67001009  0.83509782  1
  Sb  Sb99  1  0.34169767  0.33372265  0.33103756  1
  Sb  Sb100  1  0.33420437  0.66529416  0.00108902  1
  Sb  Sb101  1  0.33303356  0.16834556  0.16128442  1
  Sb  Sb102  1  0.66489201  0.33955266  0.00375509  1
  Sb  Sb103  1  0.66503153  -0.00740347  -0.00083672  1
  Sb  Sb104  1  0.66816759  -0.00638629  0.66700324  1
  Sb  Sb105  1  0.00437006  0.16995294  0.83525061  1
  Sb  Sb106  1  0.83145271  0.16417013  0.66729320  1
  Sb  Sb107  1  0.66101400  0.33834484  0.66365111  1
  Te  Te108  1  0.16640738  0.17460730  0.16134546  1
  Te  Te109  1  0.16607819  0.16644520  0.50317147  1
  Te  Te110  1  0.16999753  0.16398027  0.83396139  1
  Te  Te111  1  0.16466959  0.50116755  0.16123871  1
  Te  Te112  1  0.16476977  0.50690561  0.49967310  1
  Te  Te113  1  0.16155896  0.50104306  0.84094331  1
  Te  Te114  1  0.16270513  0.82886034  0.16367114  1
  Te  Te115  1  0.16339737  0.83174040  0.49974831  1
  Te  Te116  1  0.16737653  0.83801442  0.83364776  1
  Te  Te117  1  0.50052499  0.17309753  0.16957788  1
  Te  Te118  1  0.50034123  0.16838999  0.50349339  1
  Te  Te119  1  0.49679032  0.16792241  0.83079414  1
  Te  Te120  1  0.50240696  0.49697678  0.16644052  1
  Te  Te121  1  0.50103968  0.50106803  0.49589628  1
  Te  Te122  1  0.50016826  0.49897305  0.83746429  1
  Te  Te123  1  0.50310440  0.83415008  0.16678649  1
  Te  Te124  1  0.50197998  0.82989900  0.50022584  1
  Te  Te125  1  0.49996900  0.83034711  0.83308512  1
  Te  Te126  1  0.83179472  0.17551517  0.16731522  1
  Te  Te127  1  0.83205704  0.17552368  0.50016732  1
  Te  Te128  1  0.83040360  0.17437476  0.83194456  1
  Te  Te129  1  0.83291406  0.50199007  0.16464289  1
  Te  Te130  1  0.83345314  0.50080365  0.50003487  1
  Te  Te131  1  0.83603500  0.49552676  0.83882051  1
  Te  Te132  1  0.83392316  0.82825898  0.16862822  1
  Te  Te133  1  0.83482345  0.83069304  0.49973516  1
  Te  Te134  1  0.83254206  0.83430624  0.82430417  1
  Te  Te135  1  0.16800469  -0.00312284  0.00123283  1
  Te  Te136  1  0.16850868  0.00099961  0.33316856  1
  Te  Te137  1  0.16733203  -0.00132849  0.66659852  1
  Te  Te138  1  0.16695075  0.33460780  0.00098998  1
  Te  Te139  1  0.16695414  0.33332301  0.32741672  1
  Te  Te140  1  0.17265244  0.33105788  0.66533399  1
  Te  Te141  1  0.16769429  0.66990920  0.00043853  1
  Te  Te142  1  0.16917801  0.66648560  0.33757141  1
  Te  Te143  1  0.16963783  0.67023790  0.66570693  1
  Te  Te144  1  0.49588442  -0.00595065  -0.00002457  1
  Te  Te145  1  0.49534730  0.00042086  0.33383469  1
  Te  Te146  1  0.49872485  0.00079225  0.66651301  1
  Te  Te147  1  0.49909686  0.33336041  -0.00169145  1
  Te  Te148  1  0.50136984  0.33451995  0.33485706  1
  Te  Te149  1  0.49795771  0.33434271  0.66924574  1
  Te  Te150  1  0.49838812  0.66751314  0.00156745  1
  Te  Te151  1  0.50109952  0.66576585  0.33296189  1
  Te  Te152  1  0.49951506  0.66553393  0.66434322  1
  Te  Te153  1  0.83938160  0.00141077  -0.00054012  1
  Te  Te154  1  0.83780335  -0.00546253  0.33348842  1
  Te  Te155  1  0.83990870  -0.00498184  0.66719774  1
  Te  Te156  1  0.83228153  0.33834937  0.00095780  1
  Te  Te157  1  0.82698766  0.33187720  0.33328581  1
  Te  Te158  1  0.83322748  0.33354727  0.66583652  1
  Te  Te159  1  0.83230427  0.66281508  0.00189693  1
  Te  Te160  1  0.83105617  0.66996576  0.33371689  1
  Te  Te161  1  0.83243931  0.67112724  0.66452000  1
  Te  Te162  1  0.00618037  0.15845362  -0.00039142  1
  Te  Te163  1  0.00056835  0.15689759  0.33294018  1
  Te  Te164  1  0.00475988  0.15959433  0.66710660  1
  Te  Te165  1  0.00018588  0.50196557  0.00454846  1
  Te  Te166  1  0.00097463  0.49834735  0.32531316  1
  Te  Te167  1  0.00038190  0.49880067  0.66910772  1
  Te  Te168  1  0.00128578  0.83324435  0.00232736  1
  Te  Te169  1  -0.00021158  0.83545577  0.33310759  1
  Te  Te170  1  0.00424331  0.83560455  0.66804016  1
  Te  Te171  1  0.32966089  0.16768733  -0.00412195  1
  Te  Te172  1  0.34007094  0.16442425  0.33294090  1
  Te  Te173  1  0.33391083  0.16644968  0.67072593  1
  Te  Te174  1  0.34101674  0.49452728  -0.00052196  1
  Te  Te175  1  0.34122409  0.50537948  0.33253772  1
  Te  Te176  1  0.33175164  0.49918625  0.66809854  1
  Te  Te177  1  0.33349077  0.83570589  0.00069938  1
  Te  Te178  1  0.33927425  0.83285044  0.33309600  1
  Te  Te179  1  0.33395079  0.83044717  0.66743865  1
  Te  Te180  1  0.66761164  0.16295902  -0.00514239  1
  Te  Te181  1  0.65969985  0.16520285  0.33315139  1
  Te  Te182  1  0.66229477  0.16641568  0.67038305  1
  Te  Te183  1  0.65959125  0.50476155  0.00527364  1
  Te  Te184  1  0.66326071  0.50084928  0.32773733  1
  Te  Te185  1  0.66769154  0.51053959  0.66806519  1
  Te  Te186  1  0.66518883  0.82778158  0.00276777  1
  Te  Te187  1  0.66612954  0.83204405  0.33313982  1
  Te  Te188  1  0.66175656  0.82958551  0.66627646  1
  Te  Te189  1  -0.00018339  -0.00536818  0.16693136  1
  Te  Te190  1  0.00475061  -0.00514512  0.49990397  1
  Te  Te191  1  0.00584020  0.00058950  0.83490596  1
  Te  Te192  1  -0.00157909  0.33387465  0.16237370  1
  Te  Te193  1  -0.00319167  0.33543444  0.49948448  1
  Te  Te194  1  -0.00368291  0.33655749  0.83819112  1
  Te  Te195  1  -0.00099585  0.66806448  0.16507601  1
  Te  Te196  1  0.00034298  0.67235172  0.50069335  1
  Te  Te197  1  -0.00111546  0.66099508  0.84030326  1
  Te  Te198  1  0.33280901  0.00028098  0.16685453  1
  Te  Te199  1  0.32582017  0.00051532  0.49334076  1
  Te  Te200  1  0.32761375  0.00527533  0.83828515  1
  Te  Te201  1  0.33501171  0.33401523  0.16242212  1
  Te  Te202  1  0.33840165  0.33460051  0.50369191  1
  Te  Te203  1  0.33642548  0.33093472  0.83413032  1
  Te  Te204  1  0.32164538  0.66660738  0.17135517  1
  Te  Te205  1  0.33497726  0.66644875  0.50023971  1
  Te  Te206  1  0.34071002  0.66589080  0.82865449  1
  Te  Te207  1  0.66838806  -0.00593474  0.16551132  1
  Te  Te208  1  0.66777942  -0.00850952  0.50101534  1
  Te  Te209  1  0.66832405  0.00873345  0.83365319  1
  Te  Te210  1  0.66497949  0.33559642  0.17015239  1
  Te  Te211  1  0.66495801  0.33324344  0.49657784  1
  Te  Te212  1  0.66446074  0.33185955  0.83209993  1
  Te  Te213  1  0.66728586  0.66586787  0.16838735  1
  Te  Te214  1  0.66631699  0.66916394  0.49723729  1
  Te  Te215  1  0.66110110  0.66572711  0.83826378  1
