# generated using pymatgen
data_AgSbTe2
_symmetry_space_group_name_H-M   'P 1'
_cell_length_a   18.33946595
_cell_length_b   18.34510768
_cell_length_c   18.34939393
_cell_angle_alpha   89.99764988
_cell_angle_beta   89.99986028
_cell_angle_gamma   90.00419235
_symmetry_Int_Tables_number   1
_chemical_formula_structural   AgSbTe2
_chemical_formula_sum   'Ag54 Sb54 Te108'
_cell_volume   6173.46048551
_cell_formula_units_Z   54
loop_
 _symmetry_equiv_pos_site_id
 _symmetry_equiv_pos_as_xyz
  1  'x, y, z'
loop_
 _atom_site_type_symbol
 _atom_site_label
 _atom_site_symmetry_multiplicity
 _atom_site_fract_x
 _atom_site_fract_y
 _atom_site_fract_z
 _atom_site_occupancy
  Ag  Ag0  1  0.49126248  -0.00026718  0.82748926  1
  Ag  Ag1  1  0.51124114  0.66415261  0.51020969  1
  Ag  Ag2  1  0.33594637  0.84551963  0.83158479  1
  Ag  Ag3  1  0.17978276  0.00297963  0.82119226  1
  Ag  Ag4  1  0.16585597  0.16364344  0.34736273  1
  Ag  Ag5  1  0.34063736  0.66987614  -0.00250570  1
  Ag  Ag6  1  0.66451591  0.33418712  0.66117987  1
  Ag  Ag7  1  0.82667763  0.66102460  0.82412848  1
  Ag  Ag8  1  0.32502905  -0.00309640  -0.01629312  1
  Ag  Ag9  1  0.34272276  0.50160021  0.16494844  1
  Ag  Ag10  1  -0.00097470  0.83408068  0.50214898  1
  Ag  Ag11  1  0.49851230  0.83789369  0.66638130  1
  Ag  Ag12  1  0.00755878  0.16406944  0.82092431  1
  Ag  Ag13  1  0.50441080  0.33095127  0.82452158  1
  Ag  Ag14  1  0.82350249  0.33847453  0.82632957  1
  Ag  Ag15  1  0.33533532  0.16472718  0.51007409  1
  Ag  Ag16  1  0.32507059  0.00322650  0.67012127  1
  Ag  Ag17  1  0.50365847  0.83200052  0.34484792  1
  Ag  Ag18  1  0.67025268  0.66359286  0.34496399  1
  Ag  Ag19  1  0.66790131  0.66325549  0.66254416  1
  Ag  Ag20  1  0.82890410  0.50469065  -0.00300054  1
  Ag  Ag21  1  0.66370092  0.00272772  0.66242382  1
  Ag  Ag22  1  0.66829208  0.66069989  -0.00267046  1
  Ag  Ag23  1  0.66672562  0.33194430  0.34123671  1
  Ag  Ag24  1  0.16520090  0.67387043  0.16690416  1
  Ag  Ag25  1  0.17240450  0.15841535  0.66552254  1
  Ag  Ag26  1  -0.01072836  0.66819781  0.34651071  1
  Ag  Ag27  1  0.82775579  0.50417832  0.66405226  1
  Ag  Ag28  1  0.66574756  0.00736755  0.34491645  1
  Ag  Ag29  1  0.66711916  0.33887656  -0.00078642  1
  Ag  Ag30  1  0.83741435  0.00025236  0.50346076  1
  Ag  Ag31  1  -0.00915509  0.67238215  0.66244219  1
  Ag  Ag32  1  -0.00063397  0.16067008  0.50452259  1
  Ag  Ag33  1  0.66519530  0.49589932  0.16743158  1
  Ag  Ag34  1  0.01089680  -0.00143454  0.66516616  1
  Ag  Ag35  1  0.00493574  -0.00104357  -0.01231846  1
  Ag  Ag36  1  0.51210957  0.33345051  0.50792306  1
  Ag  Ag37  1  0.50778618  0.33444244  0.16823852  1
  Ag  Ag38  1  0.50799681  0.49940155  0.66597481  1
  Ag  Ag39  1  0.16791628  0.84570205  0.66652988  1
  Ag  Ag40  1  0.16590612  -0.00138515  0.16604191  1
  Ag  Ag41  1  0.00209943  0.83369274  0.17079205  1
  Ag  Ag42  1  -0.00655239  0.50996392  0.50211638  1
  Ag  Ag43  1  0.66488441  0.17657937  0.17610934  1
  Ag  Ag44  1  0.15946833  0.00386623  0.51098850  1
  Ag  Ag45  1  0.16867621  0.32091820  0.83054485  1
  Ag  Ag46  1  0.49860296  0.16056454  0.66591143  1
  Ag  Ag47  1  0.82881719  0.66075998  0.50632079  1
  Ag  Ag48  1  0.50837057  0.66797090  0.82667042  1
  Ag  Ag49  1  0.82957910  0.34064012  0.50574277  1
  Ag  Ag50  1  0.66772291  0.17109875  0.50095115  1
  Ag  Ag51  1  0.82919154  0.50300508  0.34630727  1
  Ag  Ag52  1  0.32862437  0.15797361  0.82741679  1
  Ag  Ag53  1  0.83414370  0.82759905  -0.00206408  1
  Sb  Sb54  1  0.49742022  0.00363314  0.16284451  1
  Sb  Sb55  1  0.50727100  0.50031243  -0.00438358  1
  Sb  Sb56  1  0.34073462  0.67266873  0.67241672  1
  Sb  Sb57  1  -0.00251986  -0.00448588  0.34194541  1
  Sb  Sb58  1  0.16662537  0.16299426  -0.00804675  1
  Sb  Sb59  1  0.16111856  0.49808400  0.33358403  1
  Sb  Sb60  1  -0.00629356  0.32979037  0.66636507  1
  Sb  Sb61  1  0.16865804  0.83756997  0.33650082  1
  Sb  Sb62  1  0.82601650  0.33564185  0.16780563  1
  Sb  Sb63  1  0.50230170  0.83142740  -0.00435792  1
  Sb  Sb64  1  0.33954647  0.33271588  -0.00359669  1
  Sb  Sb65  1  -0.00094453  0.16011953  0.17018383  1
  Sb  Sb66  1  0.83388429  0.82917926  0.66813298  1
  Sb  Sb67  1  0.83067288  0.16681220  -0.00281382  1
  Sb  Sb68  1  0.50882795  0.50170472  0.33806428  1
  Sb  Sb69  1  0.00265855  0.83833751  0.82814482  1
  Sb  Sb70  1  -0.00518395  0.50666763  0.17053648  1
  Sb  Sb71  1  0.66988112  0.83437314  0.50160369  1
  Sb  Sb72  1  -0.00485548  0.67237082  -0.00376711  1
  Sb  Sb73  1  0.83395255  0.66590114  0.16823541  1
  Sb  Sb74  1  0.16386942  0.83655650  -0.00498499  1
  Sb  Sb75  1  0.83565069  -0.00158790  0.17060118  1
  Sb  Sb76  1  0.33613425  0.00077835  0.33887053  1
  Sb  Sb77  1  0.66916447  0.83095847  0.16828334  1
  Sb  Sb78  1  0.16249723  0.67255496  0.49809239  1
  Sb  Sb79  1  0.83146187  0.82883881  0.33463014  1
  Sb  Sb80  1  0.83349452  -0.00016701  0.82678966  1
  Sb  Sb81  1  0.16351019  0.49912098  0.66573312  1
  Sb  Sb82  1  0.17202503  0.32988322  0.16343805  1
  Sb  Sb83  1  0.50122406  0.16754282  -0.01034693  1
  Sb  Sb84  1  0.34064343  0.33200736  0.33390105  1
  Sb  Sb85  1  0.67347290  0.49532826  0.49991597  1
  Sb  Sb86  1  0.66728126  0.00019495  -0.00314254  1
  Sb  Sb87  1  -0.00696865  0.33619500  0.33687431  1
  Sb  Sb88  1  0.33187084  0.83868097  0.50788737  1
  Sb  Sb89  1  -0.00377985  0.49687846  0.82810918  1
  Sb  Sb90  1  0.66786217  0.49971167  0.83174463  1
  Sb  Sb91  1  0.34424957  0.32398851  0.66806467  1
  Sb  Sb92  1  0.83237775  0.16993676  0.66460745  1
  Sb  Sb93  1  0.33576743  0.66691253  0.33063933  1
  Sb  Sb94  1  0.16295347  0.50238545  0.00031382  1
  Sb  Sb95  1  0.16669769  0.67071074  0.83336638  1
  Sb  Sb96  1  0.33335818  0.49573863  0.49849424  1
  Sb  Sb97  1  0.32976739  0.83108066  0.16070247  1
  Sb  Sb98  1  0.33573077  0.49882789  0.83513561  1
  Sb  Sb99  1  0.16387614  0.32385139  0.50676822  1
  Sb  Sb100  1  0.50069249  0.16431655  0.34167204  1
  Sb  Sb101  1  0.83313452  0.17034219  0.33900384  1
  Sb  Sb102  1  0.66301717  0.83026936  0.82996912  1
  Sb  Sb103  1  0.49988652  0.66293000  0.16639308  1
  Sb  Sb104  1  0.50170858  0.00034871  0.50906134  1
  Sb  Sb105  1  0.66601584  0.16967249  0.82597401  1
  Sb  Sb106  1  -0.00783823  0.32824101  -0.00374808  1
  Sb  Sb107  1  0.33803693  0.16783239  0.16510752  1
  Te  Te108  1  0.16823979  0.16345541  0.16771270  1
  Te  Te109  1  0.16497854  0.16413727  0.50502519  1
  Te  Te110  1  0.16700634  0.16274839  0.83017420  1
  Te  Te111  1  0.16759611  0.49923322  0.16695695  1
  Te  Te112  1  0.15978727  0.49701575  0.49887770  1
  Te  Te113  1  0.16597640  0.49497711  0.83378802  1
  Te  Te114  1  0.16355409  0.83447220  0.16814326  1
  Te  Te115  1  0.16386748  0.83985097  0.50407810  1
  Te  Te116  1  0.17133228  0.83861637  0.82793206  1
  Te  Te117  1  0.50408773  0.17187406  0.16896726  1
  Te  Te118  1  0.50157816  0.16799964  0.50448610  1
  Te  Te119  1  0.49983040  0.16788406  0.82619480  1
  Te  Te120  1  0.50298362  0.49685348  0.16701829  1
  Te  Te121  1  0.49625763  0.50004614  0.50439600  1
  Te  Te122  1  0.49880652  0.49972498  0.82716842  1
  Te  Te123  1  0.49933423  0.83356746  0.16819988  1
  Te  Te124  1  0.49835409  0.82999657  0.50373612  1
  Te  Te125  1  0.49730130  0.83127463  0.83005993  1
  Te  Te126  1  0.82594974  0.16713913  0.16817509  1
  Te  Te127  1  0.83212954  0.16357024  0.49936433  1
  Te  Te128  1  0.83756185  0.17254396  0.83289804  1
  Te  Te129  1  0.82785337  0.49981234  0.16121906  1
  Te  Te130  1  0.83579059  0.50164377  0.50306939  1
  Te  Te131  1  0.83406852  0.49981405  0.83110095  1
  Te  Te132  1  0.84060581  0.83332028  0.16194491  1
  Te  Te133  1  0.83947512  0.83368809  0.50034804  1
  Te  Te134  1  0.83449470  0.82845544  0.83770400  1
  Te  Te135  1  0.16577795  -0.00098145  0.00462452  1
  Te  Te136  1  0.16758653  0.00271205  0.32946486  1
  Te  Te137  1  0.16513527  0.00188161  0.66670231  1
  Te  Te138  1  0.16640831  0.33385083  -0.00607328  1
  Te  Te139  1  0.16665132  0.32770686  0.33279577  1
  Te  Te140  1  0.16530450  0.33056049  0.67176630  1
  Te  Te141  1  0.16775966  0.66812737  0.00336442  1
  Te  Te142  1  0.16601427  0.66762796  0.32849004  1
  Te  Te143  1  0.16396833  0.66794185  0.66706199  1
  Te  Te144  1  0.49625473  -0.00075569  -0.00649968  1
  Te  Te145  1  0.50489013  -0.00418120  0.33188033  1
  Te  Te146  1  0.50427084  -0.00058168  0.66790692  1
  Te  Te147  1  0.50654305  0.33414496  0.00053603  1
  Te  Te148  1  0.50690335  0.33352054  0.33361674  1
  Te  Te149  1  0.50360611  0.33501135  0.66551235  1
  Te  Te150  1  0.50147881  0.66605925  -0.00441141  1
  Te  Te151  1  0.50438275  0.66934599  0.33510885  1
  Te  Te152  1  0.50100805  0.66720649  0.66738233  1
  Te  Te153  1  0.83706055  -0.00277013  -0.00045081  1
  Te  Te154  1  0.82631250  -0.00092188  0.33873957  1
  Te  Te155  1  0.82319454  -0.00289976  0.66282753  1
  Te  Te156  1  0.82741145  0.33650075  -0.00436020  1
  Te  Te157  1  0.82693614  0.33947625  0.33801073  1
  Te  Te158  1  0.82879025  0.33684230  0.66619617  1
  Te  Te159  1  0.83124632  0.66585719  0.00038178  1
  Te  Te160  1  0.83166324  0.66410288  0.33472667  1
  Te  Te161  1  0.83127163  0.66670170  0.66549304  1
  Te  Te162  1  -0.00163982  0.15853452  0.00169933  1
  Te  Te163  1  0.00381329  0.16680293  0.33795494  1
  Te  Te164  1  -0.00160465  0.16404126  0.66388783  1
  Te  Te165  1  -0.00780173  0.49940215  0.00088741  1
  Te  Te166  1  -0.00629468  0.50593549  0.33802829  1
  Te  Te167  1  -0.00413582  0.50340157  0.66193456  1
  Te  Te168  1  -0.00274962  0.83901517  0.00151401  1
  Te  Te169  1  0.00032458  0.82878479  0.33463557  1
  Te  Te170  1  0.00037515  0.83545474  0.66436484  1
  Te  Te171  1  0.33435421  0.16080591  -0.00373575  1
  Te  Te172  1  0.32772278  0.16623200  0.33538748  1
  Te  Te173  1  0.33417014  0.16405733  0.66744185  1
  Te  Te174  1  0.33197497  0.50374799  0.00392339  1
  Te  Te175  1  0.33248527  0.49969137  0.32604480  1
  Te  Te176  1  0.33458534  0.50035677  0.66546953  1
  Te  Te177  1  0.33346815  0.83353474  -0.00499483  1
  Te  Te178  1  0.34108490  0.83347156  0.33333054  1
  Te  Te179  1  0.33393076  0.83855583  0.67087278  1
  Te  Te180  1  0.66630806  0.16966006  0.00504409  1
  Te  Te181  1  0.66680862  0.16669344  0.33744471  1
  Te  Te182  1  0.66460580  0.16861733  0.66216186  1
  Te  Te183  1  0.66878631  0.49994084  0.00371328  1
  Te  Te184  1  0.66995567  0.50330903  0.32957516  1
  Te  Te185  1  0.66677384  0.50165480  0.66516735  1
  Te  Te186  1  0.67186527  0.83030560  0.00086527  1
  Te  Te187  1  0.66358731  0.82656192  0.33223390  1
  Te  Te188  1  0.66056691  0.83094735  0.66667513  1
  Te  Te189  1  0.00320963  -0.00403643  0.17040466  1
  Te  Te190  1  -0.00095745  -0.00014090  0.50271581  1
  Te  Te191  1  -0.00224241  0.00341276  0.82920560  1
  Te  Te192  1  0.00106916  0.33241175  0.16648508  1
  Te  Te193  1  -0.00572277  0.32795356  0.49990115  1
  Te  Te194  1  0.00245136  0.32671682  0.83357772  1
  Te  Te195  1  0.00467969  0.67092439  0.16422909  1
  Te  Te196  1  0.00096146  0.66929348  0.50196866  1
  Te  Te197  1  -0.00269946  0.66631514  0.82782994  1
  Te  Te198  1  0.32885032  -0.00037866  0.16681455  1
  Te  Te199  1  0.32909735  0.00499534  0.50513861  1
  Te  Te200  1  0.33487866  0.00200339  0.82950354  1
  Te  Te201  1  0.34090284  0.33769765  0.16507070  1
  Te  Te202  1  0.33575718  0.32693094  0.49901117  1
  Te  Te203  1  0.33672920  0.33005402  0.83468693  1
  Te  Te204  1  0.33028711  0.66361119  0.16220703  1
  Te  Te205  1  0.33457209  0.66577781  0.49970843  1
  Te  Te206  1  0.33416878  0.66608460  0.83922687  1
  Te  Te207  1  0.66641642  0.00120393  0.16691560  1
  Te  Te208  1  0.66639336  0.00048306  0.50139325  1
  Te  Te209  1  0.66428475  0.00135229  0.82938327  1
  Te  Te210  1  0.66549105  0.33467939  0.16740914  1
  Te  Te211  1  0.66892521  0.33307350  0.50078528  1
  Te  Te212  1  0.66460017  0.33307798  0.83160222  1
  Te  Te213  1  0.66607241  0.66346862  0.16035863  1
  Te  Te214  1  0.66816459  0.66905190  0.50175139  1
  Te  Te215  1  0.66706979  0.66615471  0.83385266  1
