# generated using pymatgen
data_AgSbTe2
_symmetry_space_group_name_H-M   'P 1'
_cell_length_a   18.34473408
_cell_length_b   18.35090734
_cell_length_c   18.35563438
_cell_angle_alpha   90.00192624
_cell_angle_beta   89.99916054
_cell_angle_gamma   90.00246086
_symmetry_Int_Tables_number   1
_chemical_formula_structural   AgSbTe2
_chemical_formula_sum   'Ag54 Sb54 Te108'
_cell_volume   6179.28691704
_cell_formula_units_Z   54
loop_
 _symmetry_equiv_pos_site_id
 _symmetry_equiv_pos_as_xyz
  1  'x, y, z'
loop_
 _atom_site_type_symbol
 _atom_site_label
 _atom_site_symmetry_multiplicity
 _atom_site_fract_x
 _atom_site_fract_y
 _atom_site_fract_z
 _atom_site_occupancy
  Ag  Ag0  1  0.82896233  0.66833784  0.48776399  1
  Ag  Ag1  1  0.33346340  0.50472841  0.17370493  1
  Ag  Ag2  1  0.00297353  0.83831045  0.83418502  1
  Ag  Ag3  1  0.84417649  0.16389943  0.00779710  1
  Ag  Ag4  1  0.83390403  0.67127368  0.17000903  1
  Ag  Ag5  1  0.16284443  0.84219198  0.32547550  1
  Ag  Ag6  1  0.01335601  0.32451100  0.66500925  1
  Ag  Ag7  1  0.66303824  0.50405544  0.17321922  1
  Ag  Ag8  1  0.16669621  0.16384354  0.66412928  1
  Ag  Ag9  1  0.17249685  0.68213152  0.16749118  1
  Ag  Ag10  1  0.00571006  -0.00271423  0.66798536  1
  Ag  Ag11  1  0.15971203  0.84675492  0.01336142  1
  Ag  Ag12  1  0.32498823  0.17462216  0.82498059  1
  Ag  Ag13  1  0.67203914  0.82994942  0.16933515  1
  Ag  Ag14  1  0.49552560  0.16708760  0.33738194  1
  Ag  Ag15  1  0.17621519  0.32372809  0.50124883  1
  Ag  Ag16  1  0.00479412  0.83784949  0.16641020  1
  Ag  Ag17  1  0.16414529  0.16413474  0.00809475  1
  Ag  Ag18  1  0.67012242  0.33310033  0.00420072  1
  Ag  Ag19  1  0.84402668  0.83515416  0.65490387  1
  Ag  Ag20  1  0.16964236  0.00640987  0.49941140  1
  Ag  Ag21  1  0.49748033  0.49906776  0.64794537  1
  Ag  Ag22  1  0.16613648  0.49461982  0.00554110  1
  Ag  Ag23  1  0.33233274  0.33651639  0.33920621  1
  Ag  Ag24  1  0.65725717  0.16643427  0.49598253  1
  Ag  Ag25  1  0.00395862  -0.00248934  0.00234219  1
  Ag  Ag26  1  0.16838184  0.32925449  0.16619412  1
  Ag  Ag27  1  0.83698201  0.50082249  0.00826397  1
  Ag  Ag28  1  0.83438109  0.16483740  0.33078969  1
  Ag  Ag29  1  0.49815605  0.49816643  0.33471570  1
  Ag  Ag30  1  0.50082339  0.65444279  0.48985661  1
  Ag  Ag31  1  0.31864309  0.82699838  0.16978785  1
  Ag  Ag32  1  0.16104139  0.84449476  0.66141580  1
  Ag  Ag33  1  0.33169399  0.17355083  0.49775446  1
  Ag  Ag34  1  0.00546675  0.15985925  0.16621822  1
  Ag  Ag35  1  0.16972421  0.32067188  0.83101023  1
  Ag  Ag36  1  0.49138084  0.66873589  0.17288257  1
  Ag  Ag37  1  0.33450745  0.65966405  0.33069495  1
  Ag  Ag38  1  0.17010295  0.16147807  0.33367845  1
  Ag  Ag39  1  0.65232956  0.49530645  0.48937726  1
  Ag  Ag40  1  0.16790151  -0.00342716  0.16790435  1
  Ag  Ag41  1  0.34074660  0.48490453  0.49230545  1
  Ag  Ag42  1  0.82491551  0.51163645  0.32804108  1
  Ag  Ag43  1  0.32946825  0.33300822  0.65165231  1
  Ag  Ag44  1  0.83882227  0.82886071  0.33086925  1
  Ag  Ag45  1  0.49871393  0.00387207  0.49396360  1
  Ag  Ag46  1  0.49659538  -0.00601722  0.17543317  1
  Ag  Ag47  1  0.66431169  0.00261090  0.33547842  1
  Ag  Ag48  1  0.48699579  0.34192210  0.49710344  1
  Ag  Ag49  1  0.66937310  0.00034978  0.65436953  1
  Ag  Ag50  1  0.00196196  0.83517012  0.49937764  1
  Ag  Ag51  1  0.33041543  0.49377589  0.83173239  1
  Ag  Ag52  1  0.84155893  0.83352465  0.01291630  1
  Ag  Ag53  1  0.16407022  0.00407968  0.83286934  1
  Sb  Sb54  1  0.00133624  0.67364217  0.66364398  1
  Sb  Sb55  1  0.49772166  0.83335782  0.33141552  1
  Sb  Sb56  1  0.00250409  0.50175922  0.16702107  1
  Sb  Sb57  1  0.83448920  0.33612032  0.49787603  1
  Sb  Sb58  1  0.33171014  0.33373256  0.00282596  1
  Sb  Sb59  1  0.66687975  0.67231585  0.65962572  1
  Sb  Sb60  1  0.00135220  0.67687192  0.00357836  1
  Sb  Sb61  1  0.49495995  0.33420459  0.17469725  1
  Sb  Sb62  1  0.33177139  0.65962753  0.65726133  1
  Sb  Sb63  1  0.17204829  0.49308761  0.66837881  1
  Sb  Sb64  1  0.33426394  0.00272166  0.33318037  1
  Sb  Sb65  1  0.83418407  0.66870469  0.83749644  1
  Sb  Sb66  1  0.00681201  0.50186851  0.83551642  1
  Sb  Sb67  1  0.00277249  0.32778041  -0.00133548  1
  Sb  Sb68  1  0.67528690  0.83663440  0.83755425  1
  Sb  Sb69  1  0.49910940  0.83496049  0.00684883  1
  Sb  Sb70  1  0.16900124  0.66896769  0.49307884  1
  Sb  Sb71  1  0.66305539  0.66915338  0.33200458  1
  Sb  Sb72  1  0.00795856  0.33127524  0.33600732  1
  Sb  Sb73  1  0.49563989  0.66468479  0.83303172  1
  Sb  Sb74  1  0.49583971  0.16727452  0.00966986  1
  Sb  Sb75  1  0.49806416  0.49822983  0.00904561  1
  Sb  Sb76  1  0.66381277  0.32976841  0.66435525  1
  Sb  Sb77  1  0.83976286  0.16167534  0.66385757  1
  Sb  Sb78  1  0.67382862  0.00348479  0.00708800  1
  Sb  Sb79  1  0.49197882  0.16955699  0.65488010  1
  Sb  Sb80  1  0.16794746  0.67003308  0.83995566  1
  Sb  Sb81  1  0.82911254  0.50482515  0.66299815  1
  Sb  Sb82  1  0.83722808  0.33637871  0.16797232  1
  Sb  Sb83  1  0.83834287  -0.00668992  0.16957674  1
  Sb  Sb84  1  0.66890796  0.66248006  0.00696467  1
  Sb  Sb85  1  0.32285660  0.83478997  0.83827478  1
  Sb  Sb86  1  0.84175379  0.33220443  0.83590431  1
  Sb  Sb87  1  0.66277235  0.33255619  0.33169123  1
  Sb  Sb88  1  0.32818244  0.83489135  0.49368898  1
  Sb  Sb89  1  0.00156923  0.66899311  0.33166875  1
  Sb  Sb90  1  0.67074398  0.83584134  0.49282673  1
  Sb  Sb91  1  0.00543083  0.16111234  0.49560169  1
  Sb  Sb92  1  0.32629120  0.00518620  0.66327334  1
  Sb  Sb93  1  0.00330776  0.50258245  0.49904242  1
  Sb  Sb94  1  0.66247078  0.16599845  0.83009045  1
  Sb  Sb95  1  0.49212408  0.00159770  0.82916765  1
  Sb  Sb96  1  0.17237575  0.49853768  0.32881065  1
  Sb  Sb97  1  0.33048584  0.66568213  0.00998218  1
  Sb  Sb98  1  0.66233938  0.49701624  0.83573043  1
  Sb  Sb99  1  0.32600757  0.16722487  0.17212209  1
  Sb  Sb100  1  0.67114081  0.16634966  0.17347471  1
  Sb  Sb101  1  0.32344563  0.00125778  0.00344549  1
  Sb  Sb102  1  0.49060409  0.33251028  0.82652975  1
  Sb  Sb103  1  0.00800795  0.16141710  0.83767343  1
  Sb  Sb104  1  0.83603177  -0.00393831  0.49736948  1
  Sb  Sb105  1  0.00101237  -0.00220909  0.33213503  1
  Sb  Sb106  1  0.84116526  -0.00029218  0.83348891  1
  Sb  Sb107  1  0.49751517  0.83207207  0.66199793  1
  Te  Te108  1  0.16694466  0.16610827  0.16855370  1
  Te  Te109  1  0.16597389  0.16581466  0.49672081  1
  Te  Te110  1  0.16778417  0.16468093  0.83165651  1
  Te  Te111  1  0.16780708  0.49283440  0.16548945  1
  Te  Te112  1  0.17032887  0.50033651  0.49961599  1
  Te  Te113  1  0.17108299  0.50197512  0.83809285  1
  Te  Te114  1  0.16354029  0.83675266  0.16850910  1
  Te  Te115  1  0.16357442  0.83354059  0.50039695  1
  Te  Te116  1  0.16309794  0.83665424  0.83299818  1
  Te  Te117  1  0.49901013  0.16299582  0.17516624  1
  Te  Te118  1  0.49934921  0.16244771  0.49701655  1
  Te  Te119  1  0.49018988  0.16632432  0.83365601  1
  Te  Te120  1  0.49974426  0.50152757  0.17221985  1
  Te  Te121  1  0.49697250  0.49961596  0.49268466  1
  Te  Te122  1  0.49250066  0.49959847  0.83671837  1
  Te  Te123  1  0.50904174  0.83298709  0.16654423  1
  Te  Te124  1  0.50027371  0.84015291  0.49964638  1
  Te  Te125  1  0.49859387  0.83270308  0.83536635  1
  Te  Te126  1  0.83673476  0.16736013  0.16646321  1
  Te  Te127  1  0.83247671  0.16772870  0.49575290  1
  Te  Te128  1  0.83184879  0.16673258  0.84101362  1
  Te  Te129  1  0.83516797  0.50174759  0.16725016  1
  Te  Te130  1  0.83386574  0.50592974  0.49742222  1
  Te  Te131  1  0.83281173  0.50076507  0.83885972  1
  Te  Te132  1  0.83242682  0.83314122  0.17027296  1
  Te  Te133  1  0.83524811  0.82978127  0.49627137  1
  Te  Te134  1  0.84080929  0.83319842  0.83683467  1
  Te  Te135  1  0.16305123  0.00306566  0.00418278  1
  Te  Te136  1  0.16721784  0.00051996  0.33405106  1
  Te  Te137  1  0.16590343  0.00278662  0.66222864  1
  Te  Te138  1  0.16630625  0.33156308  0.00040353  1
  Te  Te139  1  0.17049614  0.33203537  0.33558092  1
  Te  Te140  1  0.17029158  0.33266503  0.66580805  1
  Te  Te141  1  0.16631369  0.65770617  0.00726660  1
  Te  Te142  1  0.17048655  0.66740603  0.32735432  1
  Te  Te143  1  0.16674120  0.67100266  0.66626722  1
  Te  Te144  1  0.50261146  0.00097594  0.00246581  1
  Te  Te145  1  0.50143744  -0.00044319  0.33358893  1
  Te  Te146  1  0.50455288  0.00015027  0.66209558  1
  Te  Te147  1  0.50691447  0.33198178  -0.00108657  1
  Te  Te148  1  0.49648722  0.33277058  0.33762513  1
  Te  Te149  1  0.49575041  0.33707901  0.66022642  1
  Te  Te150  1  0.50084062  0.66704744  0.00825737  1
  Te  Te151  1  0.49783269  0.66728415  0.33154864  1
  Te  Te152  1  0.49968981  0.66109917  0.66232416  1
  Te  Te153  1  0.83977269  0.00086236  0.00039482  1
  Te  Te154  1  0.82843221  0.00527069  0.33369508  1
  Te  Te155  1  0.83563945  -0.00517952  0.66647663  1
  Te  Te156  1  0.83317228  0.33312646  0.00019240  1
  Te  Te157  1  0.83483327  0.32410095  0.33358002  1
  Te  Te158  1  0.83587732  0.33371526  0.66778377  1
  Te  Te159  1  0.83486804  0.66638842  0.00502176  1
  Te  Te160  1  0.83299594  0.66906187  0.33068120  1
  Te  Te161  1  0.83306685  0.67444749  0.66660376  1
  Te  Te162  1  0.00223951  0.16234958  0.00311660  1
  Te  Te163  1  0.00076534  0.16523261  0.32822366  1
  Te  Te164  1  0.00391702  0.16394411  0.66661044  1
  Te  Te165  1  -0.00152044  0.49789302  -0.00076736  1
  Te  Te166  1  -0.01480834  0.49824351  0.33402177  1
  Te  Te167  1  -0.00239768  0.49730052  0.66807608  1
  Te  Te168  1  0.00076292  0.83751485  0.00423760  1
  Te  Te169  1  0.00044716  0.83375812  0.33213758  1
  Te  Te170  1  0.00092910  0.83594356  0.66332540  1
  Te  Te171  1  0.32755780  0.16719770  -0.00256840  1
  Te  Te172  1  0.33188804  0.16955406  0.33619714  1
  Te  Te173  1  0.32774888  0.17105700  0.66404294  1
  Te  Te174  1  0.33041066  0.49952132  0.00317717  1
  Te  Te175  1  0.33354682  0.49904403  0.33301176  1
  Te  Te176  1  0.33676631  0.49507415  0.66473995  1
  Te  Te177  1  0.32653237  0.83289445  0.00678956  1
  Te  Te178  1  0.32867781  0.82972392  0.32856109  1
  Te  Te179  1  0.32816853  0.83130799  0.66849394  1
  Te  Te180  1  0.66722773  0.17060326  -0.00043250  1
  Te  Te181  1  0.66471883  0.16568010  0.33666345  1
  Te  Te182  1  0.66928572  0.16144841  0.66173983  1
  Te  Te183  1  0.67017372  0.49600838  0.00341192  1
  Te  Te184  1  0.66667200  0.49803748  0.33301733  1
  Te  Te185  1  0.66085856  0.49945241  0.66640707  1
  Te  Te186  1  0.67358180  0.83448322  0.00518422  1
  Te  Te187  1  0.67122502  0.83935011  0.32922392  1
  Te  Te188  1  0.66820153  0.83967856  0.66822855  1
  Te  Te189  1  0.00383967  -0.00079524  0.16596541  1
  Te  Te190  1  0.00519782  -0.00468320  0.50430841  1
  Te  Te191  1  0.00607394  -0.00380453  0.83101082  1
  Te  Te192  1  0.00775817  0.32886981  0.16716817  1
  Te  Te193  1  0.00338655  0.33372671  0.50559334  1
  Te  Te194  1  0.00873481  0.33379502  0.82663866  1
  Te  Te195  1  -0.00178922  0.67179753  0.16730208  1
  Te  Te196  1  -0.00560551  0.67181122  0.49855253  1
  Te  Te197  1  0.00044702  0.67550666  0.83222955  1
  Te  Te198  1  0.33506778  -0.00369778  0.16682753  1
  Te  Te199  1  0.33264428  0.00217171  0.49999344  1
  Te  Te200  1  0.32564905  0.00320601  0.83289619  1
  Te  Te201  1  0.32983538  0.33770697  0.17027372  1
  Te  Te202  1  0.33192414  0.32969984  0.49641133  1
  Te  Te203  1  0.32787014  0.33395987  0.83663243  1
  Te  Te204  1  0.33241779  0.66617619  0.17080418  1
  Te  Te205  1  0.33771372  0.66739902  0.49223280  1
  Te  Te206  1  0.33316010  0.65976929  0.83186724  1
  Te  Te207  1  0.66200720  -0.00062440  0.17053886  1
  Te  Te208  1  0.66830143  0.00146461  0.49665795  1
  Te  Te209  1  0.66358200  0.00072870  0.83077275  1
  Te  Te210  1  0.66562088  0.33796374  0.16385428  1
  Te  Te211  1  0.66616654  0.33355293  0.50092959  1
  Te  Te212  1  0.66593653  0.33206358  0.83716909  1
  Te  Te213  1  0.67138223  0.66385209  0.16727271  1
  Te  Te214  1  0.66503084  0.66109262  0.49859933  1
  Te  Te215  1  0.66450640  0.66713770  0.83298194  1
