# generated using pymatgen
data_AgSbTe2
_symmetry_space_group_name_H-M   'P 1'
_cell_length_a   18.33717086
_cell_length_b   18.33690863
_cell_length_c   18.33606588
_cell_angle_alpha   89.99830647
_cell_angle_beta   89.99801796
_cell_angle_gamma   89.99931074
_symmetry_Int_Tables_number   1
_chemical_formula_structural   AgSbTe2
_chemical_formula_sum   'Ag54 Sb54 Te108'
_cell_volume   6165.44762563
_cell_formula_units_Z   54
loop_
 _symmetry_equiv_pos_site_id
 _symmetry_equiv_pos_as_xyz
  1  'x, y, z'
loop_
 _atom_site_type_symbol
 _atom_site_label
 _atom_site_symmetry_multiplicity
 _atom_site_fract_x
 _atom_site_fract_y
 _atom_site_fract_z
 _atom_site_occupancy
  Ag  Ag0  1  0.33383805  0.32336280  0.00409592  1
  Ag  Ag1  1  0.49755661  0.00419051  0.16421854  1
  Ag  Ag2  1  -0.00502439  0.50630414  0.48939399  1
  Ag  Ag3  1  0.67748330  0.66854675  0.66437943  1
  Ag  Ag4  1  0.15492980  0.66368865  0.49412500  1
  Ag  Ag5  1  0.50851907  0.15773080  0.65866564  1
  Ag  Ag6  1  0.83672903  0.82321055  0.33690021  1
  Ag  Ag7  1  -0.00758446  0.16857942  0.49087171  1
  Ag  Ag8  1  0.33519101  0.16326717  0.16611049  1
  Ag  Ag9  1  0.33886407  0.16577227  0.49571800  1
  Ag  Ag10  1  0.83733875  0.66116245  0.50272586  1
  Ag  Ag11  1  -0.00067349  0.16796927  0.17510133  1
  Ag  Ag12  1  0.50154321  0.83390019  0.33010323  1
  Ag  Ag13  1  0.16638241  0.50908256  0.00507853  1
  Ag  Ag14  1  0.67816490  0.50426335  0.50289482  1
  Ag  Ag15  1  0.00003100  0.66776891  0.00878131  1
  Ag  Ag16  1  0.66856245  0.66628494  -0.00236771  1
  Ag  Ag17  1  0.84134806  0.66320481  0.17348654  1
  Ag  Ag18  1  -0.00381776  0.34668672  0.33097303  1
  Ag  Ag19  1  0.50337685  0.83365303  0.66759704  1
  Ag  Ag20  1  -0.00050187  0.50768017  0.17644778  1
  Ag  Ag21  1  0.66891600  0.00076003  0.66559273  1
  Ag  Ag22  1  0.84144793  0.16679660  0.33663639  1
  Ag  Ag23  1  0.82591906  0.16608676  0.65700910  1
  Ag  Ag24  1  0.50201408  0.32247665  0.16612869  1
  Ag  Ag25  1  -0.00979588  0.66860057  0.65687300  1
  Ag  Ag26  1  0.50476034  0.67348450  0.82965388  1
  Ag  Ag27  1  0.16036950  0.66459230  0.17153308  1
  Ag  Ag28  1  0.49609623  0.51022237  0.00282111  1
  Ag  Ag29  1  0.83372323  0.82365839  0.65928684  1
  Ag  Ag30  1  0.50449971  0.66697391  0.50239073  1
  Ag  Ag31  1  0.15765006  0.82688163  0.66809963  1
  Ag  Ag32  1  0.83678476  0.51209763  0.65559685  1
  Ag  Ag33  1  0.67027085  0.17092575  0.50108343  1
  Ag  Ag34  1  0.84205690  0.50871406  0.33822399  1
  Ag  Ag35  1  0.33069084  0.00368742  0.00321128  1
  Ag  Ag36  1  -0.00120307  0.65968678  0.33475140  1
  Ag  Ag37  1  0.32533657  0.66733227  0.33291294  1
  Ag  Ag38  1  0.50325632  0.16191983  0.33107727  1
  Ag  Ag39  1  0.15386797  0.50612260  0.33232807  1
  Ag  Ag40  1  0.83349784  0.33424140  0.16993412  1
  Ag  Ag41  1  0.49379653  0.83052498  0.00447534  1
  Ag  Ag42  1  0.15586628  0.51002762  0.65522237  1
  Ag  Ag43  1  -0.00622321  -0.00738412  0.66167209  1
  Ag  Ag44  1  0.65760264  0.16738883  0.17206903  1
  Ag  Ag45  1  0.83090130  0.66608653  0.81857151  1
  Ag  Ag46  1  0.17012238  0.83079284  0.00134085  1
  Ag  Ag47  1  0.33624364  0.16442326  0.84690502  1
  Ag  Ag48  1  0.00666714  -0.00509363  0.00549836  1
  Ag  Ag49  1  0.66804147  0.32507319  0.66366523  1
  Ag  Ag50  1  0.33607406  0.83558951  0.16551704  1
  Ag  Ag51  1  -0.00298827  0.00267097  0.33120137  1
  Ag  Ag52  1  0.49846668  -0.00337129  0.83623883  1
  Ag  Ag53  1  0.17141901  0.16245565  0.00442331  1
  Sb  Sb54  1  -0.00717775  0.33709976  0.65882198  1
  Sb  Sb55  1  0.83231265  0.33726004  0.83391289  1
  Sb  Sb56  1  0.16465507  0.16491981  0.66651052  1
  Sb  Sb57  1  0.00340224  0.82948888  0.16744780  1
  Sb  Sb58  1  0.33178109  0.67029037  0.00532802  1
  Sb  Sb59  1  0.16282705  0.17012078  0.32934690  1
  Sb  Sb60  1  0.00470483  0.33633443  0.00976211  1
  Sb  Sb61  1  0.66672812  0.50442563  0.82757308  1
  Sb  Sb62  1  0.00002891  0.83184342  0.83113507  1
  Sb  Sb63  1  0.16459738  0.33706373  0.16630193  1
  Sb  Sb64  1  0.83449046  0.82877070  0.00045364  1
  Sb  Sb65  1  0.16742056  0.33319678  0.83541831  1
  Sb  Sb66  1  0.67271872  0.32996435  0.33599900  1
  Sb  Sb67  1  0.33128175  -0.00192732  0.32780025  1
  Sb  Sb68  1  0.33117666  0.49980006  0.49922865  1
  Sb  Sb69  1  0.16671760  0.66729349  0.83362907  1
  Sb  Sb70  1  0.17083144  -0.00025866  0.83602124  1
  Sb  Sb71  1  0.33005129  0.33487411  0.32790452  1
  Sb  Sb72  1  0.50117726  -0.00050339  0.49944310  1
  Sb  Sb73  1  0.16424116  0.33825398  0.49916077  1
  Sb  Sb74  1  0.66914434  0.00343197  0.33773260  1
  Sb  Sb75  1  0.49895709  0.33133749  0.83748564  1
  Sb  Sb76  1  0.33721360  0.83621109  0.83903612  1
  Sb  Sb77  1  0.66433995  0.83044454  0.83033037  1
  Sb  Sb78  1  0.67277059  0.66645728  0.33618592  1
  Sb  Sb79  1  0.83610624  0.50424199  0.00348739  1
  Sb  Sb80  1  0.49509584  0.16234310  0.00430898  1
  Sb  Sb81  1  0.83413017  -0.00047295  0.50088326  1
  Sb  Sb82  1  0.16403490  0.82589087  0.33160773  1
  Sb  Sb83  1  0.33510689  0.00054760  0.67100042  1
  Sb  Sb84  1  0.16839770  -0.00351197  0.16509687  1
  Sb  Sb85  1  -0.00098839  0.82779132  0.49945872  1
  Sb  Sb86  1  0.83905869  0.16659010  0.00543968  1
  Sb  Sb87  1  0.33442214  0.49960450  0.83573165  1
  Sb  Sb88  1  0.00000450  0.50386868  0.83124306  1
  Sb  Sb89  1  0.50197230  0.33349610  0.49520531  1
  Sb  Sb90  1  0.33228013  0.66847231  0.66118059  1
  Sb  Sb91  1  0.83255698  -0.00102273  0.16861851  1
  Sb  Sb92  1  0.33706448  0.33020306  0.66904527  1
  Sb  Sb93  1  0.66086323  0.33721522  0.00038567  1
  Sb  Sb94  1  0.67293965  0.49780744  0.17162133  1
  Sb  Sb95  1  0.66686765  0.83086529  0.50258760  1
  Sb  Sb96  1  0.50458519  0.50400163  0.66881496  1
  Sb  Sb97  1  0.33487115  0.83474376  0.49597684  1
  Sb  Sb98  1  0.50211904  0.50162832  0.32929999  1
  Sb  Sb99  1  0.66143401  0.16543948  0.82987631  1
  Sb  Sb100  1  0.50033005  0.66864902  0.16769849  1
  Sb  Sb101  1  0.66272298  0.83521077  0.16787017  1
  Sb  Sb102  1  0.16330712  -0.00493549  0.50057181  1
  Sb  Sb103  1  0.66334920  -0.00348329  -0.00210522  1
  Sb  Sb104  1  0.83284372  0.33711671  0.49267750  1
  Sb  Sb105  1  0.00239001  0.16311568  0.83329569  1
  Sb  Sb106  1  0.82925256  -0.00506138  0.82837534  1
  Sb  Sb107  1  0.32848644  0.50071298  0.16530559  1
  Te  Te108  1  0.16652017  0.16688984  0.16342887  1
  Te  Te109  1  0.16547363  0.16610507  0.50009735  1
  Te  Te110  1  0.17420417  0.16630503  0.83867850  1
  Te  Te111  1  0.16233083  0.50341603  0.16629707  1
  Te  Te112  1  0.16516106  0.50450161  0.49873189  1
  Te  Te113  1  0.16772734  0.50029304  0.84253995  1
  Te  Te114  1  0.17240042  0.82784849  0.16366379  1
  Te  Te115  1  0.16880792  0.82518892  0.50658729  1
  Te  Te116  1  0.16985335  0.83312734  0.83310274  1
  Te  Te117  1  0.49881871  0.16445282  0.16638462  1
  Te  Te118  1  0.50223212  0.16700809  0.49854362  1
  Te  Te119  1  0.49591266  0.16402796  0.83000718  1
  Te  Te120  1  0.50171457  0.49783269  0.16276025  1
  Te  Te121  1  0.49982520  0.50422934  0.49936993  1
  Te  Te122  1  0.49978164  0.50312558  0.84083877  1
  Te  Te123  1  0.49715694  0.83542130  0.16790913  1
  Te  Te124  1  0.49990271  0.83029222  0.49829091  1
  Te  Te125  1  0.49937378  0.83391912  0.83133495  1
  Te  Te126  1  0.83976944  0.16600071  0.16898330  1
  Te  Te127  1  0.83262232  0.16702663  0.49856776  1
  Te  Te128  1  0.83271742  0.16686692  0.83133615  1
  Te  Te129  1  0.83771645  0.50015636  0.17025577  1
  Te  Te130  1  0.83517706  0.49982013  0.49902548  1
  Te  Te131  1  0.83336821  0.50531124  0.82824237  1
  Te  Te132  1  0.83124120  0.82996460  0.17217183  1
  Te  Te133  1  0.83288471  0.82710986  0.49843363  1
  Te  Te134  1  0.83311859  0.82656172  0.82729550  1
  Te  Te135  1  0.16685364  -0.00298670  0.00015303  1
  Te  Te136  1  0.15900207  -0.00283249  0.33339012  1
  Te  Te137  1  0.16119223  -0.00566853  0.66833644  1
  Te  Te138  1  0.17237041  0.33264381  0.00115511  1
  Te  Te139  1  0.16109635  0.34290389  0.33273310  1
  Te  Te140  1  0.16580603  0.34059607  0.66779225  1
  Te  Te141  1  0.16458784  0.66936224  -0.00035907  1
  Te  Te142  1  0.16276208  0.66609304  0.33380782  1
  Te  Te143  1  0.16629202  0.66710901  0.66787131  1
  Te  Te144  1  0.50049329  -0.00524170  0.00101354  1
  Te  Te145  1  0.49922570  -0.00010453  0.32986590  1
  Te  Te146  1  0.50020387  -0.00084572  0.66599560  1
  Te  Te147  1  0.49659922  0.33686503  0.00469671  1
  Te  Te148  1  0.49885207  0.32979915  0.32714042  1
  Te  Te149  1  0.50529391  0.33311066  0.66761663  1
  Te  Te150  1  0.49888206  0.66973091  0.00061395  1
  Te  Te151  1  0.50305202  0.66856884  0.33578765  1
  Te  Te152  1  0.49918345  0.66810917  0.66613768  1
  Te  Te153  1  0.83821725  -0.00301640  -0.00296607  1
  Te  Te154  1  0.83675634  0.00470098  0.33375762  1
  Te  Te155  1  0.83379017  0.00262948  0.66714689  1
  Te  Te156  1  0.83142959  0.33545538  0.00667968  1
  Te  Te157  1  0.83666170  0.32465073  0.32738536  1
  Te  Te158  1  0.82818858  0.32566751  0.66935448  1
  Te  Te159  1  0.83598057  0.66765996  0.00685760  1
  Te  Te160  1  0.83471318  0.66684552  0.33365111  1
  Te  Te161  1  0.83425380  0.66766483  0.66307699  1
  Te  Te162  1  0.00672588  0.16610356  0.00129008  1
  Te  Te163  1  0.00229197  0.16073227  0.33282380  1
  Te  Te164  1  -0.00070761  0.16775272  0.66516381  1
  Te  Te165  1  0.00399272  0.50409281  0.00244742  1
  Te  Te166  1  -0.00226219  0.50212658  0.33288588  1
  Te  Te167  1  -0.00181168  0.50221131  0.66486711  1
  Te  Te168  1  0.00268410  0.83274061  0.00035057  1
  Te  Te169  1  -0.00329733  0.83956498  0.33357111  1
  Te  Te170  1  -0.00164131  0.83187929  0.66530521  1
  Te  Te171  1  0.33341040  0.16378925  0.00521029  1
  Te  Te172  1  0.33356167  0.16635911  0.33005248  1
  Te  Te173  1  0.33435046  0.16738062  0.65961497  1
  Te  Te174  1  0.33200188  0.49954038  0.00026164  1
  Te  Te175  1  0.33271772  0.50554555  0.33320711  1
  Te  Te176  1  0.32515727  0.49733132  0.66774303  1
  Te  Te177  1  0.33338098  0.83682006  0.00430046  1
  Te  Te178  1  0.33636666  0.83062687  0.32868471  1
  Te  Te179  1  0.33905260  0.83522896  0.66619871  1
  Te  Te180  1  0.66885570  0.16689978  0.00436147  1
  Te  Te181  1  0.66328146  0.16680176  0.33268892  1
  Te  Te182  1  0.66562130  0.16366299  0.66709896  1
  Te  Te183  1  0.66390629  0.50541274  0.00132440  1
  Te  Te184  1  0.67120391  0.49798497  0.34065996  1
  Te  Te185  1  0.66886140  0.50874235  0.66188512  1
  Te  Te186  1  0.66210742  0.82769261  0.00072219  1
  Te  Te187  1  0.66427445  0.83585539  0.33462526  1
  Te  Te188  1  0.66543559  0.83191773  0.66491510  1
  Te  Te189  1  -0.00020240  0.00181158  0.16464708  1
  Te  Te190  1  0.00035476  0.00684309  0.50330699  1
  Te  Te191  1  -0.00123835  -0.00071363  0.83360028  1
  Te  Te192  1  -0.00227603  0.32990025  0.17158204  1
  Te  Te193  1  -0.00006035  0.32983995  0.49264909  1
  Te  Te194  1  -0.00116292  0.33252228  0.83485787  1
  Te  Te195  1  0.00095204  0.66800874  0.16834565  1
  Te  Te196  1  -0.00147441  0.66485622  0.49910399  1
  Te  Te197  1  -0.00388371  0.66694480  0.83390414  1
  Te  Te198  1  0.33492483  0.00017939  0.16333408  1
  Te  Te199  1  0.33129283  0.00673235  0.49879017  1
  Te  Te200  1  0.33922540  0.00499482  0.83892656  1
  Te  Te201  1  0.33625237  0.33042486  0.16341853  1
  Te  Te202  1  0.33324322  0.32586452  0.49891999  1
  Te  Te203  1  0.33409459  0.32589449  0.84017061  1
  Te  Te204  1  0.33097366  0.66897936  0.17241923  1
  Te  Te205  1  0.33859248  0.66702240  0.49338913  1
  Te  Te206  1  0.34239456  0.66686722  0.83345976  1
  Te  Te207  1  0.66149758  0.00652848  0.16614021  1
  Te  Te208  1  0.66661812  0.00959156  0.50666998  1
  Te  Te209  1  0.65900709  -0.00005621  0.82811946  1
  Te  Te210  1  0.66731389  0.32886560  0.16643064  1
  Te  Te211  1  0.66634081  0.33228131  0.50505718  1
  Te  Te212  1  0.66659062  0.33377847  0.82553690  1
  Te  Te213  1  0.67040106  0.66631138  0.16239710  1
  Te  Te214  1  0.66656377  0.66476577  0.50215269  1
  Te  Te215  1  0.66618866  0.66587490  0.83506588  1
