# generated using pymatgen
data_AgSbTe2
_symmetry_space_group_name_H-M   'P 1'
_cell_length_a   18.32732700
_cell_length_b   18.33144709
_cell_length_c   18.33616799
_cell_angle_alpha   89.99896458
_cell_angle_beta   89.99952573
_cell_angle_gamma   90.00048849
_symmetry_Int_Tables_number   1
_chemical_formula_structural   AgSbTe2
_chemical_formula_sum   'Ag54 Sb54 Te108'
_cell_volume   6160.33681131
_cell_formula_units_Z   54
loop_
 _symmetry_equiv_pos_site_id
 _symmetry_equiv_pos_as_xyz
  1  'x, y, z'
loop_
 _atom_site_type_symbol
 _atom_site_label
 _atom_site_symmetry_multiplicity
 _atom_site_fract_x
 _atom_site_fract_y
 _atom_site_fract_z
 _atom_site_occupancy
  Ag  Ag0  1  0.83920374  -0.01014569  0.49283034  1
  Ag  Ag1  1  0.68078330  0.82627046  0.50236759  1
  Ag  Ag2  1  0.67564072  0.34199704  0.00920058  1
  Ag  Ag3  1  0.67758626  0.66231065  0.00201658  1
  Ag  Ag4  1  0.83833067  0.67690904  0.49469541  1
  Ag  Ag5  1  -0.00300394  0.00242016  0.65443895  1
  Ag  Ag6  1  0.16351261  0.33224539  0.16302522  1
  Ag  Ag7  1  0.83453526  0.16607301  0.00338841  1
  Ag  Ag8  1  -0.00319138  0.49852770  0.83452963  1
  Ag  Ag9  1  0.16022691  0.00037267  0.16465958  1
  Ag  Ag10  1  0.84037331  -0.00334388  0.17148576  1
  Ag  Ag11  1  0.67907764  0.33471228  0.32884889  1
  Ag  Ag12  1  0.00039629  0.16203942  0.49281400  1
  Ag  Ag13  1  0.32573130  0.00070973  0.33453636  1
  Ag  Ag14  1  0.83443586  0.82604286  0.34102278  1
  Ag  Ag15  1  -0.00394375  0.16751812  0.17174326  1
  Ag  Ag16  1  0.33360376  0.66359120  0.65766833  1
  Ag  Ag17  1  -0.00219105  0.33138073  0.33341675  1
  Ag  Ag18  1  0.50312367  0.66558687  0.83659405  1
  Ag  Ag19  1  0.83756092  0.82735359  0.00348466  1
  Ag  Ag20  1  0.32878501  0.49614634  0.82822853  1
  Ag  Ag21  1  0.16095955  0.66632338  0.16995631  1
  Ag  Ag22  1  -0.00448540  0.66631744  0.00946010  1
  Ag  Ag23  1  0.32708624  0.00390959  0.00374184  1
  Ag  Ag24  1  0.49628299  0.16743604  0.33303999  1
  Ag  Ag25  1  0.83211142  0.50516826  0.33687415  1
  Ag  Ag26  1  0.83138007  0.83348793  0.65361308  1
  Ag  Ag27  1  0.16754042  0.00326531  0.84120134  1
  Ag  Ag28  1  0.33185819  0.82351953  0.49899177  1
  Ag  Ag29  1  0.50453245  0.83173218  0.66382520  1
  Ag  Ag30  1  0.16857441  0.33239468  0.84069954  1
  Ag  Ag31  1  0.16010335  0.83353541  0.00156954  1
  Ag  Ag32  1  0.83843109  0.33420333  0.49609810  1
  Ag  Ag33  1  0.83698217  0.67180617  0.16685846  1
  Ag  Ag34  1  0.00112734  0.33498361  0.00393413  1
  Ag  Ag35  1  0.33706689  0.50422827  0.50074525  1
  Ag  Ag36  1  -0.00769077  0.83763064  0.49914033  1
  Ag  Ag37  1  0.67051109  0.49728763  0.16686205  1
  Ag  Ag38  1  0.16496993  0.66890793  0.49090795  1
  Ag  Ag39  1  0.67588766  0.17422720  0.16772129  1
  Ag  Ag40  1  0.32771947  0.66555870  0.34020103  1
  Ag  Ag41  1  0.67789089  -0.00397019  0.66425596  1
  Ag  Ag42  1  -0.00109804  0.00235532  0.33556885  1
  Ag  Ag43  1  0.32707541  0.33773272  0.66685131  1
  Ag  Ag44  1  0.33158915  0.17621299  0.83250822  1
  Ag  Ag45  1  0.83187220  0.66530682  0.84375047  1
  Ag  Ag46  1  0.67183163  0.50320938  0.49694420  1
  Ag  Ag47  1  0.32185264  0.32949039  -0.00506352  1
  Ag  Ag48  1  0.32680791  0.16958014  0.49644492  1
  Ag  Ag49  1  0.51002891  0.66660461  0.16550152  1
  Ag  Ag50  1  0.32965929  0.33317046  0.33755387  1
  Ag  Ag51  1  0.67020057  0.50268576  0.83928329  1
  Ag  Ag52  1  0.00334032  0.33018678  0.66062442  1
  Ag  Ag53  1  -0.00562413  0.66676059  0.33123920  1
  Sb  Sb54  1  0.16505975  0.33757658  0.49770336  1
  Sb  Sb55  1  0.16064913  0.83151355  0.33079458  1
  Sb  Sb56  1  -0.00538986  0.49948632  0.16578569  1
  Sb  Sb57  1  0.33223067  0.82995902  0.82990507  1
  Sb  Sb58  1  0.66483144  0.66984668  0.66796482  1
  Sb  Sb59  1  0.00391371  0.17101574  0.83537635  1
  Sb  Sb60  1  0.16505999  0.50052047  -0.00013265  1
  Sb  Sb61  1  0.16697507  0.49970590  0.66625189  1
  Sb  Sb62  1  0.16276898  0.50179775  0.33359617  1
  Sb  Sb63  1  0.50045097  0.33681086  0.16859598  1
  Sb  Sb64  1  0.16716836  0.16700201  0.33252794  1
  Sb  Sb65  1  0.66798663  0.33157090  0.66420798  1
  Sb  Sb66  1  0.16526870  0.66449353  0.83507671  1
  Sb  Sb67  1  0.49893502  0.33304084  0.49830509  1
  Sb  Sb68  1  0.16239479  0.16530510  0.00131957  1
  Sb  Sb69  1  0.32985393  0.66492801  0.00110317  1
  Sb  Sb70  1  0.83937950  0.34022560  0.83227034  1
  Sb  Sb71  1  0.67231833  0.66043834  0.33069060  1
  Sb  Sb72  1  0.49998312  -0.00276345  0.16856690  1
  Sb  Sb73  1  0.83279256  0.50260168  0.00571209  1
  Sb  Sb74  1  0.33623506  0.49999859  0.16847189  1
  Sb  Sb75  1  0.16180772  -0.00511221  0.49579320  1
  Sb  Sb76  1  0.49737299  0.16208636  0.66187298  1
  Sb  Sb77  1  0.83934816  -0.00551844  0.83382548  1
  Sb  Sb78  1  0.00314754  -0.00153663  0.00370581  1
  Sb  Sb79  1  0.50190991  0.50053701  0.00003088  1
  Sb  Sb80  1  0.32781260  -0.00048181  0.66298872  1
  Sb  Sb81  1  0.83504572  0.16228886  0.66857746  1
  Sb  Sb82  1  0.83481323  0.16663763  0.32972394  1
  Sb  Sb83  1  -0.00204215  0.50094109  0.50112447  1
  Sb  Sb84  1  0.16381586  0.83352134  0.66680001  1
  Sb  Sb85  1  0.33083557  0.83248472  0.17189637  1
  Sb  Sb86  1  0.83696305  0.33283051  0.16916539  1
  Sb  Sb87  1  0.49514010  -0.00383784  0.83130370  1
  Sb  Sb88  1  0.83281336  0.50602540  0.66168833  1
  Sb  Sb89  1  -0.00115399  0.83521994  0.17295129  1
  Sb  Sb90  1  0.50289940  0.83388823  0.33829670  1
  Sb  Sb91  1  0.16597066  0.16662775  0.66684947  1
  Sb  Sb92  1  0.50015214  0.66775183  0.49822411  1
  Sb  Sb93  1  0.00090050  0.66634725  0.66302480  1
  Sb  Sb94  1  0.50328970  0.49904680  0.33367717  1
  Sb  Sb95  1  0.67275954  0.00408644  0.33563622  1
  Sb  Sb96  1  0.50081650  0.83062662  -0.00331492  1
  Sb  Sb97  1  0.50180361  0.16740468  0.00512627  1
  Sb  Sb98  1  0.49238878  0.34013991  0.83439902  1
  Sb  Sb99  1  0.67195065  0.83080351  0.17194516  1
  Sb  Sb100  1  0.66890858  0.82809375  0.82824495  1
  Sb  Sb101  1  0.66316235  0.17372742  0.83856221  1
  Sb  Sb102  1  -0.00062650  0.82933117  0.83035454  1
  Sb  Sb103  1  0.67206771  0.16772285  0.49425488  1
  Sb  Sb104  1  0.50271964  -0.00082315  0.49895512  1
  Sb  Sb105  1  0.49707416  0.50535594  0.66754364  1
  Sb  Sb106  1  0.66804985  -0.00228876  -0.00147961  1
  Sb  Sb107  1  0.33063002  0.16783438  0.16865531  1
  Te  Te108  1  0.16066443  0.16700349  0.16649629  1
  Te  Te109  1  0.16464075  0.16634200  0.50005852  1
  Te  Te110  1  0.17184994  0.16825861  0.83482992  1
  Te  Te111  1  0.16732500  0.50187252  0.16667548  1
  Te  Te112  1  0.17497955  0.50852484  0.49959119  1
  Te  Te113  1  0.16816095  0.49556463  0.83352546  1
  Te  Te114  1  0.16577979  0.83378920  0.16163266  1
  Te  Te115  1  0.17188866  0.82797827  0.49959719  1
  Te  Te116  1  0.16634845  0.83651204  0.83964007  1
  Te  Te117  1  0.50513012  0.16584867  0.17200686  1
  Te  Te118  1  0.49496920  0.16572613  0.49390725  1
  Te  Te119  1  0.49263073  0.16584436  0.83329968  1
  Te  Te120  1  0.50862446  0.50763696  0.16685048  1
  Te  Te121  1  0.50096438  0.49991641  0.50044035  1
  Te  Te122  1  0.50277806  0.50679979  0.83351112  1
  Te  Te123  1  0.50191440  0.82600723  0.16651648  1
  Te  Te124  1  0.49259352  0.83395481  0.50494713  1
  Te  Te125  1  0.50042124  0.82644434  0.82625675  1
  Te  Te126  1  0.83557667  0.16608933  0.16379907  1
  Te  Te127  1  0.83848107  0.17180684  0.50180397  1
  Te  Te128  1  0.83174161  0.16664137  0.84153472  1
  Te  Te129  1  0.82867349  0.50633155  0.17444152  1
  Te  Te130  1  0.83222664  0.49472784  0.49721066  1
  Te  Te131  1  0.83206007  0.50569285  0.82972936  1
  Te  Te132  1  0.83349639  0.83378170  0.16334702  1
  Te  Te133  1  0.83630691  0.83446474  0.49729681  1
  Te  Te134  1  0.83381625  0.82677227  0.84292749  1
  Te  Te135  1  0.16829793  -0.00215391  0.00322865  1
  Te  Te136  1  0.16474891  -0.00223721  0.32761946  1
  Te  Te137  1  0.15856127  -0.00097667  0.67152881  1
  Te  Te138  1  0.16369147  0.33338682  0.00219808  1
  Te  Te139  1  0.16470029  0.33533817  0.32878362  1
  Te  Te140  1  0.16588981  0.33303039  0.66888113  1
  Te  Te141  1  0.16073985  0.67053561  0.00304354  1
  Te  Te142  1  0.16637090  0.66690699  0.33182056  1
  Te  Te143  1  0.17232004  0.66816222  0.66520413  1
  Te  Te144  1  0.49000012  -0.00109790  -0.00002954  1
  Te  Te145  1  0.49283189  0.00263978  0.33190676  1
  Te  Te146  1  0.50211253  -0.00660781  0.66651005  1
  Te  Te147  1  0.50377433  0.33201432  0.00127874  1
  Te  Te148  1  0.49103975  0.32976407  0.33262495  1
  Te  Te149  1  0.49314097  0.33121394  0.66656990  1
  Te  Te150  1  0.50073956  0.66775577  0.00142581  1
  Te  Te151  1  0.49429380  0.66765612  0.32673572  1
  Te  Te152  1  0.49550517  0.67145759  0.66930540  1
  Te  Te153  1  0.83313917  -0.00229366  0.00270641  1
  Te  Te154  1  0.83736126  -0.00020254  0.33217372  1
  Te  Te155  1  0.83772912  -0.00422423  0.66830829  1
  Te  Te156  1  0.83424578  0.33259785  -0.00099411  1
  Te  Te157  1  0.83598054  0.33308333  0.33461997  1
  Te  Te158  1  0.83769225  0.33244552  0.66311628  1
  Te  Te159  1  0.83600483  0.66489954  0.00206316  1
  Te  Te160  1  0.83337591  0.66625069  0.33416284  1
  Te  Te161  1  0.83379062  0.67316049  0.65934102  1
  Te  Te162  1  -0.00533063  0.16908451  0.00286435  1
  Te  Te163  1  0.00073141  0.16842538  0.33233484  1
  Te  Te164  1  -0.00104276  0.16895845  0.66336247  1
  Te  Te165  1  -0.00095022  0.49823455  -0.00406438  1
  Te  Te166  1  -0.00584132  0.49998703  0.33344297  1
  Te  Te167  1  -0.00047986  0.49288886  0.67250205  1
  Te  Te168  1  -0.00039166  0.82984931  -0.00222658  1
  Te  Te169  1  -0.00463473  0.83023537  0.33908386  1
  Te  Te170  1  -0.00402998  0.83477443  0.66158195  1
  Te  Te171  1  0.33473858  0.16860110  -0.00083537  1
  Te  Te172  1  0.33389979  0.16833511  0.33359262  1
  Te  Te173  1  0.33385991  0.17009997  0.66446622  1
  Te  Te174  1  0.33369004  0.49375772  -0.00362569  1
  Te  Te175  1  0.33479669  0.49957258  0.33594101  1
  Te  Te176  1  0.33310970  0.49870115  0.66591056  1
  Te  Te177  1  0.33227681  0.83597604  -0.00076529  1
  Te  Te178  1  0.33493526  0.83296691  0.33819731  1
  Te  Te179  1  0.33226289  0.83116298  0.66179778  1
  Te  Te180  1  0.67055432  0.16776817  0.00539269  1
  Te  Te181  1  0.66150899  0.17184879  0.32952206  1
  Te  Te182  1  0.66558688  0.16032674  0.66721460  1
  Te  Te183  1  0.66733426  0.50138501  -0.00056421  1
  Te  Te184  1  0.66921964  0.49486095  0.33564413  1
  Te  Te185  1  0.66475245  0.49789977  0.66271950  1
  Te  Te186  1  0.66933469  0.82758708  -0.00029971  1
  Te  Te187  1  0.67109518  0.83541345  0.34121453  1
  Te  Te188  1  0.66950956  0.83577460  0.66219828  1
  Te  Te189  1  -0.00007648  0.00216330  0.16930736  1
  Te  Te190  1  -0.00036703  0.00071886  0.49646412  1
  Te  Te191  1  0.00634808  0.00194658  0.83257901  1
  Te  Te192  1  0.00229348  0.33341109  0.16680702  1
  Te  Te193  1  0.00092502  0.33453528  0.49770845  1
  Te  Te194  1  0.00462157  0.33551016  0.83680492  1
  Te  Te195  1  -0.00152395  0.66576973  0.16879567  1
  Te  Te196  1  0.00002823  0.66589192  0.49788518  1
  Te  Te197  1  -0.00296024  0.66122809  0.83168751  1
  Te  Te198  1  0.33177107  0.00018093  0.16821081  1
  Te  Te199  1  0.33031942  0.00623934  0.49635315  1
  Te  Te200  1  0.32823789  0.00068650  0.83290899  1
  Te  Te201  1  0.32966265  0.33412541  0.16635614  1
  Te  Te202  1  0.33119515  0.33277655  0.49855195  1
  Te  Te203  1  0.33071290  0.33531383  0.83430489  1
  Te  Te204  1  0.32386737  0.66528555  0.16929828  1
  Te  Te205  1  0.33750462  0.66405895  0.49855568  1
  Te  Te206  1  0.33424797  0.66104206  0.83384397  1
  Te  Te207  1  0.67087024  0.00366923  0.16615403  1
  Te  Te208  1  0.67366101  -0.00044632  0.50248647  1
  Te  Te209  1  0.66568848  0.00258856  0.82848952  1
  Te  Te210  1  0.66662236  0.33523639  0.16779279  1
  Te  Te211  1  0.67026049  0.33560544  0.49710989  1
  Te  Te212  1  0.66599872  0.34013194  0.83426432  1
  Te  Te213  1  0.67110034  0.66542836  0.16446519  1
  Te  Te214  1  0.66929580  0.66612527  0.49942531  1
  Te  Te215  1  0.66871284  0.66265964  0.83438348  1
