# generated using pymatgen
data_AgSbTe2
_symmetry_space_group_name_H-M   'P 1'
_cell_length_a   18.34795535
_cell_length_b   18.34627162
_cell_length_c   18.34663823
_cell_angle_alpha   90.00006485
_cell_angle_beta   89.99969775
_cell_angle_gamma   90.00154102
_symmetry_Int_Tables_number   1
_chemical_formula_structural   AgSbTe2
_chemical_formula_sum   'Ag54 Sb54 Te108'
_cell_volume   6175.78247511
_cell_formula_units_Z   54
loop_
 _symmetry_equiv_pos_site_id
 _symmetry_equiv_pos_as_xyz
  1  'x, y, z'
loop_
 _atom_site_type_symbol
 _atom_site_label
 _atom_site_symmetry_multiplicity
 _atom_site_fract_x
 _atom_site_fract_y
 _atom_site_fract_z
 _atom_site_occupancy
  Ag  Ag0  1  0.16877659  0.67134807  0.83852829  1
  Ag  Ag1  1  0.16068408  0.15399115  0.01073418  1
  Ag  Ag2  1  0.66919091  0.15534828  0.49309203  1
  Ag  Ag3  1  0.33292429  0.33376972  0.32892291  1
  Ag  Ag4  1  0.32810052  0.83268709  0.16782946  1
  Ag  Ag5  1  0.83424869  0.15641992  0.32961999  1
  Ag  Ag6  1  0.50736219  0.51415780  0.65782949  1
  Ag  Ag7  1  -0.00281720  0.51189933  0.17005270  1
  Ag  Ag8  1  0.66484167  0.83646297  0.83319807  1
  Ag  Ag9  1  0.83213481  0.83487792  0.32730653  1
  Ag  Ag10  1  0.67538843  0.83547798  0.16336093  1
  Ag  Ag11  1  0.67126235  -0.00435664  0.67134613  1
  Ag  Ag12  1  0.33295353  0.66851226  0.33110628  1
  Ag  Ag13  1  0.15789521  0.67401843  0.16714165  1
  Ag  Ag14  1  0.82687683  -0.00403726  0.84598019  1
  Ag  Ag15  1  0.83137937  0.83314377  0.66444038  1
  Ag  Ag16  1  0.66952311  0.51052436  0.49608233  1
  Ag  Ag17  1  0.15913337  -0.00369729  0.16497167  1
  Ag  Ag18  1  0.33301680  -0.00121672  0.32942740  1
  Ag  Ag19  1  0.16873344  0.32440279  0.16612994  1
  Ag  Ag20  1  0.51054392  -0.00481150  0.16328072  1
  Ag  Ag21  1  0.50005138  0.33511834  0.83466727  1
  Ag  Ag22  1  0.33974401  0.16357835  0.49443239  1
  Ag  Ag23  1  0.15837399  0.66906470  0.49587903  1
  Ag  Ag24  1  0.15436746  0.83080442  0.67336189  1
  Ag  Ag25  1  0.83124902  -0.01388919  0.49683981  1
  Ag  Ag26  1  -0.01185654  -0.01151460  0.67124828  1
  Ag  Ag27  1  0.15842981  0.83492560  0.00682524  1
  Ag  Ag28  1  -0.00943939  -0.00616276  0.00460621  1
  Ag  Ag29  1  0.67560110  -0.00365644  0.00358821  1
  Ag  Ag30  1  0.33182881  0.50761414  0.17032896  1
  Ag  Ag31  1  0.49611293  0.67127058  0.82491511  1
  Ag  Ag32  1  0.51061927  0.83435830  0.00032973  1
  Ag  Ag33  1  -0.00657843  0.83341927  0.16119688  1
  Ag  Ag34  1  0.83402154  -0.01025164  0.16075537  1
  Ag  Ag35  1  0.83420478  0.83839056  0.01127995  1
  Ag  Ag36  1  0.83281035  0.66962591  0.49367027  1
  Ag  Ag37  1  -0.01341799  0.50713097  0.49178822  1
  Ag  Ag38  1  0.82914745  0.50795765  0.33434183  1
  Ag  Ag39  1  0.83887033  0.15401443  0.01400214  1
  Ag  Ag40  1  0.33331544  0.33151400  0.01088923  1
  Ag  Ag41  1  -0.00416792  0.15405823  0.16594229  1
  Ag  Ag42  1  0.84060470  0.67666223  0.17553231  1
  Ag  Ag43  1  -0.00095329  0.67031481  0.66648036  1
  Ag  Ag44  1  0.82838028  0.51386793  0.65237269  1
  Ag  Ag45  1  0.67032457  0.83310398  0.50298651  1
  Ag  Ag46  1  0.50692201  0.50431491  0.33350166  1
  Ag  Ag47  1  0.67803752  0.15318857  0.17039600  1
  Ag  Ag48  1  0.51069672  0.83186883  0.67475960  1
  Ag  Ag49  1  0.66997807  0.50436987  0.17355629  1
  Ag  Ag50  1  0.00109503  0.67602406  0.01043620  1
  Ag  Ag51  1  0.50866046  0.66654566  0.50378249  1
  Ag  Ag52  1  0.16541056  0.16339032  0.32861661  1
  Ag  Ag53  1  0.50777991  -0.00941157  0.84253222  1
  Sb  Sb54  1  0.32645967  0.16290184  0.17091716  1
  Sb  Sb55  1  0.00338338  0.33128167  0.00478415  1
  Sb  Sb56  1  0.66790832  -0.00145374  0.32890405  1
  Sb  Sb57  1  0.16333869  0.83498303  0.32797143  1
  Sb  Sb58  1  0.33414832  0.16578920  0.83282809  1
  Sb  Sb59  1  0.33564498  0.33559969  0.66400759  1
  Sb  Sb60  1  0.33258327  -0.00082357  0.00732464  1
  Sb  Sb61  1  0.49944905  0.15963882  0.00269959  1
  Sb  Sb62  1  0.16205914  -0.00522235  0.49519130  1
  Sb  Sb63  1  0.16468817  0.50892246  0.66385325  1
  Sb  Sb64  1  0.82806581  0.32786959  0.83327801  1
  Sb  Sb65  1  0.33592770  -0.00459425  0.66145301  1
  Sb  Sb66  1  0.83301909  0.50769528  0.00736084  1
  Sb  Sb67  1  0.50134284  0.16182937  0.66581925  1
  Sb  Sb68  1  0.49417296  0.33131101  0.16525174  1
  Sb  Sb69  1  0.66629105  0.33144113  0.66659610  1
  Sb  Sb70  1  0.50609022  -0.00510251  0.49755085  1
  Sb  Sb71  1  0.33660815  0.83430462  0.49345039  1
  Sb  Sb72  1  0.00202278  0.33437577  0.32943764  1
  Sb  Sb73  1  0.67047738  0.67642202  0.00254002  1
  Sb  Sb74  1  0.50441962  0.82982013  0.32997006  1
  Sb  Sb75  1  -0.00776244  0.82950541  0.50046399  1
  Sb  Sb76  1  0.50173218  0.50571623  0.00354801  1
  Sb  Sb77  1  -0.00057231  0.66714317  0.33235356  1
  Sb  Sb78  1  -0.00543815  0.16513511  0.49376673  1
  Sb  Sb79  1  0.49948855  0.16710719  0.33118615  1
  Sb  Sb80  1  0.50047842  0.33813387  0.50073576  1
  Sb  Sb81  1  0.83727595  0.33058400  0.16696694  1
  Sb  Sb82  1  0.83251426  0.15587068  0.66230076  1
  Sb  Sb83  1  0.83288765  0.33783013  0.49812871  1
  Sb  Sb84  1  -0.00321054  -0.00044280  0.32638675  1
  Sb  Sb85  1  -0.00079289  0.33887025  0.66528775  1
  Sb  Sb86  1  -0.00152009  0.50521803  0.83605739  1
  Sb  Sb87  1  0.16496646  -0.00756025  0.83966319  1
  Sb  Sb88  1  0.83357933  0.67360617  0.83191201  1
  Sb  Sb89  1  0.33661889  0.50177747  0.49266238  1
  Sb  Sb90  1  0.16607911  0.50555007  0.00577649  1
  Sb  Sb91  1  0.17118557  0.33798671  0.84166247  1
  Sb  Sb92  1  -0.00125970  0.16148160  0.84087956  1
  Sb  Sb93  1  0.16832747  0.33725935  0.49467789  1
  Sb  Sb94  1  0.66538186  0.33498299  0.33253172  1
  Sb  Sb95  1  0.66639949  0.15648252  0.83567722  1
  Sb  Sb96  1  0.67009402  0.67600123  0.66399023  1
  Sb  Sb97  1  -0.00762436  0.83299298  0.83777649  1
  Sb  Sb98  1  0.66516923  0.50764674  0.83094554  1
  Sb  Sb99  1  0.66757413  0.66720158  0.33351811  1
  Sb  Sb100  1  0.32940867  0.66807814  0.00658923  1
  Sb  Sb101  1  0.33883171  0.83293812  0.84032133  1
  Sb  Sb102  1  0.50197847  0.67188660  0.16753534  1
  Sb  Sb103  1  0.66315774  0.32557862  0.00224555  1
  Sb  Sb104  1  0.16485957  0.15609760  0.66372867  1
  Sb  Sb105  1  0.33315491  0.66927769  0.66090103  1
  Sb  Sb106  1  0.33589618  0.50167441  0.83849666  1
  Sb  Sb107  1  0.16549581  0.50059595  0.32913045  1
  Te  Te108  1  0.16681599  0.16252324  0.16758487  1
  Te  Te109  1  0.16395822  0.16514818  0.49462548  1
  Te  Te110  1  0.16724253  0.16732115  0.83565544  1
  Te  Te111  1  0.16582586  0.50880221  0.16578744  1
  Te  Te112  1  0.16641782  0.50645604  0.49955579  1
  Te  Te113  1  0.16805354  0.50778351  0.83302009  1
  Te  Te114  1  0.16743528  0.83456157  0.16759778  1
  Te  Te115  1  0.16738025  0.82840571  0.49978000  1
  Te  Te116  1  0.17204834  0.82937598  0.83253817  1
  Te  Te117  1  0.51034423  0.16077666  0.16616151  1
  Te  Te118  1  0.50371363  0.16624333  0.49978664  1
  Te  Te119  1  0.49950926  0.16788272  0.83335481  1
  Te  Te120  1  0.50104645  0.50012103  0.16986727  1
  Te  Te121  1  0.50373383  0.50412676  0.49845544  1
  Te  Te122  1  0.50127989  0.50668931  0.83256478  1
  Te  Te123  1  0.50143755  0.83608151  0.16537770  1
  Te  Te124  1  0.50475123  0.82774182  0.49903274  1
  Te  Te125  1  0.50092288  0.83324099  0.83443804  1
  Te  Te126  1  0.83540005  0.17148530  0.16926459  1
  Te  Te127  1  0.83037118  0.17021188  0.49357601  1
  Te  Te128  1  0.83293168  0.15907790  0.83299496  1
  Te  Te129  1  0.83337524  0.49737740  0.17151935  1
  Te  Te130  1  0.83062950  0.50129613  0.49750836  1
  Te  Te131  1  0.83083552  0.49781981  0.83344876  1
  Te  Te132  1  0.83343439  0.83333200  0.16690947  1
  Te  Te133  1  0.83246958  0.82883809  0.50340932  1
  Te  Te134  1  0.82610280  0.83744963  0.82491437  1
  Te  Te135  1  0.16592950  -0.00287605  0.00323304  1
  Te  Te136  1  0.16814236  0.00393501  0.32994653  1
  Te  Te137  1  0.16575203  -0.00894782  0.66838923  1
  Te  Te138  1  0.17120206  0.33259065  0.00467410  1
  Te  Te139  1  0.17055797  0.32867608  0.32928507  1
  Te  Te140  1  0.16728774  0.33205604  0.67021616  1
  Te  Te141  1  0.16321456  0.67162553  0.00346307  1
  Te  Te142  1  0.17104152  0.66722616  0.33183377  1
  Te  Te143  1  0.16542530  0.67139478  0.66263460  1
  Te  Te144  1  0.49785632  -0.00598704  0.00225106  1
  Te  Te145  1  0.49414411  0.00021684  0.32864103  1
  Te  Te146  1  0.50506749  -0.00673288  0.66501141  1
  Te  Te147  1  0.49624222  0.33480712  -0.00379187  1
  Te  Te148  1  0.49363997  0.34034371  0.33351958  1
  Te  Te149  1  0.49922858  0.33295777  0.67173864  1
  Te  Te150  1  0.49917515  0.67447172  -0.00345818  1
  Te  Te151  1  0.49537578  0.66257694  0.33580820  1
  Te  Te152  1  0.49872620  0.66952813  0.66481889  1
  Te  Te153  1  0.83381424  -0.00093247  0.00246681  1
  Te  Te154  1  0.83273099  -0.00178464  0.33663522  1
  Te  Te155  1  0.83214140  -0.00184850  0.65834493  1
  Te  Te156  1  0.83204063  0.32870734  -0.00291350  1
  Te  Te157  1  0.83302612  0.33295754  0.33299822  1
  Te  Te158  1  0.83419001  0.33701335  0.66864250  1
  Te  Te159  1  0.83996486  0.67394388  -0.00011698  1
  Te  Te160  1  0.83387700  0.66757667  0.33277955  1
  Te  Te161  1  0.83600731  0.66843313  0.66810037  1
  Te  Te162  1  0.00106871  0.16406655  0.00637371  1
  Te  Te163  1  -0.00049011  0.16785315  0.32821002  1
  Te  Te164  1  0.00118941  0.16779549  0.66633895  1
  Te  Te165  1  -0.00226293  0.50301147  0.00558356  1
  Te  Te166  1  -0.00425622  0.49972051  0.33231133  1
  Te  Te167  1  -0.00437933  0.50570497  0.66602173  1
  Te  Te168  1  -0.00144042  0.83454292  -0.00169367  1
  Te  Te169  1  -0.00714994  0.83388850  0.32639494  1
  Te  Te170  1  -0.00104245  0.83194103  0.66754701  1
  Te  Te171  1  0.33077484  0.17129343  -0.00161341  1
  Te  Te172  1  0.33334494  0.16579491  0.33584006  1
  Te  Te173  1  0.33187226  0.16613174  0.65776306  1
  Te  Te174  1  0.33414224  0.49492924  0.00699888  1
  Te  Te175  1  0.33171117  0.50017094  0.32954800  1
  Te  Te176  1  0.33981229  0.50094258  0.66651158  1
  Te  Te177  1  0.32898893  0.83269345  0.00844178  1
  Te  Te178  1  0.33424278  0.83425345  0.32773281  1
  Te  Te179  1  0.33535404  0.83328488  0.66443871  1
  Te  Te180  1  0.66953454  0.15899039  0.00464490  1
  Te  Te181  1  0.66974880  0.16877396  0.33188154  1
  Te  Te182  1  0.66677173  0.16125690  0.66188626  1
  Te  Te183  1  0.66773752  0.49755958  0.00280587  1
  Te  Te184  1  0.66682809  0.49974839  0.33520287  1
  Te  Te185  1  0.66649834  0.49760678  0.66339242  1
  Te  Te186  1  0.66999835  0.83617047  0.00370023  1
  Te  Te187  1  0.67194920  0.83270652  0.33364598  1
  Te  Te188  1  0.66792619  0.83565434  0.66464478  1
  Te  Te189  1  -0.00407401  -0.00408951  0.16551734  1
  Te  Te190  1  -0.00680968  -0.00009548  0.50644159  1
  Te  Te191  1  -0.00224856  -0.00008182  0.83070038  1
  Te  Te192  1  0.00953394  0.33855830  0.16577561  1
  Te  Te193  1  0.00231701  0.34386674  0.49975561  1
  Te  Te194  1  0.00064378  0.33440789  0.83439488  1
  Te  Te195  1  -0.00298993  0.66923240  0.16769637  1
  Te  Te196  1  -0.00190592  0.66481756  0.50153537  1
  Te  Te197  1  0.00503438  0.66631427  0.82812269  1
  Te  Te198  1  0.33031968  -0.00182054  0.17001593  1
  Te  Te199  1  0.33123134  0.00369280  0.49354631  1
  Te  Te200  1  0.34184701  0.00057940  0.82999450  1
  Te  Te201  1  0.32997174  0.33105975  0.16858182  1
  Te  Te202  1  0.33274929  0.32692444  0.49429571  1
  Te  Te203  1  0.33920823  0.33436783  0.83430662  1
  Te  Te204  1  0.33549088  0.66673627  0.17077183  1
  Te  Te205  1  0.33264202  0.66668295  0.49211460  1
  Te  Te206  1  0.33166804  0.66672073  0.83419579  1
  Te  Te207  1  0.67111501  -0.00298254  0.16532753  1
  Te  Te208  1  0.67006684  -0.00320245  0.49867767  1
  Te  Te209  1  0.66581291  -0.00295483  0.83330110  1
  Te  Te210  1  0.66374061  0.34266623  0.16574628  1
  Te  Te211  1  0.66568084  0.32965803  0.50018884  1
  Te  Te212  1  0.65974512  0.33226637  0.83445545  1
  Te  Te213  1  0.67282130  0.66528758  0.16603718  1
  Te  Te214  1  0.66908729  0.66885887  0.49964282  1
  Te  Te215  1  0.66072718  0.67421376  0.83520995  1
