# generated using pymatgen
data_AgSbTe2
_symmetry_space_group_name_H-M   'P 1'
_cell_length_a   18.31716118
_cell_length_b   18.32979395
_cell_length_c   18.32221231
_cell_angle_alpha   89.99985320
_cell_angle_beta   90.00309110
_cell_angle_gamma   89.99998351
_symmetry_Int_Tables_number   1
_chemical_formula_structural   AgSbTe2
_chemical_formula_sum   'Ag54 Sb54 Te108'
_cell_volume   6151.67893144
_cell_formula_units_Z   54
loop_
 _symmetry_equiv_pos_site_id
 _symmetry_equiv_pos_as_xyz
  1  'x, y, z'
loop_
 _atom_site_type_symbol
 _atom_site_label
 _atom_site_symmetry_multiplicity
 _atom_site_fract_x
 _atom_site_fract_y
 _atom_site_fract_z
 _atom_site_occupancy
  Ag  Ag0  1  0.83800037  0.32995640  0.49774909  1
  Ag  Ag1  1  0.84191700  0.83559463  0.00456245  1
  Ag  Ag2  1  0.49193299  0.83584373  0.66916712  1
  Ag  Ag3  1  0.32386976  0.50782392  0.82398169  1
  Ag  Ag4  1  0.84017102  0.50294483  0.33452399  1
  Ag  Ag5  1  0.49968308  0.33108166  0.50198468  1
  Ag  Ag6  1  0.49752415  0.83581442  -0.00991665  1
  Ag  Ag7  1  0.16725370  0.50720433  0.66615377  1
  Ag  Ag8  1  0.16508383  0.83783160  -0.00941633  1
  Ag  Ag9  1  0.00102954  0.49463817  0.16707059  1
  Ag  Ag10  1  0.50499927  -0.00223876  0.50649098  1
  Ag  Ag11  1  0.67650630  0.67352003  0.33485252  1
  Ag  Ag12  1  0.67599397  0.16233952  0.16573412  1
  Ag  Ag13  1  0.67270122  -0.00131593  0.33707514  1
  Ag  Ag14  1  -0.00078788  0.16647875  0.83567025  1
  Ag  Ag15  1  0.15564786  0.16688899  0.33026988  1
  Ag  Ag16  1  0.32999788  0.34129306  0.66305375  1
  Ag  Ag17  1  0.66366076  0.32687795  0.66498399  1
  Ag  Ag18  1  0.33296334  0.50012188  0.50648849  1
  Ag  Ag19  1  0.65807985  0.84025746  0.83255467  1
  Ag  Ag20  1  0.15983967  0.49863459  0.33621979  1
  Ag  Ag21  1  0.17152640  0.82828906  0.67134495  1
  Ag  Ag22  1  0.50599010  0.00202660  0.16497431  1
  Ag  Ag23  1  0.50024738  -0.00587184  0.83166646  1
  Ag  Ag24  1  0.83396703  0.83595932  0.33415322  1
  Ag  Ag25  1  0.83324704  0.67068165  0.49451960  1
  Ag  Ag26  1  0.16034178  0.15648943  0.00300716  1
  Ag  Ag27  1  -0.00096943  0.16677470  0.17104200  1
  Ag  Ag28  1  0.00080466  0.32451307  0.00419198  1
  Ag  Ag29  1  0.83397924  -0.00147174  0.49384003  1
  Ag  Ag30  1  0.00877430  0.67006181  0.66610995  1
  Ag  Ag31  1  0.33127503  0.83129354  0.82705934  1
  Ag  Ag32  1  0.49772123  0.50339606  -0.00049017  1
  Ag  Ag33  1  0.16526202  -0.00607665  0.83737592  1
  Ag  Ag34  1  0.83567833  -0.00160096  0.17367751  1
  Ag  Ag35  1  -0.00068067  0.16498022  0.49523467  1
  Ag  Ag36  1  -0.00129309  0.83952356  0.50394343  1
  Ag  Ag37  1  -0.00247049  0.32988115  0.33562632  1
  Ag  Ag38  1  0.50229485  0.32598721  0.16977391  1
  Ag  Ag39  1  0.32975124  0.16557137  0.50110989  1
  Ag  Ag40  1  0.00213654  0.33064417  0.66361337  1
  Ag  Ag41  1  0.49940674  0.67410096  0.50144186  1
  Ag  Ag42  1  0.16683262  0.67409533  0.82595869  1
  Ag  Ag43  1  0.32540514  0.66748454  0.66563482  1
  Ag  Ag44  1  0.00350563  0.00453224  -0.00293074  1
  Ag  Ag45  1  -0.00096886  0.00032727  0.66763690  1
  Ag  Ag46  1  0.15378417  0.00032142  0.16058914  1
  Ag  Ag47  1  0.67285237  0.15812619  0.83377950  1
  Ag  Ag48  1  0.00571676  0.49423895  0.83213757  1
  Ag  Ag49  1  0.83748223  0.16025353  0.33382859  1
  Ag  Ag50  1  0.33260170  0.83269346  0.50794953  1
  Ag  Ag51  1  0.83938903  0.67451254  0.17668947  1
  Ag  Ag52  1  0.66758919  0.00159066  0.66583699  1
  Ag  Ag53  1  0.15914487  0.67069920  0.16470737  1
  Sb  Sb54  1  0.00513691  0.83751868  0.82840015  1
  Sb  Sb55  1  0.50311542  0.16563292  0.33446763  1
  Sb  Sb56  1  0.33220024  -0.00503751  0.66523223  1
  Sb  Sb57  1  0.50137027  0.66933071  0.17054994  1
  Sb  Sb58  1  0.16677522  0.50262293  -0.00269558  1
  Sb  Sb59  1  0.83506681  -0.00080928  0.83280343  1
  Sb  Sb60  1  0.33059371  0.83461330  0.16593239  1
  Sb  Sb61  1  0.50038445  0.16109200  0.66481297  1
  Sb  Sb62  1  0.49968164  0.49918342  0.33283179  1
  Sb  Sb63  1  0.49169050  0.50282267  0.66856268  1
  Sb  Sb64  1  0.49951748  0.33033643  0.83018707  1
  Sb  Sb65  1  0.16540085  0.33057200  0.16721912  1
  Sb  Sb66  1  0.49434670  0.67356216  0.82729908  1
  Sb  Sb67  1  0.16496329  0.66695468  0.50320970  1
  Sb  Sb68  1  0.32651168  -0.00092731  -0.00124904  1
  Sb  Sb69  1  0.66736535  0.67019287  0.00401814  1
  Sb  Sb70  1  0.66646036  0.50018305  0.83187624  1
  Sb  Sb71  1  -0.00504682  0.66148592  0.33759173  1
  Sb  Sb72  1  0.33359699  0.66641402  0.34220319  1
  Sb  Sb73  1  0.84209634  0.16047906  0.00646120  1
  Sb  Sb74  1  0.33183335  0.66757169  -0.00691574  1
  Sb  Sb75  1  0.16171537  -0.00000670  0.50045998  1
  Sb  Sb76  1  0.83719971  0.33170300  0.82617780  1
  Sb  Sb77  1  0.00217146  0.67039625  -0.00304746  1
  Sb  Sb78  1  0.16462318  0.33260393  0.50141139  1
  Sb  Sb79  1  -0.00194839  0.83651464  0.16944345  1
  Sb  Sb80  1  0.16312692  0.16384542  0.66655277  1
  Sb  Sb81  1  0.15995182  0.83350636  0.33494533  1
  Sb  Sb82  1  0.33625335  0.00027085  0.33683685  1
  Sb  Sb83  1  0.83590541  0.16553802  0.66038453  1
  Sb  Sb84  1  0.32860934  0.16562717  0.17239456  1
  Sb  Sb85  1  0.50570459  0.83513926  0.33730779  1
  Sb  Sb86  1  0.84236002  0.49950067  0.66037317  1
  Sb  Sb87  1  0.66824584  0.83620286  0.50430285  1
  Sb  Sb88  1  0.49643186  0.16222434  0.00070271  1
  Sb  Sb89  1  0.67171354  0.49624747  0.16869487  1
  Sb  Sb90  1  0.66943557  0.83971833  0.16409139  1
  Sb  Sb91  1  0.32957844  0.33433090  -0.00486407  1
  Sb  Sb92  1  0.66646449  0.67004952  0.66254547  1
  Sb  Sb93  1  0.00322862  0.49730730  0.50007663  1
  Sb  Sb94  1  0.67143926  0.33029169  -0.00267569  1
  Sb  Sb95  1  0.32777205  0.49955676  0.16767921  1
  Sb  Sb96  1  0.83503969  0.32934687  0.17264829  1
  Sb  Sb97  1  -0.00685856  0.00750499  0.33454545  1
  Sb  Sb98  1  0.67116463  0.16419975  0.50010737  1
  Sb  Sb99  1  0.66459559  0.49942170  0.50055209  1
  Sb  Sb100  1  0.83976591  0.66981733  0.83114851  1
  Sb  Sb101  1  0.83521802  0.50471164  0.00595215  1
  Sb  Sb102  1  0.32932394  0.16404699  0.82659271  1
  Sb  Sb103  1  0.16360725  0.33362048  0.83144319  1
  Sb  Sb104  1  0.67246009  0.32966556  0.33763103  1
  Sb  Sb105  1  0.32853343  0.33264065  0.34054589  1
  Sb  Sb106  1  0.83574649  0.83497653  0.66455689  1
  Sb  Sb107  1  0.67133682  -0.00085800  -0.00112291  1
  Te  Te108  1  0.16327837  0.16318990  0.16811135  1
  Te  Te109  1  0.16360942  0.16544922  0.49577659  1
  Te  Te110  1  0.16288159  0.16013725  0.83556430  1
  Te  Te111  1  0.16147273  0.50214748  0.16763486  1
  Te  Te112  1  0.17162441  0.50061453  0.49932321  1
  Te  Te113  1  0.16552186  0.50166343  0.83194010  1
  Te  Te114  1  0.16595483  0.83618697  0.16642118  1
  Te  Te115  1  0.16580019  0.83363423  0.50318810  1
  Te  Te116  1  0.16645271  0.83371275  0.83201676  1
  Te  Te117  1  0.49785810  0.16462302  0.16712445  1
  Te  Te118  1  0.49752292  0.16530150  0.49915153  1
  Te  Te119  1  0.50067338  0.15885782  0.83372313  1
  Te  Te120  1  0.49935541  0.50025737  0.16331057  1
  Te  Te121  1  0.49443124  0.49714955  0.49970129  1
  Te  Te122  1  0.49821100  0.50037808  0.83819001  1
  Te  Te123  1  0.49921979  0.83769720  0.16462712  1
  Te  Te124  1  0.49996266  0.83569894  0.50202915  1
  Te  Te125  1  0.49710495  0.83439056  0.83127704  1
  Te  Te126  1  0.83621364  0.16360575  0.17125514  1
  Te  Te127  1  0.83661284  0.16532162  0.49459480  1
  Te  Te128  1  0.83478584  0.16617677  0.83579234  1
  Te  Te129  1  0.83934402  0.50150549  0.17181994  1
  Te  Te130  1  0.83290301  0.50114355  0.49410016  1
  Te  Te131  1  0.83997430  0.50147855  0.83529682  1
  Te  Te132  1  0.83329399  0.83453784  0.16733100  1
  Te  Te133  1  0.83452833  0.83498184  0.49849703  1
  Te  Te134  1  0.82944641  0.83269363  0.83860373  1
  Te  Te135  1  0.16412966  -0.00207062  0.00048017  1
  Te  Te136  1  0.16782946  0.00276137  0.32681267  1
  Te  Te137  1  0.16208922  -0.00422184  0.66876156  1
  Te  Te138  1  0.16068163  0.33110915  -0.00030439  1
  Te  Te139  1  0.16076994  0.33422358  0.33264729  1
  Te  Te140  1  0.16521514  0.33782649  0.66703730  1
  Te  Te141  1  0.16665527  0.67189538  0.00345477  1
  Te  Te142  1  0.16628283  0.66417663  0.32698683  1
  Te  Te143  1  0.16565942  0.66716600  0.66625815  1
  Te  Te144  1  0.49966635  -0.00349497  -0.00175690  1
  Te  Te145  1  0.50770905  0.00016048  0.33165473  1
  Te  Te146  1  0.50039623  -0.00362509  0.66715523  1
  Te  Te147  1  0.50016980  0.33289210  0.00190177  1
  Te  Te148  1  0.50143804  0.33368286  0.33499135  1
  Te  Te149  1  0.50065585  0.33360331  0.66285961  1
  Te  Te150  1  0.49961807  0.66978354  0.00120008  1
  Te  Te151  1  0.50603296  0.66644816  0.33996382  1
  Te  Te152  1  0.49951932  0.67149696  0.66037835  1
  Te  Te153  1  0.83914990  -0.00556482  0.00441567  1
  Te  Te154  1  0.83173529  -0.00072757  0.33368253  1
  Te  Te155  1  0.83358992  -0.00044022  0.66106878  1
  Te  Te156  1  0.84054252  0.33524725  0.00024168  1
  Te  Te157  1  0.83650786  0.33503001  0.33780302  1
  Te  Te158  1  0.83632309  0.33349987  0.65832735  1
  Te  Te159  1  0.83389008  0.67405632  0.00488352  1
  Te  Te160  1  0.83395259  0.66779808  0.33421994  1
  Te  Te161  1  0.83602033  0.66676769  0.66016918  1
  Te  Te162  1  0.00164044  0.16538455  -0.00133553  1
  Te  Te163  1  -0.00148542  0.16872606  0.33370775  1
  Te  Te164  1  0.00055773  0.16669957  0.66744512  1
  Te  Te165  1  0.00008556  0.49695774  0.00008482  1
  Te  Te166  1  0.00068029  0.49593965  0.33295847  1
  Te  Te167  1  0.00531534  0.49746077  0.66826551  1
  Te  Te168  1  0.00196190  0.83806531  -0.00046866  1
  Te  Te169  1  -0.00512191  0.83179611  0.34179283  1
  Te  Te170  1  0.00145638  0.83508996  0.66386087  1
  Te  Te171  1  0.32266110  0.16898050  -0.00097118  1
  Te  Te172  1  0.32647029  0.16734345  0.34119650  1
  Te  Te173  1  0.33098741  0.17432938  0.66064978  1
  Te  Te174  1  0.33757145  0.49949813  -0.00401605  1
  Te  Te175  1  0.32729096  0.49979331  0.33772253  1
  Te  Te176  1  0.33062072  0.50163196  0.66713441  1
  Te  Te177  1  0.33205618  0.83311533  -0.00377053  1
  Te  Te178  1  0.33214751  0.83237886  0.34144300  1
  Te  Te179  1  0.33251442  0.83311456  0.66589801  1
  Te  Te180  1  0.66602135  0.16701565  -0.00016240  1
  Te  Te181  1  0.67139227  0.16248505  0.32845742  1
  Te  Te182  1  0.66740930  0.16400527  0.67103830  1
  Te  Te183  1  0.65991715  0.49955960  -0.00045025  1
  Te  Te184  1  0.67201360  0.50183502  0.33272491  1
  Te  Te185  1  0.66833231  0.49433938  0.66908813  1
  Te  Te186  1  0.66013859  0.83346805  -0.00582616  1
  Te  Te187  1  0.67280407  0.83606287  0.33205126  1
  Te  Te188  1  0.66441715  0.83671552  0.67210062  1
  Te  Te189  1  -0.00280600  0.00188027  0.16560040  1
  Te  Te190  1  -0.00284097  0.00233180  0.50319065  1
  Te  Te191  1  0.00130161  0.00296555  0.83040159  1
  Te  Te192  1  0.00020844  0.33076330  0.16738202  1
  Te  Te193  1  -0.00211591  0.33090231  0.50075333  1
  Te  Te194  1  -0.00018304  0.33126774  0.82806031  1
  Te  Te195  1  -0.00065383  0.66708292  0.16560336  1
  Te  Te196  1  -0.00331015  0.66735369  0.50562259  1
  Te  Te197  1  0.00517307  0.66274605  0.82839196  1
  Te  Te198  1  0.34268459  0.00003037  0.16796855  1
  Te  Te199  1  0.33862954  -0.00004039  0.50052649  1
  Te  Te200  1  0.33340560  -0.00362387  0.83219152  1
  Te  Te201  1  0.34248537  0.33335461  0.16651267  1
  Te  Te202  1  0.33581959  0.33341066  0.50338767  1
  Te  Te203  1  0.33356065  0.33626011  0.82647110  1
  Te  Te204  1  0.32876582  0.66630258  0.16814996  1
  Te  Te205  1  0.33480951  0.66886502  0.50534608  1
  Te  Te206  1  0.32852695  0.66791026  0.82736120  1
  Te  Te207  1  0.66818870  0.00412469  0.16585978  1
  Te  Te208  1  0.66613795  0.00178105  0.50235314  1
  Te  Te209  1  0.66778050  0.00060555  0.83105431  1
  Te  Te210  1  0.66202216  0.32728242  0.16632461  1
  Te  Te211  1  0.66371398  0.33120421  0.50504446  1
  Te  Te212  1  0.66766860  0.32846712  0.82650283  1
  Te  Te213  1  0.67099946  0.66602084  0.17367362  1
  Te  Te214  1  0.66781688  0.66696796  0.49560933  1
  Te  Te215  1  0.66871783  0.67090037  0.83286118  1
