# generated using pymatgen
data_AgSbTe2
_symmetry_space_group_name_H-M   'P 1'
_cell_length_a   18.33315599
_cell_length_b   18.33782427
_cell_length_c   18.33938873
_cell_angle_alpha   90.00051176
_cell_angle_beta   89.99927430
_cell_angle_gamma   90.00024699
_symmetry_Int_Tables_number   1
_chemical_formula_structural   AgSbTe2
_chemical_formula_sum   'Ag54 Sb54 Te108'
_cell_volume   6165.52263053
_cell_formula_units_Z   54
loop_
 _symmetry_equiv_pos_site_id
 _symmetry_equiv_pos_as_xyz
  1  'x, y, z'
loop_
 _atom_site_type_symbol
 _atom_site_label
 _atom_site_symmetry_multiplicity
 _atom_site_fract_x
 _atom_site_fract_y
 _atom_site_fract_z
 _atom_site_occupancy
  Ag  Ag0  1  0.33671226  0.16490159  0.16408826  1
  Ag  Ag1  1  0.50506046  0.00761051  0.15828558  1
  Ag  Ag2  1  0.49863486  0.16751358  0.32328618  1
  Ag  Ag3  1  0.82713115  0.82084158  0.32959464  1
  Ag  Ag4  1  0.17003797  0.15664512  0.66858797  1
  Ag  Ag5  1  0.66319671  0.15899369  0.84879270  1
  Ag  Ag6  1  0.66506641  0.66687765  0.00784872  1
  Ag  Ag7  1  0.83436886  0.50272538  0.66267200  1
  Ag  Ag8  1  0.66075563  0.83340607  0.83446524  1
  Ag  Ag9  1  0.33674109  -0.00093883  -0.00327070  1
  Ag  Ag10  1  0.65645898  0.00947349  0.00518834  1
  Ag  Ag11  1  0.16404478  0.50018660  0.66500553  1
  Ag  Ag12  1  0.16585972  0.67201455  0.83873582  1
  Ag  Ag13  1  0.33219808  0.67383316  0.00401673  1
  Ag  Ag14  1  0.66662692  0.50736900  0.84013153  1
  Ag  Ag15  1  0.49700563  -0.00002451  0.84040807  1
  Ag  Ag16  1  0.82868390  0.66566578  0.84190065  1
  Ag  Ag17  1  0.00593683  0.32998258  0.66518168  1
  Ag  Ag18  1  0.17348119  0.17137722  0.32544311  1
  Ag  Ag19  1  0.16991997  0.33557347  0.49826684  1
  Ag  Ag20  1  0.83054859  0.33030001  0.16536906  1
  Ag  Ag21  1  0.82068881  0.16487519  0.00467563  1
  Ag  Ag22  1  0.32594390  -0.00105616  0.67733822  1
  Ag  Ag23  1  0.16949263  0.49888110  0.33470615  1
  Ag  Ag24  1  0.01369628  0.00482387  0.66783790  1
  Ag  Ag25  1  0.66776100  0.50746583  0.16688261  1
  Ag  Ag26  1  0.49454377  0.15914462  0.66908379  1
  Ag  Ag27  1  0.17649920  -0.00678645  0.82718171  1
  Ag  Ag28  1  0.34473882  0.66605022  0.32816532  1
  Ag  Ag29  1  0.00614046  0.66504147  0.00018621  1
  Ag  Ag30  1  0.16811507  0.00656456  0.51249802  1
  Ag  Ag31  1  0.66490418  0.16180533  0.16347173  1
  Ag  Ag32  1  0.82510782  0.66424088  0.16779987  1
  Ag  Ag33  1  0.17074874  0.84415995  0.67426725  1
  Ag  Ag34  1  0.82572441  0.66253499  0.48938696  1
  Ag  Ag35  1  0.82337094  0.00854779  0.16518987  1
  Ag  Ag36  1  0.33299140  0.83744157  0.83348790  1
  Ag  Ag37  1  0.50525025  0.66148725  0.49120630  1
  Ag  Ag38  1  0.16937055  0.50803264  -0.00033027  1
  Ag  Ag39  1  0.49854288  0.33663411  0.49812269  1
  Ag  Ag40  1  0.50771748  0.16184468  0.00639915  1
  Ag  Ag41  1  0.50584307  0.66867419  0.16982171  1
  Ag  Ag42  1  0.16937675  0.16476469  0.00338564  1
  Ag  Ag43  1  0.66459314  0.66554609  0.32601243  1
  Ag  Ag44  1  0.00182867  0.16723371  0.16424975  1
  Ag  Ag45  1  0.16781499  0.66213697  0.50368048  1
  Ag  Ag46  1  0.66547072  0.50296414  0.48622321  1
  Ag  Ag47  1  0.66685726  0.32105628  0.00375520  1
  Ag  Ag48  1  0.66468277  -0.00309278  0.32253826  1
  Ag  Ag49  1  0.17067276  0.82902056  -0.00757748  1
  Ag  Ag50  1  0.82086461  0.50501682  0.33160885  1
  Ag  Ag51  1  0.16244511  0.32923308  0.16816581  1
  Ag  Ag52  1  0.49198565  0.83994120  0.67007541  1
  Ag  Ag53  1  0.50615043  0.50597695  0.33388507  1
  Sb  Sb54  1  0.33683723  0.15867216  0.83852231  1
  Sb  Sb55  1  0.32886689  0.32558721  0.66598164  1
  Sb  Sb56  1  0.66535435  0.82748710  0.50342765  1
  Sb  Sb57  1  0.00301597  0.33267996  0.33470493  1
  Sb  Sb58  1  -0.00189838  0.00306475  0.33339005  1
  Sb  Sb59  1  0.33327642  0.33698342  0.33186668  1
  Sb  Sb60  1  0.50302343  0.32534644  0.83028020  1
  Sb  Sb61  1  0.66585617  0.83368194  0.16016809  1
  Sb  Sb62  1  -0.00161285  0.83654383  0.16484201  1
  Sb  Sb63  1  0.50372934  0.33028307  0.16996602  1
  Sb  Sb64  1  -0.00107371  0.16518379  0.83822924  1
  Sb  Sb65  1  0.33341421  0.83258593  0.50535727  1
  Sb  Sb66  1  0.83045472  0.50114999  0.00244956  1
  Sb  Sb67  1  0.00491489  0.16740598  0.49742340  1
  Sb  Sb68  1  0.16509090  0.83110587  0.33437292  1
  Sb  Sb69  1  0.50054165  0.49968880  0.66129350  1
  Sb  Sb70  1  -0.00049353  0.50069366  0.50065696  1
  Sb  Sb71  1  0.49798514  0.83954427  -0.00459610  1
  Sb  Sb72  1  0.33595874  0.49797845  0.16789416  1
  Sb  Sb73  1  0.50537149  0.82989914  0.33618746  1
  Sb  Sb74  1  0.66345448  0.17219411  0.49424300  1
  Sb  Sb75  1  0.83312805  0.83236566  0.00299158  1
  Sb  Sb76  1  0.00321452  -0.00130957  -0.00245611  1
  Sb  Sb77  1  0.33393229  0.50264133  0.49920832  1
  Sb  Sb78  1  -0.00417478  0.66517604  0.32801532  1
  Sb  Sb79  1  0.83244757  0.34005838  0.49586621  1
  Sb  Sb80  1  0.00210086  0.83177163  0.50125164  1
  Sb  Sb81  1  -0.00436896  0.49707997  0.16614854  1
  Sb  Sb82  1  0.33169504  0.16529287  0.49500057  1
  Sb  Sb83  1  0.33384889  0.83620830  0.16039078  1
  Sb  Sb84  1  0.16660750  0.33289841  0.83372597  1
  Sb  Sb85  1  0.33019565  0.67192334  0.66682030  1
  Sb  Sb86  1  0.00429141  0.83305023  0.83378024  1
  Sb  Sb87  1  0.83481349  0.17066498  0.67309096  1
  Sb  Sb88  1  0.83588154  -0.00447757  0.49468359  1
  Sb  Sb89  1  0.16731623  0.66075898  0.16327308  1
  Sb  Sb90  1  -0.00130250  0.33513014  -0.00098113  1
  Sb  Sb91  1  0.50059488  0.49918562  0.00452851  1
  Sb  Sb92  1  0.50152336  0.67293182  0.83595586  1
  Sb  Sb93  1  0.49720776  0.00060732  0.50071468  1
  Sb  Sb94  1  0.16866444  0.00832420  0.16313932  1
  Sb  Sb95  1  0.33568503  0.32816532  0.00283316  1
  Sb  Sb96  1  0.82956284  -0.00456554  0.83842896  1
  Sb  Sb97  1  0.66377081  0.00093141  0.67009606  1
  Sb  Sb98  1  -0.00226785  0.50219532  0.83381172  1
  Sb  Sb99  1  0.33558230  0.51015193  0.83527347  1
  Sb  Sb100  1  0.33759383  -0.00320082  0.32995732  1
  Sb  Sb101  1  0.83517434  0.82740982  0.66620972  1
  Sb  Sb102  1  0.00387985  0.66714183  0.67061451  1
  Sb  Sb103  1  0.66535249  0.33817676  0.32565529  1
  Sb  Sb104  1  0.82909320  0.17033332  0.32403689  1
  Sb  Sb105  1  0.82998250  0.33791527  0.83815420  1
  Sb  Sb106  1  0.66657098  0.66485293  0.66665186  1
  Sb  Sb107  1  0.66820844  0.33472365  0.66946545  1
  Te  Te108  1  0.16795365  0.16783212  0.16815323  1
  Te  Te109  1  0.16704084  0.16855210  0.50448730  1
  Te  Te110  1  0.16687231  0.16501404  0.83051191  1
  Te  Te111  1  0.16638563  0.49386017  0.16731356  1
  Te  Te112  1  0.16717770  0.49937306  0.49943961  1
  Te  Te113  1  0.16733010  0.50400199  0.83531109  1
  Te  Te114  1  0.16558589  0.83494625  0.16382737  1
  Te  Te115  1  0.16729681  0.82772069  0.50239786  1
  Te  Te116  1  0.16706601  0.83274306  0.83349124  1
  Te  Te117  1  0.50215506  0.16809537  0.16616870  1
  Te  Te118  1  0.49860266  0.16960225  0.50277011  1
  Te  Te119  1  0.50288967  0.16123805  0.83063681  1
  Te  Te120  1  0.50351278  0.50010041  0.17218990  1
  Te  Te121  1  0.50274548  0.50138981  0.49687331  1
  Te  Te122  1  0.50512733  0.49981329  0.83174177  1
  Te  Te123  1  0.49845516  0.83011709  0.16815181  1
  Te  Te124  1  0.50023298  0.82752411  0.50835563  1
  Te  Te125  1  0.49914740  0.83788095  0.82962328  1
  Te  Te126  1  0.82789552  0.16775355  0.16481466  1
  Te  Te127  1  0.83405698  0.16857577  0.49993900  1
  Te  Te128  1  0.82701907  0.16591555  0.84090885  1
  Te  Te129  1  0.83020454  0.50196656  0.16838679  1
  Te  Te130  1  0.82961568  0.50301563  0.49872398  1
  Te  Te131  1  0.82883629  0.50532917  0.83257055  1
  Te  Te132  1  0.83322660  0.82833010  0.16984594  1
  Te  Te133  1  0.83333160  0.82584858  0.49672474  1
  Te  Te134  1  0.82868743  0.82663287  0.83278696  1
  Te  Te135  1  0.16817950  0.00213532  -0.00156603  1
  Te  Te136  1  0.16744916  0.00112107  0.33539874  1
  Te  Te137  1  0.16971462  -0.00046240  0.66801223  1
  Te  Te138  1  0.16675376  0.32919939  0.00197686  1
  Te  Te139  1  0.16813148  0.33129317  0.33539117  1
  Te  Te140  1  0.16554007  0.33894872  0.66542087  1
  Te  Te141  1  0.17007383  0.66705501  0.00086960  1
  Te  Te142  1  0.16379939  0.66621847  0.33378118  1
  Te  Te143  1  0.16684904  0.66035768  0.66613685  1
  Te  Te144  1  0.49951471  0.00159087  0.00024516  1
  Te  Te145  1  0.50373914  0.00154719  0.33263310  1
  Te  Te146  1  0.49896966  -0.00014478  0.66578094  1
  Te  Te147  1  0.50425456  0.32726280  -0.00075038  1
  Te  Te148  1  0.49887463  0.33172912  0.33761050  1
  Te  Te149  1  0.49842983  0.32966286  0.65984744  1
  Te  Te150  1  0.49936868  0.66565294  0.00343133  1
  Te  Te151  1  0.50275672  0.66708822  0.33258738  1
  Te  Te152  1  0.49721115  0.66886876  0.66367472  1
  Te  Te153  1  0.83405352  0.00119761  0.00416017  1
  Te  Te154  1  0.82865548  0.00216714  0.32898583  1
  Te  Te155  1  0.83600624  -0.00096719  0.66535652  1
  Te  Te156  1  0.83126474  0.33094215  0.00521594  1
  Te  Te157  1  0.83494296  0.34066115  0.32754275  1
  Te  Te158  1  0.83806201  0.33935303  0.66566538  1
  Te  Te159  1  0.82862997  0.66634454  0.00098267  1
  Te  Te160  1  0.83272386  0.66235309  0.33198223  1
  Te  Te161  1  0.83676243  0.66205732  0.66597051  1
  Te  Te162  1  0.00786682  0.16750181  0.00413630  1
  Te  Te163  1  0.00691866  0.16686278  0.32591695  1
  Te  Te164  1  0.00250659  0.16676442  0.66831652  1
  Te  Te165  1  0.00857655  0.50299110  0.00023829  1
  Te  Te166  1  0.01095533  0.49901123  0.33302507  1
  Te  Te167  1  -0.00003316  0.49820006  0.66749473  1
  Te  Te168  1  0.00771188  0.82771424  0.00016841  1
  Te  Te169  1  -0.01010409  0.83504545  0.33277029  1
  Te  Te170  1  0.00673979  0.83974622  0.66733490  1
  Te  Te171  1  0.32981868  0.16317200  0.00326515  1
  Te  Te172  1  0.33514939  0.16452887  0.32705170  1
  Te  Te173  1  0.33273506  0.16011918  0.66750960  1
  Te  Te174  1  0.32963229  0.50320446  0.00049528  1
  Te  Te175  1  0.33002858  0.50711836  0.33256762  1
  Te  Te176  1  0.32748917  0.49897570  0.66837779  1
  Te  Te177  1  0.33101484  0.83493987  -0.00460630  1
  Te  Te178  1  0.33295332  0.82537821  0.33263868  1
  Te  Te179  1  0.33145024  0.83730754  0.67137764  1
  Te  Te180  1  0.66463545  0.16495949  0.00342631  1
  Te  Te181  1  0.66167654  0.16532720  0.32785899  1
  Te  Te182  1  0.66418319  0.16818351  0.66573016  1
  Te  Te183  1  0.66568196  0.50769301  0.00250696  1
  Te  Te184  1  0.66458581  0.50166052  0.32927752  1
  Te  Te185  1  0.66950754  0.49826933  0.67337149  1
  Te  Te186  1  0.66655746  0.82558627  -0.00756857  1
  Te  Te187  1  0.66991047  0.83147106  0.33665750  1
  Te  Te188  1  0.66580770  0.83406081  0.67353865  1
  Te  Te189  1  -0.00681989  0.00560469  0.16557726  1
  Te  Te190  1  0.00554409  0.00015019  0.50473482  1
  Te  Te191  1  0.00124540  0.00055682  0.82863812  1
  Te  Te192  1  -0.00064270  0.32833929  0.16565823  1
  Te  Te193  1  0.00499447  0.33316836  0.50542749  1
  Te  Te194  1  -0.00207557  0.33282654  0.82521293  1
  Te  Te195  1  -0.00460499  0.66665693  0.15986365  1
  Te  Te196  1  0.00454965  0.66659087  0.49995058  1
  Te  Te197  1  0.00154565  0.66693415  0.83953000  1
  Te  Te198  1  0.33995862  0.00322546  0.16277793  1
  Te  Te199  1  0.32726699  -0.00117194  0.50049658  1
  Te  Te200  1  0.33467256  -0.00236334  0.83571064  1
  Te  Te201  1  0.32520606  0.32653180  0.16655165  1
  Te  Te202  1  0.33193898  0.33293797  0.49916568  1
  Te  Te203  1  0.33457196  0.33696328  0.83449250  1
  Te  Te204  1  0.33557430  0.66656068  0.16533612  1
  Te  Te205  1  0.33103731  0.66732443  0.49549905  1
  Te  Te206  1  0.33028074  0.67443434  0.83815293  1
  Te  Te207  1  0.66523062  -0.00243214  0.16474836  1
  Te  Te208  1  0.66766299  0.00062158  0.49465071  1
  Te  Te209  1  0.66452113  0.00000894  0.83700349  1
  Te  Te210  1  0.66877854  0.33397933  0.16312172  1
  Te  Te211  1  0.66395359  0.34103676  0.49929480  1
  Te  Te212  1  0.66675276  0.33452083  0.84075136  1
  Te  Te213  1  0.66597012  0.66916816  0.16885045  1
  Te  Te214  1  0.66683068  0.66198688  0.50051136  1
  Te  Te215  1  0.66665953  0.66683450  0.83254724  1
