# generated using pymatgen
data_AgSbTe2
_symmetry_space_group_name_H-M   'P 1'
_cell_length_a   18.32439852
_cell_length_b   18.32515126
_cell_length_c   18.32327325
_cell_angle_alpha   90.00164399
_cell_angle_beta   89.99585558
_cell_angle_gamma   90.00038218
_symmetry_Int_Tables_number   1
_chemical_formula_structural   AgSbTe2
_chemical_formula_sum   'Ag54 Sb54 Te108'
_cell_volume   6152.90703077
_cell_formula_units_Z   54
loop_
 _symmetry_equiv_pos_site_id
 _symmetry_equiv_pos_as_xyz
  1  'x, y, z'
loop_
 _atom_site_type_symbol
 _atom_site_label
 _atom_site_symmetry_multiplicity
 _atom_site_fract_x
 _atom_site_fract_y
 _atom_site_fract_z
 _atom_site_occupancy
  Ag  Ag0  1  0.17297325  0.83817944  0.00113000  1
  Ag  Ag1  1  0.66228050  0.83190668  0.83989515  1
  Ag  Ag2  1  0.17032296  0.49966835  0.33391536  1
  Ag  Ag3  1  0.66118341  0.67018143  -0.00279181  1
  Ag  Ag4  1  0.50059993  0.83159651  0.33333198  1
  Ag  Ag5  1  0.50292330  0.50229545  0.66365088  1
  Ag  Ag6  1  0.17067262  0.16694456  0.31991154  1
  Ag  Ag7  1  0.16907978  0.00022640  0.15877130  1
  Ag  Ag8  1  0.83641933  0.17118572  0.67103145  1
  Ag  Ag9  1  0.33686711  0.16703553  0.50329199  1
  Ag  Ag10  1  -0.00011333  0.83293921  0.49582608  1
  Ag  Ag11  1  0.66597939  0.50302960  0.16509152  1
  Ag  Ag12  1  0.16790967  0.67070483  0.15867482  1
  Ag  Ag13  1  0.16720590  0.32359023  0.16218927  1
  Ag  Ag14  1  0.33349809  0.67455551  -0.00369769  1
  Ag  Ag15  1  0.32977822  0.00220267  -0.00542917  1
  Ag  Ag16  1  0.32925818  0.15956612  0.15428706  1
  Ag  Ag17  1  0.17522712  0.15853561  -0.00021904  1
  Ag  Ag18  1  0.67063724  0.50673603  0.83047092  1
  Ag  Ag19  1  0.66009391  0.49782426  0.50346409  1
  Ag  Ag20  1  0.83364527  -0.00195831  0.15775735  1
  Ag  Ag21  1  0.50228383  0.67108558  0.83406738  1
  Ag  Ag22  1  0.83523278  0.33568021  0.83070539  1
  Ag  Ag23  1  0.17055358  0.67047808  0.83971269  1
  Ag  Ag24  1  0.00984212  0.83460249  0.16523093  1
  Ag  Ag25  1  0.83347247  0.49089456  0.67240405  1
  Ag  Ag26  1  -0.00430529  0.49920459  0.83002156  1
  Ag  Ag27  1  0.66431410  0.15979401  0.83551203  1
  Ag  Ag28  1  0.33475415  0.15709911  0.84168120  1
  Ag  Ag29  1  0.83280752  0.33299821  0.51296842  1
  Ag  Ag30  1  0.48914413  0.16528419  -0.00322867  1
  Ag  Ag31  1  0.32564778  0.31796271  -0.00057121  1
  Ag  Ag32  1  0.33639535  0.84451399  0.84019772  1
  Ag  Ag33  1  0.83509512  0.83543313  -0.00127444  1
  Ag  Ag34  1  0.00549598  0.33270793  -0.00757934  1
  Ag  Ag35  1  0.16721449  0.16590124  0.67191431  1
  Ag  Ag36  1  0.00526295  0.00525894  0.66983285  1
  Ag  Ag37  1  0.00330945  0.66826292  0.33243135  1
  Ag  Ag38  1  0.50011466  0.65939203  0.50226591  1
  Ag  Ag39  1  0.32672585  0.84109045  0.15557848  1
  Ag  Ag40  1  0.66601698  0.83637829  0.15767808  1
  Ag  Ag41  1  0.17790739  0.00035777  0.83946642  1
  Ag  Ag42  1  0.66399197  0.00035930  0.32763158  1
  Ag  Ag43  1  0.82569411  0.66450446  0.83476995  1
  Ag  Ag44  1  0.49015950  -0.00324286  0.83028533  1
  Ag  Ag45  1  0.32841124  0.00445218  0.68017954  1
  Ag  Ag46  1  0.49955923  -0.00049546  0.50419347  1
  Ag  Ag47  1  0.34109308  0.49639241  0.50242871  1
  Ag  Ag48  1  0.66247054  0.15814613  0.16100801  1
  Ag  Ag49  1  0.49850697  0.50690671  0.34367723  1
  Ag  Ag50  1  0.66215634  0.16792762  0.50309330  1
  Ag  Ag51  1  0.16566356  0.49518302  0.66806728  1
  Ag  Ag52  1  0.83115244  -0.00001216  0.83655613  1
  Ag  Ag53  1  -0.00285314  0.33126734  0.67201152  1
  Sb  Sb54  1  0.67396423  0.33388093  0.66780504  1
  Sb  Sb55  1  0.17128099  0.66546572  0.50047786  1
  Sb  Sb56  1  0.49809013  -0.00157217  0.16310618  1
  Sb  Sb57  1  0.83425779  0.16499452  0.33598631  1
  Sb  Sb58  1  0.49696450  0.16483657  0.33179788  1
  Sb  Sb59  1  0.33428423  0.49924086  0.82983425  1
  Sb  Sb60  1  0.66739448  0.83372465  0.50057543  1
  Sb  Sb61  1  0.00307742  0.66674210  0.00020477  1
  Sb  Sb62  1  0.16631512  0.83649973  0.67486299  1
  Sb  Sb63  1  0.83701297  0.32788211  0.16137173  1
  Sb  Sb64  1  0.66529817  0.00269846  0.66966666  1
  Sb  Sb65  1  0.16376114  0.33199293  0.49904118  1
  Sb  Sb66  1  0.33147876  0.33269125  0.32996028  1
  Sb  Sb67  1  0.00006780  0.50264573  0.50559014  1
  Sb  Sb68  1  0.00074947  0.16331842  0.50383068  1
  Sb  Sb69  1  0.82871019  0.66285492  0.50686817  1
  Sb  Sb70  1  -0.00053297  0.50349778  0.16304222  1
  Sb  Sb71  1  0.32651313  0.32883879  0.67158013  1
  Sb  Sb72  1  0.33697829  0.00076471  0.32955565  1
  Sb  Sb73  1  0.83526033  0.83629773  0.67535244  1
  Sb  Sb74  1  0.83507806  0.67235737  0.15958505  1
  Sb  Sb75  1  0.17172368  0.00162927  0.50205417  1
  Sb  Sb76  1  -0.00152388  -0.00376722  0.33462879  1
  Sb  Sb77  1  0.00076587  0.83167334  0.83749578  1
  Sb  Sb78  1  0.00565015  0.16062149  0.16483444  1
  Sb  Sb79  1  0.66522159  0.66231614  0.67660627  1
  Sb  Sb80  1  0.17041809  0.83407966  0.32452559  1
  Sb  Sb81  1  0.83372549  0.16109193  -0.00675421  1
  Sb  Sb82  1  0.49649998  0.66867862  0.16267316  1
  Sb  Sb83  1  0.50374445  0.33223071  0.83313933  1
  Sb  Sb84  1  0.50093458  0.49819768  -0.00345854  1
  Sb  Sb85  1  0.66658746  0.33028608  0.33329922  1
  Sb  Sb86  1  0.66125617  -0.00336730  0.00046164  1
  Sb  Sb87  1  0.66798855  0.33366769  -0.00215932  1
  Sb  Sb88  1  0.00269506  0.33736301  0.33365058  1
  Sb  Sb89  1  0.00654954  0.00143952  -0.00555041  1
  Sb  Sb90  1  0.49600008  0.83793753  -0.00006055  1
  Sb  Sb91  1  0.49541165  0.33274744  0.16498388  1
  Sb  Sb92  1  0.66703897  0.66901659  0.32837262  1
  Sb  Sb93  1  0.82890319  0.00274401  0.50447311  1
  Sb  Sb94  1  0.50346005  0.33457661  0.50166157  1
  Sb  Sb95  1  0.00191177  0.16844400  0.83211072  1
  Sb  Sb96  1  0.83188320  0.50121506  0.33793740  1
  Sb  Sb97  1  0.16770852  0.50081067  -0.00196798  1
  Sb  Sb98  1  0.16254449  0.33020909  0.83789053  1
  Sb  Sb99  1  0.33202875  0.83459003  0.50109576  1
  Sb  Sb100  1  0.49799554  0.16862717  0.67059781  1
  Sb  Sb101  1  0.00123710  0.66615000  0.66733119  1
  Sb  Sb102  1  0.83025758  0.83445254  0.32592881  1
  Sb  Sb103  1  0.83246652  0.50452206  -0.00805579  1
  Sb  Sb104  1  0.33392802  0.49952376  0.16873974  1
  Sb  Sb105  1  0.33356905  0.66822071  0.67282856  1
  Sb  Sb106  1  0.33162373  0.66626829  0.32884666  1
  Sb  Sb107  1  0.49927720  0.83212678  0.66846800  1
  Te  Te108  1  0.16838021  0.16319339  0.16323599  1
  Te  Te109  1  0.17103164  0.16662545  0.50849502  1
  Te  Te110  1  0.16872405  0.16423861  0.83324003  1
  Te  Te111  1  0.16583758  0.50668469  0.17152137  1
  Te  Te112  1  0.16855108  0.49987778  0.49954011  1
  Te  Te113  1  0.16609313  0.50058651  0.83007337  1
  Te  Te114  1  0.16857853  0.83423234  0.16411451  1
  Te  Te115  1  0.16230127  0.83268241  0.49849626  1
  Te  Te116  1  0.16838622  0.83383834  0.83877345  1
  Te  Te117  1  0.50093981  0.16608471  0.16421926  1
  Te  Te118  1  0.50162306  0.16461745  0.49981759  1
  Te  Te119  1  0.50173646  0.16482882  0.83466561  1
  Te  Te120  1  0.50517655  0.50028249  0.16941219  1
  Te  Te121  1  0.50069544  0.49927408  0.50155479  1
  Te  Te122  1  0.50444135  0.50314209  0.82936533  1
  Te  Te123  1  0.50415615  0.83369538  0.17148088  1
  Te  Te124  1  0.50019451  0.83558354  0.49727672  1
  Te  Te125  1  0.49980446  0.83315124  0.83303467  1
  Te  Te126  1  0.82928334  0.16067157  0.16676438  1
  Te  Te127  1  0.82870813  0.16966034  0.50376250  1
  Te  Te128  1  0.83132597  0.16399848  0.83072919  1
  Te  Te129  1  0.82713666  0.49866915  0.16786690  1
  Te  Te130  1  0.82852427  0.49702291  0.50602695  1
  Te  Te131  1  0.83133132  0.50094331  0.83121902  1
  Te  Te132  1  0.82562431  0.83721977  0.16071902  1
  Te  Te133  1  0.83738630  0.83241265  0.50076668  1
  Te  Te134  1  0.83281918  0.83342168  0.83808152  1
  Te  Te135  1  0.16733300  -0.00075838  -0.00126759  1
  Te  Te136  1  0.16608481  0.00494977  0.33022102  1
  Te  Te137  1  0.16699166  0.00300879  0.66869017  1
  Te  Te138  1  0.16669979  0.33465470  0.00303177  1
  Te  Te139  1  0.16562761  0.33386537  0.32756133  1
  Te  Te140  1  0.15952185  0.33291076  0.66713964  1
  Te  Te141  1  0.16836168  0.66771742  -0.00056402  1
  Te  Te142  1  0.16463663  0.66451052  0.33260655  1
  Te  Te143  1  0.16696187  0.66269966  0.67136344  1
  Te  Te144  1  0.49343981  0.00525297  -0.00674446  1
  Te  Te145  1  0.50422434  -0.00080678  0.33696675  1
  Te  Te146  1  0.49587942  0.00087513  0.66881533  1
  Te  Te147  1  0.49446142  0.32614899  -0.00010278  1
  Te  Te148  1  0.49929381  0.34353792  0.33297983  1
  Te  Te149  1  0.49593942  0.34324889  0.66720312  1
  Te  Te150  1  0.49916850  0.66581636  -0.00506959  1
  Te  Te151  1  0.50033305  0.66651555  0.33529137  1
  Te  Te152  1  0.49907942  0.66262371  0.66746986  1
  Te  Te153  1  0.83669686  -0.00409985  -0.00001986  1
  Te  Te154  1  0.82727412  0.00074866  0.32917478  1
  Te  Te155  1  0.83620840  0.00424042  0.67078842  1
  Te  Te156  1  0.83924358  0.33192222  -0.00600965  1
  Te  Te157  1  0.83569571  0.33285267  0.33656156  1
  Te  Te158  1  0.83719046  0.33222087  0.67022679  1
  Te  Te159  1  0.83147316  0.67247102  -0.00636214  1
  Te  Te160  1  0.84007192  0.66682565  0.33383388  1
  Te  Te161  1  0.83415512  0.66291550  0.67511285  1
  Te  Te162  1  0.00541259  0.17266705  0.00001537  1
  Te  Te163  1  0.00875118  0.16651767  0.33521173  1
  Te  Te164  1  0.00101804  0.16660708  0.66613784  1
  Te  Te165  1  -0.00051312  0.49472561  -0.00575309  1
  Te  Te166  1  0.00452036  0.50483249  0.33350273  1
  Te  Te167  1  0.00094786  0.49888543  0.66944988  1
  Te  Te168  1  0.00056548  0.83402465  0.00548744  1
  Te  Te169  1  0.00016933  0.83020291  0.32933421  1
  Te  Te170  1  0.00022110  0.83829769  0.66276240  1
  Te  Te171  1  0.33192436  0.16311295  -0.00143029  1
  Te  Te172  1  0.32973406  0.16776215  0.34091135  1
  Te  Te173  1  0.33158616  0.16432930  0.66397081  1
  Te  Te174  1  0.33523222  0.50762672  0.00018982  1
  Te  Te175  1  0.33231176  0.49957958  0.33775702  1
  Te  Te176  1  0.32839081  0.49893629  0.66222127  1
  Te  Te177  1  0.33329222  0.83296807  -0.00038926  1
  Te  Te178  1  0.33966205  0.83255553  0.33007748  1
  Te  Te179  1  0.33267735  0.84195789  0.67123960  1
  Te  Te180  1  0.66615837  0.16642990  -0.00002490  1
  Te  Te181  1  0.66552662  0.16266414  0.33251895  1
  Te  Te182  1  0.66850388  0.16757442  0.66736410  1
  Te  Te183  1  0.66598656  0.50379331  0.00001002  1
  Te  Te184  1  0.66419339  0.50062102  0.33438659  1
  Te  Te185  1  0.66770120  0.49937966  0.66697630  1
  Te  Te186  1  0.66356180  0.83183085  -0.00191268  1
  Te  Te187  1  0.66300772  0.83703239  0.33200210  1
  Te  Te188  1  0.66787315  0.83388896  0.67463659  1
  Te  Te189  1  -0.00091360  -0.00591433  0.16710767  1
  Te  Te190  1  -0.00130604  -0.00503863  0.50371488  1
  Te  Te191  1  -0.00651803  -0.00146004  0.82889416  1
  Te  Te192  1  0.00538206  0.33371429  0.16432152  1
  Te  Te193  1  -0.00668676  0.33373557  0.50431203  1
  Te  Te194  1  -0.00282636  0.33600619  0.83196140  1
  Te  Te195  1  0.00282076  0.67097319  0.16849351  1
  Te  Te196  1  -0.00156939  0.67100366  0.49611255  1
  Te  Te197  1  0.00472998  0.66207869  0.83350913  1
  Te  Te198  1  0.33162021  0.00053254  0.16412720  1
  Te  Te199  1  0.33890726  0.00165822  0.49825037  1
  Te  Te200  1  0.33371632  0.00074631  0.83476455  1
  Te  Te201  1  0.32755726  0.32999715  0.16130238  1
  Te  Te202  1  0.33294335  0.33258866  0.50119351  1
  Te  Te203  1  0.33365376  0.32889665  0.83968735  1
  Te  Te204  1  0.32873320  0.66821277  0.16138559  1
  Te  Te205  1  0.33949658  0.66468666  0.50085112  1
  Te  Te206  1  0.33265263  0.66642296  0.83609047  1
  Te  Te207  1  0.66472339  -0.00057769  0.16580634  1
  Te  Te208  1  0.66189871  0.00235614  0.49881770  1
  Te  Te209  1  0.67080514  0.00077015  0.83448147  1
  Te  Te210  1  0.66908425  0.33351448  0.16516683  1
  Te  Te211  1  0.67134070  0.33141082  0.49922491  1
  Te  Te212  1  0.67245881  0.33204160  0.83498513  1
  Te  Te213  1  0.66751781  0.66767267  0.16080737  1
  Te  Te214  1  0.66076640  0.66355309  0.49742232  1
  Te  Te215  1  0.66453716  0.66741572  0.83720975  1
