# generated using pymatgen
data_AgSbTe2
_symmetry_space_group_name_H-M   'P 1'
_cell_length_a   18.34778354
_cell_length_b   18.34545356
_cell_length_c   18.34704456
_cell_angle_alpha   89.99770194
_cell_angle_beta   90.00244269
_cell_angle_gamma   90.00070408
_symmetry_Int_Tables_number   1
_chemical_formula_structural   AgSbTe2
_chemical_formula_sum   'Ag54 Sb54 Te108'
_cell_volume   6175.58603193
_cell_formula_units_Z   54
loop_
 _symmetry_equiv_pos_site_id
 _symmetry_equiv_pos_as_xyz
  1  'x, y, z'
loop_
 _atom_site_type_symbol
 _atom_site_label
 _atom_site_symmetry_multiplicity
 _atom_site_fract_x
 _atom_site_fract_y
 _atom_site_fract_z
 _atom_site_occupancy
  Ag  Ag0  1  0.49072832  0.00145971  0.82850881  1
  Ag  Ag1  1  0.67932715  0.50140869  0.17166794  1
  Ag  Ag2  1  0.32019679  0.00474947  0.32955457  1
  Ag  Ag3  1  0.00098645  0.83578659  0.83416510  1
  Ag  Ag4  1  0.67601709  0.00145697  0.33402398  1
  Ag  Ag5  1  0.32319057  0.00181607  0.00908468  1
  Ag  Ag6  1  0.00258635  0.00041798  0.33886052  1
  Ag  Ag7  1  0.83432024  0.16329457  0.65755278  1
  Ag  Ag8  1  0.00271595  0.50368882  0.17728222  1
  Ag  Ag9  1  0.68244817  0.67074542  0.33209891  1
  Ag  Ag10  1  0.32137406  0.49316605  0.49357786  1
  Ag  Ag11  1  0.00150289  0.33539553  -0.00582398  1
  Ag  Ag12  1  0.50078501  0.84284066  0.66827663  1
  Ag  Ag13  1  0.83931142  0.32513959  0.50141232  1
  Ag  Ag14  1  0.49801508  0.49387373  0.66652381  1
  Ag  Ag15  1  0.15666704  0.83794499  0.66459577  1
  Ag  Ag16  1  0.84096180  0.83843028  -0.00248482  1
  Ag  Ag17  1  0.16073002  0.84122839  0.00251446  1
  Ag  Ag18  1  0.16111893  0.50181432  0.33649104  1
  Ag  Ag19  1  0.48733376  0.16234219  0.34011207  1
  Ag  Ag20  1  0.84029498  0.33289197  0.82725462  1
  Ag  Ag21  1  0.84336115  0.66580476  0.17314196  1
  Ag  Ag22  1  0.83895427  0.66261661  0.83760693  1
  Ag  Ag23  1  0.50619665  0.16428080  0.65992065  1
  Ag  Ag24  1  0.84191274  0.83514255  0.33486104  1
  Ag  Ag25  1  0.16171352  0.00384163  0.48876559  1
  Ag  Ag26  1  0.84184707  0.15950005  0.33838639  1
  Ag  Ag27  1  0.16275771  0.15775805  0.33359641  1
  Ag  Ag28  1  0.32403374  0.49791159  0.17323514  1
  Ag  Ag29  1  0.32931655  0.16103994  0.17508329  1
  Ag  Ag30  1  0.00262506  0.49687524  0.49266055  1
  Ag  Ag31  1  0.15910145  0.84237766  0.33336823  1
  Ag  Ag32  1  0.31982310  0.49863710  0.83077349  1
  Ag  Ag33  1  0.32910192  0.16856570  0.49531553  1
  Ag  Ag34  1  0.84006604  0.84048695  0.66456843  1
  Ag  Ag35  1  0.16474904  0.00396196  0.83643338  1
  Ag  Ag36  1  0.84650623  0.50741868  0.33327068  1
  Ag  Ag37  1  0.16032812  0.66891496  0.17217878  1
  Ag  Ag38  1  0.16322028  0.66139892  0.49210700  1
  Ag  Ag39  1  0.00111936  -0.00102185  0.66133383  1
  Ag  Ag40  1  0.00009456  0.66342249  0.00627175  1
  Ag  Ag41  1  0.67043940  0.33107913  0.66595266  1
  Ag  Ag42  1  0.15983627  0.32816375  0.82782980  1
  Ag  Ag43  1  0.00138474  0.49121556  0.83220559  1
  Ag  Ag44  1  0.84127220  0.00576825  0.49417835  1
  Ag  Ag45  1  0.16320208  0.15926059  0.00676180  1
  Ag  Ag46  1  0.16113808  0.33248214  0.50017341  1
  Ag  Ag47  1  -0.00002345  0.34189102  0.33660394  1
  Ag  Ag48  1  0.48681741  0.00235510  0.17130843  1
  Ag  Ag49  1  0.84293251  0.16100647  -0.00117365  1
  Ag  Ag50  1  0.00146186  0.17036093  0.83793926  1
  Ag  Ag51  1  0.16783234  -0.00053641  0.17336154  1
  Ag  Ag52  1  0.67705326  0.16664802  0.49776095  1
  Ag  Ag53  1  -0.00007268  0.65701730  0.32685567  1
  Sb  Sb54  1  0.66959924  0.83333220  0.16926816  1
  Sb  Sb55  1  0.66497494  0.16781307  0.17416309  1
  Sb  Sb56  1  0.83468580  0.49757008  0.66285205  1
  Sb  Sb57  1  0.84216582  0.00257013  0.82860569  1
  Sb  Sb58  1  0.33392044  0.33299581  0.66480981  1
  Sb  Sb59  1  0.32807907  0.83785978  0.16725114  1
  Sb  Sb60  1  0.00291590  0.82860741  0.16608045  1
  Sb  Sb61  1  0.32754398  0.83624266  0.50011074  1
  Sb  Sb62  1  0.50468065  0.66952313  0.83025413  1
  Sb  Sb63  1  0.83704499  0.33509889  0.17035502  1
  Sb  Sb64  1  0.49706515  0.00340873  0.49955751  1
  Sb  Sb65  1  0.66912701  0.66461101  0.66075049  1
  Sb  Sb66  1  0.67012415  0.83864843  0.49871438  1
  Sb  Sb67  1  0.32720579  0.00137902  0.66343393  1
  Sb  Sb68  1  0.00366535  0.16995891  0.16581629  1
  Sb  Sb69  1  0.84032105  -0.00294389  0.17320161  1
  Sb  Sb70  1  0.16592182  0.50273841  0.66165231  1
  Sb  Sb71  1  0.49882400  0.33089247  0.50011630  1
  Sb  Sb72  1  0.32723720  0.16706732  0.83101438  1
  Sb  Sb73  1  0.00188982  0.83297721  0.49841423  1
  Sb  Sb74  1  0.00052429  0.16806076  0.49762950  1
  Sb  Sb75  1  -0.00334607  0.32609780  0.66643404  1
  Sb  Sb76  1  0.66522282  0.00116575  0.00453230  1
  Sb  Sb77  1  0.49350645  0.66429635  0.49798480  1
  Sb  Sb78  1  0.49696868  0.49356989  0.33629354  1
  Sb  Sb79  1  0.67783679  0.33045726  0.33819749  1
  Sb  Sb80  1  0.32311853  0.32961163  0.00042839  1
  Sb  Sb81  1  0.67167738  0.49972686  0.83482337  1
  Sb  Sb82  1  0.32287611  0.32714317  0.33385460  1
  Sb  Sb83  1  0.67860509  0.66620279  0.00649861  1
  Sb  Sb84  1  0.50030661  0.84109582  0.33623356  1
  Sb  Sb85  1  0.16082917  0.16127038  0.66278329  1
  Sb  Sb86  1  0.16210179  0.49785894  0.00387701  1
  Sb  Sb87  1  0.32511406  0.83206009  0.83235081  1
  Sb  Sb88  1  0.67623336  0.83658313  0.83207038  1
  Sb  Sb89  1  0.49870581  0.32944118  0.83041487  1
  Sb  Sb90  1  0.67473162  0.16516897  0.82821882  1
  Sb  Sb91  1  0.67070280  0.49537039  0.49669251  1
  Sb  Sb92  1  0.49720815  0.83651447  -0.00367464  1
  Sb  Sb93  1  0.15801202  0.66651585  0.83419882  1
  Sb  Sb94  1  0.33162222  0.66530693  0.66647953  1
  Sb  Sb95  1  0.32211670  0.66895329  0.00235997  1
  Sb  Sb96  1  0.49868970  0.32969324  0.16859864  1
  Sb  Sb97  1  0.16290794  0.33229003  0.17118224  1
  Sb  Sb98  1  0.49607690  0.50090689  -0.00310259  1
  Sb  Sb99  1  0.49891568  0.66872816  0.16931969  1
  Sb  Sb100  1  0.00655755  -0.00080947  0.00136535  1
  Sb  Sb101  1  0.32328596  0.66909823  0.33337889  1
  Sb  Sb102  1  0.84016060  0.66704297  0.49563526  1
  Sb  Sb103  1  0.67991934  0.33211248  -0.00338329  1
  Sb  Sb104  1  0.67081436  0.00376300  0.66279288  1
  Sb  Sb105  1  -0.00029919  0.67200860  0.66505879  1
  Sb  Sb106  1  0.83927169  0.49999879  0.00510819  1
  Sb  Sb107  1  0.49467101  0.16432033  0.00040263  1
  Te  Te108  1  0.16970159  0.16698121  0.16907997  1
  Te  Te109  1  0.16781698  0.16626987  0.49706682  1
  Te  Te110  1  0.16321385  0.16714646  0.82911733  1
  Te  Te111  1  0.16427747  0.49928637  0.16893588  1
  Te  Te112  1  0.16438679  0.49821276  0.50154293  1
  Te  Te113  1  0.16372670  0.49932063  0.83250359  1
  Te  Te114  1  0.16844976  0.83286028  0.16923808  1
  Te  Te115  1  0.16797325  0.83997535  0.49928910  1
  Te  Te116  1  0.16142300  0.83203342  0.83089223  1
  Te  Te117  1  0.49551778  0.16253209  0.16807158  1
  Te  Te118  1  0.49492280  0.16774424  0.49964400  1
  Te  Te119  1  0.49822771  0.16171120  0.83168729  1
  Te  Te120  1  0.49187117  0.49979094  0.16608238  1
  Te  Te121  1  0.49776423  0.49848292  0.50574501  1
  Te  Te122  1  0.50360257  0.49956429  0.82695700  1
  Te  Te123  1  0.50019131  0.84024254  0.16446629  1
  Te  Te124  1  0.49944448  0.83240342  0.50668494  1
  Te  Te125  1  0.49868731  0.83748567  0.82942755  1
  Te  Te126  1  0.83242502  0.16610728  0.16567241  1
  Te  Te127  1  0.83670495  0.16598847  0.49920427  1
  Te  Te128  1  0.83852633  0.16882500  0.83635052  1
  Te  Te129  1  0.83667874  0.50182739  0.17094861  1
  Te  Te130  1  0.83780062  0.49887677  0.49460145  1
  Te  Te131  1  0.83558738  0.49944443  0.83246177  1
  Te  Te132  1  0.83181384  0.82921996  0.16954597  1
  Te  Te133  1  0.83296687  0.83638174  0.50020685  1
  Te  Te134  1  0.83977345  0.83510002  0.83262841  1
  Te  Te135  1  0.16571922  0.00151623  -0.00447739  1
  Te  Te136  1  0.16549497  -0.00006182  0.33226386  1
  Te  Te137  1  0.16257076  -0.00320901  0.67390078  1
  Te  Te138  1  0.16029590  0.32895283  -0.00638825  1
  Te  Te139  1  0.15985032  0.34057003  0.33753639  1
  Te  Te140  1  0.16660590  0.33284995  0.66593998  1
  Te  Te141  1  0.16001950  0.67125302  0.00447821  1
  Te  Te142  1  0.16352546  0.66217875  0.33280870  1
  Te  Te143  1  0.16793548  0.67608277  0.66261114  1
  Te  Te144  1  0.49624972  -0.00009658  0.00147655  1
  Te  Te145  1  0.50290947  0.00411983  0.33247744  1
  Te  Te146  1  0.50173283  0.00315839  0.66766678  1
  Te  Te147  1  0.50198903  0.33323302  -0.00152576  1
  Te  Te148  1  0.50336764  0.32240428  0.33329940  1
  Te  Te149  1  0.50436942  0.33063995  0.66695904  1
  Te  Te150  1  0.50091874  0.66951801  -0.00063059  1
  Te  Te151  1  0.50195102  0.66950412  0.33285018  1
  Te  Te152  1  0.50145691  0.66660540  0.66610369  1
  Te  Te153  1  0.83234912  -0.00047993  0.00289334  1
  Te  Te154  1  0.83519923  -0.00182783  0.33390425  1
  Te  Te155  1  0.83547662  0.00111890  0.66310100  1
  Te  Te156  1  0.84165588  0.32956296  -0.00468481  1
  Te  Te157  1  0.83981717  0.33018010  0.33668534  1
  Te  Te158  1  0.83200524  0.33224854  0.66531333  1
  Te  Te159  1  0.84002529  0.66777118  0.00019657  1
  Te  Te160  1  0.83807881  0.66762691  0.33354340  1
  Te  Te161  1  0.83094357  0.67259563  0.66875167  1
  Te  Te162  1  0.00259059  0.16706073  0.00011340  1
  Te  Te163  1  0.00293683  0.16267228  0.33114789  1
  Te  Te164  1  -0.00537925  0.16049430  0.67421030  1
  Te  Te165  1  0.00023852  0.49992554  -0.01034215  1
  Te  Te166  1  0.00132191  0.49937156  0.33462016  1
  Te  Te167  1  -0.00114289  0.50298737  0.67429867  1
  Te  Te168  1  0.00032722  0.83289761  -0.00106255  1
  Te  Te169  1  0.00040365  0.83770059  0.33296704  1
  Te  Te170  1  -0.00091865  0.83641733  0.66662190  1
  Te  Te171  1  0.32639833  0.16162230  0.00021039  1
  Te  Te172  1  0.32854515  0.16644360  0.33351783  1
  Te  Te173  1  0.33972826  0.16731948  0.66270863  1
  Te  Te174  1  0.33092928  0.49969098  -0.00196518  1
  Te  Te175  1  0.33251661  0.50023796  0.33501211  1
  Te  Te176  1  0.33607399  0.49901949  0.66908151  1
  Te  Te177  1  0.32663644  0.83973760  -0.00118549  1
  Te  Te178  1  0.33168899  0.83781598  0.33438852  1
  Te  Te179  1  0.33979925  0.83320368  0.66680204  1
  Te  Te180  1  0.67241472  0.16742773  0.00068454  1
  Te  Te181  1  0.67615730  0.16418411  0.33709736  1
  Te  Te182  1  0.66978812  0.16861074  0.66293242  1
  Te  Te183  1  0.66532174  0.49983965  0.00811696  1
  Te  Te184  1  0.66230720  0.49975731  0.32950698  1
  Te  Te185  1  0.66361475  0.49684462  0.66658545  1
  Te  Te186  1  0.67559850  0.83264973  -0.00014405  1
  Te  Te187  1  0.66835073  0.83465201  0.33390585  1
  Te  Te188  1  0.66545208  0.83222337  0.66584762  1
  Te  Te189  1  0.00766389  0.00169796  0.17497554  1
  Te  Te190  1  0.00107285  -0.00041290  0.50185777  1
  Te  Te191  1  0.00301044  -0.00160200  0.83426157  1
  Te  Te192  1  -0.00045110  0.34204976  0.16414277  1
  Te  Te193  1  -0.00017930  0.33587089  0.50094230  1
  Te  Te194  1  -0.00053882  0.33062395  0.83054578  1
  Te  Te195  1  0.00050200  0.66454351  0.16628981  1
  Te  Te196  1  0.00526639  0.66062081  0.49698054  1
  Te  Te197  1  -0.00392501  0.67140250  0.83136869  1
  Te  Te198  1  0.32980762  0.00116472  0.16801443  1
  Te  Te199  1  0.32737722  0.00413330  0.49629510  1
  Te  Te200  1  0.33006267  -0.00060732  0.83228975  1
  Te  Te201  1  0.33283104  0.33534326  0.16562766  1
  Te  Te202  1  0.32825793  0.33241501  0.49948049  1
  Te  Te203  1  0.32996439  0.33866370  0.83420556  1
  Te  Te204  1  0.32940703  0.65959975  0.16582874  1
  Te  Te205  1  0.32479302  0.65978462  0.49994272  1
  Te  Te206  1  0.33666811  0.65905317  0.83514756  1
  Te  Te207  1  0.66453253  0.00135457  0.17278557  1
  Te  Te208  1  0.66944226  0.00585920  0.49621758  1
  Te  Te209  1  0.65736045  0.00031517  0.83660750  1
  Te  Te210  1  0.66616463  0.34027286  0.16440246  1
  Te  Te211  1  0.67144982  0.32880321  0.50487672  1
  Te  Te212  1  0.67198602  0.33269853  0.82815918  1
  Te  Te213  1  0.66582131  0.66271596  0.17333121  1
  Te  Te214  1  0.66511649  0.66530317  0.49095368  1
  Te  Te215  1  0.67549487  0.66818136  0.83433867  1
