# generated using pymatgen
data_AgSbTe2
_symmetry_space_group_name_H-M   'P 1'
_cell_length_a   18.33424065
_cell_length_b   18.33283667
_cell_length_c   18.33174994
_cell_angle_alpha   89.99592485
_cell_angle_beta   89.99883958
_cell_angle_gamma   90.00070914
_symmetry_Int_Tables_number   1
_chemical_formula_structural   AgSbTe2
_chemical_formula_sum   'Ag54 Sb54 Te108'
_cell_volume   6161.64282501
_cell_formula_units_Z   54
loop_
 _symmetry_equiv_pos_site_id
 _symmetry_equiv_pos_as_xyz
  1  'x, y, z'
loop_
 _atom_site_type_symbol
 _atom_site_label
 _atom_site_symmetry_multiplicity
 _atom_site_fract_x
 _atom_site_fract_y
 _atom_site_fract_z
 _atom_site_occupancy
  Ag  Ag0  1  0.49992792  0.16304502  0.67027352  1
  Ag  Ag1  1  0.83259503  0.33394310  0.16221956  1
  Ag  Ag2  1  0.33132173  0.50487603  0.83827518  1
  Ag  Ag3  1  0.33355548  0.00100880  0.67557304  1
  Ag  Ag4  1  0.16543151  0.66830913  0.16077813  1
  Ag  Ag5  1  -0.00572200  0.33663503  0.67106081  1
  Ag  Ag6  1  0.83024181  0.16408289  0.33198174  1
  Ag  Ag7  1  0.82603091  0.83302137  0.32427249  1
  Ag  Ag8  1  0.16785675  0.51054724  0.00045755  1
  Ag  Ag9  1  0.00452488  0.50636928  0.83483904  1
  Ag  Ag10  1  0.67043879  0.67424854  -0.00059097  1
  Ag  Ag11  1  0.00286271  0.83010412  0.15951916  1
  Ag  Ag12  1  0.32832459  0.82975963  0.15878461  1
  Ag  Ag13  1  0.66825391  0.33141458  0.67028027  1
  Ag  Ag14  1  0.34033259  0.82994914  0.84266703  1
  Ag  Ag15  1  0.33583220  -0.01007520  -0.00512849  1
  Ag  Ag16  1  0.49916683  0.51011028  -0.00391074  1
  Ag  Ag17  1  0.66704461  0.82890953  0.15947765  1
  Ag  Ag18  1  0.49465367  0.67063655  0.83689432  1
  Ag  Ag19  1  0.82047993  0.82636028  0.00430069  1
  Ag  Ag20  1  0.50648684  0.83364238  0.32818818  1
  Ag  Ag21  1  0.16877112  0.82738479  0.00388826  1
  Ag  Ag22  1  0.50761299  0.82815483  -0.00309575  1
  Ag  Ag23  1  0.50156904  0.33486086  0.83476820  1
  Ag  Ag24  1  0.66665332  -0.00609850  0.33071194  1
  Ag  Ag25  1  0.33836126  0.16542995  0.83529102  1
  Ag  Ag26  1  0.83403914  0.66658669  0.49661558  1
  Ag  Ag27  1  0.16686724  0.51157752  0.32639721  1
  Ag  Ag28  1  0.16877174  0.82504220  0.32456136  1
  Ag  Ag29  1  0.66857330  0.50781181  0.16201693  1
  Ag  Ag30  1  0.00060905  0.82309679  0.84303606  1
  Ag  Ag31  1  0.00317021  0.66969521  -0.00189496  1
  Ag  Ag32  1  0.33218729  0.33203676  0.32563571  1
  Ag  Ag33  1  -0.00007886  0.66645356  0.67970519  1
  Ag  Ag34  1  0.00405616  -0.00647448  0.66929975  1
  Ag  Ag35  1  0.66144238  0.16533359  0.50000790  1
  Ag  Ag36  1  0.16937251  0.16604242  0.00277965  1
  Ag  Ag37  1  0.32431542  0.67049487  0.33433932  1
  Ag  Ag38  1  0.66628989  0.83282659  0.49494637  1
  Ag  Ag39  1  0.65767602  0.16678445  0.83110704  1
  Ag  Ag40  1  0.83038877  0.50797662  0.00018992  1
  Ag  Ag41  1  0.33299388  0.33253829  -0.00092953  1
  Ag  Ag42  1  0.67165286  0.50664258  0.49478697  1
  Ag  Ag43  1  0.00246106  0.16332852  0.16755772  1
  Ag  Ag44  1  0.49966457  0.16275732  0.33825131  1
  Ag  Ag45  1  0.66167156  -0.01190029  0.00132619  1
  Ag  Ag46  1  0.16898416  0.16657441  0.32637620  1
  Ag  Ag47  1  -0.00470758  0.50425629  0.50630096  1
  Ag  Ag48  1  0.50150571  0.83629301  0.68118299  1
  Ag  Ag49  1  0.65898005  0.83423659  0.84515703  1
  Ag  Ag50  1  0.00513916  0.67032053  0.32828635  1
  Ag  Ag51  1  0.16581208  0.66760561  0.84322319  1
  Ag  Ag52  1  0.34091058  0.16649242  0.49664949  1
  Ag  Ag53  1  0.82867629  0.33427142  0.83783498  1
  Sb  Sb54  1  0.50069330  0.00080360  0.50007171  1
  Sb  Sb55  1  0.50243310  0.33369141  0.16171537  1
  Sb  Sb56  1  0.00263444  0.16795306  0.83651383  1
  Sb  Sb57  1  0.16391873  0.50190781  0.67058802  1
  Sb  Sb58  1  0.00259977  0.33706238  0.33423735  1
  Sb  Sb59  1  0.49662070  0.50271603  0.32719731  1
  Sb  Sb60  1  0.33836009  0.83844672  0.49864046  1
  Sb  Sb61  1  0.83200485  0.00091473  0.83467805  1
  Sb  Sb62  1  0.16955533  -0.00681098  0.83692655  1
  Sb  Sb63  1  0.33131997  0.67056352  -0.00079775  1
  Sb  Sb64  1  0.00288959  0.33971198  -0.00250621  1
  Sb  Sb65  1  0.50463714  0.66889530  0.50307615  1
  Sb  Sb66  1  0.33684636  -0.00170703  0.33056903  1
  Sb  Sb67  1  0.16914705  0.33875881  0.83621978  1
  Sb  Sb68  1  -0.00249009  -0.00576570  0.33598063  1
  Sb  Sb69  1  0.49662206  0.16361685  -0.00313227  1
  Sb  Sb70  1  0.50047231  -0.00253451  0.16577593  1
  Sb  Sb71  1  0.66387427  0.33383370  -0.00435118  1
  Sb  Sb72  1  0.83725496  0.66753341  0.16679570  1
  Sb  Sb73  1  0.33067799  0.67125606  0.66749853  1
  Sb  Sb74  1  0.83610830  0.50285763  0.32942542  1
  Sb  Sb75  1  0.83555023  0.66521636  0.83641521  1
  Sb  Sb76  1  0.66365333  0.00138715  0.66795002  1
  Sb  Sb77  1  0.32884696  0.16190003  0.16476743  1
  Sb  Sb78  1  0.66691602  0.67268113  0.32743828  1
  Sb  Sb79  1  0.83142429  -0.00449003  0.49895068  1
  Sb  Sb80  1  0.83554240  0.16584808  0.00245588  1
  Sb  Sb81  1  0.33370916  0.49614631  0.50020287  1
  Sb  Sb82  1  0.49813894  -0.00375311  0.83393032  1
  Sb  Sb83  1  -0.00240698  0.50410482  0.16295106  1
  Sb  Sb84  1  0.83140907  0.33737253  0.49923708  1
  Sb  Sb85  1  0.16658665  0.33428165  0.49875956  1
  Sb  Sb86  1  0.67006715  0.66543627  0.67086028  1
  Sb  Sb87  1  0.16675059  -0.00937108  0.16564901  1
  Sb  Sb88  1  0.33513528  0.50571987  0.15915810  1
  Sb  Sb89  1  0.66664449  0.50126115  0.83788867  1
  Sb  Sb90  1  0.83298152  -0.00145691  0.16658255  1
  Sb  Sb91  1  0.16701268  -0.00084571  0.49848805  1
  Sb  Sb92  1  0.83021653  0.83170704  0.67012118  1
  Sb  Sb93  1  0.49565753  0.67118474  0.16046442  1
  Sb  Sb94  1  0.83435656  0.50016671  0.67278161  1
  Sb  Sb95  1  0.50146390  0.33161503  0.50546916  1
  Sb  Sb96  1  -0.00103888  0.17127154  0.49658322  1
  Sb  Sb97  1  0.00109624  -0.00875630  -0.00290146  1
  Sb  Sb98  1  0.82815069  0.16790841  0.66377329  1
  Sb  Sb99  1  0.16084652  0.66593432  0.49621014  1
  Sb  Sb100  1  0.16384918  0.33729982  0.16586831  1
  Sb  Sb101  1  0.66302807  0.32986396  0.33580341  1
  Sb  Sb102  1  0.33600849  0.32806816  0.67246126  1
  Sb  Sb103  1  0.16848643  0.83214920  0.66989194  1
  Sb  Sb104  1  0.50199733  0.50021510  0.67405081  1
  Sb  Sb105  1  0.66916138  0.16373933  0.16683424  1
  Sb  Sb106  1  0.17105398  0.16678711  0.66957727  1
  Sb  Sb107  1  -0.00518222  0.82566807  0.49940654  1
  Te  Te108  1  0.16384708  0.16946950  0.16574022  1
  Te  Te109  1  0.16896609  0.16665010  0.49702420  1
  Te  Te110  1  0.17195717  0.16730773  0.83750992  1
  Te  Te111  1  0.16669146  0.50476059  0.16502962  1
  Te  Te112  1  0.16448472  0.49975924  0.49240740  1
  Te  Te113  1  0.16673865  0.50460671  0.83721821  1
  Te  Te114  1  0.16512050  0.82930031  0.16646699  1
  Te  Te115  1  0.16746737  0.83322973  0.49118552  1
  Te  Te116  1  0.16468069  0.82766581  0.83441853  1
  Te  Te117  1  0.49968439  0.16829676  0.17549474  1
  Te  Te118  1  0.50113708  0.16782302  0.49897962  1
  Te  Te119  1  0.49946989  0.17003761  0.83327812  1
  Te  Te120  1  0.50673780  0.50139858  0.15841563  1
  Te  Te121  1  0.50494220  0.50014054  0.50066580  1
  Te  Te122  1  0.49862501  0.49978874  0.83724367  1
  Te  Te123  1  0.50345697  0.83204088  0.16789548  1
  Te  Te124  1  0.50543575  0.83244843  0.49157067  1
  Te  Te125  1  0.49944303  0.83213676  0.83642270  1
  Te  Te126  1  0.83689336  0.17040407  0.17007124  1
  Te  Te127  1  0.82934642  0.16762802  0.49335938  1
  Te  Te128  1  0.83112160  0.17252691  0.83331804  1
  Te  Te129  1  0.83009943  0.49660899  0.16187398  1
  Te  Te130  1  0.83313442  0.50344409  0.49743390  1
  Te  Te131  1  0.83623370  0.49649446  0.83951785  1
  Te  Te132  1  0.83281090  0.83317372  0.16521789  1
  Te  Te133  1  0.82770095  0.82906236  0.49870183  1
  Te  Te134  1  0.83519096  0.83314615  0.83790782  1
  Te  Te135  1  0.17063156  0.00520342  0.00046207  1
  Te  Te136  1  0.16716405  0.00682921  0.33225825  1
  Te  Te137  1  0.16681512  0.00015632  0.66680016  1
  Te  Te138  1  0.17133111  0.32944148  0.00050192  1
  Te  Te139  1  0.17106363  0.32623296  0.33222388  1
  Te  Te140  1  0.15894391  0.33395863  0.66731763  1
  Te  Te141  1  0.16703381  0.66696631  0.00021624  1
  Te  Te142  1  0.16561972  0.66766804  0.33365035  1
  Te  Te143  1  0.16049746  0.66705016  0.67052792  1
  Te  Te144  1  0.50000020  -0.00551662  0.00015524  1
  Te  Te145  1  0.50455078  -0.00095455  0.33316915  1
  Te  Te146  1  0.49691069  0.00003013  0.66657924  1
  Te  Te147  1  0.49460558  0.33309690  -0.00482945  1
  Te  Te148  1  0.49395607  0.33346820  0.33281828  1
  Te  Te149  1  0.50353327  0.32995898  0.67313180  1
  Te  Te150  1  0.50084844  0.66776812  -0.00359283  1
  Te  Te151  1  0.49693482  0.67064180  0.33485720  1
  Te  Te152  1  0.50000805  0.67248008  0.67342785  1
  Te  Te153  1  0.82836253  -0.00588831  -0.00040289  1
  Te  Te154  1  0.82914354  -0.00064799  0.33332108  1
  Te  Te155  1  0.84174150  0.00006152  0.66668150  1
  Te  Te156  1  0.83427080  0.33347424  -0.00048440  1
  Te  Te157  1  0.83350916  0.33089906  0.32892241  1
  Te  Te158  1  0.83209404  0.33371226  0.67052928  1
  Te  Te159  1  0.83361059  0.66687199  0.00079056  1
  Te  Te160  1  0.83624760  0.67079051  0.33476243  1
  Te  Te161  1  0.83957844  0.66657853  0.65990828  1
  Te  Te162  1  0.00410577  0.16370722  0.00415672  1
  Te  Te163  1  -0.00035343  0.16608036  0.33155159  1
  Te  Te164  1  0.00089053  0.17077414  0.66636683  1
  Te  Te165  1  0.00274732  0.50462030  -0.00271677  1
  Te  Te166  1  0.00432371  0.50406095  0.33216637  1
  Te  Te167  1  -0.00023904  0.50253804  0.66856948  1
  Te  Te168  1  0.00906449  0.83181795  0.00017195  1
  Te  Te169  1  0.00011308  0.83148122  0.33292625  1
  Te  Te170  1  -0.00041757  0.83066762  0.66768202  1
  Te  Te171  1  0.33242465  0.16865026  -0.00208415  1
  Te  Te172  1  0.33510078  0.16411438  0.33198924  1
  Te  Te173  1  0.33733792  0.16404882  0.67044391  1
  Te  Te174  1  0.33217691  0.49942539  -0.00274231  1
  Te  Te175  1  0.32929654  0.49799149  0.33351555  1
  Te  Te176  1  0.33274167  0.49833105  0.67223795  1
  Te  Te177  1  0.32865960  0.83217937  -0.00057390  1
  Te  Te178  1  0.33179789  0.83435559  0.33425225  1
  Te  Te179  1  0.33754081  0.83876804  0.66715976  1
  Te  Te180  1  0.66618343  0.16350371  -0.00364542  1
  Te  Te181  1  0.66560622  0.16443137  0.33348053  1
  Te  Te182  1  0.66223913  0.16649235  0.66925195  1
  Te  Te183  1  0.66783319  0.49971042  0.00180087  1
  Te  Te184  1  0.66620319  0.50022456  0.33428422  1
  Te  Te185  1  0.66696572  0.49618526  0.66024946  1
  Te  Te186  1  0.66423278  0.83205548  0.00105334  1
  Te  Te187  1  0.66766042  0.83342003  0.33433369  1
  Te  Te188  1  0.66244905  0.83454469  0.66181716  1
  Te  Te189  1  0.00015775  0.00080776  0.16666882  1
  Te  Te190  1  -0.00057078  0.00110786  0.50805363  1
  Te  Te191  1  0.00016338  -0.00125359  0.82846875  1
  Te  Te192  1  -0.00560585  0.32994879  0.16608916  1
  Te  Te193  1  -0.00157103  0.34148560  0.50526772  1
  Te  Te194  1  -0.00227889  0.33523599  0.83095639  1
  Te  Te195  1  0.00357744  0.67003462  0.16580445  1
  Te  Te196  1  -0.00384822  0.66207226  0.49504092  1
  Te  Te197  1  -0.00223747  0.66650608  0.83637436  1
  Te  Te198  1  0.33363787  -0.00862107  0.15878129  1
  Te  Te199  1  0.33258820  0.00796127  0.50577839  1
  Te  Te200  1  0.33270013  -0.00036711  0.83506894  1
  Te  Te201  1  0.33429665  0.33443774  0.16478058  1
  Te  Te202  1  0.33393710  0.32707058  0.49798283  1
  Te  Te203  1  0.33577637  0.33318125  0.83570371  1
  Te  Te204  1  0.32866780  0.67127729  0.17535126  1
  Te  Te205  1  0.33399337  0.66476584  0.49580076  1
  Te  Te206  1  0.33295523  0.66829359  0.83038491  1
  Te  Te207  1  0.66685073  -0.00506299  0.16580753  1
  Te  Te208  1  0.66770312  0.00223073  0.49753521  1
  Te  Te209  1  0.66717642  -0.00111953  0.83576857  1
  Te  Te210  1  0.67079301  0.33493332  0.16675386  1
  Te  Te211  1  0.66714880  0.32803143  0.50523451  1
  Te  Te212  1  0.66626767  0.33371308  0.83114729  1
  Te  Te213  1  0.66577527  0.66733300  0.16118212  1
  Te  Te214  1  0.67102067  0.66642329  0.50152703  1
  Te  Te215  1  0.66648959  0.67041517  0.83719023  1
