# generated using pymatgen
data_AgSbTe2
_symmetry_space_group_name_H-M   'P 1'
_cell_length_a   18.32385195
_cell_length_b   18.32191622
_cell_length_c   18.32003711
_cell_angle_alpha   90.00330194
_cell_angle_beta   90.00183670
_cell_angle_gamma   89.99701016
_symmetry_Int_Tables_number   1
_chemical_formula_structural   AgSbTe2
_chemical_formula_sum   'Ag54 Sb54 Te108'
_cell_volume   6150.55086675
_cell_formula_units_Z   54
loop_
 _symmetry_equiv_pos_site_id
 _symmetry_equiv_pos_as_xyz
  1  'x, y, z'
loop_
 _atom_site_type_symbol
 _atom_site_label
 _atom_site_symmetry_multiplicity
 _atom_site_fract_x
 _atom_site_fract_y
 _atom_site_fract_z
 _atom_site_occupancy
  Ag  Ag0  1  0.66608624  0.33133064  0.66191354  1
  Ag  Ag1  1  0.50475435  0.00739592  0.50058205  1
  Ag  Ag2  1  0.49827635  0.83369457  0.33220455  1
  Ag  Ag3  1  0.32726349  0.17092355  0.16755583  1
  Ag  Ag4  1  0.33610717  0.66904965  -0.00183441  1
  Ag  Ag5  1  0.00250397  0.48807282  0.16690246  1
  Ag  Ag6  1  0.49469454  -0.00305180  0.82968781  1
  Ag  Ag7  1  0.00285603  0.49573671  0.83224040  1
  Ag  Ag8  1  0.66490230  0.00186587  0.34012160  1
  Ag  Ag9  1  0.49455687  0.67103368  0.83271571  1
  Ag  Ag10  1  0.66472048  0.66002721  0.66506512  1
  Ag  Ag11  1  -0.00158168  0.84513741  0.16869250  1
  Ag  Ag12  1  0.17386074  0.00486734  0.84009087  1
  Ag  Ag13  1  0.82979653  0.32831748  0.49981875  1
  Ag  Ag14  1  0.00716430  0.16937510  0.17137147  1
  Ag  Ag15  1  0.66275952  0.17084850  0.50246834  1
  Ag  Ag16  1  0.16413462  0.01110960  0.16488902  1
  Ag  Ag17  1  0.66315876  0.49573110  0.17520818  1
  Ag  Ag18  1  0.66639776  0.33222831  -0.00147581  1
  Ag  Ag19  1  0.33300921  0.33252372  0.65700109  1
  Ag  Ag20  1  0.83510370  0.16408199  0.33539438  1
  Ag  Ag21  1  0.66460936  0.01381358  0.65834896  1
  Ag  Ag22  1  0.33524925  0.83595821  0.83654793  1
  Ag  Ag23  1  0.34193338  0.48872356  0.49286511  1
  Ag  Ag24  1  0.16881510  0.16863676  0.00369032  1
  Ag  Ag25  1  0.49833096  0.66401113  0.16767393  1
  Ag  Ag26  1  0.49687828  0.50326702  0.33658706  1
  Ag  Ag27  1  0.66377983  0.16823234  0.82013912  1
  Ag  Ag28  1  0.84124740  0.00931649  0.17526467  1
  Ag  Ag29  1  0.33275365  0.00299121  0.00374208  1
  Ag  Ag30  1  0.17416566  0.49705833  0.33110471  1
  Ag  Ag31  1  0.33420125  0.00192890  0.32785594  1
  Ag  Ag32  1  -0.00354053  0.65499177  0.66679666  1
  Ag  Ag33  1  0.82383873  0.01086058  0.49289404  1
  Ag  Ag34  1  0.49803528  0.33026680  0.50262680  1
  Ag  Ag35  1  0.16215894  0.32877711  0.16240937  1
  Ag  Ag36  1  -0.00122660  0.84421145  0.49412168  1
  Ag  Ag37  1  0.17276523  0.66150546  0.83361691  1
  Ag  Ag38  1  -0.00665303  0.16869155  0.49404751  1
  Ag  Ag39  1  0.17168885  0.33251871  0.50034083  1
  Ag  Ag40  1  -0.00009460  0.33574315  0.66457557  1
  Ag  Ag41  1  0.83312885  0.83659201  0.00352428  1
  Ag  Ag42  1  0.32796875  0.33008356  0.00218299  1
  Ag  Ag43  1  0.66087440  0.48919977  0.49823110  1
  Ag  Ag44  1  0.33213669  0.49115216  0.17246956  1
  Ag  Ag45  1  0.50296043  0.16726063  0.66180334  1
  Ag  Ag46  1  0.49766766  0.83319982  0.00174455  1
  Ag  Ag47  1  0.83341589  0.49625972  0.66369371  1
  Ag  Ag48  1  -0.00045714  0.00133289  0.32979182  1
  Ag  Ag49  1  0.00644398  0.33286918  0.00773513  1
  Ag  Ag50  1  0.50070755  0.65931764  0.50114072  1
  Ag  Ag51  1  0.16593812  0.33246149  0.83940077  1
  Ag  Ag52  1  0.84462461  0.32913287  0.16803266  1
  Ag  Ag53  1  0.33811995  0.17225260  0.49626959  1
  Sb  Sb54  1  0.82722652  0.17314728  0.65671784  1
  Sb  Sb55  1  0.83177407  0.00179538  0.83249049  1
  Sb  Sb56  1  0.66593301  0.32934650  0.33927160  1
  Sb  Sb57  1  0.66623644  0.17069319  0.17045229  1
  Sb  Sb58  1  0.17158989  0.17028908  0.66854498  1
  Sb  Sb59  1  0.33371651  0.83608619  0.50256692  1
  Sb  Sb60  1  -0.00061196  0.17172941  0.83321961  1
  Sb  Sb61  1  0.50489717  0.49522477  0.65922084  1
  Sb  Sb62  1  0.50072032  0.83659190  0.66583638  1
  Sb  Sb63  1  0.83714935  0.33259250  0.83175443  1
  Sb  Sb64  1  0.17086419  0.66267613  0.16092259  1
  Sb  Sb65  1  0.49586194  0.16447993  -0.00296528  1
  Sb  Sb66  1  0.32910232  0.49944491  0.83479775  1
  Sb  Sb67  1  -0.00463836  0.00595960  0.66086389  1
  Sb  Sb68  1  -0.00035667  0.49305673  0.49776663  1
  Sb  Sb69  1  0.83682998  0.16543446  0.00689947  1
  Sb  Sb70  1  0.49598565  0.33290020  0.82868319  1
  Sb  Sb71  1  0.00511106  0.00467868  0.00637524  1
  Sb  Sb72  1  0.33591887  0.66602861  0.32840889  1
  Sb  Sb73  1  0.16569092  0.83365163  0.66711538  1
  Sb  Sb74  1  0.83342565  0.83149064  0.66784864  1
  Sb  Sb75  1  0.83352185  0.49916425  -0.00075453  1
  Sb  Sb76  1  0.16838690  0.00858744  0.49773925  1
  Sb  Sb77  1  0.66003952  0.83745963  0.83342242  1
  Sb  Sb78  1  0.33613107  0.65919967  0.67048240  1
  Sb  Sb79  1  0.17039764  0.65925733  0.50481869  1
  Sb  Sb80  1  0.66772218  0.49495764  0.82890403  1
  Sb  Sb81  1  0.16444130  0.17064593  0.32848999  1
  Sb  Sb82  1  0.33147120  0.83604282  0.16237064  1
  Sb  Sb83  1  0.49817511  -0.00274371  0.16982338  1
  Sb  Sb84  1  0.83180468  0.49255405  0.33530680  1
  Sb  Sb85  1  0.00119498  0.67089617  0.33694865  1
  Sb  Sb86  1  0.16748791  0.49065466  0.00511250  1
  Sb  Sb87  1  0.83216336  0.66585663  0.83289928  1
  Sb  Sb88  1  0.33298701  0.33020681  0.33437420  1
  Sb  Sb89  1  0.66819374  0.83179726  0.16671313  1
  Sb  Sb90  1  0.50070001  0.16463519  0.33949234  1
  Sb  Sb91  1  0.49782688  0.50224430  0.00536540  1
  Sb  Sb92  1  0.00532166  0.83017362  0.83523985  1
  Sb  Sb93  1  0.66281633  0.00520560  0.00051806  1
  Sb  Sb94  1  0.33912571  0.00706635  0.66711582  1
  Sb  Sb95  1  0.17020114  0.83904637  0.00048739  1
  Sb  Sb96  1  0.00073616  0.32736563  0.33258432  1
  Sb  Sb97  1  0.49759312  0.33707725  0.17114051  1
  Sb  Sb98  1  0.83051464  0.84363394  0.33104500  1
  Sb  Sb99  1  0.66807041  0.83876409  0.50019587  1
  Sb  Sb100  1  0.82911380  0.66375012  0.50189049  1
  Sb  Sb101  1  0.66253663  0.66883538  0.33802324  1
  Sb  Sb102  1  0.33545366  0.16514152  0.83516640  1
  Sb  Sb103  1  0.16312486  0.49552108  0.66474547  1
  Sb  Sb104  1  0.00613809  0.66269058  -0.00306729  1
  Sb  Sb105  1  0.83055135  0.66344947  0.16567449  1
  Sb  Sb106  1  0.17054082  0.83382068  0.33180072  1
  Sb  Sb107  1  0.65995992  0.66188895  -0.00347554  1
  Te  Te108  1  0.16759944  0.16796397  0.16653639  1
  Te  Te109  1  0.17018855  0.17280916  0.50111073  1
  Te  Te110  1  0.16708222  0.16794268  0.83799282  1
  Te  Te111  1  0.16729282  0.49820041  0.17028846  1
  Te  Te112  1  0.17076459  0.49439957  0.49491467  1
  Te  Te113  1  0.16208146  0.49683749  0.83330841  1
  Te  Te114  1  0.15989229  0.83336159  0.16719579  1
  Te  Te115  1  0.15987358  0.83253956  0.49898067  1
  Te  Te116  1  0.17227022  0.83648775  0.83351565  1
  Te  Te117  1  0.49252931  0.16726243  0.16781654  1
  Te  Te118  1  0.50009492  0.16739924  0.50005151  1
  Te  Te119  1  0.50294436  0.16430601  0.82943891  1
  Te  Te120  1  0.49896334  0.50299321  0.17163974  1
  Te  Te121  1  0.50103078  0.49951737  0.49896885  1
  Te  Te122  1  0.49900307  0.50664530  0.83213041  1
  Te  Te123  1  0.49994214  0.82852923  0.16634003  1
  Te  Te124  1  0.49943130  0.83472749  0.49660549  1
  Te  Te125  1  0.49615012  0.83484411  0.83423044  1
  Te  Te126  1  0.83338496  0.16870180  0.17177404  1
  Te  Te127  1  0.83423590  0.16756127  0.49738453  1
  Te  Te128  1  0.82533477  0.16568178  0.83591770  1
  Te  Te129  1  0.83440516  0.49391973  0.16725682  1
  Te  Te130  1  0.82785049  0.49546402  0.50190267  1
  Te  Te131  1  0.84040864  0.50022657  0.82879555  1
  Te  Te132  1  0.83650921  0.83419459  0.16427886  1
  Te  Te133  1  0.83967231  0.83517820  0.49928429  1
  Te  Te134  1  0.83422062  0.83411437  0.84117602  1
  Te  Te135  1  0.17118074  0.00472192  0.00160678  1
  Te  Te136  1  0.16841963  -0.00061597  0.32912719  1
  Te  Te137  1  0.16579758  0.00184695  0.67263244  1
  Te  Te138  1  0.16674622  0.33008465  0.00175769  1
  Te  Te139  1  0.16670433  0.33855116  0.33322195  1
  Te  Te140  1  0.16672857  0.33302066  0.66546810  1
  Te  Te141  1  0.17381964  0.66769800  -0.00739256  1
  Te  Te142  1  0.16794840  0.65918520  0.33432188  1
  Te  Te143  1  0.16415122  0.66595943  0.67349610  1
  Te  Te144  1  0.49596648  -0.00352904  -0.00206406  1
  Te  Te145  1  0.49864201  -0.00085366  0.33547684  1
  Te  Te146  1  0.50433958  0.00281338  0.66576792  1
  Te  Te147  1  0.49875335  0.33343821  -0.00195113  1
  Te  Te148  1  0.49983002  0.34080441  0.34172429  1
  Te  Te149  1  0.50113152  0.32967379  0.66341026  1
  Te  Te150  1  0.49670864  0.67021612  -0.00209827  1
  Te  Te151  1  0.50010662  0.66751315  0.33465677  1
  Te  Te152  1  0.50199317  0.66768175  0.66615865  1
  Te  Te153  1  0.83241266  -0.00286750  0.00286572  1
  Te  Te154  1  0.83581098  0.00286510  0.33382218  1
  Te  Te155  1  0.82641779  -0.00081821  0.66298227  1
  Te  Te156  1  0.83287060  0.33323604  0.00320632  1
  Te  Te157  1  0.83269548  0.32722215  0.33255120  1
  Te  Te158  1  0.83311883  0.33626951  0.66537331  1
  Te  Te159  1  0.83269425  0.67375209  0.00022671  1
  Te  Te160  1  0.83179116  0.66890902  0.33353856  1
  Te  Te161  1  0.83352070  0.66142638  0.66731975  1
  Te  Te162  1  0.00399702  0.17274300  0.00242130  1
  Te  Te163  1  -0.00135975  0.16121110  0.33318407  1
  Te  Te164  1  0.00010719  0.17403969  0.66341411  1
  Te  Te165  1  -0.00094756  0.49526182  0.00253900  1
  Te  Te166  1  -0.00053685  0.50314655  0.32818873  1
  Te  Te167  1  -0.00285893  0.49641352  0.66429354  1
  Te  Te168  1  -0.00166771  0.83177960  0.00430585  1
  Te  Te169  1  0.00100904  0.83793387  0.33258381  1
  Te  Te170  1  -0.00186825  0.83280422  0.66409573  1
  Te  Te171  1  0.33060911  0.16675210  0.00206658  1
  Te  Te172  1  0.33384427  0.16100432  0.33346182  1
  Te  Te173  1  0.33884964  0.17333795  0.66186314  1
  Te  Te174  1  0.33353220  0.49608313  0.00521473  1
  Te  Te175  1  0.33596401  0.50207303  0.33301410  1
  Te  Te176  1  0.33330308  0.49192628  0.66192370  1
  Te  Te177  1  0.33634171  0.83515258  -0.00260738  1
  Te  Te178  1  0.33817025  0.83934370  0.33371339  1
  Te  Te179  1  0.33276795  0.83263776  0.67361889  1
  Te  Te180  1  0.66616938  0.17340190  0.00185650  1
  Te  Te181  1  0.66993441  0.16057483  0.33789299  1
  Te  Te182  1  0.66464161  0.16962476  0.66328403  1
  Te  Te183  1  0.66693053  0.49321554  0.00127969  1
  Te  Te184  1  0.66413330  0.50154047  0.33465090  1
  Te  Te185  1  0.67069717  0.49600742  0.66384848  1
  Te  Te186  1  0.66180261  0.83294314  -0.00005555  1
  Te  Te187  1  0.65943375  0.83999266  0.33289443  1
  Te  Te188  1  0.66835410  0.82531655  0.66762152  1
  Te  Te189  1  0.00122488  0.00408007  0.16722160  1
  Te  Te190  1  0.00141410  0.00409617  0.49727488  1
  Te  Te191  1  0.00496062  0.00053554  0.83208368  1
  Te  Te192  1  0.00112976  0.33044358  0.16814445  1
  Te  Te193  1  -0.00148540  0.33005912  0.50049591  1
  Te  Te194  1  0.00391876  0.33542433  0.83068348  1
  Te  Te195  1  0.00088930  0.66329154  0.16658738  1
  Te  Te196  1  0.00072964  0.66543661  0.50578207  1
  Te  Te197  1  0.00293753  0.66207027  0.82902702  1
  Te  Te198  1  0.33146434  0.00111442  0.16512013  1
  Te  Te199  1  0.33699335  0.00289749  0.49874077  1
  Te  Te200  1  0.33438270  -0.00025145  0.83332438  1
  Te  Te201  1  0.33214585  0.33226075  0.16581202  1
  Te  Te202  1  0.33344706  0.33225376  0.49830471  1
  Te  Te203  1  0.32796693  0.33320660  0.83861611  1
  Te  Te204  1  0.33765385  0.66515155  0.16106987  1
  Te  Te205  1  0.33893815  0.66629899  0.50131303  1
  Te  Te206  1  0.33392498  0.66606312  0.83618760  1
  Te  Te207  1  0.67104160  0.00106842  0.16925605  1
  Te  Te208  1  0.66590977  0.00034131  0.50028806  1
  Te  Te209  1  0.66224423  0.00487580  0.83193298  1
  Te  Te210  1  0.66439783  0.33684266  0.16566140  1
  Te  Te211  1  0.66843530  0.33107195  0.50067554  1
  Te  Te212  1  0.66568916  0.32997511  0.83231246  1
  Te  Te213  1  0.66139185  0.65964514  0.16573112  1
  Te  Te214  1  0.66199386  0.66541327  0.50439060  1
  Te  Te215  1  0.66158814  0.66499656  0.82808379  1
