# generated using pymatgen
data_AgSbTe2
_symmetry_space_group_name_H-M   'P 1'
_cell_length_a   18.31147056
_cell_length_b   18.31388911
_cell_length_c   18.31042532
_cell_angle_alpha   89.99895190
_cell_angle_beta   90.00215826
_cell_angle_gamma   90.00271915
_symmetry_Int_Tables_number   1
_chemical_formula_structural   AgSbTe2
_chemical_formula_sum   'Ag54 Sb54 Te108'
_cell_volume   6140.47877795
_cell_formula_units_Z   54
loop_
 _symmetry_equiv_pos_site_id
 _symmetry_equiv_pos_as_xyz
  1  'x, y, z'
loop_
 _atom_site_type_symbol
 _atom_site_label
 _atom_site_symmetry_multiplicity
 _atom_site_fract_x
 _atom_site_fract_y
 _atom_site_fract_z
 _atom_site_occupancy
  Ag  Ag0  1  0.65456768  0.16705483  0.16971080  1
  Ag  Ag1  1  0.49641665  0.32963257  0.83747128  1
  Ag  Ag2  1  0.17227326  0.00232334  0.17376543  1
  Ag  Ag3  1  0.67202913  0.66250492  0.66962961  1
  Ag  Ag4  1  0.16457693  0.49880969  0.66603285  1
  Ag  Ag5  1  0.17286803  0.32821672  0.83048840  1
  Ag  Ag6  1  0.16836453  0.33438551  0.50603621  1
  Ag  Ag7  1  0.00514685  -0.00492529  0.33563805  1
  Ag  Ag8  1  0.49276335  0.16376868  0.32641138  1
  Ag  Ag9  1  0.49526737  0.00794466  0.83886800  1
  Ag  Ag10  1  0.84095391  0.83783079  0.34688473  1
  Ag  Ag11  1  0.66725785  0.33582376  0.66919069  1
  Ag  Ag12  1  0.17266510  0.16625338  0.66554285  1
  Ag  Ag13  1  0.82948364  0.66874050  0.82907766  1
  Ag  Ag14  1  0.33749772  0.49234919  0.83250345  1
  Ag  Ag15  1  0.17616020  0.15866626  0.33400300  1
  Ag  Ag16  1  0.16011781  0.84130549  0.33610108  1
  Ag  Ag17  1  0.33525311  0.67004120  -0.00041803  1
  Ag  Ag18  1  0.16606465  0.66899454  0.50074271  1
  Ag  Ag19  1  0.66508278  0.16027524  0.49775324  1
  Ag  Ag20  1  0.15836877  0.83578899  0.65983695  1
  Ag  Ag21  1  0.83662742  0.83074573  0.65868523  1
  Ag  Ag22  1  0.66665999  0.66612310  -0.00444877  1
  Ag  Ag23  1  0.83271245  -0.00241800  0.83120406  1
  Ag  Ag24  1  0.83134648  0.51087137  0.66962103  1
  Ag  Ag25  1  0.83139326  0.67968825  0.50984126  1
  Ag  Ag26  1  0.00064366  -0.00285967  0.66397272  1
  Ag  Ag27  1  -0.00209535  0.66772196  0.00064103  1
  Ag  Ag28  1  0.49292564  0.00655185  0.16334212  1
  Ag  Ag29  1  0.17364595  0.32748166  0.16764667  1
  Ag  Ag30  1  0.49749853  0.16575164  0.66714926  1
  Ag  Ag31  1  0.83318392  -0.00870466  0.50349649  1
  Ag  Ag32  1  0.33640806  0.16498386  0.16765209  1
  Ag  Ag33  1  0.50078826  0.50368440  -0.00225174  1
  Ag  Ag34  1  0.32571874  0.00717804  0.32652869  1
  Ag  Ag35  1  0.83124362  0.15918687  -0.00341866  1
  Ag  Ag36  1  0.66445514  0.49885716  0.83409948  1
  Ag  Ag37  1  0.50380433  0.83125554  -0.00010310  1
  Ag  Ag38  1  0.66730584  0.00154914  0.33423306  1
  Ag  Ag39  1  0.00079515  0.33620215  -0.00125541  1
  Ag  Ag40  1  0.33081756  0.50032998  0.50506015  1
  Ag  Ag41  1  0.00207049  0.83502613  0.17187778  1
  Ag  Ag42  1  0.16753534  0.67210416  0.16804503  1
  Ag  Ag43  1  0.33110363  0.32426443  0.32964525  1
  Ag  Ag44  1  0.67767496  0.83581863  0.49996084  1
  Ag  Ag45  1  0.33556109  -0.00152333  0.00411608  1
  Ag  Ag46  1  0.66410402  0.49655906  0.15830952  1
  Ag  Ag47  1  0.49565758  0.32333904  0.16147041  1
  Ag  Ag48  1  0.50395537  0.66777255  0.50178533  1
  Ag  Ag49  1  0.33421068  0.16878078  0.83759556  1
  Ag  Ag50  1  0.82807634  0.33349127  0.83316043  1
  Ag  Ag51  1  -0.00723267  0.83484646  0.49638947  1
  Ag  Ag52  1  0.83189372  0.83358192  -0.00355479  1
  Ag  Ag53  1  0.17037195  0.00565853  0.83240037  1
  Sb  Sb54  1  0.16230926  -0.00127359  0.49840652  1
  Sb  Sb55  1  -0.00236509  0.83448420  0.83176897  1
  Sb  Sb56  1  0.66712756  0.33660580  -0.00432935  1
  Sb  Sb57  1  -0.00183393  0.49916099  0.83263199  1
  Sb  Sb58  1  0.16413333  0.83386201  0.00137115  1
  Sb  Sb59  1  0.00507724  0.50787248  0.50226945  1
  Sb  Sb60  1  0.16838558  0.49832598  0.33687800  1
  Sb  Sb61  1  0.49641698  0.66783426  0.16517474  1
  Sb  Sb62  1  0.00795346  0.32387639  0.32922938  1
  Sb  Sb63  1  0.33076769  0.83048540  0.49915500  1
  Sb  Sb64  1  0.50294585  0.83740791  0.66955533  1
  Sb  Sb65  1  0.49549294  0.33390025  0.50161313  1
  Sb  Sb66  1  0.33475744  0.66515381  0.66943866  1
  Sb  Sb67  1  0.49918884  0.49437596  0.33015677  1
  Sb  Sb68  1  0.66289932  0.32522411  0.33583784  1
  Sb  Sb69  1  0.83393649  -0.00151452  0.16593028  1
  Sb  Sb70  1  -0.00133847  0.16014581  0.50058039  1
  Sb  Sb71  1  0.00206567  -0.00224163  0.00012665  1
  Sb  Sb72  1  0.33395225  0.16921846  0.49636591  1
  Sb  Sb73  1  0.83071807  0.50690225  0.33955130  1
  Sb  Sb74  1  0.17219012  0.49960783  -0.00478359  1
  Sb  Sb75  1  0.32784822  0.84235804  0.16566636  1
  Sb  Sb76  1  0.00121018  0.67636408  0.33098102  1
  Sb  Sb77  1  0.83198237  0.16256528  0.67113111  1
  Sb  Sb78  1  0.50354907  0.66459864  0.83356295  1
  Sb  Sb79  1  0.50534406  -0.00078446  0.49860201  1
  Sb  Sb80  1  0.33343602  0.33291886  0.66710568  1
  Sb  Sb81  1  0.50242882  0.16512396  0.00165590  1
  Sb  Sb82  1  0.67017571  0.83529723  0.16906051  1
  Sb  Sb83  1  0.66247987  -0.00357222  0.00218675  1
  Sb  Sb84  1  0.16432542  0.66690350  0.83189640  1
  Sb  Sb85  1  0.33112055  0.66816759  0.33011644  1
  Sb  Sb86  1  0.32796286  0.00188446  0.66775497  1
  Sb  Sb87  1  -0.00140186  0.50282356  0.16433996  1
  Sb  Sb88  1  0.83213632  0.15951283  0.33103037  1
  Sb  Sb89  1  0.66991002  0.82951186  0.83002907  1
  Sb  Sb90  1  0.67124677  0.00029555  0.66449839  1
  Sb  Sb91  1  0.82781872  0.50425478  -0.00815295  1
  Sb  Sb92  1  0.66201972  0.17042354  0.83303406  1
  Sb  Sb93  1  0.00070834  0.32840459  0.67079572  1
  Sb  Sb94  1  0.66249744  0.50265232  0.50448647  1
  Sb  Sb95  1  0.83672113  0.33300316  0.50666785  1
  Sb  Sb96  1  -0.00471280  0.67257574  0.66981724  1
  Sb  Sb97  1  0.49953771  0.84120435  0.33017165  1
  Sb  Sb98  1  0.83555698  0.66851462  0.16274316  1
  Sb  Sb99  1  0.83144948  0.33133431  0.15963294  1
  Sb  Sb100  1  0.33219714  0.33009789  0.00067526  1
  Sb  Sb101  1  0.33621589  0.49471331  0.16366700  1
  Sb  Sb102  1  0.16606788  0.16620593  0.00004116  1
  Sb  Sb103  1  0.33340278  0.83620454  0.83596677  1
  Sb  Sb104  1  0.00539907  0.16637550  0.83446509  1
  Sb  Sb105  1  0.00473818  0.16195928  0.16520470  1
  Sb  Sb106  1  0.50150070  0.49555050  0.67169498  1
  Sb  Sb107  1  0.66656151  0.67278894  0.33478772  1
  Te  Te108  1  0.17027387  0.16597132  0.16705458  1
  Te  Te109  1  0.16674523  0.16976880  0.50048754  1
  Te  Te110  1  0.17138187  0.16629328  0.83317515  1
  Te  Te111  1  0.16684686  0.49850548  0.16734957  1
  Te  Te112  1  0.17008080  0.50035102  0.50359334  1
  Te  Te113  1  0.17020812  0.49771769  0.82797856  1
  Te  Te114  1  0.16307346  0.83391009  0.16803499  1
  Te  Te115  1  0.16573881  0.83140421  0.50016272  1
  Te  Te116  1  0.16579409  0.83740389  0.82760691  1
  Te  Te117  1  0.49843316  0.16668550  0.16557920  1
  Te  Te118  1  0.50419139  0.16763188  0.50378115  1
  Te  Te119  1  0.49603505  0.16802833  0.83386854  1
  Te  Te120  1  0.50406757  0.49946551  0.16244323  1
  Te  Te121  1  0.49392654  0.50439565  0.50024370  1
  Te  Te122  1  0.49957296  0.49768737  0.83594151  1
  Te  Te123  1  0.50135105  0.83789325  0.16150031  1
  Te  Te124  1  0.50110476  0.82817751  0.50011118  1
  Te  Te125  1  0.50149791  0.83946546  0.83841416  1
  Te  Te126  1  0.83046097  0.16676136  0.16199535  1
  Te  Te127  1  0.82737635  0.16443951  0.50081515  1
  Te  Te128  1  0.83239414  0.16661919  0.83641545  1
  Te  Te129  1  0.82606092  0.50007912  0.16988264  1
  Te  Te130  1  0.83369068  0.50273778  0.50817331  1
  Te  Te131  1  0.83073332  0.49889106  0.82801880  1
  Te  Te132  1  0.83848571  0.83294889  0.15974063  1
  Te  Te133  1  0.83365855  0.83504633  0.50184083  1
  Te  Te134  1  0.83262553  0.83509794  0.83619247  1
  Te  Te135  1  0.17058893  -0.00084098  -0.00373172  1
  Te  Te136  1  0.16698198  -0.00000151  0.33389130  1
  Te  Te137  1  0.16335110  0.00082963  0.66733074  1
  Te  Te138  1  0.16337247  0.33329952  -0.00236525  1
  Te  Te139  1  0.16979991  0.33121737  0.32944565  1
  Te  Te140  1  0.16606219  0.33153085  0.66889104  1
  Te  Te141  1  0.16768518  0.66671391  0.00107356  1
  Te  Te142  1  0.16729677  0.66950524  0.33310279  1
  Te  Te143  1  0.16606132  0.66679582  0.66424924  1
  Te  Te144  1  0.49730573  -0.00163935  -0.00069158  1
  Te  Te145  1  0.50183003  0.00441440  0.33123310  1
  Te  Te146  1  0.49948977  0.00479000  0.67198955  1
  Te  Te147  1  0.49951472  0.33745604  -0.00094566  1
  Te  Te148  1  0.49572829  0.32650109  0.33120073  1
  Te  Te149  1  0.50406066  0.32821385  0.66979835  1
  Te  Te150  1  0.50120270  0.66872251  0.00029642  1
  Te  Te151  1  0.49872133  0.66787174  0.33891788  1
  Te  Te152  1  0.50502207  0.66859643  0.66272682  1
  Te  Te153  1  0.83391140  -0.00239224  -0.00323549  1
  Te  Te154  1  0.83263112  -0.00334133  0.33306688  1
  Te  Te155  1  0.83672398  -0.00285926  0.66956336  1
  Te  Te156  1  0.83653289  0.33539010  -0.00641137  1
  Te  Te157  1  0.83671400  0.33385483  0.33508075  1
  Te  Te158  1  0.83193079  0.33275784  0.67262786  1
  Te  Te159  1  0.83094083  0.66895546  -0.00255691  1
  Te  Te160  1  0.83339163  0.67467170  0.33895551  1
  Te  Te161  1  0.83321850  0.66928263  0.66847170  1
  Te  Te162  1  -0.00924135  0.17041718  0.00078657  1
  Te  Te163  1  0.00464289  0.15662258  0.33316272  1
  Te  Te164  1  0.00764387  0.15941310  0.66629508  1
  Te  Te165  1  -0.00046531  0.50177002  0.00033368  1
  Te  Te166  1  -0.00190554  0.49876202  0.33317315  1
  Te  Te167  1  0.00217542  0.49859853  0.66654338  1
  Te  Te168  1  -0.00352376  0.82984736  0.00278489  1
  Te  Te169  1  0.00036412  0.83643354  0.33338838  1
  Te  Te170  1  -0.00096341  0.83661549  0.66455797  1
  Te  Te171  1  0.33369853  0.16093572  -0.00035029  1
  Te  Te172  1  0.33294381  0.16619806  0.33335150  1
  Te  Te173  1  0.33306730  0.16676787  0.67017225  1
  Te  Te174  1  0.33864384  0.50276055  -0.00406630  1
  Te  Te175  1  0.33412893  0.49614724  0.33671651  1
  Te  Te176  1  0.33038650  0.49955359  0.66831977  1
  Te  Te177  1  0.33726982  0.83325407  0.00034541  1
  Te  Te178  1  0.32811405  0.83847543  0.33228364  1
  Te  Te179  1  0.32776183  0.83279602  0.66766249  1
  Te  Te180  1  0.67246470  0.16706402  0.00500949  1
  Te  Te181  1  0.66516668  0.16186618  0.33327809  1
  Te  Te182  1  0.66394499  0.16925303  0.66410591  1
  Te  Te183  1  0.66298414  0.50318059  -0.00241903  1
  Te  Te184  1  0.66604264  0.49838764  0.32813788  1
  Te  Te185  1  0.66827420  0.50080009  0.66973530  1
  Te  Te186  1  0.66790358  0.82768700  0.00074649  1
  Te  Te187  1  0.66793370  0.83979695  0.33728362  1
  Te  Te188  1  0.66998304  0.82924784  0.66133318  1
  Te  Te189  1  0.00541317  -0.00435285  0.16847701  1
  Te  Te190  1  -0.00523846  -0.00453428  0.49984467  1
  Te  Te191  1  0.00018917  0.00047532  0.83138656  1
  Te  Te192  1  0.00430085  0.33337948  0.16070557  1
  Te  Te193  1  0.00788420  0.33344783  0.49865271  1
  Te  Te194  1  0.00195899  0.33298141  0.83831104  1
  Te  Te195  1  0.00562273  0.66945306  0.16186362  1
  Te  Te196  1  0.00231823  0.67401733  0.50054346  1
  Te  Te197  1  -0.00632618  0.66627263  0.84045760  1
  Te  Te198  1  0.33278553  0.00339686  0.16566907  1
  Te  Te199  1  0.33570200  0.00003098  0.49373236  1
  Te  Te200  1  0.33239863  0.00241913  0.83403467  1
  Te  Te201  1  0.33397465  0.32926834  0.16725205  1
  Te  Te202  1  0.32807694  0.33701895  0.49611813  1
  Te  Te203  1  0.33377884  0.33225674  0.83451528  1
  Te  Te204  1  0.32778818  0.66403114  0.16170196  1
  Te  Te205  1  0.32860645  0.66236213  0.49954284  1
  Te  Te206  1  0.33408663  0.66289226  0.83910758  1
  Te  Te207  1  0.66325179  0.00327269  0.17006444  1
  Te  Te208  1  0.67057860  0.00023871  0.49832235  1
  Te  Te209  1  0.66839140  0.00119454  0.83339061  1
  Te  Te210  1  0.66301123  0.33162932  0.16721074  1
  Te  Te211  1  0.66663865  0.33282054  0.50525914  1
  Te  Te212  1  0.66557406  0.33643744  0.83010402  1
  Te  Te213  1  0.66573824  0.66344306  0.16406136  1
  Te  Te214  1  0.66882182  0.66746681  0.50084165  1
  Te  Te215  1  0.66909916  0.66302383  0.83336914  1
