# generated using pymatgen
data_AgSbTe2
_symmetry_space_group_name_H-M   'P 1'
_cell_length_a   18.34610226
_cell_length_b   18.34825500
_cell_length_c   18.35011239
_cell_angle_alpha   90.00257518
_cell_angle_beta   89.99973396
_cell_angle_gamma   90.00454660
_symmetry_Int_Tables_number   1
_chemical_formula_structural   AgSbTe2
_chemical_formula_sum   'Ag54 Sb54 Te108'
_cell_volume   6176.99577112
_cell_formula_units_Z   54
loop_
 _symmetry_equiv_pos_site_id
 _symmetry_equiv_pos_as_xyz
  1  'x, y, z'
loop_
 _atom_site_type_symbol
 _atom_site_label
 _atom_site_symmetry_multiplicity
 _atom_site_fract_x
 _atom_site_fract_y
 _atom_site_fract_z
 _atom_site_occupancy
  Ag  Ag0  1  0.50721848  0.17102405  -0.00083369  1
  Ag  Ag1  1  0.50263004  0.33632270  0.83486903  1
  Ag  Ag2  1  0.50429851  0.65717099  0.83642894  1
  Ag  Ag3  1  0.83642913  0.82474393  0.33539581  1
  Ag  Ag4  1  0.15409595  0.49685192  0.67233156  1
  Ag  Ag5  1  0.68154869  0.00727760  0.66505352  1
  Ag  Ag6  1  0.67682773  0.50076089  0.16468313  1
  Ag  Ag7  1  0.50853724  0.33527296  0.16195058  1
  Ag  Ag8  1  -0.00610291  0.49655478  0.15591492  1
  Ag  Ag9  1  -0.00321205  0.33901086  0.32682734  1
  Ag  Ag10  1  0.00042284  0.17785962  0.83629888  1
  Ag  Ag11  1  0.67151952  0.50216885  0.50273211  1
  Ag  Ag12  1  0.83564471  0.49923009  0.67435807  1
  Ag  Ag13  1  -0.00313658  0.83241028  0.49845321  1
  Ag  Ag14  1  0.83835822  0.16826788  0.32662971  1
  Ag  Ag15  1  0.67122484  0.82081377  0.17261178  1
  Ag  Ag16  1  0.83374636  0.50377907  0.33274678  1
  Ag  Ag17  1  0.83528544  0.66973476  0.49623471  1
  Ag  Ag18  1  -0.00375161  0.33826559  0.66573065  1
  Ag  Ag19  1  0.83540397  0.49711317  0.00169518  1
  Ag  Ag20  1  0.50644977  0.33205159  0.50226839  1
  Ag  Ag21  1  0.67563681  0.66553092  0.33471044  1
  Ag  Ag22  1  0.83627561  0.00814917  0.16882946  1
  Ag  Ag23  1  0.33038222  0.50024309  0.50154695  1
  Ag  Ag24  1  0.83326890  0.33652332  0.16575728  1
  Ag  Ag25  1  0.15118431  0.33638628  0.15489641  1
  Ag  Ag26  1  0.15785066  0.34120806  0.83909774  1
  Ag  Ag27  1  -0.00438987  0.66171904  0.34212262  1
  Ag  Ag28  1  0.51023262  0.00635150  0.50197407  1
  Ag  Ag29  1  -0.00075027  0.65565599  -0.00688936  1
  Ag  Ag30  1  0.15513349  0.17349041  -0.00491253  1
  Ag  Ag31  1  0.15687497  0.49407095  -0.00890303  1
  Ag  Ag32  1  0.50894812  0.65564863  0.15871162  1
  Ag  Ag33  1  -0.00183445  0.49979572  0.83567316  1
  Ag  Ag34  1  0.15563392  0.83106160  0.33550365  1
  Ag  Ag35  1  0.15514902  0.65896847  0.83122087  1
  Ag  Ag36  1  0.83415441  -0.00669607  0.50315736  1
  Ag  Ag37  1  -0.00063808  0.16073745  0.50882094  1
  Ag  Ag38  1  0.83667536  0.17416688  0.00392550  1
  Ag  Ag39  1  0.67898124  0.82650029  0.49756770  1
  Ag  Ag40  1  0.83649529  -0.00382529  0.82771059  1
  Ag  Ag41  1  0.15213744  -0.00794387  0.50184074  1
  Ag  Ag42  1  0.15715102  0.17603133  0.67454594  1
  Ag  Ag43  1  -0.00124019  0.00629258  0.66668999  1
  Ag  Ag44  1  -0.00356449  0.01191155  -0.00813114  1
  Ag  Ag45  1  0.15195605  0.66827497  0.50665006  1
  Ag  Ag46  1  0.83863774  0.65896014  0.82893786  1
  Ag  Ag47  1  0.66727672  0.33644669  -0.00393225  1
  Ag  Ag48  1  -0.00330093  0.17657978  0.15824786  1
  Ag  Ag49  1  0.15888443  0.82760185  0.00077678  1
  Ag  Ag50  1  -0.00189024  0.65711759  0.66833358  1
  Ag  Ag51  1  0.32482257  0.83051899  0.83421643  1
  Ag  Ag52  1  0.68183107  0.49946682  0.83307430  1
  Ag  Ag53  1  0.67448407  0.33506324  0.67199617  1
  Sb  Sb54  1  0.32730888  0.50195107  0.83051147  1
  Sb  Sb55  1  -0.00477859  -0.00013811  0.33882745  1
  Sb  Sb56  1  -0.00546670  0.83186748  0.17113194  1
  Sb  Sb57  1  0.83793159  0.33719058  0.83773740  1
  Sb  Sb58  1  0.32298408  -0.00031184  -0.00200583  1
  Sb  Sb59  1  0.16215192  0.33664856  0.50262947  1
  Sb  Sb60  1  0.84155403  0.16848118  0.66808871  1
  Sb  Sb61  1  0.50610698  0.49828244  0.66742689  1
  Sb  Sb62  1  0.32530178  0.33545205  0.33526741  1
  Sb  Sb63  1  -0.00534829  0.33442671  0.00101996  1
  Sb  Sb64  1  0.67477828  0.66159261  0.00197963  1
  Sb  Sb65  1  0.83389738  0.33672149  0.49746455  1
  Sb  Sb66  1  0.32683076  0.66606460  -0.00194448  1
  Sb  Sb67  1  0.49765672  0.16997037  0.66887055  1
  Sb  Sb68  1  0.32890308  0.66464515  0.33373961  1
  Sb  Sb69  1  0.50391485  0.83308118  0.66658550  1
  Sb  Sb70  1  0.83270829  0.66038628  0.17020472  1
  Sb  Sb71  1  0.67527132  0.34005724  0.33226211  1
  Sb  Sb72  1  -0.00593090  0.50400988  0.50409323  1
  Sb  Sb73  1  0.00032727  0.82819242  0.83235387  1
  Sb  Sb74  1  0.50876777  0.49962417  0.33380232  1
  Sb  Sb75  1  0.15566806  0.00302510  0.16851033  1
  Sb  Sb76  1  0.32776836  0.17058957  0.50118168  1
  Sb  Sb77  1  0.51090490  0.17016854  0.33128347  1
  Sb  Sb78  1  0.32694954  0.16546211  0.83398915  1
  Sb  Sb79  1  0.67614646  0.00331793  -0.00295432  1
  Sb  Sb80  1  0.50904592  0.00333081  0.83044208  1
  Sb  Sb81  1  0.33362293  0.83123110  0.16362725  1
  Sb  Sb82  1  0.32841695  0.82983299  0.50396419  1
  Sb  Sb83  1  0.32569828  0.16862680  0.16479368  1
  Sb  Sb84  1  0.33088543  -0.00124463  0.33529447  1
  Sb  Sb85  1  0.50555237  0.49762264  -0.00104249  1
  Sb  Sb86  1  0.51320242  0.00375112  0.16880343  1
  Sb  Sb87  1  0.67457834  0.16778493  0.50112538  1
  Sb  Sb88  1  0.49827932  0.83445424  -0.00026633  1
  Sb  Sb89  1  0.32460323  0.66463920  0.66777338  1
  Sb  Sb90  1  0.66940504  0.82727730  0.83174551  1
  Sb  Sb91  1  0.83511953  0.83133001  0.65992496  1
  Sb  Sb92  1  0.83871263  0.83075289  0.00650488  1
  Sb  Sb93  1  0.67267232  -0.00686243  0.33898140  1
  Sb  Sb94  1  0.67702916  0.17405535  0.16373890  1
  Sb  Sb95  1  0.15755386  -0.00119187  0.83035978  1
  Sb  Sb96  1  0.16087092  0.83104232  0.66769083  1
  Sb  Sb97  1  0.15548502  0.16485024  0.33234932  1
  Sb  Sb98  1  0.50630879  0.66427859  0.50213426  1
  Sb  Sb99  1  0.32784117  -0.00069071  0.66694304  1
  Sb  Sb100  1  0.50458658  0.83196330  0.33352718  1
  Sb  Sb101  1  0.33158076  0.49872175  0.16915359  1
  Sb  Sb102  1  0.67532659  0.66276163  0.66434419  1
  Sb  Sb103  1  0.33457367  0.33419942  -0.00022005  1
  Sb  Sb104  1  0.16336392  0.66345606  0.16477144  1
  Sb  Sb105  1  0.32884355  0.33588471  0.66607368  1
  Sb  Sb106  1  0.15541192  0.50325408  0.33482741  1
  Sb  Sb107  1  0.67585063  0.17520000  0.83366748  1
  Te  Te108  1  0.15884196  0.17146146  0.16366114  1
  Te  Te109  1  0.16166489  0.16716736  0.50048868  1
  Te  Te110  1  0.16211550  0.16583301  0.83409607  1
  Te  Te111  1  0.16493669  0.49484999  0.16728992  1
  Te  Te112  1  0.16600914  0.50423641  0.50178018  1
  Te  Te113  1  0.16587898  0.50088924  0.83208119  1
  Te  Te114  1  0.16785854  0.83388821  0.16489262  1
  Te  Te115  1  0.16538672  0.83026285  0.49928083  1
  Te  Te116  1  0.16791521  0.83152386  0.83735646  1
  Te  Te117  1  0.50007786  0.17057059  0.16373823  1
  Te  Te118  1  0.49920235  0.16838143  0.50015160  1
  Te  Te119  1  0.49849093  0.17151034  0.83694229  1
  Te  Te120  1  0.49888578  0.49822415  0.16638831  1
  Te  Te121  1  0.50974531  0.49607496  0.50067259  1
  Te  Te122  1  0.49471168  0.49804163  0.83379882  1
  Te  Te123  1  0.50643051  0.83514456  0.16630847  1
  Te  Te124  1  0.49785878  0.83679158  0.49879854  1
  Te  Te125  1  0.50116306  0.83203195  0.83484972  1
  Te  Te126  1  0.83663929  0.16945981  0.16437408  1
  Te  Te127  1  0.83939437  0.16449157  0.49965780  1
  Te  Te128  1  0.83950839  0.16171818  0.83890006  1
  Te  Te129  1  0.83408492  0.49989575  0.16444455  1
  Te  Te130  1  0.82926213  0.50198603  0.49822932  1
  Te  Te131  1  0.83681744  0.49974988  0.83385363  1
  Te  Te132  1  0.82908153  0.83457077  0.17340248  1
  Te  Te133  1  0.83503814  0.83215085  0.49765284  1
  Te  Te134  1  0.83095189  0.83409064  0.83568126  1
  Te  Te135  1  0.15766077  0.00439619  0.00062436  1
  Te  Te136  1  0.16676135  -0.00502288  0.33871024  1
  Te  Te137  1  0.16106493  -0.00008046  0.66120342  1
  Te  Te138  1  0.16989508  0.33324659  -0.00137929  1
  Te  Te139  1  0.15772587  0.33348945  0.32964956  1
  Te  Te140  1  0.16280178  0.33556128  0.66897239  1
  Te  Te141  1  0.16145713  0.66688215  -0.00141293  1
  Te  Te142  1  0.16152243  0.67106271  0.33361475  1
  Te  Te143  1  0.16052123  0.66387506  0.66799794  1
  Te  Te144  1  0.50107507  0.00465120  -0.00013463  1
  Te  Te145  1  0.50064394  0.00201956  0.33945674  1
  Te  Te146  1  0.49755629  0.00206839  0.66174862  1
  Te  Te147  1  0.50211069  0.33363499  -0.00103010  1
  Te  Te148  1  0.49910717  0.33222377  0.33428101  1
  Te  Te149  1  0.50421199  0.33300428  0.66672046  1
  Te  Te150  1  0.50059352  0.66781270  -0.00110036  1
  Te  Te151  1  0.50084656  0.66664202  0.33236425  1
  Te  Te152  1  0.49987886  0.66537448  0.67292957  1
  Te  Te153  1  0.83773078  -0.00189239  0.00030293  1
  Te  Te154  1  0.83160421  0.00197161  0.33327791  1
  Te  Te155  1  0.83684943  0.00234598  0.66485516  1
  Te  Te156  1  0.82757683  0.33420324  0.00223620  1
  Te  Te157  1  0.83845834  0.33472046  0.33086282  1
  Te  Te158  1  0.83301013  0.33712831  0.66539373  1
  Te  Te159  1  0.83875522  0.66260922  -0.00556264  1
  Te  Te160  1  0.83460640  0.66574263  0.33336307  1
  Te  Te161  1  0.83776779  0.66399975  0.66824383  1
  Te  Te162  1  -0.00223108  0.16896938  -0.00262695  1
  Te  Te163  1  -0.00446428  0.16711305  0.33042051  1
  Te  Te164  1  0.00053324  0.16562346  0.66831575  1
  Te  Te165  1  -0.00082457  0.49864753  -0.00178090  1
  Te  Te166  1  -0.00544891  0.50040896  0.33387740  1
  Te  Te167  1  -0.00344698  0.49905854  0.66758324  1
  Te  Te168  1  0.00302840  0.83113836  0.00243337  1
  Te  Te169  1  -0.00222812  0.83097836  0.33563448  1
  Te  Te170  1  0.00015437  0.83764871  0.66026944  1
  Te  Te171  1  0.33426732  0.16561679  0.00052191  1
  Te  Te172  1  0.33460147  0.16720552  0.33273262  1
  Te  Te173  1  0.32026158  0.16734457  0.66672828  1
  Te  Te174  1  0.32095578  0.50083531  0.00125192  1
  Te  Te175  1  0.33355577  0.49951205  0.34055819  1
  Te  Te176  1  0.32787329  0.50001613  0.66054721  1
  Te  Te177  1  0.32643847  0.83419974  -0.00443556  1
  Te  Te178  1  0.32693441  0.83233962  0.33336779  1
  Te  Te179  1  0.33511887  0.83232812  0.67405373  1
  Te  Te180  1  0.66621128  0.17163489  -0.00222086  1
  Te  Te181  1  0.67799739  0.16566823  0.33210642  1
  Te  Te182  1  0.66347612  0.16856796  0.66801979  1
  Te  Te183  1  0.66988145  0.49586558  -0.00082704  1
  Te  Te184  1  0.67305960  0.50526387  0.33232780  1
  Te  Te185  1  0.67117685  0.49604287  0.66807185  1
  Te  Te186  1  0.66663051  0.83386587  0.00399236  1
  Te  Te187  1  0.66960907  0.82706689  0.33497228  1
  Te  Te188  1  0.66758581  0.83734384  0.66070515  1
  Te  Te189  1  -0.00546148  0.00059080  0.16237279  1
  Te  Te190  1  -0.00362453  -0.00098786  0.49984901  1
  Te  Te191  1  -0.00423474  -0.00551945  0.83244846  1
  Te  Te192  1  -0.00409982  0.33603330  0.16663516  1
  Te  Te193  1  0.00073238  0.32560278  0.50565679  1
  Te  Te194  1  0.00175671  0.33529189  0.82703663  1
  Te  Te195  1  0.00178353  0.66129825  0.16383396  1
  Te  Te196  1  -0.00309741  0.66663104  0.50098559  1
  Te  Te197  1  -0.00113235  0.66606446  0.83211929  1
  Te  Te198  1  0.33665138  -0.00003756  0.16651218  1
  Te  Te199  1  0.33720952  0.00098726  0.50075314  1
  Te  Te200  1  0.33673223  -0.00583722  0.83360531  1
  Te  Te201  1  0.34525080  0.33239351  0.16971704  1
  Te  Te202  1  0.34102931  0.33847885  0.49938892  1
  Te  Te203  1  0.34033874  0.33179455  0.83166078  1
  Te  Te204  1  0.34643021  0.66656378  0.16663088  1
  Te  Te205  1  0.33592591  0.66060155  0.50051962  1
  Te  Te206  1  0.33942094  0.67016541  0.83394125  1
  Te  Te207  1  0.67593122  -0.00065177  0.16596369  1
  Te  Te208  1  0.66995748  0.00128055  0.50518735  1
  Te  Te209  1  0.67441860  -0.00078892  0.82697080  1
  Te  Te210  1  0.66974482  0.33924953  0.16616227  1
  Te  Te211  1  0.66488401  0.33535308  0.50046977  1
  Te  Te212  1  0.66645719  0.33851749  0.83306931  1
  Te  Te213  1  0.66614417  0.66334815  0.16687508  1
  Te  Te214  1  0.67057689  0.66706616  0.49851725  1
  Te  Te215  1  0.66720448  0.65977481  0.83231873  1
