# generated using pymatgen
data_AgSbTe2
_symmetry_space_group_name_H-M   'P 1'
_cell_length_a   18.32981592
_cell_length_b   18.33533706
_cell_length_c   18.33915348
_cell_angle_alpha   89.99875488
_cell_angle_beta   89.99735059
_cell_angle_gamma   90.00264612
_symmetry_Int_Tables_number   1
_chemical_formula_structural   AgSbTe2
_chemical_formula_sum   'Ag54 Sb54 Te108'
_cell_volume   6163.48418102
_cell_formula_units_Z   54
loop_
 _symmetry_equiv_pos_site_id
 _symmetry_equiv_pos_as_xyz
  1  'x, y, z'
loop_
 _atom_site_type_symbol
 _atom_site_label
 _atom_site_symmetry_multiplicity
 _atom_site_fract_x
 _atom_site_fract_y
 _atom_site_fract_z
 _atom_site_occupancy
  Ag  Ag0  1  0.16506083  0.82686388  0.32921639  1
  Ag  Ag1  1  0.16802041  0.00709646  0.16513018  1
  Ag  Ag2  1  0.66792924  0.66706200  0.67329730  1
  Ag  Ag3  1  0.33838604  0.66580262  0.67116723  1
  Ag  Ag4  1  0.67130287  0.33463559  -0.00120409  1
  Ag  Ag5  1  0.17001165  0.83063475  0.00777104  1
  Ag  Ag6  1  0.84453541  0.33580733  0.17535078  1
  Ag  Ag7  1  0.82426225  0.66046308  0.82911885  1
  Ag  Ag8  1  0.50222575  0.00657092  0.82591280  1
  Ag  Ag9  1  -0.00742494  0.33510024  0.32349725  1
  Ag  Ag10  1  0.00742299  0.49111377  0.17132269  1
  Ag  Ag11  1  0.49424579  0.33478183  0.83063188  1
  Ag  Ag12  1  0.83613525  0.83081357  0.33952359  1
  Ag  Ag13  1  0.83259819  0.16933804  0.66189927  1
  Ag  Ag14  1  0.66740874  0.17026548  0.50232617  1
  Ag  Ag15  1  0.32837717  0.82502028  0.16973522  1
  Ag  Ag16  1  0.33693958  0.01370494  0.66584464  1
  Ag  Ag17  1  0.33113660  0.32484361  0.67099996  1
  Ag  Ag18  1  -0.00068088  0.49617728  0.49320345  1
  Ag  Ag19  1  0.83348928  0.17782245  0.34213044  1
  Ag  Ag20  1  0.82635426  0.00521524  0.82497453  1
  Ag  Ag21  1  0.67337144  0.33732236  0.33097755  1
  Ag  Ag22  1  0.18024982  0.17012697  0.66803168  1
  Ag  Ag23  1  0.83181724  0.66590240  0.50082479  1
  Ag  Ag24  1  -0.00178016  0.33196453  0.66668757  1
  Ag  Ag25  1  0.33452945  0.17847387  0.82182098  1
  Ag  Ag26  1  0.66765896  0.00967188  -0.00360773  1
  Ag  Ag27  1  0.83076935  0.32931439  0.49569456  1
  Ag  Ag28  1  0.00298660  0.33341649  0.00992164  1
  Ag  Ag29  1  0.66174212  0.49838043  0.83510888  1
  Ag  Ag30  1  0.33997829  0.16601622  0.50989918  1
  Ag  Ag31  1  0.50468665  0.65491301  0.83199597  1
  Ag  Ag32  1  0.83035650  0.65854233  0.17503729  1
  Ag  Ag33  1  0.15827925  0.33672480  0.16021392  1
  Ag  Ag34  1  0.49717808  0.49621243  0.33262198  1
  Ag  Ag35  1  0.83142871  0.33272687  0.83092490  1
  Ag  Ag36  1  0.16782057  0.49982918  0.32837844  1
  Ag  Ag37  1  0.67111283  0.65801178  0.33512371  1
  Ag  Ag38  1  0.16709610  0.66502541  0.49998469  1
  Ag  Ag39  1  0.50011435  0.33565225  0.16616567  1
  Ag  Ag40  1  0.32742824  0.49947715  0.16187306  1
  Ag  Ag41  1  0.49229779  0.16768849  0.66486342  1
  Ag  Ag42  1  0.17375716  0.33260368  0.83905242  1
  Ag  Ag43  1  0.00125513  0.18026138  0.16631262  1
  Ag  Ag44  1  0.50179107  0.01164016  0.50607658  1
  Ag  Ag45  1  0.82875456  0.01295046  0.50508357  1
  Ag  Ag46  1  0.33445231  0.66375452  -0.00399424  1
  Ag  Ag47  1  0.50426491  0.32918544  0.50427990  1
  Ag  Ag48  1  0.16676139  0.17896482  -0.00193509  1
  Ag  Ag49  1  0.16931892  0.49502272  0.00752238  1
  Ag  Ag50  1  0.66582119  0.66116949  -0.00930308  1
  Ag  Ag51  1  0.83322950  0.83521516  0.66023312  1
  Ag  Ag52  1  0.33718111  0.49571120  0.83564663  1
  Ag  Ag53  1  0.33215134  0.83449646  0.50003948  1
  Sb  Sb54  1  0.17006684  0.65986456  0.83129652  1
  Sb  Sb55  1  0.66708257  0.83534667  0.50015920  1
  Sb  Sb56  1  0.83595999  0.49719825  0.00033071  1
  Sb  Sb57  1  0.16540795  0.66049529  0.16915323  1
  Sb  Sb58  1  0.67016307  0.49572827  0.50110838  1
  Sb  Sb59  1  0.32729239  0.17285249  0.16485314  1
  Sb  Sb60  1  0.32958530  0.33842940  -0.00540583  1
  Sb  Sb61  1  0.50259392  0.66019985  0.16311261  1
  Sb  Sb62  1  0.66702317  0.49752262  0.16343269  1
  Sb  Sb63  1  0.16732727  -0.00158955  0.49710579  1
  Sb  Sb64  1  0.16335843  0.17111014  0.33407988  1
  Sb  Sb65  1  0.83576087  0.17139949  -0.00199398  1
  Sb  Sb66  1  0.66616352  0.33434304  0.66746902  1
  Sb  Sb67  1  0.49461461  0.00645108  0.16666701  1
  Sb  Sb68  1  -0.00186160  0.83220518  0.83341960  1
  Sb  Sb69  1  -0.00390201  0.17548431  0.49792049  1
  Sb  Sb70  1  0.16881354  0.49262818  0.66713342  1
  Sb  Sb71  1  -0.00040174  0.00775711  0.66584332  1
  Sb  Sb72  1  0.49868267  0.49335081  0.66637139  1
  Sb  Sb73  1  0.83236391  0.49687998  0.66694036  1
  Sb  Sb74  1  0.33078148  0.49844571  0.50175673  1
  Sb  Sb75  1  0.16659086  0.83681810  0.66555933  1
  Sb  Sb76  1  0.33491064  -0.00348286  -0.00540166  1
  Sb  Sb77  1  0.33333015  -0.00103119  0.33980250  1
  Sb  Sb78  1  0.66489882  0.83089413  0.16714939  1
  Sb  Sb79  1  0.49414393  0.17011076  -0.00720150  1
  Sb  Sb80  1  0.66550856  -0.00082226  0.67052781  1
  Sb  Sb81  1  0.83628072  0.83117823  0.00001516  1
  Sb  Sb82  1  0.49556177  0.49745967  0.00007902  1
  Sb  Sb83  1  0.50010624  0.82801002  0.33546645  1
  Sb  Sb84  1  0.16508055  0.33551369  0.50025876  1
  Sb  Sb85  1  -0.00112704  0.00607685  0.33343576  1
  Sb  Sb86  1  0.67121597  0.17230506  0.17041418  1
  Sb  Sb87  1  0.50105039  0.83591815  0.66611890  1
  Sb  Sb88  1  -0.00179753  0.00658886  0.00024584  1
  Sb  Sb89  1  0.16939817  0.00739877  0.83745915  1
  Sb  Sb90  1  0.00269223  0.17209396  0.83530585  1
  Sb  Sb91  1  0.50144903  0.66341509  0.50434302  1
  Sb  Sb92  1  0.49692637  0.83210718  -0.00003649  1
  Sb  Sb93  1  -0.00291312  0.65981949  0.66503832  1
  Sb  Sb94  1  0.33306158  0.83132811  0.83102167  1
  Sb  Sb95  1  0.50593468  0.17517861  0.34230359  1
  Sb  Sb96  1  -0.00387240  0.65770404  0.33294808  1
  Sb  Sb97  1  -0.00061583  0.82789967  0.49855786  1
  Sb  Sb98  1  0.00071722  0.49486405  0.83491191  1
  Sb  Sb99  1  0.00052805  0.65950635  0.00187410  1
  Sb  Sb100  1  0.66698558  0.82760421  0.83327793  1
  Sb  Sb101  1  0.83418645  0.49777369  0.33302529  1
  Sb  Sb102  1  0.66298749  0.17318163  0.82851245  1
  Sb  Sb103  1  0.33442567  0.66479490  0.33354627  1
  Sb  Sb104  1  0.83708115  0.00326787  0.16821431  1
  Sb  Sb105  1  0.66920972  0.00246809  0.33248253  1
  Sb  Sb106  1  0.33401673  0.33444034  0.33694527  1
  Sb  Sb107  1  0.00419614  0.82986243  0.16843760  1
  Te  Te108  1  0.16359196  0.17088157  0.16630265  1
  Te  Te109  1  0.16949498  0.16580802  0.50361064  1
  Te  Te110  1  0.16942179  0.17059289  0.83214049  1
  Te  Te111  1  0.16728326  0.49961202  0.16761732  1
  Te  Te112  1  0.16406314  0.50355889  0.49678936  1
  Te  Te113  1  0.17053014  0.49426634  0.83633888  1
  Te  Te114  1  0.16916876  0.82668193  0.16892897  1
  Te  Te115  1  0.16899415  0.83051766  0.49706323  1
  Te  Te116  1  0.16542195  0.83388033  0.83704815  1
  Te  Te117  1  0.49785261  0.17314598  0.16759303  1
  Te  Te118  1  0.50106211  0.16832569  0.50265996  1
  Te  Te119  1  0.49665234  0.16808548  0.82779375  1
  Te  Te120  1  0.49574365  0.49563976  0.17000795  1
  Te  Te121  1  0.49967588  0.49446091  0.49548019  1
  Te  Te122  1  0.49900886  0.49721491  0.83251307  1
  Te  Te123  1  0.48991709  0.83549564  0.16851432  1
  Te  Te124  1  0.49400320  0.83573184  0.49938333  1
  Te  Te125  1  0.49957428  0.84170978  0.83251367  1
  Te  Te126  1  0.83866354  0.17102770  0.16839064  1
  Te  Te127  1  0.83424993  0.16890837  0.49917007  1
  Te  Te128  1  0.83235346  0.16760197  0.83131146  1
  Te  Te129  1  0.83629444  0.49730742  0.16640521  1
  Te  Te130  1  0.83725567  0.50094575  0.49994088  1
  Te  Te131  1  0.83024265  0.49880880  0.83375042  1
  Te  Te132  1  0.83425407  0.83260656  0.17067248  1
  Te  Te133  1  0.83343901  0.82567667  0.49985704  1
  Te  Te134  1  0.83415554  0.83519583  0.83096575  1
  Te  Te135  1  0.16615605  -0.00435733  0.00408577  1
  Te  Te136  1  0.16578329  -0.00406271  0.32774603  1
  Te  Te137  1  0.17053712  0.00583588  0.66734189  1
  Te  Te138  1  0.16722316  0.33499349  -0.00034239  1
  Te  Te139  1  0.16433268  0.33662813  0.33028018  1
  Te  Te140  1  0.17043008  0.32931365  0.66789291  1
  Te  Te141  1  0.16832444  0.66632900  -0.00156931  1
  Te  Te142  1  0.16643076  0.66616931  0.33767097  1
  Te  Te143  1  0.16636526  0.66744066  0.66284534  1
  Te  Te144  1  0.50590604  0.00038631  -0.00274280  1
  Te  Te145  1  0.50211304  -0.00100336  0.33881055  1
  Te  Te146  1  0.49931662  0.00207298  0.66530626  1
  Te  Te147  1  0.50644356  0.33255443  -0.00278458  1
  Te  Te148  1  0.50138960  0.33666233  0.33522007  1
  Te  Te149  1  0.49952394  0.32950655  0.66786865  1
  Te  Te150  1  0.50052697  0.66600924  -0.00488353  1
  Te  Te151  1  0.50680112  0.66075922  0.33320249  1
  Te  Te152  1  0.50082472  0.66819167  0.67084858  1
  Te  Te153  1  0.82853583  0.00013335  -0.00218997  1
  Te  Te154  1  0.83265920  -0.00596855  0.33753345  1
  Te  Te155  1  0.83278542  -0.00056954  0.66563423  1
  Te  Te156  1  0.83154069  0.33319707  -0.00351888  1
  Te  Te157  1  0.83323138  0.33499187  0.33389542  1
  Te  Te158  1  0.83200325  0.33148165  0.66691730  1
  Te  Te159  1  0.83067996  0.66673537  -0.00483732  1
  Te  Te160  1  0.83199630  0.66661107  0.33436667  1
  Te  Te161  1  0.83340588  0.66652028  0.66659773  1
  Te  Te162  1  0.00589289  0.17295560  0.00376757  1
  Te  Te163  1  -0.00442674  0.17311919  0.32892616  1
  Te  Te164  1  -0.00765756  0.17281058  0.66688819  1
  Te  Te165  1  0.00738975  0.49350696  0.00330614  1
  Te  Te166  1  0.00435768  0.49475062  0.33251817  1
  Te  Te167  1  0.00132205  0.49175158  0.66294763  1
  Te  Te168  1  0.00861676  0.83328720  0.00065603  1
  Te  Te169  1  0.00081568  0.83393019  0.33325558  1
  Te  Te170  1  -0.00622397  0.83475489  0.66640309  1
  Te  Te171  1  0.32588683  0.16408072  -0.00358943  1
  Te  Te172  1  0.33306422  0.16569078  0.33914818  1
  Te  Te173  1  0.33670893  0.16916271  0.66626784  1
  Te  Te174  1  0.32960998  0.50349358  -0.00061529  1
  Te  Te175  1  0.33125663  0.50060520  0.33086225  1
  Te  Te176  1  0.33376212  0.50716239  0.67061430  1
  Te  Te177  1  0.32975486  0.82884901  0.00274038  1
  Te  Te178  1  0.33032985  0.83206329  0.33382466  1
  Te  Te179  1  0.33168690  0.82484882  0.66207947  1
  Te  Te180  1  0.66499874  0.17011363  0.00016590  1
  Te  Te181  1  0.67333840  0.17064502  0.33799984  1
  Te  Te182  1  0.67300650  0.16597880  0.66187814  1
  Te  Te183  1  0.66645460  0.50024687  -0.00369826  1
  Te  Te184  1  0.66197457  0.49741934  0.33297592  1
  Te  Te185  1  0.66506071  0.50757918  0.67209295  1
  Te  Te186  1  0.66667820  0.82427966  0.00186878  1
  Te  Te187  1  0.67125662  0.82950365  0.33255471  1
  Te  Te188  1  0.67373466  0.82629985  0.66612608  1
  Te  Te189  1  0.00707030  0.00170494  0.16566044  1
  Te  Te190  1  -0.00853898  -0.00020461  0.50000074  1
  Te  Te191  1  -0.00961995  0.00110202  0.83371054  1
  Te  Te192  1  -0.00029717  0.33614959  0.16531792  1
  Te  Te193  1  -0.00298265  0.33660333  0.50390456  1
  Te  Te194  1  -0.00580623  0.33404910  0.82786751  1
  Te  Te195  1  -0.01027239  0.66138831  0.16574200  1
  Te  Te196  1  -0.00056612  0.66021513  0.49959431  1
  Te  Te197  1  -0.00992608  0.66376327  0.83338039  1
  Te  Te198  1  0.32855400  0.00010634  0.16559079  1
  Te  Te199  1  0.33354856  -0.00017530  0.50522646  1
  Te  Te200  1  0.33667779  -0.00077624  0.82723697  1
  Te  Te201  1  0.33655009  0.33795246  0.16666285  1
  Te  Te202  1  0.33529619  0.33128426  0.50572267  1
  Te  Te203  1  0.33356005  0.33502232  0.83302921  1
  Te  Te204  1  0.33502693  0.66429907  0.16282100  1
  Te  Te205  1  0.33315372  0.66777632  0.50221282  1
  Te  Te206  1  0.33454073  0.66483462  0.83430490  1
  Te  Te207  1  0.66503731  -0.00004845  0.15865378  1
  Te  Te208  1  0.66717727  0.00415868  0.50031050  1
  Te  Te209  1  0.66584180  0.00156242  0.83643767  1
  Te  Te210  1  0.66308445  0.33403537  0.16761116  1
  Te  Te211  1  0.66800312  0.33170811  0.50025162  1
  Te  Te212  1  0.66865800  0.33682090  0.83405855  1
  Te  Te213  1  0.67069503  0.66485144  0.16889391  1
  Te  Te214  1  0.66946762  0.66619247  0.49759877  1
  Te  Te215  1  0.66515960  0.66463337  0.83347605  1
