# generated using pymatgen
data_AgSbTe2
_symmetry_space_group_name_H-M   'P 1'
_cell_length_a   18.32247165
_cell_length_b   18.32978509
_cell_length_c   18.32342986
_cell_angle_alpha   90.00006999
_cell_angle_beta   89.99947756
_cell_angle_gamma   89.99820142
_symmetry_Int_Tables_number   1
_chemical_formula_structural   AgSbTe2
_chemical_formula_sum   'Ag54 Sb54 Te108'
_cell_volume   6153.86835550
_cell_formula_units_Z   54
loop_
 _symmetry_equiv_pos_site_id
 _symmetry_equiv_pos_as_xyz
  1  'x, y, z'
loop_
 _atom_site_type_symbol
 _atom_site_label
 _atom_site_symmetry_multiplicity
 _atom_site_fract_x
 _atom_site_fract_y
 _atom_site_fract_z
 _atom_site_occupancy
  Ag  Ag0  1  0.16554003  0.50066224  0.66750436  1
  Ag  Ag1  1  0.66251576  -0.00275603  -0.00107052  1
  Ag  Ag2  1  0.33673085  0.33114905  0.66335660  1
  Ag  Ag3  1  0.00187492  0.82965180  0.83542865  1
  Ag  Ag4  1  0.16562606  0.32613328  0.50246326  1
  Ag  Ag5  1  0.50097293  0.32794655  0.17030491  1
  Ag  Ag6  1  0.50067566  0.16026648  0.00973278  1
  Ag  Ag7  1  0.49947373  0.49759495  0.32703947  1
  Ag  Ag8  1  0.00251578  0.83581876  0.49129074  1
  Ag  Ag9  1  -0.00145551  0.33434916  0.00227887  1
  Ag  Ag10  1  0.01014799  -0.00514109  0.33342984  1
  Ag  Ag11  1  0.66316573  0.67003796  0.67073805  1
  Ag  Ag12  1  0.16844347  0.83324860  0.66004977  1
  Ag  Ag13  1  0.17076074  -0.00038296  0.17732052  1
  Ag  Ag14  1  0.49485156  0.16325431  0.33765950  1
  Ag  Ag15  1  0.34534430  0.16518031  0.49279918  1
  Ag  Ag16  1  0.50042167  0.32388502  0.49573868  1
  Ag  Ag17  1  0.66359603  0.67240805  0.00065477  1
  Ag  Ag18  1  0.16706349  0.00438200  0.48969537  1
  Ag  Ag19  1  0.49344748  0.84139719  0.32649928  1
  Ag  Ag20  1  0.66545616  0.00298775  0.66547343  1
  Ag  Ag21  1  0.83290954  0.32724071  0.49826716  1
  Ag  Ag22  1  0.82951656  0.83197290  0.00322737  1
  Ag  Ag23  1  0.00038188  0.67419229  0.33180611  1
  Ag  Ag24  1  0.49985783  0.66794865  0.84398767  1
  Ag  Ag25  1  0.00250401  0.50371500  0.83207510  1
  Ag  Ag26  1  0.17548412  0.15425553  0.33383396  1
  Ag  Ag27  1  -0.00013950  0.49965950  0.49943083  1
  Ag  Ag28  1  0.82834460  0.66170206  0.16453288  1
  Ag  Ag29  1  0.32408090  0.00227327  0.32925919  1
  Ag  Ag30  1  0.34399627  0.00040089  0.01075514  1
  Ag  Ag31  1  0.50401537  0.50368331  0.00881939  1
  Ag  Ag32  1  0.82942285  0.33609271  0.16923449  1
  Ag  Ag33  1  0.00399306  0.83721299  0.17103805  1
  Ag  Ag34  1  0.83131129  0.00749638  0.50127149  1
  Ag  Ag35  1  0.34144247  0.49728429  0.16757744  1
  Ag  Ag36  1  0.49805215  0.83819894  0.66458426  1
  Ag  Ag37  1  0.82458091  0.16506391  0.65938090  1
  Ag  Ag38  1  0.50534471  0.16433397  0.65311948  1
  Ag  Ag39  1  0.66155274  0.32095259  0.66212198  1
  Ag  Ag40  1  0.50469129  0.83531011  0.00535155  1
  Ag  Ag41  1  0.50007191  0.00915668  0.49780514  1
  Ag  Ag42  1  0.16442305  0.33783479  0.82296711  1
  Ag  Ag43  1  0.50428651  0.66360122  0.16279865  1
  Ag  Ag44  1  0.65459520  0.16628635  0.17003414  1
  Ag  Ag45  1  0.83346815  -0.00097561  0.83157188  1
  Ag  Ag46  1  0.00032985  0.16218940  0.16866804  1
  Ag  Ag47  1  0.33842146  0.16295471  0.17319646  1
  Ag  Ag48  1  0.16468015  0.84264821  0.33579538  1
  Ag  Ag49  1  0.65747297  0.16555636  0.50138060  1
  Ag  Ag50  1  0.82984966  0.50342801  0.00812629  1
  Ag  Ag51  1  0.16514252  0.66426863  0.83136519  1
  Ag  Ag52  1  0.83331344  0.49879981  0.32696428  1
  Ag  Ag53  1  0.33540606  0.84343981  0.16829793  1
  Sb  Sb54  1  0.66550337  0.16522302  0.82905445  1
  Sb  Sb55  1  0.33569247  0.32369459  0.33623409  1
  Sb  Sb56  1  0.83263683  0.83848936  0.66921874  1
  Sb  Sb57  1  0.16863627  0.32840093  0.17117327  1
  Sb  Sb58  1  -0.00043934  0.16469701  0.49447626  1
  Sb  Sb59  1  -0.00030232  0.16692348  0.83851341  1
  Sb  Sb60  1  0.50471103  -0.00463803  0.83289701  1
  Sb  Sb61  1  0.49704478  0.33712546  0.83260623  1
  Sb  Sb62  1  0.83322359  0.66997850  0.83925025  1
  Sb  Sb63  1  0.33877269  0.00319574  0.66278172  1
  Sb  Sb64  1  0.16120519  -0.00130073  0.83131846  1
  Sb  Sb65  1  0.66853327  0.84094166  0.50197724  1
  Sb  Sb66  1  0.83720157  0.33075862  0.83273141  1
  Sb  Sb67  1  0.33238374  0.33002655  -0.00013157  1
  Sb  Sb68  1  0.33010388  0.49968174  0.83772751  1
  Sb  Sb69  1  0.34256627  0.67151050  0.00313357  1
  Sb  Sb70  1  0.83155893  0.16938039  0.33546072  1
  Sb  Sb71  1  0.49364681  0.00304226  0.17192594  1
  Sb  Sb72  1  0.66175815  0.49446521  0.16634951  1
  Sb  Sb73  1  0.16679955  0.67142231  0.16375334  1
  Sb  Sb74  1  0.33074497  0.83407570  0.83762414  1
  Sb  Sb75  1  0.33567013  0.66484047  0.66752420  1
  Sb  Sb76  1  0.66449765  0.00176822  0.33334814  1
  Sb  Sb77  1  -0.00211867  0.00072881  0.00562070  1
  Sb  Sb78  1  -0.00392573  -0.00175697  0.65898391  1
  Sb  Sb79  1  0.82773554  0.16507316  0.00153757  1
  Sb  Sb80  1  0.16690576  0.50101888  0.33709854  1
  Sb  Sb81  1  0.66341042  0.33204502  0.33715618  1
  Sb  Sb82  1  0.66382116  0.83863022  0.16461399  1
  Sb  Sb83  1  -0.00255437  0.66809574  0.66547246  1
  Sb  Sb84  1  0.50243000  0.66742826  0.49617464  1
  Sb  Sb85  1  0.00167795  0.33313973  0.66695071  1
  Sb  Sb86  1  0.33066655  0.84209495  0.49428319  1
  Sb  Sb87  1  0.16587933  0.49913837  -0.00264249  1
  Sb  Sb88  1  0.33194624  0.67295428  0.33036567  1
  Sb  Sb89  1  0.66777915  0.66747396  0.32913409  1
  Sb  Sb90  1  0.33445307  0.16646997  0.83301789  1
  Sb  Sb91  1  0.33083254  0.48938963  0.49537768  1
  Sb  Sb92  1  0.83676921  0.49640586  0.66568659  1
  Sb  Sb93  1  -0.00530593  0.66536948  0.00344582  1
  Sb  Sb94  1  0.67002099  0.49218686  0.50155518  1
  Sb  Sb95  1  0.49640006  0.49813799  0.66473205  1
  Sb  Sb96  1  0.16495742  0.66980295  0.50285359  1
  Sb  Sb97  1  0.16978266  0.16584070  0.65819735  1
  Sb  Sb98  1  0.16689776  0.83398731  0.00250636  1
  Sb  Sb99  1  0.83699614  0.00092971  0.16882610  1
  Sb  Sb100  1  0.83398432  0.66584990  0.49541567  1
  Sb  Sb101  1  0.66840739  0.83352071  0.83470612  1
  Sb  Sb102  1  0.83759188  0.83127734  0.32946798  1
  Sb  Sb103  1  -0.00131772  0.33144115  0.33113353  1
  Sb  Sb104  1  0.17155633  0.16560953  0.00721370  1
  Sb  Sb105  1  0.66768175  0.33134189  -0.00122783  1
  Sb  Sb106  1  0.67019947  0.50172269  0.83484218  1
  Sb  Sb107  1  -0.00089251  0.50070193  0.16852740  1
  Te  Te108  1  0.16574663  0.16369137  0.17221230  1
  Te  Te109  1  0.16513538  0.16581199  0.49508291  1
  Te  Te110  1  0.16612238  0.17187795  0.83227225  1
  Te  Te111  1  0.17363127  0.49991831  0.16684959  1
  Te  Te112  1  0.16320442  0.49879835  0.50473759  1
  Te  Te113  1  0.16376930  0.49950613  0.83057496  1
  Te  Te114  1  0.16648952  0.83540017  0.16969957  1
  Te  Te115  1  0.16472824  0.83577966  0.49906404  1
  Te  Te116  1  0.16282497  0.83158593  0.83072779  1
  Te  Te117  1  0.49851451  0.16717176  0.16734976  1
  Te  Te118  1  0.50120265  0.16834808  0.49806798  1
  Te  Te119  1  0.49893681  0.16770620  0.83973145  1
  Te  Te120  1  0.50181521  0.49919199  0.16686300  1
  Te  Te121  1  0.50052643  0.49514447  0.49470553  1
  Te  Te122  1  0.49936938  0.50616620  0.83643392  1
  Te  Te123  1  0.49826083  0.83407084  0.16587845  1
  Te  Te124  1  0.49994994  0.83545186  0.50301707  1
  Te  Te125  1  0.49833403  0.82769030  0.83252272  1
  Te  Te126  1  0.83853250  0.17155143  0.16712589  1
  Te  Te127  1  0.83347922  0.16781787  0.50064650  1
  Te  Te128  1  0.83355150  0.16101576  0.82943806  1
  Te  Te129  1  0.83383262  0.49787611  0.16658031  1
  Te  Te130  1  0.83774638  0.49700483  0.49723092  1
  Te  Te131  1  0.84151139  0.50038922  0.83693091  1
  Te  Te132  1  0.83452035  0.83227286  0.16356534  1
  Te  Te133  1  0.83920372  0.83651803  0.49973691  1
  Te  Te134  1  0.84008375  0.83656886  0.83709190  1
  Te  Te135  1  0.16967732  0.00007369  0.00079876  1
  Te  Te136  1  0.16618869  -0.00151272  0.33340761  1
  Te  Te137  1  0.16825726  -0.00498156  0.66340196  1
  Te  Te138  1  0.16169347  0.33287020  -0.00165273  1
  Te  Te139  1  0.16674944  0.33232698  0.34124041  1
  Te  Te140  1  0.16767961  0.33187884  0.66295374  1
  Te  Te141  1  0.16680910  0.66639495  -0.00750228  1
  Te  Te142  1  0.16087496  0.67061572  0.33272689  1
  Te  Te143  1  0.16648492  0.66872739  0.67025769  1
  Te  Te144  1  0.50200190  -0.00222704  -0.00231800  1
  Te  Te145  1  0.50030345  -0.00006679  0.33813754  1
  Te  Te146  1  0.50267632  0.00033364  0.66589122  1
  Te  Te147  1  0.50021370  0.33642434  0.00203321  1
  Te  Te148  1  0.49965358  0.33433668  0.33187288  1
  Te  Te149  1  0.49985521  0.33245213  0.66660171  1
  Te  Te150  1  0.50333812  0.66736116  0.00255248  1
  Te  Te151  1  0.50013961  0.66479536  0.32776889  1
  Te  Te152  1  0.50283761  0.66768271  0.66566512  1
  Te  Te153  1  0.82990912  -0.00296649  -0.00037303  1
  Te  Te154  1  0.83411683  -0.00003944  0.33989699  1
  Te  Te155  1  0.82931485  0.00255407  0.66239623  1
  Te  Te156  1  0.83472303  0.33528968  0.00156157  1
  Te  Te157  1  0.83243557  0.33792084  0.33219170  1
  Te  Te158  1  0.83013304  0.32948568  0.66382254  1
  Te  Te159  1  0.82824038  0.66694354  0.00410633  1
  Te  Te160  1  0.83539455  0.66232034  0.32735538  1
  Te  Te161  1  0.82457371  0.66694438  0.66765995  1
  Te  Te162  1  -0.00021396  0.17061767  0.00662133  1
  Te  Te163  1  0.00063273  0.16356772  0.32798502  1
  Te  Te164  1  -0.00506044  0.16607866  0.66884592  1
  Te  Te165  1  -0.00279051  0.49807266  -0.00152133  1
  Te  Te166  1  -0.00144248  0.50172440  0.33651584  1
  Te  Te167  1  0.00469490  0.50082522  0.66586424  1
  Te  Te168  1  -0.00305400  0.83324707  0.00185277  1
  Te  Te169  1  -0.00057343  0.83371946  0.33244530  1
  Te  Te170  1  0.00343095  0.83252240  0.66827585  1
  Te  Te171  1  0.33861708  0.16264877  0.00414736  1
  Te  Te172  1  0.33423780  0.16316423  0.33337179  1
  Te  Te173  1  0.33847902  0.17022866  0.66422408  1
  Te  Te174  1  0.33852717  0.49876373  0.00549381  1
  Te  Te175  1  0.33676541  0.50212322  0.32888042  1
  Te  Te176  1  0.32679821  0.49504839  0.66605112  1
  Te  Te177  1  0.33683075  0.83869318  0.00550106  1
  Te  Te178  1  0.33342176  0.83909323  0.32918409  1
  Te  Te179  1  0.33443222  0.83367132  0.66630201  1
  Te  Te180  1  0.66141097  0.16404154  0.00168597  1
  Te  Te181  1  0.66115207  0.16700193  0.33274054  1
  Te  Te182  1  0.66516320  0.16349951  0.66549055  1
  Te  Te183  1  0.66781810  0.50165023  -0.00025372  1
  Te  Te184  1  0.66764548  0.50160723  0.33440411  1
  Te  Te185  1  0.66689369  0.50507035  0.66747644  1
  Te  Te186  1  0.66661010  0.83447780  0.00044452  1
  Te  Te187  1  0.65607123  0.83307569  0.33352486  1
  Te  Te188  1  0.66219222  0.83630994  0.66768750  1
  Te  Te189  1  0.00399423  -0.00125645  0.17050743  1
  Te  Te190  1  0.00268864  -0.00244302  0.49516038  1
  Te  Te191  1  -0.00503766  -0.00407474  0.83417041  1
  Te  Te192  1  -0.00036904  0.33258665  0.16350608  1
  Te  Te193  1  -0.00228411  0.33627835  0.49954699  1
  Te  Te194  1  0.00457883  0.33560932  0.83741038  1
  Te  Te195  1  -0.00168121  0.66993891  0.17009848  1
  Te  Te196  1  -0.00110096  0.66723274  0.49577042  1
  Te  Te197  1  0.00206199  0.66679723  0.83379263  1
  Te  Te198  1  0.33168097  0.00180821  0.16827652  1
  Te  Te199  1  0.33448958  0.00530700  0.49700399  1
  Te  Te200  1  0.33125629  0.00041994  0.84083271  1
  Te  Te201  1  0.33725620  0.33036573  0.16565989  1
  Te  Te202  1  0.33434261  0.32708995  0.50328801  1
  Te  Te203  1  0.32581123  0.33384939  0.82753892  1
  Te  Te204  1  0.33819946  0.66564241  0.16660899  1
  Te  Te205  1  0.33387512  0.66481206  0.49978579  1
  Te  Te206  1  0.33227857  0.66635895  0.83383045  1
  Te  Te207  1  0.66988320  0.00715172  0.16112075  1
  Te  Te208  1  0.66617498  0.00510376  0.50206303  1
  Te  Te209  1  0.67339839  -0.00047156  0.83334226  1
  Te  Te210  1  0.66725193  0.32601583  0.16456917  1
  Te  Te211  1  0.66813847  0.32772898  0.50366404  1
  Te  Te212  1  0.66693086  0.33429884  0.82294310  1
  Te  Te213  1  0.66679864  0.66851545  0.16249739  1
  Te  Te214  1  0.66806413  0.66726620  0.50488872  1
  Te  Te215  1  0.66253923  0.66725446  0.83528168  1
