# generated using pymatgen
data_AgSbTe2
_symmetry_space_group_name_H-M   'P 1'
_cell_length_a   18.32998786
_cell_length_b   18.34189366
_cell_length_c   18.33442039
_cell_angle_alpha   89.99968027
_cell_angle_beta   89.99849223
_cell_angle_gamma   90.00159351
_symmetry_Int_Tables_number   1
_chemical_formula_structural   AgSbTe2
_chemical_formula_sum   'Ag54 Sb54 Te108'
_cell_volume   6164.15475186
_cell_formula_units_Z   54
loop_
 _symmetry_equiv_pos_site_id
 _symmetry_equiv_pos_as_xyz
  1  'x, y, z'
loop_
 _atom_site_type_symbol
 _atom_site_label
 _atom_site_symmetry_multiplicity
 _atom_site_fract_x
 _atom_site_fract_y
 _atom_site_fract_z
 _atom_site_occupancy
  Ag  Ag0  1  0.15454662  -0.00086978  0.15893145  1
  Ag  Ag1  1  0.16349967  -0.00379164  0.83967235  1
  Ag  Ag2  1  -0.01032927  0.49699198  0.50487407  1
  Ag  Ag3  1  0.16269971  0.33386806  0.50182210  1
  Ag  Ag4  1  0.00225492  0.16466539  0.84536379  1
  Ag  Ag5  1  0.82943780  0.66980017  0.83301885  1
  Ag  Ag6  1  0.50238607  0.49857825  -0.00573164  1
  Ag  Ag7  1  0.66845157  0.33974547  0.00668307  1
  Ag  Ag8  1  0.32471329  0.82699258  0.83362839  1
  Ag  Ag9  1  0.83210707  0.83147464  0.66848282  1
  Ag  Ag10  1  0.67128193  0.33531152  0.32847552  1
  Ag  Ag11  1  -0.00837744  0.17048618  0.49931714  1
  Ag  Ag12  1  0.15496634  0.84020594  -0.00317462  1
  Ag  Ag13  1  0.34074860  0.49559721  0.15884267  1
  Ag  Ag14  1  -0.00861024  0.84329808  0.15491643  1
  Ag  Ag15  1  0.82929502  0.50231992  0.33365396  1
  Ag  Ag16  1  0.83191028  0.00163036  0.17038237  1
  Ag  Ag17  1  0.67862090  0.16579261  0.17080122  1
  Ag  Ag18  1  0.51465759  0.82390544  0.66950254  1
  Ag  Ag19  1  0.16404264  0.67267990  0.16277547  1
  Ag  Ag20  1  0.50793330  0.66259534  0.82966716  1
  Ag  Ag21  1  0.00209249  0.83331648  0.84367674  1
  Ag  Ag22  1  -0.00313522  0.16047177  0.15967716  1
  Ag  Ag23  1  0.67105364  0.66303119  0.00141459  1
  Ag  Ag24  1  0.66586844  0.33676134  0.66135353  1
  Ag  Ag25  1  0.66885645  -0.00867259  0.66145017  1
  Ag  Ag26  1  0.84163054  0.83086118  0.00589049  1
  Ag  Ag27  1  -0.00101858  0.33019734  -0.00015408  1
  Ag  Ag28  1  0.51529156  0.66313276  0.51060867  1
  Ag  Ag29  1  0.66692042  0.49910528  0.17076367  1
  Ag  Ag30  1  0.34207983  0.50249617  0.83660648  1
  Ag  Ag31  1  0.00228239  -0.00670557  0.00145557  1
  Ag  Ag32  1  0.50155458  0.34443359  0.83649524  1
  Ag  Ag33  1  0.00228446  0.50451401  0.83660887  1
  Ag  Ag34  1  0.15879974  0.16242959  0.00033108  1
  Ag  Ag35  1  0.67072540  0.66089211  0.33565201  1
  Ag  Ag36  1  0.83096937  0.66792112  0.50132390  1
  Ag  Ag37  1  -0.00660075  0.67912727  -0.00126604  1
  Ag  Ag38  1  0.67340564  0.17168683  0.49112423  1
  Ag  Ag39  1  0.16256322  0.16239836  0.67436532  1
  Ag  Ag40  1  0.83014377  0.16243812  0.32896551  1
  Ag  Ag41  1  0.33523555  0.33652004  0.00115988  1
  Ag  Ag42  1  0.34229841  0.49967227  0.50025898  1
  Ag  Ag43  1  0.51478169  0.00012310  0.16432679  1
  Ag  Ag44  1  0.67362280  0.00202443  0.33102219  1
  Ag  Ag45  1  0.82973171  0.32622592  0.16669463  1
  Ag  Ag46  1  0.50340551  0.50659457  0.67471499  1
  Ag  Ag47  1  0.67568259  0.83766313  0.16654229  1
  Ag  Ag48  1  0.16142538  0.83629778  0.67806400  1
  Ag  Ag49  1  0.82989844  0.83779864  0.32462144  1
  Ag  Ag50  1  0.33180584  0.16883472  0.16387283  1
  Ag  Ag51  1  0.66866342  0.50327291  0.49419987  1
  Ag  Ag52  1  0.83085570  -0.00365423  0.48956294  1
  Ag  Ag53  1  0.66541190  0.66625226  0.66152298  1
  Sb  Sb54  1  -0.00716089  0.66767780  0.67366832  1
  Sb  Sb55  1  0.15707311  0.00535091  0.50157474  1
  Sb  Sb56  1  0.67327293  0.16887575  0.83571844  1
  Sb  Sb57  1  0.33958598  0.33606679  0.32693993  1
  Sb  Sb58  1  0.83118039  0.33946812  0.83962067  1
  Sb  Sb59  1  0.50089636  0.16714157  0.66707116  1
  Sb  Sb60  1  0.33612072  0.33513376  0.67171262  1
  Sb  Sb61  1  0.51035739  0.83137521  0.33508328  1
  Sb  Sb62  1  0.33357493  0.66228762  -0.00120438  1
  Sb  Sb63  1  0.82919304  0.50526203  0.00366160  1
  Sb  Sb64  1  0.50359440  0.66762980  0.16313272  1
  Sb  Sb65  1  0.83869348  -0.00565930  0.83592536  1
  Sb  Sb66  1  -0.00726532  0.33230603  0.32998838  1
  Sb  Sb67  1  0.67145939  0.82729406  0.49857009  1
  Sb  Sb68  1  0.51129041  0.16605351  0.32990651  1
  Sb  Sb69  1  -0.00507387  0.50002667  0.16331504  1
  Sb  Sb70  1  0.33546663  -0.00124841  0.66699175  1
  Sb  Sb71  1  0.34122251  0.66412656  0.33206520  1
  Sb  Sb72  1  0.34069792  0.66660260  0.66927077  1
  Sb  Sb73  1  0.67284787  -0.00067325  0.00338265  1
  Sb  Sb74  1  0.16758943  0.50028721  -0.00021827  1
  Sb  Sb75  1  0.49799033  0.17142513  0.00153560  1
  Sb  Sb76  1  0.32520393  0.00396591  0.00118701  1
  Sb  Sb77  1  0.33427611  0.82690403  0.50717277  1
  Sb  Sb78  1  0.67146098  0.83026965  0.83507522  1
  Sb  Sb79  1  0.16767572  0.33056259  0.83252444  1
  Sb  Sb80  1  -0.00880529  0.00153399  0.32404610  1
  Sb  Sb81  1  0.33052655  0.83405536  0.16027982  1
  Sb  Sb82  1  0.34084486  0.00108137  0.32873258  1
  Sb  Sb83  1  -0.00449797  0.00018926  0.67224275  1
  Sb  Sb84  1  0.17006728  0.50205876  0.66719895  1
  Sb  Sb85  1  0.50966987  0.50078315  0.33260759  1
  Sb  Sb86  1  0.33199919  0.17305762  0.49507287  1
  Sb  Sb87  1  -0.00509987  0.33228230  0.66912068  1
  Sb  Sb88  1  0.16120035  0.66315118  0.49780468  1
  Sb  Sb89  1  0.16404457  0.67275945  0.83781850  1
  Sb  Sb90  1  0.51196060  -0.00539517  0.49796377  1
  Sb  Sb91  1  0.50948221  0.33178989  0.16084652  1
  Sb  Sb92  1  0.82571207  0.50434097  0.66400090  1
  Sb  Sb93  1  0.84002572  0.16302518  0.00633927  1
  Sb  Sb94  1  0.83540367  0.16149900  0.66125941  1
  Sb  Sb95  1  0.66485256  0.50211892  0.83394446  1
  Sb  Sb96  1  0.32706296  0.16865717  0.83854442  1
  Sb  Sb97  1  0.15824834  0.16599681  0.32835800  1
  Sb  Sb98  1  0.83232517  0.67087928  0.16579380  1
  Sb  Sb99  1  0.16300283  0.33088933  0.16646684  1
  Sb  Sb100  1  -0.00929033  0.66592885  0.32827942  1
  Sb  Sb101  1  0.50242111  0.82780520  -0.00369026  1
  Sb  Sb102  1  0.49668240  -0.00494191  0.83684262  1
  Sb  Sb103  1  -0.00409273  0.83350459  0.50120891  1
  Sb  Sb104  1  0.15773418  0.83440404  0.32705072  1
  Sb  Sb105  1  0.16097322  0.49957159  0.33305881  1
  Sb  Sb106  1  0.83271485  0.33426655  0.49554123  1
  Sb  Sb107  1  0.50319096  0.34126016  0.50637120  1
  Te  Te108  1  0.16078790  0.16439558  0.16396533  1
  Te  Te109  1  0.16493782  0.17034826  0.49943756  1
  Te  Te110  1  0.16273286  0.16398405  0.83410060  1
  Te  Te111  1  0.16806951  0.50193203  0.16797729  1
  Te  Te112  1  0.16468148  0.49656977  0.50031201  1
  Te  Te113  1  0.16446162  0.50036131  0.83144173  1
  Te  Te114  1  0.16553661  0.83562693  0.16271316  1
  Te  Te115  1  0.16551737  0.83467593  0.50079247  1
  Te  Te116  1  0.16424537  0.83369174  0.83581286  1
  Te  Te117  1  0.49548778  0.16202905  0.16583311  1
  Te  Te118  1  0.50330183  0.16526474  0.50007055  1
  Te  Te119  1  0.49788416  0.16695288  0.83338175  1
  Te  Te120  1  0.50054932  0.49964678  0.16287672  1
  Te  Te121  1  0.50330751  0.50394779  0.50008241  1
  Te  Te122  1  0.50061470  0.50217568  0.83381324  1
  Te  Te123  1  0.50020593  0.83692384  0.16621449  1
  Te  Te124  1  0.49757433  0.82653929  0.50880766  1
  Te  Te125  1  0.49705739  0.83034661  0.82871137  1
  Te  Te126  1  0.83588377  0.16522395  0.16713603  1
  Te  Te127  1  0.83096138  0.16654500  0.49666947  1
  Te  Te128  1  0.84253152  0.16697530  0.83208984  1
  Te  Te129  1  0.82905754  0.49768253  0.17093873  1
  Te  Te130  1  0.83009635  0.50080590  0.49847712  1
  Te  Te131  1  0.84141517  0.50678874  0.83272215  1
  Te  Te132  1  0.83226876  0.83177289  0.16572378  1
  Te  Te133  1  0.83451101  0.83351573  0.50379894  1
  Te  Te134  1  0.83777703  0.83001438  0.83187517  1
  Te  Te135  1  0.16361175  0.00115844  0.00056144  1
  Te  Te136  1  0.16891242  -0.00046266  0.32831612  1
  Te  Te137  1  0.16646526  -0.00031795  0.66801065  1
  Te  Te138  1  0.16404306  0.32921065  0.00057561  1
  Te  Te139  1  0.16767724  0.33234008  0.34024061  1
  Te  Te140  1  0.16674493  0.33133866  0.66295750  1
  Te  Te141  1  0.16352532  0.66875150  0.00370479  1
  Te  Te142  1  0.16686124  0.66778479  0.32638011  1
  Te  Te143  1  0.16547522  0.67335603  0.66477826  1
  Te  Te144  1  0.49943287  -0.00082728  0.00437437  1
  Te  Te145  1  0.51009977  -0.00143555  0.32715120  1
  Te  Te146  1  0.50602614  -0.00404964  0.66736681  1
  Te  Te147  1  0.50096184  0.33730734  -0.00306279  1
  Te  Te148  1  0.50896894  0.33317053  0.33469411  1
  Te  Te149  1  0.50410153  0.33495530  0.67378820  1
  Te  Te150  1  0.50426550  0.66122761  -0.00436264  1
  Te  Te151  1  0.50891690  0.66745458  0.34022645  1
  Te  Te152  1  0.50359724  0.66644472  0.66861775  1
  Te  Te153  1  0.83917665  -0.00733213  0.00307637  1
  Te  Te154  1  0.82992931  -0.00109859  0.33223241  1
  Te  Te155  1  0.82846572  -0.00529814  0.66694936  1
  Te  Te156  1  0.83027704  0.33489296  0.00480613  1
  Te  Te157  1  0.82876820  0.33374043  0.32907203  1
  Te  Te158  1  0.82579241  0.33267621  0.66964060  1
  Te  Te159  1  0.83314367  0.66988438  -0.00127611  1
  Te  Te160  1  0.82837302  0.66617414  0.33559508  1
  Te  Te161  1  0.82791942  0.66977428  0.66593516  1
  Te  Te162  1  0.00020060  0.17084104  0.00104747  1
  Te  Te163  1  -0.00811861  0.16718244  0.33914128  1
  Te  Te164  1  0.00423317  0.16659381  0.65935856  1
  Te  Te165  1  -0.00061834  0.49283971  -0.00313338  1
  Te  Te166  1  -0.00728292  0.49912660  0.33874860  1
  Te  Te167  1  0.00065322  0.50003856  0.66524246  1
  Te  Te168  1  0.00051619  0.83382853  0.00043266  1
  Te  Te169  1  -0.00898810  0.83277927  0.32898635  1
  Te  Te170  1  -0.00104767  0.83375002  0.66920168  1
  Te  Te171  1  0.32835652  0.17236532  0.00429828  1
  Te  Te172  1  0.33268168  0.16878062  0.32574552  1
  Te  Te173  1  0.32551463  0.16682558  0.66481682  1
  Te  Te174  1  0.33432010  0.49668094  -0.00078899  1
  Te  Te175  1  0.33176589  0.49944191  0.33428378  1
  Te  Te176  1  0.33920773  0.49972359  0.66811687  1
  Te  Te177  1  0.33306280  0.83232692  -0.00620073  1
  Te  Te178  1  0.33371153  0.83238672  0.33421278  1
  Te  Te179  1  0.32377205  0.83339608  0.67340389  1
  Te  Te180  1  0.66702856  0.16898858  0.00519781  1
  Te  Te181  1  0.67149533  0.16638630  0.33125166  1
  Te  Te182  1  0.66701880  0.17111774  0.66640235  1
  Te  Te183  1  0.66494240  0.50026103  0.00078057  1
  Te  Te184  1  0.66984735  0.50030340  0.33273203  1
  Te  Te185  1  0.66258088  0.50092137  0.66613644  1
  Te  Te186  1  0.66841471  0.83109879  0.00481283  1
  Te  Te187  1  0.67169280  0.83408357  0.32883557  1
  Te  Te188  1  0.67091325  0.83072936  0.66815094  1
  Te  Te189  1  -0.00317416  0.00058380  0.16395537  1
  Te  Te190  1  -0.00756664  0.00394404  0.50081835  1
  Te  Te191  1  0.00390167  0.00048535  0.83742844  1
  Te  Te192  1  -0.00479602  0.33138810  0.16319403  1
  Te  Te193  1  0.00026239  0.33473323  0.50067348  1
  Te  Te194  1  -0.00075441  0.33283736  0.83618415  1
  Te  Te195  1  0.00335643  0.66576063  0.16102734  1
  Te  Te196  1  -0.00652986  0.66196599  0.49983685  1
  Te  Te197  1  -0.00192092  0.66705264  0.83858372  1
  Te  Te198  1  0.33156230  0.00391833  0.16704570  1
  Te  Te199  1  0.33424356  0.00147261  0.49735881  1
  Te  Te200  1  0.32706397  -0.00256075  0.83342746  1
  Te  Te201  1  0.33199036  0.33492752  0.16232414  1
  Te  Te202  1  0.33214724  0.33919595  0.49917361  1
  Te  Te203  1  0.33679158  0.33712299  0.83921932  1
  Te  Te204  1  0.33186620  0.66164522  0.16710249  1
  Te  Te205  1  0.33040039  0.65878015  0.49871510  1
  Te  Te206  1  0.33659110  0.66357171  0.83412401  1
  Te  Te207  1  0.67142560  0.00059687  0.16533768  1
  Te  Te208  1  0.67125406  0.00194819  0.50021700  1
  Te  Te209  1  0.66574967  0.00142926  0.82807031  1
  Te  Te210  1  0.66874419  0.33384622  0.16684295  1
  Te  Te211  1  0.66625451  0.33323596  0.50096150  1
  Te  Te212  1  0.66337977  0.33275407  0.83805841  1
  Te  Te213  1  0.66519836  0.66341157  0.16377852  1
  Te  Te214  1  0.67084406  0.66581628  0.50085663  1
  Te  Te215  1  0.66844549  0.66797678  0.83675719  1
