# generated using pymatgen
data_AgSbTe2
_symmetry_space_group_name_H-M   'P 1'
_cell_length_a   18.32540975
_cell_length_b   18.32399243
_cell_length_c   18.32847890
_cell_angle_alpha   89.99906866
_cell_angle_beta   90.00019986
_cell_angle_gamma   90.00119776
_symmetry_Int_Tables_number   1
_chemical_formula_structural   AgSbTe2
_chemical_formula_sum   'Ag54 Sb54 Te108'
_cell_volume   6154.60551348
_cell_formula_units_Z   54
loop_
 _symmetry_equiv_pos_site_id
 _symmetry_equiv_pos_as_xyz
  1  'x, y, z'
loop_
 _atom_site_type_symbol
 _atom_site_label
 _atom_site_symmetry_multiplicity
 _atom_site_fract_x
 _atom_site_fract_y
 _atom_site_fract_z
 _atom_site_occupancy
  Ag  Ag0  1  -0.00701064  0.16756008  0.83031951  1
  Ag  Ag1  1  0.49804041  0.33253953  0.83861500  1
  Ag  Ag2  1  0.16280120  0.16361720  0.66554187  1
  Ag  Ag3  1  0.34297471  0.65743880  0.33431458  1
  Ag  Ag4  1  0.33901810  0.49289310  0.50055624  1
  Ag  Ag5  1  0.83274685  0.00914586  0.83026706  1
  Ag  Ag6  1  0.66794202  0.49910072  0.16993287  1
  Ag  Ag7  1  0.33147019  0.83252262  0.50198007  1
  Ag  Ag8  1  0.16860774  0.16598178  -0.00501994  1
  Ag  Ag9  1  0.00069180  0.66222170  0.66664223  1
  Ag  Ag10  1  0.66193203  0.17029720  0.16115587  1
  Ag  Ag11  1  0.16957878  0.00169155  0.83275263  1
  Ag  Ag12  1  0.32539519  0.17646858  0.49551790  1
  Ag  Ag13  1  0.50521813  0.49900859  0.33028378  1
  Ag  Ag14  1  0.82795693  0.17718669  0.33814232  1
  Ag  Ag15  1  0.66143055  0.49432516  0.84029573  1
  Ag  Ag16  1  0.33300689  0.33443955  0.66052211  1
  Ag  Ag17  1  0.34136600  0.49683799  0.82937404  1
  Ag  Ag18  1  0.50565180  0.66521101  0.17146434  1
  Ag  Ag19  1  0.83823223  0.17233913  0.66592875  1
  Ag  Ag20  1  0.82385943  0.49070870  0.00559540  1
  Ag  Ag21  1  0.66280939  0.82133578  0.16740840  1
  Ag  Ag22  1  0.16972277  0.32747372  0.50053662  1
  Ag  Ag23  1  0.49787553  0.00988040  0.83871474  1
  Ag  Ag24  1  0.16991370  0.84105769  0.67156768  1
  Ag  Ag25  1  0.83392182  0.65244063  0.49556929  1
  Ag  Ag26  1  0.50173141  0.17217529  0.00471124  1
  Ag  Ag27  1  0.16719345  0.01071674  0.50497156  1
  Ag  Ag28  1  -0.00283322  0.33340670  0.33330449  1
  Ag  Ag29  1  0.49868144  0.00896144  0.16448349  1
  Ag  Ag30  1  0.50272773  0.49781093  0.66867585  1
  Ag  Ag31  1  0.66144321  0.65961371  0.32874095  1
  Ag  Ag32  1  0.82719896  0.49282017  0.66022949  1
  Ag  Ag33  1  0.50133367  0.17225288  0.32225548  1
  Ag  Ag34  1  0.00322489  0.17012670  0.50389290  1
  Ag  Ag35  1  0.66762752  0.49899802  0.49226252  1
  Ag  Ag36  1  0.67133003  0.17322596  0.84030916  1
  Ag  Ag37  1  0.82520137  0.49573470  0.33355012  1
  Ag  Ag38  1  0.34323247  0.16824702  0.16882050  1
  Ag  Ag39  1  0.33447997  0.33471908  0.34009044  1
  Ag  Ag40  1  0.82366377  0.65795970  0.17316300  1
  Ag  Ag41  1  0.82844372  0.17431825  -0.00262883  1
  Ag  Ag42  1  0.32889034  0.83018209  0.83131398  1
  Ag  Ag43  1  0.50559823  0.48954938  -0.00073448  1
  Ag  Ag44  1  0.16922269  0.84425858  -0.00909538  1
  Ag  Ag45  1  -0.00602817  0.33114051  0.00349698  1
  Ag  Ag46  1  0.16866118  0.67256592  0.83176804  1
  Ag  Ag47  1  0.83679004  0.01347053  0.50309914  1
  Ag  Ag48  1  0.49919437  0.82308715  0.32917362  1
  Ag  Ag49  1  -0.01285616  0.49893915  0.16642448  1
  Ag  Ag50  1  0.34204516  0.33154949  -0.00219298  1
  Ag  Ag51  1  0.17180150  0.00325959  0.15985181  1
  Ag  Ag52  1  0.83643379  0.33266836  0.49720471  1
  Ag  Ag53  1  0.66504142  0.33312093  -0.00163271  1
  Sb  Sb54  1  0.82733315  0.82995114  0.33409799  1
  Sb  Sb55  1  0.66351287  0.33555725  0.67116919  1
  Sb  Sb56  1  0.17233127  0.32840787  0.83071196  1
  Sb  Sb57  1  0.16973567  0.49779042  0.33401103  1
  Sb  Sb58  1  0.33070161  0.66018130  0.66348892  1
  Sb  Sb59  1  0.50088478  0.66142016  0.49294826  1
  Sb  Sb60  1  0.66557564  0.01076839  0.00077225  1
  Sb  Sb61  1  0.83087782  0.00278512  0.16641688  1
  Sb  Sb62  1  0.67076265  0.66113071  0.66039224  1
  Sb  Sb63  1  -0.00110870  0.00977565  0.33424614  1
  Sb  Sb64  1  0.49607077  0.83633652  0.00431078  1
  Sb  Sb65  1  0.33114036  0.00727803  0.66729689  1
  Sb  Sb66  1  0.34008032  0.49392988  0.16823043  1
  Sb  Sb67  1  0.33393564  0.66107350  0.00240455  1
  Sb  Sb68  1  0.17600120  0.83458365  0.33600382  1
  Sb  Sb69  1  0.83547584  0.83460497  -0.00030387  1
  Sb  Sb70  1  0.00768931  0.83885084  0.83257200  1
  Sb  Sb71  1  0.33426902  0.16988233  0.83490246  1
  Sb  Sb72  1  0.00038795  0.65889636  -0.00322534  1
  Sb  Sb73  1  0.49867889  0.33551299  0.50113673  1
  Sb  Sb74  1  0.66492140  0.33801422  0.32838802  1
  Sb  Sb75  1  0.83894568  0.83406650  0.66554329  1
  Sb  Sb76  1  -0.00206995  0.17260869  0.16709163  1
  Sb  Sb77  1  0.66633743  0.65462793  0.00760042  1
  Sb  Sb78  1  0.16744356  0.49567770  0.66656561  1
  Sb  Sb79  1  -0.00225530  0.49371108  0.83555227  1
  Sb  Sb80  1  0.66978414  0.17331427  0.49865580  1
  Sb  Sb81  1  0.16880002  0.67031075  0.16257749  1
  Sb  Sb82  1  0.33466213  0.00576875  0.33418678  1
  Sb  Sb83  1  0.33226021  0.00751545  -0.00131027  1
  Sb  Sb84  1  0.82793293  0.32822648  0.83308484  1
  Sb  Sb85  1  0.66092056  0.83389416  0.84010620  1
  Sb  Sb86  1  0.66280187  0.82814667  0.49456310  1
  Sb  Sb87  1  -0.00277788  0.82822237  0.16639873  1
  Sb  Sb88  1  0.49808631  0.00282086  0.49904260  1
  Sb  Sb89  1  -0.00388858  0.65764787  0.33636227  1
  Sb  Sb90  1  0.83592125  0.66486666  0.83211559  1
  Sb  Sb91  1  0.16438223  0.66550579  0.50434616  1
  Sb  Sb92  1  0.50102722  0.33184380  0.16095171  1
  Sb  Sb93  1  0.49922189  0.17278542  0.66960722  1
  Sb  Sb94  1  0.49647322  0.66057764  0.83920784  1
  Sb  Sb95  1  0.16907397  0.49320911  -0.00127592  1
  Sb  Sb96  1  0.00222910  0.00134841  0.66707901  1
  Sb  Sb97  1  0.66792447  0.00272308  0.66770082  1
  Sb  Sb98  1  0.00433225  0.83852161  0.50085354  1
  Sb  Sb99  1  0.33855619  0.83801711  0.16632743  1
  Sb  Sb100  1  0.00119521  0.33268043  0.66583823  1
  Sb  Sb101  1  0.83308003  0.33894962  0.16888700  1
  Sb  Sb102  1  0.66540485  0.00054323  0.33195365  1
  Sb  Sb103  1  0.00235020  0.01012693  -0.00074199  1
  Sb  Sb104  1  -0.00430798  0.49259382  0.49698303  1
  Sb  Sb105  1  0.16847303  0.32814961  0.16799735  1
  Sb  Sb106  1  0.16927498  0.16823932  0.33516663  1
  Sb  Sb107  1  0.49254213  0.82823079  0.66457942  1
  Te  Te108  1  0.16483690  0.16161091  0.16470183  1
  Te  Te109  1  0.16707377  0.16724459  0.49867744  1
  Te  Te110  1  0.16799731  0.16323528  0.83283700  1
  Te  Te111  1  0.16338043  0.50191891  0.16521313  1
  Te  Te112  1  0.17322563  0.49576887  0.50086302  1
  Te  Te113  1  0.16885145  0.50336216  0.83348547  1
  Te  Te114  1  0.16676999  0.83970220  0.16396908  1
  Te  Te115  1  0.17173611  0.83467458  0.50422762  1
  Te  Te116  1  0.16881776  0.83746634  0.83188155  1
  Te  Te117  1  0.50095574  0.16709163  0.16557357  1
  Te  Te118  1  0.49900625  0.16609519  0.49994261  1
  Te  Te119  1  0.50135788  0.16764961  0.83352765  1
  Te  Te120  1  0.50287384  0.50188742  0.16764809  1
  Te  Te121  1  0.50017190  0.49948519  0.49946984  1
  Te  Te122  1  0.50046508  0.50012983  0.83620461  1
  Te  Te123  1  0.50289730  0.83352703  0.16943764  1
  Te  Te124  1  0.49379576  0.83394582  0.49509339  1
  Te  Te125  1  0.49349007  0.83470371  0.83432264  1
  Te  Te126  1  0.82970425  0.16395492  0.16445379  1
  Te  Te127  1  0.83087342  0.17055471  0.49932700  1
  Te  Te128  1  0.83227055  0.16710870  0.83382686  1
  Te  Te129  1  0.82925304  0.50078078  0.16566988  1
  Te  Te130  1  0.83454990  0.49601913  0.49964113  1
  Te  Te131  1  0.83002982  0.50080349  0.83267108  1
  Te  Te132  1  0.82650644  0.83029054  0.16636091  1
  Te  Te133  1  0.83316535  0.83766635  0.50046635  1
  Te  Te134  1  0.83216783  0.84129123  0.83299784  1
  Te  Te135  1  0.16699636  0.00417529  -0.00206651  1
  Te  Te136  1  0.16619163  -0.00028146  0.33705349  1
  Te  Te137  1  0.16762721  0.00289257  0.66576238  1
  Te  Te138  1  0.16726589  0.32633013  0.00043675  1
  Te  Te139  1  0.16844449  0.33342871  0.33890088  1
  Te  Te140  1  0.16990228  0.32798688  0.66180273  1
  Te  Te141  1  0.16666961  0.66768176  -0.00612965  1
  Te  Te142  1  0.16955895  0.66696784  0.33320360  1
  Te  Te143  1  0.16372240  0.66680621  0.67104627  1
  Te  Te144  1  0.49921163  0.00451371  -0.00023692  1
  Te  Te145  1  0.49997477  0.00783278  0.32973180  1
  Te  Te146  1  0.49965421  -0.00161723  0.67373576  1
  Te  Te147  1  0.50003685  0.33241760  -0.00219702  1
  Te  Te148  1  0.49668389  0.33300339  0.33513280  1
  Te  Te149  1  0.49465190  0.33949354  0.67307867  1
  Te  Te150  1  0.49920888  0.66464142  0.00840470  1
  Te  Te151  1  0.50068046  0.66241831  0.33170344  1
  Te  Te152  1  0.50017650  0.65865154  0.66667847  1
  Te  Te153  1  0.83500394  0.00387810  -0.00453212  1
  Te  Te154  1  0.83350955  0.00222290  0.33753897  1
  Te  Te155  1  0.83481957  0.00391531  0.66675508  1
  Te  Te156  1  0.83367792  0.33307681  -0.00157928  1
  Te  Te157  1  0.83149295  0.33480035  0.33510123  1
  Te  Te158  1  0.83399651  0.33288841  0.66327076  1
  Te  Te159  1  0.83541772  0.66443713  0.00301235  1
  Te  Te160  1  0.83143981  0.66341593  0.33341941  1
  Te  Te161  1  0.83794352  0.66589605  0.66332678  1
  Te  Te162  1  -0.00074087  0.17274660  -0.00016533  1
  Te  Te163  1  -0.00701910  0.17451373  0.33604532  1
  Te  Te164  1  -0.00038978  0.16785916  0.66638152  1
  Te  Te165  1  -0.00210240  0.49196733  0.00282611  1
  Te  Te166  1  -0.00414164  0.49371695  0.32929606  1
  Te  Te167  1  -0.00498051  0.50180536  0.66751180  1
  Te  Te168  1  0.00705215  0.83181434  0.00025664  1
  Te  Te169  1  0.00010718  0.83260333  0.33350812  1
  Te  Te170  1  0.00792997  0.82592481  0.66640897  1
  Te  Te171  1  0.33426698  0.17166148  0.00141429  1
  Te  Te172  1  0.33577047  0.17118976  0.33396396  1
  Te  Te173  1  0.33146702  0.17321607  0.66155872  1
  Te  Te174  1  0.33711009  0.49340385  -0.00139932  1
  Te  Te175  1  0.33621682  0.49708314  0.33491065  1
  Te  Te176  1  0.33482287  0.49561235  0.66671901  1
  Te  Te177  1  0.32784383  0.83068139  -0.00366641  1
  Te  Te178  1  0.33990066  0.83158824  0.33489869  1
  Te  Te179  1  0.32901762  0.83047563  0.66668892  1
  Te  Te180  1  0.66592948  0.17156730  -0.00068643  1
  Te  Te181  1  0.66663835  0.16870683  0.33102472  1
  Te  Te182  1  0.67145872  0.16833324  0.67178288  1
  Te  Te183  1  0.66606803  0.49538123  -0.00076098  1
  Te  Te184  1  0.66602731  0.49917894  0.33238166  1
  Te  Te185  1  0.66745051  0.50032509  0.66645455  1
  Te  Te186  1  0.66640089  0.83200902  0.00672915  1
  Te  Te187  1  0.66005555  0.82846045  0.32845113  1
  Te  Te188  1  0.66422788  0.83159598  0.66746581  1
  Te  Te189  1  0.00632553  -0.00204931  0.16741400  1
  Te  Te190  1  0.00033139  0.00701117  0.50033398  1
  Te  Te191  1  0.00082955  0.00696599  0.83319910  1
  Te  Te192  1  0.00231770  0.33869558  0.16851002  1
  Te  Te193  1  0.00036406  0.32877683  0.49913792  1
  Te  Te194  1  0.00381772  0.32681328  0.83732915  1
  Te  Te195  1  -0.00248972  0.66021301  0.16669584  1
  Te  Te196  1  -0.00461920  0.66753038  0.50362823  1
  Te  Te197  1  0.00453967  0.66626701  0.82943073  1
  Te  Te198  1  0.33384964  0.00609099  0.16737310  1
  Te  Te199  1  0.33002943  -0.00210065  0.50096952  1
  Te  Te200  1  0.33265015  -0.00377896  0.83266996  1
  Te  Te201  1  0.33173621  0.32711168  0.16719963  1
  Te  Te202  1  0.33549121  0.33362521  0.49953462  1
  Te  Te203  1  0.33688960  0.33625205  0.83608238  1
  Te  Te204  1  0.33545711  0.66651562  0.17336778  1
  Te  Te205  1  0.33208726  0.66675215  0.49526032  1
  Te  Te206  1  0.32912402  0.66436566  0.83378901  1
  Te  Te207  1  0.66164438  0.00653096  0.16690058  1
  Te  Te208  1  0.67236485  -0.00158614  0.50033900  1
  Te  Te209  1  0.66507378  0.00148730  0.83406353  1
  Te  Te210  1  0.66763559  0.33213163  0.16000429  1
  Te  Te211  1  0.67236663  0.34036838  0.50211772  1
  Te  Te212  1  0.66133986  0.33424676  0.83683235  1
  Te  Te213  1  0.66616426  0.66220145  0.16927220  1
  Te  Te214  1  0.67322345  0.66165602  0.49348593  1
  Te  Te215  1  0.66686146  0.66383534  0.83315556  1
