# generated using pymatgen
data_AgSbTe2
_symmetry_space_group_name_H-M   'P 1'
_cell_length_a   18.35300868
_cell_length_b   18.34600489
_cell_length_c   18.35438389
_cell_angle_alpha   89.99955123
_cell_angle_beta   90.00000972
_cell_angle_gamma   90.00285564
_symmetry_Int_Tables_number   1
_chemical_formula_structural   AgSbTe2
_chemical_formula_sum   'Ag54 Sb54 Te108'
_cell_volume   6180.00156697
_cell_formula_units_Z   54
loop_
 _symmetry_equiv_pos_site_id
 _symmetry_equiv_pos_as_xyz
  1  'x, y, z'
loop_
 _atom_site_type_symbol
 _atom_site_label
 _atom_site_symmetry_multiplicity
 _atom_site_fract_x
 _atom_site_fract_y
 _atom_site_fract_z
 _atom_site_occupancy
  Ag  Ag0  1  0.84142924  0.15400144  0.66636497  1
  Ag  Ag1  1  0.33884050  0.83396271  0.15996920  1
  Ag  Ag2  1  0.65796171  0.33266402  0.32643381  1
  Ag  Ag3  1  0.00149594  0.16914355  0.16632351  1
  Ag  Ag4  1  0.16788641  0.49452659  -0.00281759  1
  Ag  Ag5  1  0.32776895  0.33011832  0.66924610  1
  Ag  Ag6  1  0.16960188  0.33406772  0.16547885  1
  Ag  Ag7  1  0.50135190  0.49994005  0.32665646  1
  Ag  Ag8  1  0.34057050  -0.00540429  0.33284005  1
  Ag  Ag9  1  0.49840744  0.67406055  0.17121841  1
  Ag  Ag10  1  0.17276077  0.32971796  0.51226488  1
  Ag  Ag11  1  0.49361932  0.15883352  0.66447934  1
  Ag  Ag12  1  0.65594761  0.49456136  0.16769885  1
  Ag  Ag13  1  0.50151562  0.33480687  0.16923256  1
  Ag  Ag14  1  0.16542598  -0.00236529  0.51388001  1
  Ag  Ag15  1  0.66470367  0.83639198  0.49576925  1
  Ag  Ag16  1  0.49759973  -0.00516225  0.16648071  1
  Ag  Ag17  1  0.65712221  -0.00430541  0.00391766  1
  Ag  Ag18  1  0.65769353  -0.00622154  0.33037170  1
  Ag  Ag19  1  0.17179797  0.33028361  0.82341169  1
  Ag  Ag20  1  0.49251448  0.33059307  0.83091406  1
  Ag  Ag21  1  0.82270949  0.33323617  0.16236458  1
  Ag  Ag22  1  0.81917339  0.83691856  0.33964926  1
  Ag  Ag23  1  0.49555800  0.68005698  0.83465629  1
  Ag  Ag24  1  0.49752771  0.33433710  0.49667938  1
  Ag  Ag25  1  0.49980137  0.83691617  0.33192931  1
  Ag  Ag26  1  0.49717826  0.83826516  0.00170490  1
  Ag  Ag27  1  0.17082231  0.16445179  0.66606309  1
  Ag  Ag28  1  0.34045350  0.50143396  0.16461741  1
  Ag  Ag29  1  0.00188894  0.33455030  -0.00151412  1
  Ag  Ag30  1  0.01250736  0.00002687  0.66823735  1
  Ag  Ag31  1  -0.00382758  0.83745551  0.50866327  1
  Ag  Ag32  1  0.49645148  -0.00417086  0.83561894  1
  Ag  Ag33  1  0.32469592  -0.00344867  0.66855811  1
  Ag  Ag34  1  0.83359704  0.49760505  0.00236715  1
  Ag  Ag35  1  0.17743867  0.83661320  0.34187691  1
  Ag  Ag36  1  0.17344784  0.84975865  0.66449328  1
  Ag  Ag37  1  0.17704319  -0.00078567  0.82564600  1
  Ag  Ag38  1  0.82613337  0.83562336  -0.00190238  1
  Ag  Ag39  1  0.33435099  0.68123214  0.67250815  1
  Ag  Ag40  1  0.33727748  0.67411925  -0.00294390  1
  Ag  Ag41  1  0.48930616  0.84101990  0.67169076  1
  Ag  Ag42  1  0.66452820  0.33286015  0.00659374  1
  Ag  Ag43  1  0.01272127  0.32214254  0.67204282  1
  Ag  Ag44  1  0.17028466  0.47858848  0.67252458  1
  Ag  Ag45  1  0.83208606  -0.00393358  0.82661320  1
  Ag  Ag46  1  0.65877861  0.67792291  0.33165198  1
  Ag  Ag47  1  0.83806083  0.84048438  0.66459108  1
  Ag  Ag48  1  0.34046354  -0.00871277  -0.01112292  1
  Ag  Ag49  1  0.50126744  0.16187677  0.33528502  1
  Ag  Ag50  1  0.49893516  0.67584428  0.48956937  1
  Ag  Ag51  1  0.33556082  0.83595340  0.83251463  1
  Ag  Ag52  1  0.83614819  -0.00475034  0.51073341  1
  Ag  Ag53  1  0.00868156  0.83853973  0.82737044  1
  Sb  Sb54  1  0.00760285  0.67705144  0.66748267  1
  Sb  Sb55  1  0.83552903  0.32819133  0.83814926  1
  Sb  Sb56  1  0.34000258  0.32940809  0.33473846  1
  Sb  Sb57  1  0.82455533  0.66518195  0.16526413  1
  Sb  Sb58  1  0.33471726  0.33336112  -0.00211339  1
  Sb  Sb59  1  0.82563045  0.67718231  0.50110545  1
  Sb  Sb60  1  -0.00563434  0.67193204  0.33376763  1
  Sb  Sb61  1  0.65868895  0.66869645  0.00545054  1
  Sb  Sb62  1  0.17358214  0.67030331  0.83081629  1
  Sb  Sb63  1  0.33547695  0.16463003  0.50334174  1
  Sb  Sb64  1  0.17680588  0.66447583  0.16598309  1
  Sb  Sb65  1  0.17300046  0.83207348  -0.00380063  1
  Sb  Sb66  1  0.49921533  -0.00310228  0.50012238  1
  Sb  Sb67  1  0.66049292  0.33299085  0.66645863  1
  Sb  Sb68  1  0.83152836  0.32817559  0.49804308  1
  Sb  Sb69  1  0.82532378  0.67626219  0.83416639  1
  Sb  Sb70  1  0.00387835  0.50237417  0.50359843  1
  Sb  Sb71  1  -0.00161130  0.33208576  0.33212209  1
  Sb  Sb72  1  0.33401289  0.15918011  0.83114129  1
  Sb  Sb73  1  0.82658882  0.00186919  0.16490652  1
  Sb  Sb74  1  0.33506623  0.49984222  0.49866582  1
  Sb  Sb75  1  0.66409726  -0.00201319  0.66545662  1
  Sb  Sb76  1  0.66632048  0.17202627  0.16731462  1
  Sb  Sb77  1  0.33424493  0.16602087  0.16713378  1
  Sb  Sb78  1  0.16677013  0.17126360  -0.00486874  1
  Sb  Sb79  1  0.83335453  0.16484727  -0.00292670  1
  Sb  Sb80  1  0.50009255  0.16158889  -0.00060385  1
  Sb  Sb81  1  0.17237034  0.16264400  0.33740560  1
  Sb  Sb82  1  0.66473647  0.16370511  0.83254205  1
  Sb  Sb83  1  0.17566268  0.50193282  0.33278945  1
  Sb  Sb84  1  0.65493003  0.67216031  0.66126601  1
  Sb  Sb85  1  0.17480769  0.00257821  0.16357260  1
  Sb  Sb86  1  0.17423011  0.67313565  0.50303199  1
  Sb  Sb87  1  0.00225504  0.49312502  0.16559213  1
  Sb  Sb88  1  0.00483389  0.66445751  -0.00100067  1
  Sb  Sb89  1  0.49342917  0.50115008  0.66360042  1
  Sb  Sb90  1  0.00374998  0.50128170  0.83356635  1
  Sb  Sb91  1  0.66472523  0.49797110  0.84201223  1
  Sb  Sb92  1  0.82759273  0.16070042  0.33530442  1
  Sb  Sb93  1  0.82406266  0.50243201  0.32662404  1
  Sb  Sb94  1  0.66363338  0.15971888  0.49895215  1
  Sb  Sb95  1  0.65791608  0.83246763  0.17112861  1
  Sb  Sb96  1  0.00137102  0.16258707  0.83158319  1
  Sb  Sb97  1  0.34104226  0.67414431  0.33252251  1
  Sb  Sb98  1  0.00437561  0.84027925  0.16470144  1
  Sb  Sb99  1  0.00137553  0.16138854  0.50091335  1
  Sb  Sb100  1  0.65981291  0.83651764  0.83125535  1
  Sb  Sb101  1  0.84044737  0.49847912  0.67212188  1
  Sb  Sb102  1  0.00053322  -0.00162277  0.33898165  1
  Sb  Sb103  1  0.66414728  0.50305449  0.49366661  1
  Sb  Sb104  1  0.33658931  0.83521653  0.50355059  1
  Sb  Sb105  1  0.49790322  0.50267596  0.00659357  1
  Sb  Sb106  1  0.00090576  0.00257329  -0.00730678  1
  Sb  Sb107  1  0.33413667  0.50382870  0.83593470  1
  Te  Te108  1  0.16445834  0.17121075  0.16862136  1
  Te  Te109  1  0.16573476  0.16796840  0.50286616  1
  Te  Te110  1  0.16613810  0.16725583  0.82850898  1
  Te  Te111  1  0.17020865  0.49686795  0.16474357  1
  Te  Te112  1  0.16770209  0.49423257  0.50173702  1
  Te  Te113  1  0.16760745  0.49617025  0.83380063  1
  Te  Te114  1  0.17311387  0.83326020  0.16867849  1
  Te  Te115  1  0.16582409  0.83530446  0.50227712  1
  Te  Te116  1  0.16938675  0.83596160  0.83025070  1
  Te  Te117  1  0.49978755  0.16728343  0.17002524  1
  Te  Te118  1  0.50124949  0.17326377  0.50183803  1
  Te  Te119  1  0.49962794  0.17141457  0.82757541  1
  Te  Te120  1  0.49791847  0.49591167  0.16636363  1
  Te  Te121  1  0.50073302  0.49529308  0.49400550  1
  Te  Te122  1  0.50053936  0.48864768  0.83326291  1
  Te  Te123  1  0.49816899  0.83481413  0.16479978  1
  Te  Te124  1  0.50291107  0.83358516  0.50215018  1
  Te  Te125  1  0.49811417  0.83677820  0.83090873  1
  Te  Te126  1  0.83882188  0.17139713  0.16742631  1
  Te  Te127  1  0.83359261  0.15985718  0.50532287  1
  Te  Te128  1  0.83379437  0.15954725  0.82608596  1
  Te  Te129  1  0.83433296  0.49568509  0.16182317  1
  Te  Te130  1  0.83426590  0.50148845  0.50054071  1
  Te  Te131  1  0.83425348  0.50196546  0.84094734  1
  Te  Te132  1  0.83513289  0.83329382  0.16268877  1
  Te  Te133  1  0.83330044  0.83654226  0.49931350  1
  Te  Te134  1  0.82804798  0.83723431  0.83424031  1
  Te  Te135  1  0.16966956  0.00103379  -0.00629171  1
  Te  Te136  1  0.16865737  -0.00377948  0.33246487  1
  Te  Te137  1  0.16801676  0.00450832  0.66951000  1
  Te  Te138  1  0.16716695  0.33473203  0.00441463  1
  Te  Te139  1  0.16818474  0.33273942  0.32831591  1
  Te  Te140  1  0.16734087  0.32394296  0.66772997  1
  Te  Te141  1  0.17291330  0.65885239  -0.00147739  1
  Te  Te142  1  0.16559343  0.67284926  0.33447350  1
  Te  Te143  1  0.17447529  0.66696897  0.66605675  1
  Te  Te144  1  0.50011476  -0.00022308  -0.00185924  1
  Te  Te145  1  0.50060020  -0.00107610  0.33868796  1
  Te  Te146  1  0.50082706  -0.00001922  0.66651767  1
  Te  Te147  1  0.50128737  0.33122633  0.00064365  1
  Te  Te148  1  0.49901342  0.33243395  0.33199681  1
  Te  Te149  1  0.49850505  0.33465874  0.66759563  1
  Te  Te150  1  0.49599984  0.66986174  -0.00000019  1
  Te  Te151  1  0.50072155  0.66919221  0.33163114  1
  Te  Te152  1  0.49364992  0.66721127  0.67139277  1
  Te  Te153  1  0.83239682  -0.00348177  -0.00253669  1
  Te  Te154  1  0.83125187  -0.00399136  0.33310179  1
  Te  Te155  1  0.82439930  -0.00269617  0.66735176  1
  Te  Te156  1  0.83346581  0.33240966  0.00237487  1
  Te  Te157  1  0.82927757  0.33205217  0.32821828  1
  Te  Te158  1  0.83402108  0.33328449  0.66741998  1
  Te  Te159  1  0.83333361  0.66940030  -0.00007606  1
  Te  Te160  1  0.82423463  0.67344233  0.33289742  1
  Te  Te161  1  0.83519089  0.66838261  0.66785130  1
  Te  Te162  1  -0.00063417  0.17392824  0.00392948  1
  Te  Te163  1  -0.00016597  0.16654029  0.32836695  1
  Te  Te164  1  -0.00127998  0.16372605  0.66622145  1
  Te  Te165  1  0.00093004  0.49577918  -0.00051153  1
  Te  Te166  1  -0.00071935  0.50254212  0.33468675  1
  Te  Te167  1  0.00867869  0.49682402  0.66797027  1
  Te  Te168  1  -0.00015865  0.83319788  -0.00434622  1
  Te  Te169  1  0.00144783  0.83407749  0.33359803  1
  Te  Te170  1  -0.00060804  0.83754023  0.66827350  1
  Te  Te171  1  0.33264631  0.15261217  0.00092109  1
  Te  Te172  1  0.34043600  0.15739608  0.33416714  1
  Te  Te173  1  0.33494904  0.17002560  0.66771366  1
  Te  Te174  1  0.33003451  0.50065152  0.00365830  1
  Te  Te175  1  0.33953109  0.50115654  0.32677341  1
  Te  Te176  1  0.32849658  0.48958606  0.66689537  1
  Te  Te177  1  0.33445771  0.83394179  -0.00055720  1
  Te  Te178  1  0.33667608  0.83530449  0.33307907  1
  Te  Te179  1  0.33316255  0.83693759  0.66740265  1
  Te  Te180  1  0.66764862  0.16881980  -0.00001293  1
  Te  Te181  1  0.66145319  0.16926561  0.33352892  1
  Te  Te182  1  0.66369903  0.16767289  0.66555173  1
  Te  Te183  1  0.67023326  0.49808685  0.00655596  1
  Te  Te184  1  0.66113113  0.49303705  0.32798254  1
  Te  Te185  1  0.67081275  0.50291056  0.66767017  1
  Te  Te186  1  0.66458541  0.83487191  0.00078153  1
  Te  Te187  1  0.66276456  0.83619189  0.33204888  1
  Te  Te188  1  0.67220939  0.83215842  0.65935644  1
  Te  Te189  1  0.00077168  0.00652817  0.16413123  1
  Te  Te190  1  0.00084639  -0.00413280  0.50512154  1
  Te  Te191  1  -0.00435288  -0.00323339  0.82909402  1
  Te  Te192  1  0.00449987  0.33094095  0.16479304  1
  Te  Te193  1  0.00123100  0.33350832  0.50405232  1
  Te  Te194  1  0.00315696  0.33314728  0.83361261  1
  Te  Te195  1  0.00014105  0.66793373  0.16582116  1
  Te  Te196  1  0.00010028  0.67536080  0.50060734  1
  Te  Te197  1  -0.00185602  0.67679638  0.83383877  1
  Te  Te198  1  0.33816648  -0.00235441  0.17201327  1
  Te  Te199  1  0.32672573  -0.00015514  0.50507759  1
  Te  Te200  1  0.33623011  -0.00354994  0.82920927  1
  Te  Te201  1  0.33542615  0.33455629  0.16601831  1
  Te  Te202  1  0.33263182  0.33326650  0.50291350  1
  Te  Te203  1  0.33091079  0.33502923  0.83264548  1
  Te  Te204  1  0.33922244  0.66844660  0.16482310  1
  Te  Te205  1  0.34149965  0.66486932  0.50816103  1
  Te  Te206  1  0.33778931  0.66987376  0.83391116  1
  Te  Te207  1  0.66046772  0.00142597  0.16657589  1
  Te  Te208  1  0.67011011  -0.00444602  0.49307810  1
  Te  Te209  1  0.66353386  0.00014291  0.84214589  1
  Te  Te210  1  0.66422622  0.33386339  0.16599224  1
  Te  Te211  1  0.66343261  0.33403619  0.49550369  1
  Te  Te212  1  0.66603526  0.33224811  0.83999298  1
  Te  Te213  1  0.65962727  0.65823235  0.17144902  1
  Te  Te214  1  0.65875326  0.67071996  0.49315130  1
  Te  Te215  1  0.65520452  0.66528586  0.83406634  1
