# generated using pymatgen
data_AgSbTe2
_symmetry_space_group_name_H-M   'P 1'
_cell_length_a   18.32258025
_cell_length_b   18.32272642
_cell_length_c   18.33110887
_cell_angle_alpha   90.00042297
_cell_angle_beta   90.00085418
_cell_angle_gamma   90.00233309
_symmetry_Int_Tables_number   1
_chemical_formula_structural   AgSbTe2
_chemical_formula_sum   'Ag54 Sb54 Te108'
_cell_volume   6154.11299240
_cell_formula_units_Z   54
loop_
 _symmetry_equiv_pos_site_id
 _symmetry_equiv_pos_as_xyz
  1  'x, y, z'
loop_
 _atom_site_type_symbol
 _atom_site_label
 _atom_site_symmetry_multiplicity
 _atom_site_fract_x
 _atom_site_fract_y
 _atom_site_fract_z
 _atom_site_occupancy
  Ag  Ag0  1  0.00512965  0.67391672  0.66906224  1
  Ag  Ag1  1  0.17311532  0.15777391  0.66766462  1
  Ag  Ag2  1  0.33601335  0.17034951  0.17129876  1
  Ag  Ag3  1  0.16779506  0.66881669  0.83064589  1
  Ag  Ag4  1  -0.00077689  0.67916524  0.33292763  1
  Ag  Ag5  1  0.49622612  0.16801368  0.66595824  1
  Ag  Ag6  1  0.49408321  0.65324675  0.83121386  1
  Ag  Ag7  1  0.49508244  0.83311921  0.67012022  1
  Ag  Ag8  1  0.83521037  0.15990903  0.67300773  1
  Ag  Ag9  1  0.49684030  0.49696902  0.67170214  1
  Ag  Ag10  1  0.16008612  0.83689532  0.33551675  1
  Ag  Ag11  1  0.49487732  0.83707151  -0.00780346  1
  Ag  Ag12  1  0.33873201  0.16730431  0.49859443  1
  Ag  Ag13  1  0.83365849  0.16467385  0.00096679  1
  Ag  Ag14  1  0.00199423  0.67617684  -0.00062697  1
  Ag  Ag15  1  0.17002810  -0.00081074  0.49872433  1
  Ag  Ag16  1  0.16285676  0.83629578  -0.00118256  1
  Ag  Ag17  1  0.49800706  0.17148177  0.33066944  1
  Ag  Ag18  1  0.00081241  0.83297704  0.50133521  1
  Ag  Ag19  1  0.49329586  0.33024408  0.17288139  1
  Ag  Ag20  1  0.50124065  0.33970937  0.83248283  1
  Ag  Ag21  1  0.66560913  0.84329019  0.16639722  1
  Ag  Ag22  1  0.65525011  0.49238289  0.82979438  1
  Ag  Ag23  1  0.66737005  0.17231355  0.83713168  1
  Ag  Ag24  1  0.65500216  0.50051552  0.50522955  1
  Ag  Ag25  1  0.00547666  0.49289645  0.16806064  1
  Ag  Ag26  1  0.00345278  0.32633857  0.32968641  1
  Ag  Ag27  1  0.00206344  -0.00115007  0.32764602  1
  Ag  Ag28  1  0.00576394  -0.00161797  0.00708427  1
  Ag  Ag29  1  0.49098141  0.01199360  0.50247862  1
  Ag  Ag30  1  0.50206973  0.16795403  0.00131191  1
  Ag  Ag31  1  0.84556368  0.83689705  0.66290800  1
  Ag  Ag32  1  0.16239974  0.83680562  0.66762288  1
  Ag  Ag33  1  0.84341141  0.00451367  0.16880255  1
  Ag  Ag34  1  0.82696728  0.32672496  0.83159302  1
  Ag  Ag35  1  0.33926385  0.49225540  0.50106189  1
  Ag  Ag36  1  -0.00035585  0.16438493  0.16604848  1
  Ag  Ag37  1  0.66463745  0.16375061  0.16280513  1
  Ag  Ag38  1  0.84389451  0.83958449  0.33684903  1
  Ag  Ag39  1  0.49639739  0.48998976  0.33886485  1
  Ag  Ag40  1  0.49742021  0.49319855  -0.01306779  1
  Ag  Ag41  1  0.34333265  0.50209832  0.83198490  1
  Ag  Ag42  1  0.83797761  0.66961571  0.50110093  1
  Ag  Ag43  1  0.33290024  0.67164254  0.66857817  1
  Ag  Ag44  1  0.33555129  0.33162076  0.33021654  1
  Ag  Ag45  1  0.33292629  0.00015688  0.66694832  1
  Ag  Ag46  1  0.17373381  0.32395467  0.16864101  1
  Ag  Ag47  1  0.49689598  0.33253085  0.49662976  1
  Ag  Ag48  1  0.33026970  0.00032784  -0.00135492  1
  Ag  Ag49  1  0.16287799  0.00462012  0.16941618  1
  Ag  Ag50  1  0.00223298  0.83395782  0.82742389  1
  Ag  Ag51  1  -0.00612016  0.16355116  0.83739680  1
  Ag  Ag52  1  0.83598819  0.16246072  0.32651700  1
  Ag  Ag53  1  0.33511596  0.49076751  0.16758854  1
  Sb  Sb54  1  0.00009228  0.50117892  0.83716126  1
  Sb  Sb55  1  0.66285248  0.33002944  -0.00186675  1
  Sb  Sb56  1  0.66483994  0.00247278  0.00175542  1
  Sb  Sb57  1  0.83327167  0.32408009  0.16538114  1
  Sb  Sb58  1  0.17244949  0.32625346  0.49436035  1
  Sb  Sb59  1  0.66119946  0.00203855  0.66579231  1
  Sb  Sb60  1  0.67042984  0.83021052  0.49790767  1
  Sb  Sb61  1  0.32901069  0.83699545  0.50308768  1
  Sb  Sb62  1  0.66742758  0.83409353  0.83549152  1
  Sb  Sb63  1  0.00046954  0.32850164  0.00534208  1
  Sb  Sb64  1  0.32917390  0.82933715  0.83069229  1
  Sb  Sb65  1  0.33569710  0.83660757  0.16454071  1
  Sb  Sb66  1  0.83729084  0.84048584  0.00028581  1
  Sb  Sb67  1  0.66336826  0.66645267  0.66760149  1
  Sb  Sb68  1  0.66013187  0.49408278  0.16547277  1
  Sb  Sb69  1  0.33639855  0.33165913  0.66146786  1
  Sb  Sb70  1  0.49808558  0.00305279  0.83020335  1
  Sb  Sb71  1  0.83708367  -0.00228376  0.49635978  1
  Sb  Sb72  1  0.16354432  0.67371390  0.50460379  1
  Sb  Sb73  1  0.16708587  0.16209653  0.33210502  1
  Sb  Sb74  1  0.49631767  0.00927059  0.16905811  1
  Sb  Sb75  1  0.32844715  0.00540535  0.33456626  1
  Sb  Sb76  1  0.16740068  0.15919246  -0.00050133  1
  Sb  Sb77  1  0.66116158  0.33129921  0.33320391  1
  Sb  Sb78  1  0.83705598  0.00746679  0.83619286  1
  Sb  Sb79  1  -0.00092881  0.84052442  0.16824734  1
  Sb  Sb80  1  0.49884375  0.83768810  0.33490703  1
  Sb  Sb81  1  0.65914097  0.17008276  0.50024198  1
  Sb  Sb82  1  0.67028199  0.66614879  0.33466779  1
  Sb  Sb83  1  0.17446692  0.50428522  0.66706027  1
  Sb  Sb84  1  0.00371707  0.16100606  0.49835890  1
  Sb  Sb85  1  0.49851150  0.66177233  0.16127365  1
  Sb  Sb86  1  0.32922821  0.66109235  0.33914335  1
  Sb  Sb87  1  0.67185891  0.00222261  0.33191260  1
  Sb  Sb88  1  0.83064993  0.49390149  -0.00055665  1
  Sb  Sb89  1  0.33678272  0.17179832  0.83247012  1
  Sb  Sb90  1  0.66805262  0.66784477  -0.00118458  1
  Sb  Sb91  1  0.17016356  0.33472262  0.83692303  1
  Sb  Sb92  1  0.83200602  0.49797354  0.33250351  1
  Sb  Sb93  1  0.16531351  -0.00534630  0.83277499  1
  Sb  Sb94  1  0.82861669  0.33259236  0.50205766  1
  Sb  Sb95  1  0.33149481  0.66982351  -0.00522978  1
  Sb  Sb96  1  0.83530818  0.66446175  0.82941808  1
  Sb  Sb97  1  0.16425968  0.67096082  0.16406572  1
  Sb  Sb98  1  0.50039715  0.66144908  0.50646000  1
  Sb  Sb99  1  0.00296685  0.50608839  0.49503676  1
  Sb  Sb100  1  0.82952882  0.50120738  0.66656949  1
  Sb  Sb101  1  0.17216328  0.50631258  0.00219213  1
  Sb  Sb102  1  0.00570567  -0.00429076  0.66566876  1
  Sb  Sb103  1  0.83784292  0.67346035  0.16979145  1
  Sb  Sb104  1  0.33664493  0.32837871  0.00740308  1
  Sb  Sb105  1  0.16964871  0.50190298  0.33180161  1
  Sb  Sb106  1  0.66272085  0.33228828  0.66884244  1
  Sb  Sb107  1  0.00088326  0.33317292  0.66269487  1
  Te  Te108  1  0.16547031  0.16518565  0.16572583  1
  Te  Te109  1  0.17135812  0.16102293  0.50528525  1
  Te  Te110  1  0.16325121  0.16911294  0.82804449  1
  Te  Te111  1  0.16722294  0.49793505  0.16657230  1
  Te  Te112  1  0.17480797  0.49721057  0.50041397  1
  Te  Te113  1  0.16988954  0.50553377  0.83427565  1
  Te  Te114  1  0.16885386  0.83858250  0.16348367  1
  Te  Te115  1  0.16265840  0.83806927  0.50251219  1
  Te  Te116  1  0.16313076  0.82892385  0.83152903  1
  Te  Te117  1  0.49785290  0.16867960  0.16611899  1
  Te  Te118  1  0.49906425  0.16966714  0.50252133  1
  Te  Te119  1  0.50164532  0.16874291  0.83350286  1
  Te  Te120  1  0.49844286  0.49482951  0.17126830  1
  Te  Te121  1  0.49748827  0.50038563  0.49988490  1
  Te  Te122  1  0.49971723  0.49854569  0.83098919  1
  Te  Te123  1  0.50368972  0.83242609  0.16638666  1
  Te  Te124  1  0.50128039  0.83233588  0.50380958  1
  Te  Te125  1  0.50268351  0.83455887  0.83249702  1
  Te  Te126  1  0.83612074  0.16470450  0.16698115  1
  Te  Te127  1  0.83071588  0.16667612  0.50023665  1
  Te  Te128  1  0.83451705  0.16838439  0.83281819  1
  Te  Te129  1  0.83359886  0.49884149  0.16552939  1
  Te  Te130  1  0.83144624  0.50293584  0.50017849  1
  Te  Te131  1  0.82960074  0.49179099  0.83337802  1
  Te  Te132  1  0.82839110  0.83978886  0.16859995  1
  Te  Te133  1  0.83580193  0.83181515  0.50009128  1
  Te  Te134  1  0.83700712  0.83251113  0.82932609  1
  Te  Te135  1  0.16723684  -0.00457333  0.00021607  1
  Te  Te136  1  0.16358729  -0.00311366  0.33314580  1
  Te  Te137  1  0.17012902  -0.00182954  0.66551247  1
  Te  Te138  1  0.16778126  0.33474207  0.00775500  1
  Te  Te139  1  0.16566268  0.33372539  0.32755529  1
  Te  Te140  1  0.16733621  0.32625768  0.66641745  1
  Te  Te141  1  0.16244474  0.67383081  -0.00404465  1
  Te  Te142  1  0.16047465  0.67384481  0.33363167  1
  Te  Te143  1  0.16736816  0.67063861  0.67001025  1
  Te  Te144  1  0.49592115  0.00005107  0.00154119  1
  Te  Te145  1  0.49863461  0.00450823  0.33982961  1
  Te  Te146  1  0.49504746  0.00078470  0.66393638  1
  Te  Te147  1  0.49841588  0.33101397  -0.00326047  1
  Te  Te148  1  0.49826430  0.33071912  0.33407186  1
  Te  Te149  1  0.49830955  0.33237313  0.66719365  1
  Te  Te150  1  0.50017618  0.67180759  -0.00580989  1
  Te  Te151  1  0.49958764  0.66625577  0.33202219  1
  Te  Te152  1  0.49693239  0.66855892  0.67082566  1
  Te  Te153  1  0.83783517  0.00601147  0.00600890  1
  Te  Te154  1  0.83755136  0.00064591  0.33159003  1
  Te  Te155  1  0.83344683  -0.00156163  0.66466575  1
  Te  Te156  1  0.83377257  0.32553439  -0.00682592  1
  Te  Te157  1  0.83874055  0.32828700  0.33397674  1
  Te  Te158  1  0.83475324  0.32844910  0.67025944  1
  Te  Te159  1  0.84136052  0.66683245  -0.00050517  1
  Te  Te160  1  0.83874392  0.66821165  0.33680951  1
  Te  Te161  1  0.83767567  0.66999993  0.66341991  1
  Te  Te162  1  0.00026547  0.16327791  0.00036046  1
  Te  Te163  1  0.00009830  0.16466827  0.33305794  1
  Te  Te164  1  -0.00328385  0.16580099  0.66750637  1
  Te  Te165  1  -0.00018271  0.50134899  0.00605387  1
  Te  Te166  1  -0.00038102  0.49854400  0.32844531  1
  Te  Te167  1  0.00066541  0.50691145  0.66568283  1
  Te  Te168  1  0.00129759  0.83542653  -0.00015049  1
  Te  Te169  1  0.00003411  0.83527728  0.33098628  1
  Te  Te170  1  0.00181878  0.83400502  0.66797962  1
  Te  Te171  1  0.33600978  0.16126332  0.00226021  1
  Te  Te172  1  0.33383690  0.16992584  0.33373192  1
  Te  Te173  1  0.33489216  0.16419497  0.66575533  1
  Te  Te174  1  0.33950615  0.50248017  0.00241189  1
  Te  Te175  1  0.33593415  0.49669467  0.33259878  1
  Te  Te176  1  0.33712078  0.50043021  0.66631998  1
  Te  Te177  1  0.33544865  0.83777199  -0.00129419  1
  Te  Te178  1  0.32724710  0.83108340  0.33334879  1
  Te  Te179  1  0.33504713  0.83508575  0.66681549  1
  Te  Te180  1  0.66501650  0.16509214  0.00030132  1
  Te  Te181  1  0.66650250  0.16671542  0.32971743  1
  Te  Te182  1  0.66663987  0.16614621  0.67047699  1
  Te  Te183  1  0.65948294  0.50121131  -0.00420660  1
  Te  Te184  1  0.66047505  0.49965556  0.33525149  1
  Te  Te185  1  0.66142287  0.50026999  0.66768118  1
  Te  Te186  1  0.66298298  0.83468493  0.00406359  1
  Te  Te187  1  0.66981148  0.83358748  0.32799586  1
  Te  Te188  1  0.66312874  0.83437327  0.66758812  1
  Te  Te189  1  0.00178075  0.00203308  0.16708805  1
  Te  Te190  1  0.00444923  -0.00601872  0.49535617  1
  Te  Te191  1  -0.00001906  0.00099934  0.83836848  1
  Te  Te192  1  -0.00127105  0.33000830  0.17015071  1
  Te  Te193  1  0.00039094  0.33537754  0.49247088  1
  Te  Te194  1  0.00097158  0.33000466  0.83223279  1
  Te  Te195  1  0.00069149  0.66056304  0.16715890  1
  Te  Te196  1  -0.00194451  0.67095452  0.49933581  1
  Te  Te197  1  0.00098603  0.66754437  0.83271242  1
  Te  Te198  1  0.32828663  0.00381709  0.16423828  1
  Te  Te199  1  0.33169155  0.00286185  0.50192250  1
  Te  Te200  1  0.33206022  0.00158013  0.83342456  1
  Te  Te201  1  0.33349085  0.33162528  0.16945695  1
  Te  Te202  1  0.33711503  0.33062579  0.49407679  1
  Te  Te203  1  0.33730798  0.34047093  0.83456103  1
  Te  Te204  1  0.33203983  0.65925071  0.16805665  1
  Te  Te205  1  0.33170781  0.66278169  0.50734954  1
  Te  Te206  1  0.33385021  0.66334119  0.82942756  1
  Te  Te207  1  0.66811676  0.00383405  0.16664052  1
  Te  Te208  1  0.65735397  -0.00095664  0.49874128  1
  Te  Te209  1  0.66855406  0.00871211  0.83384496  1
  Te  Te210  1  0.66055337  0.32566755  0.16635245  1
  Te  Te211  1  0.66032247  0.34122924  0.49984685  1
  Te  Te212  1  0.66446626  0.33200937  0.83333441  1
  Te  Te213  1  0.66840237  0.66936610  0.16656575  1
  Te  Te214  1  0.67454489  0.66117380  0.50048559  1
  Te  Te215  1  0.66317935  0.66317022  0.83381491  1
