# generated using pymatgen
data_AgSbTe2
_symmetry_space_group_name_H-M   'P 1'
_cell_length_a   18.31780093
_cell_length_b   18.32036311
_cell_length_c   18.32811672
_cell_angle_alpha   89.99886935
_cell_angle_beta   90.00293439
_cell_angle_gamma   90.00222298
_symmetry_Int_Tables_number   1
_chemical_formula_structural   AgSbTe2
_chemical_formula_sum   'Ag54 Sb54 Te108'
_cell_volume   6150.71002969
_cell_formula_units_Z   54
loop_
 _symmetry_equiv_pos_site_id
 _symmetry_equiv_pos_as_xyz
  1  'x, y, z'
loop_
 _atom_site_type_symbol
 _atom_site_label
 _atom_site_symmetry_multiplicity
 _atom_site_fract_x
 _atom_site_fract_y
 _atom_site_fract_z
 _atom_site_occupancy
  Ag  Ag0  1  0.33729090  0.16512474  0.16613105  1
  Ag  Ag1  1  -0.00422208  0.33627480  0.34271787  1
  Ag  Ag2  1  0.84361318  0.49378921  0.33487900  1
  Ag  Ag3  1  0.00498363  0.00782028  0.67355581  1
  Ag  Ag4  1  0.33840874  0.33655849  0.67125868  1
  Ag  Ag5  1  0.83631285  0.33552949  0.17198774  1
  Ag  Ag6  1  0.49560572  0.00949274  0.50980575  1
  Ag  Ag7  1  0.50150857  0.65413508  0.50792563  1
  Ag  Ag8  1  0.33359303  0.49853836  0.82908714  1
  Ag  Ag9  1  0.16847071  -0.00525572  0.15483244  1
  Ag  Ag10  1  0.66589778  0.16371373  0.83524711  1
  Ag  Ag11  1  -0.00434338  0.16381819  0.82902944  1
  Ag  Ag12  1  0.16582540  -0.00496817  0.83798490  1
  Ag  Ag13  1  0.17136719  0.50089412  0.66920122  1
  Ag  Ag14  1  0.33239976  0.00355927  0.33256537  1
  Ag  Ag15  1  0.49217120  0.49440262  0.66105797  1
  Ag  Ag16  1  0.33240977  0.33726862  -0.00603963  1
  Ag  Ag17  1  0.66711756  0.83501782  0.16037667  1
  Ag  Ag18  1  0.66231868  0.16656096  0.16330103  1
  Ag  Ag19  1  0.49602715  0.49519264  0.34369164  1
  Ag  Ag20  1  0.83185100  0.65800066  0.50830803  1
  Ag  Ag21  1  0.66909227  0.33354757  -0.00178967  1
  Ag  Ag22  1  0.16951189  0.66659204  0.15732608  1
  Ag  Ag23  1  0.50158007  0.33711727  0.50673019  1
  Ag  Ag24  1  0.32838759  0.65967056  -0.00301552  1
  Ag  Ag25  1  0.84380208  0.49761978  0.00083975  1
  Ag  Ag26  1  0.16899714  0.66555542  0.83834297  1
  Ag  Ag27  1  0.83127105  0.17565683  0.33356175  1
  Ag  Ag28  1  0.33764248  0.49814505  0.50691174  1
  Ag  Ag29  1  0.16659393  0.82685034  0.32428031  1
  Ag  Ag30  1  0.50222387  0.17268260  0.33910237  1
  Ag  Ag31  1  0.84105652  0.33905800  0.49571623  1
  Ag  Ag32  1  0.16391240  0.50250354  0.33215975  1
  Ag  Ag33  1  0.16579437  0.50472694  -0.00138699  1
  Ag  Ag34  1  0.49570408  0.00702804  0.82841471  1
  Ag  Ag35  1  -0.00009446  0.33500109  -0.00266779  1
  Ag  Ag36  1  0.00837397  0.00746963  -0.00950751  1
  Ag  Ag37  1  -0.00343316  0.17798864  0.50736579  1
  Ag  Ag38  1  0.83440396  0.82659672  0.67004106  1
  Ag  Ag39  1  0.32609209  0.00112023  -0.00465225  1
  Ag  Ag40  1  0.83404961  0.66715952  0.82705650  1
  Ag  Ag41  1  0.66735998  0.83522224  0.83601557  1
  Ag  Ag42  1  0.67134267  0.66622654  0.67114626  1
  Ag  Ag43  1  0.84157025  -0.00060205  0.83221225  1
  Ag  Ag44  1  0.00078016  0.49592298  0.49852315  1
  Ag  Ag45  1  0.33347637  0.00775137  0.67264875  1
  Ag  Ag46  1  0.49827808  0.66126608  0.82898488  1
  Ag  Ag47  1  -0.00476433  0.65877201  0.66869593  1
  Ag  Ag48  1  0.00244471  0.49727942  0.16955303  1
  Ag  Ag49  1  0.49903345  0.17459770  0.66537575  1
  Ag  Ag50  1  0.00204584  0.33561213  0.66282550  1
  Ag  Ag51  1  0.16720707  0.83132570  0.00156302  1
  Ag  Ag52  1  0.49477797  0.66385240  0.16454469  1
  Ag  Ag53  1  0.49698801  0.33444131  0.82754363  1
  Sb  Sb54  1  0.33420622  0.66058083  0.67225820  1
  Sb  Sb55  1  0.50275824  0.83142567  0.66925505  1
  Sb  Sb56  1  0.16262703  0.33631345  0.16374768  1
  Sb  Sb57  1  0.50305615  0.33554601  0.16688685  1
  Sb  Sb58  1  0.33357703  0.17121036  0.49908219  1
  Sb  Sb59  1  0.83780315  0.83085837  0.33670569  1
  Sb  Sb60  1  0.83238656  0.00219588  0.50583069  1
  Sb  Sb61  1  0.16495179  0.33681829  0.50106753  1
  Sb  Sb62  1  0.00057524  0.82743784  0.16483959  1
  Sb  Sb63  1  0.16295825  0.82953085  0.67144323  1
  Sb  Sb64  1  0.66383154  0.33727401  0.67126137  1
  Sb  Sb65  1  0.67212840  0.33311664  0.32946665  1
  Sb  Sb66  1  0.16984691  0.33535762  0.83395994  1
  Sb  Sb67  1  0.49609278  0.83305503  0.33177532  1
  Sb  Sb68  1  0.83776989  0.82910042  -0.00607836  1
  Sb  Sb69  1  0.83217319  0.33546260  0.83291597  1
  Sb  Sb70  1  0.33247128  0.33284775  0.33441576  1
  Sb  Sb71  1  0.83407504  0.65952298  0.16521682  1
  Sb  Sb72  1  0.66968076  0.49768538  0.16506090  1
  Sb  Sb73  1  0.00576451  0.00805034  0.33469685  1
  Sb  Sb74  1  0.16715042  0.17016432  0.33190034  1
  Sb  Sb75  1  0.00066367  0.82911477  0.50195319  1
  Sb  Sb76  1  0.16766758  0.66181360  0.50331628  1
  Sb  Sb77  1  0.66643881  0.49958104  0.50133447  1
  Sb  Sb78  1  0.83711217  0.50314356  0.66540146  1
  Sb  Sb79  1  0.83272825  0.16584109  0.66567884  1
  Sb  Sb80  1  0.00631938  0.66245045  -0.00634684  1
  Sb  Sb81  1  0.66614404  0.83118359  0.50339615  1
  Sb  Sb82  1  0.00147863  0.65644483  0.33869896  1
  Sb  Sb83  1  0.33503839  0.16733615  0.83595462  1
  Sb  Sb84  1  0.00552162  0.49646267  0.83117095  1
  Sb  Sb85  1  0.66438272  0.66595709  0.33543557  1
  Sb  Sb86  1  0.66668566  0.16807985  0.50229876  1
  Sb  Sb87  1  0.49957421  0.16805151  -0.00295319  1
  Sb  Sb88  1  0.16742837  0.17059357  0.66887050  1
  Sb  Sb89  1  0.49426236  -0.00024606  0.16405432  1
  Sb  Sb90  1  0.32836225  0.49689081  0.16498587  1
  Sb  Sb91  1  0.49588522  0.83235932  -0.00101271  1
  Sb  Sb92  1  0.00053842  0.17341439  0.16546451  1
  Sb  Sb93  1  0.33441361  0.82886539  0.50119202  1
  Sb  Sb94  1  0.33293134  0.83619149  0.16547733  1
  Sb  Sb95  1  0.66084644  0.00213338  0.33175933  1
  Sb  Sb96  1  0.49504520  0.49943008  -0.00150309  1
  Sb  Sb97  1  0.66492650  -0.00254251  0.67094063  1
  Sb  Sb98  1  0.17033683  -0.00093659  0.50390295  1
  Sb  Sb99  1  0.33641846  0.83214045  0.83384207  1
  Sb  Sb100  1  -0.00331370  0.83835234  0.83301009  1
  Sb  Sb101  1  0.33237125  0.66693561  0.32953514  1
  Sb  Sb102  1  0.66598619  0.00325468  -0.00362380  1
  Sb  Sb103  1  0.83818805  0.00545280  0.16098645  1
  Sb  Sb104  1  0.16653533  0.16549535  -0.00106499  1
  Sb  Sb105  1  0.66295791  0.66220612  -0.00519665  1
  Sb  Sb106  1  0.83371625  0.17298252  0.00143935  1
  Sb  Sb107  1  0.66105196  0.50007287  0.83280262  1
  Te  Te108  1  0.17161355  0.16035583  0.16738203  1
  Te  Te109  1  0.15753409  0.16607959  0.50001653  1
  Te  Te110  1  0.15988769  0.15798278  0.83227346  1
  Te  Te111  1  0.16408261  0.50291372  0.16690897  1
  Te  Te112  1  0.16530220  0.50152825  0.49932057  1
  Te  Te113  1  0.17155722  0.50164379  0.83310241  1
  Te  Te114  1  0.16625188  0.83141333  0.16434033  1
  Te  Te115  1  0.16766462  0.82993426  0.49150719  1
  Te  Te116  1  0.16760738  0.83163144  0.83730231  1
  Te  Te117  1  0.50142881  0.16706889  0.17063114  1
  Te  Te118  1  0.49957433  0.16772801  0.50089131  1
  Te  Te119  1  0.50076476  0.16716076  0.83078533  1
  Te  Te120  1  0.49939530  0.50436906  0.16958097  1
  Te  Te121  1  0.50101491  0.49749555  0.50031415  1
  Te  Te122  1  0.49447920  0.49970623  0.83348072  1
  Te  Te123  1  0.50591959  0.82754203  0.16643067  1
  Te  Te124  1  0.50013611  0.83294214  0.49896082  1
  Te  Te125  1  0.50659543  0.82981009  0.83397972  1
  Te  Te126  1  0.83065523  0.17129896  0.17126091  1
  Te  Te127  1  0.83501033  0.16946190  0.49598517  1
  Te  Te128  1  0.83125529  0.16406305  0.83351832  1
  Te  Te129  1  0.83701146  0.49590840  0.16884570  1
  Te  Te130  1  0.83470639  0.49948809  0.49907181  1
  Te  Te131  1  0.83320750  0.50458503  0.83579058  1
  Te  Te132  1  0.82885188  0.83287949  0.16722905  1
  Te  Te133  1  0.83277581  0.82832487  0.50554423  1
  Te  Te134  1  0.82875437  0.83078127  0.83077207  1
  Te  Te135  1  0.16711540  0.00154429  -0.00177023  1
  Te  Te136  1  0.17207651  0.00176163  0.33452429  1
  Te  Te137  1  0.16595620  -0.00174639  0.67157942  1
  Te  Te138  1  0.16715398  0.33951327  -0.00079848  1
  Te  Te139  1  0.16089801  0.33947662  0.33175079  1
  Te  Te140  1  0.16739712  0.33898817  0.66805056  1
  Te  Te141  1  0.16706345  0.66596056  -0.00143245  1
  Te  Te142  1  0.16669251  0.66412001  0.33024722  1
  Te  Te143  1  0.16413499  0.66322388  0.67171083  1
  Te  Te144  1  0.49382829  0.00007950  -0.00581755  1
  Te  Te145  1  0.49347484  0.00199987  0.33222998  1
  Te  Te146  1  0.49867916  -0.00167446  0.66826195  1
  Te  Te147  1  0.49575092  0.33430817  -0.00361623  1
  Te  Te148  1  0.49998864  0.33332622  0.33509871  1
  Te  Te149  1  0.50075479  0.33361187  0.66736058  1
  Te  Te150  1  0.49425134  0.66609038  -0.00148391  1
  Te  Te151  1  0.49903846  0.66435017  0.33446045  1
  Te  Te152  1  0.49819595  0.66593100  0.66764902  1
  Te  Te153  1  0.83843386  -0.00107453  -0.00683377  1
  Te  Te154  1  0.83444723  0.00192717  0.33439494  1
  Te  Te155  1  0.83666078  -0.00214340  0.67099212  1
  Te  Te156  1  0.83662635  0.33787203  -0.00161291  1
  Te  Te157  1  0.83450587  0.33454881  0.33442701  1
  Te  Te158  1  0.83602767  0.33428394  0.66186981  1
  Te  Te159  1  0.83458253  0.66018230  -0.00405146  1
  Te  Te160  1  0.83306921  0.66272485  0.33759870  1
  Te  Te161  1  0.83381491  0.66478363  0.66715910  1
  Te  Te162  1  -0.00059836  0.16907789  -0.00322323  1
  Te  Te163  1  -0.00334448  0.17473737  0.33381233  1
  Te  Te164  1  -0.00031761  0.16887919  0.66721906  1
  Te  Te165  1  0.00327755  0.49758452  -0.00229586  1
  Te  Te166  1  0.00102811  0.49590305  0.33544836  1
  Te  Te167  1  0.00272697  0.49740457  0.66507043  1
  Te  Te168  1  0.00605866  0.84040554  0.00061012  1
  Te  Te169  1  0.00672530  0.83454385  0.33324881  1
  Te  Te170  1  -0.00423724  0.83296994  0.66597350  1
  Te  Te171  1  0.33321655  0.16918656  0.00390390  1
  Te  Te172  1  0.33655959  0.16513430  0.33131581  1
  Te  Te173  1  0.33707792  0.16966686  0.66715507  1
  Te  Te174  1  0.32897177  0.49906702  -0.00172507  1
  Te  Te175  1  0.33295169  0.49942826  0.33586841  1
  Te  Te176  1  0.33248984  0.49884942  0.66787250  1
  Te  Te177  1  0.32729981  0.83552929  0.00001293  1
  Te  Te178  1  0.32727842  0.83962189  0.33324370  1
  Te  Te179  1  0.33089617  0.84573014  0.66615577  1
  Te  Te180  1  0.66686751  0.17109242  -0.00013108  1
  Te  Te181  1  0.66516456  0.16640628  0.33018912  1
  Te  Te182  1  0.66089502  0.16669798  0.67264260  1
  Te  Te183  1  0.67168305  0.49357354  0.00029081  1
  Te  Te184  1  0.66105161  0.50002707  0.33144270  1
  Te  Te185  1  0.65589252  0.50592505  0.66828600  1
  Te  Te186  1  0.66840179  0.83292555  -0.00101406  1
  Te  Te187  1  0.66881112  0.83440184  0.32608502  1
  Te  Te188  1  0.67248427  0.82849321  0.67155326  1
  Te  Te189  1  0.00663321  0.00018424  0.16548653  1
  Te  Te190  1  0.00001775  0.00159617  0.50479195  1
  Te  Te191  1  -0.00033209  0.00123987  0.83158770  1
  Te  Te192  1  -0.00383462  0.33691444  0.15948562  1
  Te  Te193  1  0.00067645  0.33520816  0.50277827  1
  Te  Te194  1  0.00033608  0.32827134  0.83284218  1
  Te  Te195  1  0.00393273  0.65949540  0.16628401  1
  Te  Te196  1  -0.00251195  0.66174130  0.50695828  1
  Te  Te197  1  0.00082977  0.66612354  0.82817350  1
  Te  Te198  1  0.32992729  0.00203721  0.16370924  1
  Te  Te199  1  0.33727798  0.00090508  0.50258730  1
  Te  Te200  1  0.33400332  0.00058882  0.83362258  1
  Te  Te201  1  0.33394127  0.32753514  0.16329917  1
  Te  Te202  1  0.33708718  0.33807943  0.50308718  1
  Te  Te203  1  0.33575531  0.33361008  0.83238253  1
  Te  Te204  1  0.33287866  0.66708859  0.16176890  1
  Te  Te205  1  0.33935066  0.66039277  0.50039052  1
  Te  Te206  1  0.33358001  0.66600854  0.83678279  1
  Te  Te207  1  0.66762425  0.00283060  0.16411316  1
  Te  Te208  1  0.65780569  -0.00056251  0.50059455  1
  Te  Te209  1  0.66288485  0.00160539  0.83445077  1
  Te  Te210  1  0.67069667  0.32900453  0.15977354  1
  Te  Te211  1  0.66370131  0.33171643  0.50081091  1
  Te  Te212  1  0.66324178  0.32954662  0.83786620  1
  Te  Te213  1  0.66412927  0.67004023  0.16465403  1
  Te  Te214  1  0.66461212  0.66829344  0.50570436  1
  Te  Te215  1  0.66414894  0.66788974  0.83155224  1
