# generated using pymatgen
data_AgSbTe2
_symmetry_space_group_name_H-M   'P 1'
_cell_length_a   18.36802418
_cell_length_b   18.37404348
_cell_length_c   18.36798178
_cell_angle_alpha   90.00029906
_cell_angle_beta   90.00035314
_cell_angle_gamma   89.99935534
_symmetry_Int_Tables_number   1
_chemical_formula_structural   AgSbTe2
_chemical_formula_sum   'Ag54 Sb54 Te108'
_cell_volume   6199.09971435
_cell_formula_units_Z   54
loop_
 _symmetry_equiv_pos_site_id
 _symmetry_equiv_pos_as_xyz
  1  'x, y, z'
loop_
 _atom_site_type_symbol
 _atom_site_label
 _atom_site_symmetry_multiplicity
 _atom_site_fract_x
 _atom_site_fract_y
 _atom_site_fract_z
 _atom_site_occupancy
  Ag  Ag0  1  0.15778462  0.66249046  0.49863116  1
  Ag  Ag1  1  -0.00170681  0.49884740  0.84120695  1
  Ag  Ag2  1  0.67348615  0.82409323  0.50046592  1
  Ag  Ag3  1  0.50018783  0.83228843  0.67220405  1
  Ag  Ag4  1  0.00715310  0.82025061  0.50183538  1
  Ag  Ag5  1  0.84690473  0.66863013  0.15962658  1
  Ag  Ag6  1  0.48971563  -0.00213048  0.50040782  1
  Ag  Ag7  1  0.84919223  0.82253123  0.00139977  1
  Ag  Ag8  1  0.67729178  0.50003775  0.83661571  1
  Ag  Ag9  1  0.00253814  0.34623859  0.33541100  1
  Ag  Ag10  1  0.31977134  0.50468902  0.83245082  1
  Ag  Ag11  1  0.16017998  0.34262075  0.50302969  1
  Ag  Ag12  1  0.49875087  0.66835922  0.16462884  1
  Ag  Ag13  1  0.16070639  0.66376804  0.84346020  1
  Ag  Ag14  1  0.00513799  -0.01808189  -0.00038547  1
  Ag  Ag15  1  0.84768629  0.50636065  -0.00340759  1
  Ag  Ag16  1  0.00343916  0.18561369  0.83603172  1
  Ag  Ag17  1  0.67520675  0.66595838  0.66168768  1
  Ag  Ag18  1  0.49787903  0.33493190  0.83489160  1
  Ag  Ag19  1  0.32563838  -0.00310951  0.33415603  1
  Ag  Ag20  1  0.16277242  -0.01057298  0.84550563  1
  Ag  Ag21  1  0.31985786  0.67059891  -0.00077583  1
  Ag  Ag22  1  0.16223696  0.50083148  0.34073464  1
  Ag  Ag23  1  -0.00009611  0.66296561  0.68397380  1
  Ag  Ag24  1  0.16385597  0.82695152  -0.00060191  1
  Ag  Ag25  1  0.00183137  0.66300764  0.31786147  1
  Ag  Ag26  1  0.00057898  0.35185888  -0.00976381  1
  Ag  Ag27  1  0.32187468  0.82487232  0.84082202  1
  Ag  Ag28  1  0.16422620  -0.00292393  0.49578037  1
  Ag  Ag29  1  0.66735087  0.50474426  0.49806988  1
  Ag  Ag30  1  0.67682641  0.66077103  0.33778443  1
  Ag  Ag31  1  0.00149163  0.50276681  0.49858967  1
  Ag  Ag32  1  0.49224096  0.16455151  -0.00324589  1
  Ag  Ag33  1  0.84847107  -0.01094755  0.16363906  1
  Ag  Ag34  1  0.00603963  0.66716386  0.00139213  1
  Ag  Ag35  1  0.49560797  0.83311585  -0.00321241  1
  Ag  Ag36  1  0.84762639  0.34421106  0.83760850  1
  Ag  Ag37  1  0.31966818  0.50102739  0.50359758  1
  Ag  Ag38  1  0.16321815  0.16528412  -0.00103151  1
  Ag  Ag39  1  0.00260919  0.50838953  0.15513182  1
  Ag  Ag40  1  0.00248469  0.82215037  0.15603865  1
  Ag  Ag41  1  0.31919414  0.82999043  0.15821128  1
  Ag  Ag42  1  0.67261073  0.34123975  0.33395465  1
  Ag  Ag43  1  0.00436011  0.81299839  0.84436196  1
  Ag  Ag44  1  0.00588255  0.17965434  0.50569957  1
  Ag  Ag45  1  0.16424423  -0.01015569  0.16118163  1
  Ag  Ag46  1  0.84590850  0.66275787  0.84033119  1
  Ag  Ag47  1  0.16415066  0.17009723  0.32978707  1
  Ag  Ag48  1  0.50271790  0.16540552  0.67635180  1
  Ag  Ag49  1  0.16129733  0.51243198  -0.00794982  1
  Ag  Ag50  1  0.16081240  0.66917491  0.15680208  1
  Ag  Ag51  1  0.16177779  0.34319907  0.83640940  1
  Ag  Ag52  1  0.67781070  0.33543890  -0.00629508  1
  Ag  Ag53  1  0.00225075  0.34693667  0.67749081  1
  Sb  Sb54  1  0.84217034  0.16873451  -0.00144000  1
  Sb  Sb55  1  0.49736300  0.66436602  0.83618531  1
  Sb  Sb56  1  0.84080835  -0.00313184  0.49317565  1
  Sb  Sb57  1  0.66668563  0.16836875  0.16518708  1
  Sb  Sb58  1  0.32313384  0.50913312  0.16332794  1
  Sb  Sb59  1  0.16422608  0.83037711  0.32711167  1
  Sb  Sb60  1  0.84503411  -0.00385354  0.84073828  1
  Sb  Sb61  1  0.49368766  -0.00658755  0.16673213  1
  Sb  Sb62  1  0.00201073  -0.00335491  0.67075558  1
  Sb  Sb63  1  0.66996754  0.82519748  0.83091993  1
  Sb  Sb64  1  0.16568423  0.16776826  0.66854036  1
  Sb  Sb65  1  0.50000840  0.83203444  0.33310368  1
  Sb  Sb66  1  0.67070565  0.82906980  0.16769557  1
  Sb  Sb67  1  0.00381066  0.16573456  0.16199044  1
  Sb  Sb68  1  0.00733147  -0.00232989  0.32850912  1
  Sb  Sb69  1  0.83731383  0.50222399  0.67455832  1
  Sb  Sb70  1  0.32537226  0.16759192  0.83519424  1
  Sb  Sb71  1  0.84099242  0.66561476  0.50009182  1
  Sb  Sb72  1  0.84378493  0.16886956  0.33227614  1
  Sb  Sb73  1  0.16743633  0.83177890  0.67501920  1
  Sb  Sb74  1  0.49770980  0.33022915  0.50405746  1
  Sb  Sb75  1  0.32268832  -0.00973234  0.00148924  1
  Sb  Sb76  1  0.16331632  0.33833560  0.16298188  1
  Sb  Sb77  1  0.32534037  0.16852513  0.50083383  1
  Sb  Sb78  1  0.84429009  0.50129184  0.32847314  1
  Sb  Sb79  1  0.32820954  0.83032814  0.50110692  1
  Sb  Sb80  1  0.50188822  0.50277695  0.66871672  1
  Sb  Sb81  1  0.67069233  0.66289394  -0.00014990  1
  Sb  Sb82  1  0.32888424  0.66700863  0.67042728  1
  Sb  Sb83  1  0.84309968  0.33789398  0.50354189  1
  Sb  Sb84  1  0.66908779  0.17491735  0.83488889  1
  Sb  Sb85  1  0.33162353  -0.00082434  0.66480365  1
  Sb  Sb86  1  0.67297585  0.50366192  0.16569934  1
  Sb  Sb87  1  0.32699583  0.33305915  0.33491288  1
  Sb  Sb88  1  0.66325117  -0.00252485  0.33454979  1
  Sb  Sb89  1  0.50061302  0.67111021  0.49834566  1
  Sb  Sb90  1  0.83694091  0.83037723  0.32777598  1
  Sb  Sb91  1  0.32581503  0.66939264  0.33003550  1
  Sb  Sb92  1  0.83823703  0.33684152  0.16097497  1
  Sb  Sb93  1  0.32566750  0.33937977  -0.00227243  1
  Sb  Sb94  1  0.49715359  0.50075443  0.33407973  1
  Sb  Sb95  1  0.83489958  0.83024254  0.67174593  1
  Sb  Sb96  1  0.83401951  0.16827932  0.66823553  1
  Sb  Sb97  1  0.66790337  0.16930844  0.50082449  1
  Sb  Sb98  1  0.49505207  0.16606662  0.33188862  1
  Sb  Sb99  1  0.32672866  0.33466096  0.66918449  1
  Sb  Sb100  1  0.49661018  0.50275685  -0.00296060  1
  Sb  Sb101  1  0.49319693  0.00105954  0.83190334  1
  Sb  Sb102  1  0.67057478  0.00302307  -0.00071623  1
  Sb  Sb103  1  0.67043892  0.33964095  0.66916907  1
  Sb  Sb104  1  0.66259913  -0.00689773  0.66580597  1
  Sb  Sb105  1  0.16172973  0.50271412  0.66826888  1
  Sb  Sb106  1  0.32888397  0.15912424  0.16459505  1
  Sb  Sb107  1  0.50288095  0.33840128  0.15918211  1
  Te  Te108  1  0.16750127  0.16448210  0.16750165  1
  Te  Te109  1  0.16400989  0.16414828  0.50054675  1
  Te  Te110  1  0.16337239  0.16811517  0.83412309  1
  Te  Te111  1  0.16241781  0.50485005  0.16578506  1
  Te  Te112  1  0.16280490  0.50002917  0.50290553  1
  Te  Te113  1  0.16267730  0.50215249  0.83179340  1
  Te  Te114  1  0.16254110  0.83120503  0.16605740  1
  Te  Te115  1  0.16657665  0.83364733  0.50084617  1
  Te  Te116  1  0.16367864  0.82948322  0.83557996  1
  Te  Te117  1  0.49846406  0.16690016  0.15979755  1
  Te  Te118  1  0.49985655  0.16137242  0.49985480  1
  Te  Te119  1  0.50014523  0.16735452  0.83594961  1
  Te  Te120  1  0.49583926  0.50638703  0.16613973  1
  Te  Te121  1  0.50853048  0.49787068  0.50096321  1
  Te  Te122  1  0.50324942  0.49571025  0.83290360  1
  Te  Te123  1  0.50166933  0.83020754  0.16410247  1
  Te  Te124  1  0.49633623  0.83807762  0.50075404  1
  Te  Te125  1  0.50230137  0.83503220  0.83241002  1
  Te  Te126  1  0.83312291  0.16076305  0.16708962  1
  Te  Te127  1  0.84254372  0.16579930  0.50005593  1
  Te  Te128  1  0.84027449  0.16626136  0.83255693  1
  Te  Te129  1  0.83961374  0.50405497  0.16048348  1
  Te  Te130  1  0.82566013  0.50007066  0.49698989  1
  Te  Te131  1  0.83438593  0.50112123  0.83671858  1
  Te  Te132  1  0.83704825  0.83006217  0.16248464  1
  Te  Te133  1  0.82943316  0.83311613  0.50094227  1
  Te  Te134  1  0.83807329  0.82843714  0.83958245  1
  Te  Te135  1  0.16427118  0.00385845  0.00130026  1
  Te  Te136  1  0.16820464  -0.00095029  0.33439244  1
  Te  Te137  1  0.16654665  -0.00018992  0.65629516  1
  Te  Te138  1  0.16083409  0.32851466  -0.00215969  1
  Te  Te139  1  0.16438335  0.33454935  0.33248694  1
  Te  Te140  1  0.16000015  0.33110309  0.66692220  1
  Te  Te141  1  0.16594052  0.66877184  -0.00029432  1
  Te  Te142  1  0.16375413  0.66344253  0.33983815  1
  Te  Te143  1  0.16084940  0.66925625  0.65751860  1
  Te  Te144  1  0.50114088  0.00284594  -0.00006662  1
  Te  Te145  1  0.49542844  0.00157258  0.33798462  1
  Te  Te146  1  0.49928498  -0.00084334  0.66228566  1
  Te  Te147  1  0.49619698  0.33100132  -0.00288860  1
  Te  Te148  1  0.50291941  0.33211419  0.33317665  1
  Te  Te149  1  0.50153059  0.32941774  0.67084607  1
  Te  Te150  1  0.50440069  0.67065386  0.00215181  1
  Te  Te151  1  0.50047372  0.66594608  0.32961513  1
  Te  Te152  1  0.50016270  0.67206285  0.66634671  1
  Te  Te153  1  0.83774956  -0.00134814  0.00574217  1
  Te  Te154  1  0.83101069  0.00138148  0.32446256  1
  Te  Te155  1  0.83106724  -0.00030492  0.66641042  1
  Te  Te156  1  0.83653593  0.33495273  -0.00304175  1
  Te  Te157  1  0.83205277  0.33366563  0.33328254  1
  Te  Te158  1  0.84019741  0.33252416  0.67487135  1
  Te  Te159  1  0.82795296  0.66587079  0.00007411  1
  Te  Te160  1  0.83522100  0.66627954  0.32722325  1
  Te  Te161  1  0.83593556  0.66781201  0.67278740  1
  Te  Te162  1  0.00386376  0.17238782  -0.00424054  1
  Te  Te163  1  0.00684150  0.16414857  0.33552648  1
  Te  Te164  1  -0.00120051  0.16483099  0.66833953  1
  Te  Te165  1  0.00295401  0.50594869  0.00005832  1
  Te  Te166  1  0.00360559  0.50354971  0.34079405  1
  Te  Te167  1  -0.00244643  0.50286746  0.65579499  1
  Te  Te168  1  0.00308026  0.82819999  0.00020966  1
  Te  Te169  1  -0.00110100  0.82839381  0.34214425  1
  Te  Te170  1  0.00018634  0.82844905  0.66119067  1
  Te  Te171  1  0.33240383  0.16847436  -0.00101591  1
  Te  Te172  1  0.32591628  0.16212345  0.33293812  1
  Te  Te173  1  0.34483615  0.16730463  0.66761366  1
  Te  Te174  1  0.32802557  0.50663429  -0.00487136  1
  Te  Te175  1  0.32573990  0.49998003  0.33709374  1
  Te  Te176  1  0.33648316  0.49980015  0.66722458  1
  Te  Te177  1  0.33474730  0.83125054  -0.00087378  1
  Te  Te178  1  0.33370520  0.83740657  0.33046296  1
  Te  Te179  1  0.34027769  0.83291402  0.67221253  1
  Te  Te180  1  0.66441300  0.17434972  0.00042142  1
  Te  Te181  1  0.66694129  0.17097726  0.33310572  1
  Te  Te182  1  0.66113748  0.16712386  0.66683964  1
  Te  Te183  1  0.66408326  0.49407664  -0.00217256  1
  Te  Te184  1  0.66349930  0.50135607  0.33266327  1
  Te  Te185  1  0.66834552  0.50491902  0.66545587  1
  Te  Te186  1  0.65716930  0.83635790  -0.00049913  1
  Te  Te187  1  0.66728641  0.82914068  0.34017568  1
  Te  Te188  1  0.66350170  0.82734338  0.66276898  1
  Te  Te189  1  0.00507465  0.00082849  0.16260459  1
  Te  Te190  1  0.00306840  -0.00073640  0.49988588  1
  Te  Te191  1  0.00551139  -0.00598485  0.83783267  1
  Te  Te192  1  -0.00057212  0.33357778  0.17692080  1
  Te  Te193  1  0.00219077  0.33415921  0.49379571  1
  Te  Te194  1  0.00477811  0.34007969  0.83496033  1
  Te  Te195  1  0.00273728  0.66599267  0.16208364  1
  Te  Te196  1  -0.00256878  0.66428447  0.49739627  1
  Te  Te197  1  0.00211446  0.65879878  0.83943911  1
  Te  Te198  1  0.32823679  -0.00776760  0.17078340  1
  Te  Te199  1  0.33123686  0.00099638  0.49706868  1
  Te  Te200  1  0.32488421  -0.00359479  0.83310784  1
  Te  Te201  1  0.33609946  0.33329209  0.16763827  1
  Te  Te202  1  0.32756076  0.33975679  0.50136426  1
  Te  Te203  1  0.33408201  0.33832087  0.83287298  1
  Te  Te204  1  0.33380848  0.67138374  0.16347180  1
  Te  Te205  1  0.33261739  0.66133280  0.49986244  1
  Te  Te206  1  0.33152313  0.66574537  0.83561891  1
  Te  Te207  1  0.66537501  -0.00043154  0.16778090  1
  Te  Te208  1  0.66814133  -0.00104360  0.49874818  1
  Te  Te209  1  0.66820394  0.00127141  0.83270349  1
  Te  Te210  1  0.66875911  0.33493999  0.16855364  1
  Te  Te211  1  0.66704358  0.33543902  0.49722703  1
  Te  Te212  1  0.66088773  0.33873381  0.83482818  1
  Te  Te213  1  0.66004814  0.66602011  0.17342561  1
  Te  Te214  1  0.66599733  0.66669708  0.49888581  1
  Te  Te215  1  0.66443137  0.66087151  0.82864349  1
