# generated using pymatgen
data_AgSbTe2
_symmetry_space_group_name_H-M   'P 1'
_cell_length_a   18.32588749
_cell_length_b   18.33517216
_cell_length_c   18.33490699
_cell_angle_alpha   90.00029815
_cell_angle_beta   89.99789153
_cell_angle_gamma   89.99827598
_symmetry_Int_Tables_number   1
_chemical_formula_structural   AgSbTe2
_chemical_formula_sum   'Ag54 Sb54 Te108'
_cell_volume   6160.68096228
_cell_formula_units_Z   54
loop_
 _symmetry_equiv_pos_site_id
 _symmetry_equiv_pos_as_xyz
  1  'x, y, z'
loop_
 _atom_site_type_symbol
 _atom_site_label
 _atom_site_symmetry_multiplicity
 _atom_site_fract_x
 _atom_site_fract_y
 _atom_site_fract_z
 _atom_site_occupancy
  Ag  Ag0  1  0.49462792  0.16518909  0.67033840  1
  Ag  Ag1  1  0.16546666  0.00510011  0.16186077  1
  Ag  Ag2  1  0.32860268  0.17076692  0.83572670  1
  Ag  Ag3  1  0.17254390  0.17194247  0.67233775  1
  Ag  Ag4  1  0.82589852  -0.00421920  0.83486427  1
  Ag  Ag5  1  0.66555041  0.67936334  0.00479035  1
  Ag  Ag6  1  0.33223224  0.82839504  0.49980524  1
  Ag  Ag7  1  0.32984093  0.32918017  -0.00028729  1
  Ag  Ag8  1  0.33119510  0.17115797  0.16549975  1
  Ag  Ag9  1  0.66747606  0.32049799  0.32910106  1
  Ag  Ag10  1  0.66015373  0.16136247  0.17050068  1
  Ag  Ag11  1  0.17325237  0.66781422  0.16657492  1
  Ag  Ag12  1  0.16998338  0.66404664  0.49966402  1
  Ag  Ag13  1  0.50996084  0.00019505  0.83963448  1
  Ag  Ag14  1  0.66846561  0.50541314  0.83525113  1
  Ag  Ag15  1  0.83643732  0.50402075  0.67120739  1
  Ag  Ag16  1  0.49252105  0.32202633  0.16759732  1
  Ag  Ag17  1  0.16575876  0.49320002  0.66848629  1
  Ag  Ag18  1  -0.00773336  0.00394048  0.33167818  1
  Ag  Ag19  1  0.82813254  -0.00191416  0.17114301  1
  Ag  Ag20  1  0.82668225  0.67416099  0.83197244  1
  Ag  Ag21  1  0.66644626  0.49862922  0.16485814  1
  Ag  Ag22  1  0.50074434  0.66995554  0.16615383  1
  Ag  Ag23  1  0.66509524  0.67380998  0.32513511  1
  Ag  Ag24  1  0.82415145  0.83719398  -0.00502510  1
  Ag  Ag25  1  0.16623582  0.00555098  0.83909457  1
  Ag  Ag26  1  0.67292256  0.00280063  0.32448137  1
  Ag  Ag27  1  0.66713827  -0.00276632  0.00053995  1
  Ag  Ag28  1  0.16900442  0.66638949  0.83287152  1
  Ag  Ag29  1  0.67087443  -0.00097005  0.67415295  1
  Ag  Ag30  1  0.66699553  0.83859421  0.49935645  1
  Ag  Ag31  1  0.82869628  0.16044972  0.33039532  1
  Ag  Ag32  1  0.00417755  0.49868537  0.50093903  1
  Ag  Ag33  1  0.51172722  0.00135885  0.16171003  1
  Ag  Ag34  1  0.32630270  0.33288687  0.32974406  1
  Ag  Ag35  1  0.82948564  0.83621045  0.67625445  1
  Ag  Ag36  1  0.00069840  0.83672368  0.16775166  1
  Ag  Ag37  1  0.82904575  0.84246533  0.32766217  1
  Ag  Ag38  1  0.50816889  0.83616614  0.00110530  1
  Ag  Ag39  1  0.32772344  0.33299697  0.67343743  1
  Ag  Ag40  1  0.67118101  0.83672695  0.83758171  1
  Ag  Ag41  1  0.83446833  0.33042824  0.83278512  1
  Ag  Ag42  1  0.17402833  0.32255865  0.17147622  1
  Ag  Ag43  1  0.16814441  0.33382390  0.49937923  1
  Ag  Ag44  1  0.17354281  0.32607330  0.83075570  1
  Ag  Ag45  1  0.16598576  0.17008961  0.32784202  1
  Ag  Ag46  1  -0.00478554  -0.00102443  0.66717781  1
  Ag  Ag47  1  0.00959296  0.32432514  0.33292925  1
  Ag  Ag48  1  0.33054041  0.66408323  0.33284502  1
  Ag  Ag49  1  0.16719160  0.83833940  0.00067201  1
  Ag  Ag50  1  0.32724709  0.49122102  0.83047237  1
  Ag  Ag51  1  0.17131658  0.16162189  0.00216553  1
  Ag  Ag52  1  0.32880434  0.66264513  0.66703723  1
  Ag  Ag53  1  0.66609220  0.15818401  0.48889931  1
  Sb  Sb54  1  0.66388547  0.32864419  0.66476345  1
  Sb  Sb55  1  0.67077284  0.83782671  0.16370395  1
  Sb  Sb56  1  0.82899819  0.67334404  0.16256940  1
  Sb  Sb57  1  0.16377377  0.83676197  0.32927908  1
  Sb  Sb58  1  0.16667752  0.00171254  0.49988702  1
  Sb  Sb59  1  0.33357340  0.00174582  0.66855289  1
  Sb  Sb60  1  0.49523060  0.33100943  0.49466667  1
  Sb  Sb61  1  -0.00169217  0.66961732  0.00021472  1
  Sb  Sb62  1  0.83742122  0.33298570  0.50231276  1
  Sb  Sb63  1  0.33411843  0.83504008  0.83174902  1
  Sb  Sb64  1  0.66315125  0.32960356  0.00424050  1
  Sb  Sb65  1  0.50051343  0.67177627  0.83718220  1
  Sb  Sb66  1  0.66359072  0.67125923  0.66828479  1
  Sb  Sb67  1  0.00691957  0.16480769  0.83053713  1
  Sb  Sb68  1  -0.00187633  0.50290720  0.17305591  1
  Sb  Sb69  1  0.50605862  0.83439049  0.32670853  1
  Sb  Sb70  1  -0.00068396  0.16858767  0.49733932  1
  Sb  Sb71  1  0.16655198  0.49451921  0.33709432  1
  Sb  Sb72  1  0.49589742  0.32825126  0.83843343  1
  Sb  Sb73  1  0.83317862  0.16247837  0.66473246  1
  Sb  Sb74  1  0.50057916  0.49951895  0.33020334  1
  Sb  Sb75  1  0.82868395  0.50554048  -0.00725395  1
  Sb  Sb76  1  0.50090917  0.50301425  0.00115317  1
  Sb  Sb77  1  0.00618330  0.33006159  0.66392313  1
  Sb  Sb78  1  0.00656054  0.33141640  0.00400693  1
  Sb  Sb79  1  0.83330087  0.32707761  0.16536763  1
  Sb  Sb80  1  0.83087368  -0.00055398  0.49723959  1
  Sb  Sb81  1  0.49526794  0.16124139  -0.00019270  1
  Sb  Sb82  1  0.32743459  0.50196968  0.50528425  1
  Sb  Sb83  1  0.83517787  0.66861617  0.50335486  1
  Sb  Sb84  1  0.33467950  0.16557687  0.49943416  1
  Sb  Sb85  1  0.49685689  0.49631009  0.67110192  1
  Sb  Sb86  1  -0.00465884  0.83572050  0.83713597  1
  Sb  Sb87  1  0.50392914  0.83855224  0.67118755  1
  Sb  Sb88  1  0.33377020  0.00146795  0.33001162  1
  Sb  Sb89  1  0.00013633  0.66957617  0.33294006  1
  Sb  Sb90  1  0.33556634  0.66344158  0.00089305  1
  Sb  Sb91  1  0.83492102  0.16058833  0.00358231  1
  Sb  Sb92  1  0.50410942  0.00058178  0.49916677  1
  Sb  Sb93  1  0.83132084  0.49951544  0.33541080  1
  Sb  Sb94  1  0.66391767  0.16299919  0.83525512  1
  Sb  Sb95  1  0.33062618  0.83593590  0.16871645  1
  Sb  Sb96  1  0.33515452  0.49454689  0.16359846  1
  Sb  Sb97  1  0.49564722  0.66960646  0.49492528  1
  Sb  Sb98  1  0.00089575  0.49922898  0.82795042  1
  Sb  Sb99  1  0.33432209  0.00363583  0.00010386  1
  Sb  Sb100  1  -0.00094934  -0.00247018  0.00275815  1
  Sb  Sb101  1  0.67224817  0.50137038  0.50065464  1
  Sb  Sb102  1  0.00345164  0.66991353  0.66729695  1
  Sb  Sb103  1  0.16873212  0.49942177  -0.00541110  1
  Sb  Sb104  1  0.50107290  0.16628239  0.33112156  1
  Sb  Sb105  1  0.16342824  0.83475906  0.67098635  1
  Sb  Sb106  1  0.00528853  0.16030326  0.17026710  1
  Sb  Sb107  1  -0.00129585  0.83156380  0.49719403  1
  Te  Te108  1  0.16819983  0.16682889  0.16835042  1
  Te  Te109  1  0.16777250  0.17009026  0.49873782  1
  Te  Te110  1  0.16914101  0.16727220  0.83243530  1
  Te  Te111  1  0.16609719  0.50546870  0.16506059  1
  Te  Te112  1  0.16470343  0.49970193  0.50461549  1
  Te  Te113  1  0.16741915  0.50243868  0.82914610  1
  Te  Te114  1  0.16538751  0.83330005  0.16490878  1
  Te  Te115  1  0.16782558  0.82967019  0.50027299  1
  Te  Te116  1  0.16581634  0.83315366  0.83687909  1
  Te  Te117  1  0.49797625  0.16382604  0.16590883  1
  Te  Te118  1  0.50546776  0.16677128  0.50758523  1
  Te  Te119  1  0.49420400  0.16096842  0.83182507  1
  Te  Te120  1  0.50623493  0.50588613  0.16551561  1
  Te  Te121  1  0.50191505  0.50025892  0.50223037  1
  Te  Te122  1  0.50580514  0.50019897  0.83419030  1
  Te  Te123  1  0.49638696  0.83615846  0.16056967  1
  Te  Te124  1  0.50462738  0.83381823  0.50099319  1
  Te  Te125  1  0.50329820  0.83971309  0.83896715  1
  Te  Te126  1  0.83019910  0.16016867  0.17003442  1
  Te  Te127  1  0.82600705  0.16874369  0.49384786  1
  Te  Te128  1  0.83421864  0.16459193  0.83437725  1
  Te  Te129  1  0.82854410  0.50054864  0.16584693  1
  Te  Te130  1  0.83929221  0.50062191  0.50965188  1
  Te  Te131  1  0.83236967  0.50165295  0.82958604  1
  Te  Te132  1  0.83811492  0.83718592  0.16693922  1
  Te  Te133  1  0.82984866  0.83193133  0.49858889  1
  Te  Te134  1  0.83206870  0.83495504  0.83530380  1
  Te  Te135  1  0.16617605  0.00081047  0.00029695  1
  Te  Te136  1  0.16538006  0.00505417  0.33186482  1
  Te  Te137  1  0.16524852  0.00331232  0.66740309  1
  Te  Te138  1  0.16993002  0.33270236  -0.00189102  1
  Te  Te139  1  0.16723298  0.33234212  0.33160402  1
  Te  Te140  1  0.16729521  0.33327317  0.66932074  1
  Te  Te141  1  0.16739805  0.66768641  -0.00048862  1
  Te  Te142  1  0.16778689  0.66758060  0.33267411  1
  Te  Te143  1  0.16896046  0.66831578  0.66923003  1
  Te  Te144  1  0.50077429  -0.00365864  0.00080639  1
  Te  Te145  1  0.50472985  0.00011504  0.32519350  1
  Te  Te146  1  0.50345670  0.00418500  0.67046236  1
  Te  Te147  1  0.49490671  0.33241957  0.00758389  1
  Te  Te148  1  0.50348372  0.33325418  0.32705314  1
  Te  Te149  1  0.49338974  0.32818825  0.66608921  1
  Te  Te150  1  0.50353081  0.67267252  0.00456343  1
  Te  Te151  1  0.50073637  0.66719560  0.32745359  1
  Te  Te152  1  0.49132276  0.66559754  0.66671882  1
  Te  Te153  1  0.83246674  -0.00280571  -0.00182181  1
  Te  Te154  1  0.83259983  0.00024743  0.33275338  1
  Te  Te155  1  0.83227358  -0.00075254  0.66949451  1
  Te  Te156  1  0.83417108  0.33151303  -0.00623537  1
  Te  Te157  1  0.82744567  0.33127027  0.33364835  1
  Te  Te158  1  0.83422624  0.33264095  0.67174222  1
  Te  Te159  1  0.82848224  0.67325453  -0.00570639  1
  Te  Te160  1  0.83012642  0.66844265  0.33336375  1
  Te  Te161  1  0.83266984  0.66872376  0.67112456  1
  Te  Te162  1  0.01057590  0.16652113  0.00049407  1
  Te  Te163  1  -0.00050608  0.16560826  0.33395740  1
  Te  Te164  1  0.00466843  0.15977529  0.66365797  1
  Te  Te165  1  -0.00270122  0.50051769  0.00263185  1
  Te  Te166  1  -0.00199003  0.49591362  0.33930879  1
  Te  Te167  1  0.00103394  0.49969052  0.66222363  1
  Te  Te168  1  0.00745422  0.83250601  0.00688646  1
  Te  Te169  1  -0.00587490  0.83759302  0.33063399  1
  Te  Te170  1  -0.00754280  0.83946921  0.66488405  1
  Te  Te171  1  0.32951316  0.16971164  0.00075495  1
  Te  Te172  1  0.33125805  0.16956662  0.33149673  1
  Te  Te173  1  0.33238140  0.16839498  0.66475252  1
  Te  Te174  1  0.33476508  0.49279848  -0.00862722  1
  Te  Te175  1  0.33362617  0.50188031  0.33319314  1
  Te  Te176  1  0.33009991  0.49872198  0.67097628  1
  Te  Te177  1  0.32620907  0.83105230  -0.00006234  1
  Te  Te178  1  0.33446830  0.82880934  0.33751873  1
  Te  Te179  1  0.33428413  0.82919493  0.66299584  1
  Te  Te180  1  0.66677174  0.16092392  0.00740357  1
  Te  Te181  1  0.66441582  0.16344354  0.33098709  1
  Te  Te182  1  0.66517784  0.16191739  0.66741326  1
  Te  Te183  1  0.66632546  0.50009954  -0.00192634  1
  Te  Te184  1  0.66758354  0.50498519  0.33167918  1
  Te  Te185  1  0.67030693  0.49903301  0.67023990  1
  Te  Te186  1  0.66797515  0.83564887  -0.00098073  1
  Te  Te187  1  0.66892071  0.83410996  0.33432642  1
  Te  Te188  1  0.66921820  0.83668905  0.66796638  1
  Te  Te189  1  0.00431096  -0.00304875  0.16952875  1
  Te  Te190  1  0.00063767  -0.00056678  0.49613587  1
  Te  Te191  1  0.00469287  -0.00089187  0.82952652  1
  Te  Te192  1  0.00318889  0.33516052  0.17242833  1
  Te  Te193  1  0.00525072  0.33566663  0.49520028  1
  Te  Te194  1  -0.00074186  0.33321098  0.83421794  1
  Te  Te195  1  0.00690966  0.67080958  0.16776129  1
  Te  Te196  1  0.00792870  0.66271485  0.49949540  1
  Te  Te197  1  0.00534990  0.66719216  0.83334659  1
  Te  Te198  1  0.32520789  0.00623888  0.16758637  1
  Te  Te199  1  0.33593090  -0.00907744  0.49936414  1
  Te  Te200  1  0.32543196  0.00395770  0.83296753  1
  Te  Te201  1  0.33297270  0.33343094  0.16877114  1
  Te  Te202  1  0.32812787  0.33336513  0.49437648  1
  Te  Te203  1  0.33363116  0.33157358  0.83246140  1
  Te  Te204  1  0.33437189  0.66400457  0.16861779  1
  Te  Te205  1  0.32960148  0.66769879  0.49709682  1
  Te  Te206  1  0.33232375  0.66665401  0.83254736  1
  Te  Te207  1  0.66855052  0.00084895  0.16494509  1
  Te  Te208  1  0.66553431  -0.00109839  0.49991935  1
  Te  Te209  1  0.66734758  0.00050540  0.83496472  1
  Te  Te210  1  0.66794830  0.33429686  0.16860217  1
  Te  Te211  1  0.66552363  0.33236412  0.49439702  1
  Te  Te212  1  0.66734848  0.33456349  0.83465506  1
  Te  Te213  1  0.66612305  0.66611494  0.16511217  1
  Te  Te214  1  0.66558510  0.67068380  0.49609205  1
  Te  Te215  1  0.66711601  0.66808012  0.83336801  1
