# generated using pymatgen
data_AgSbTe2
_symmetry_space_group_name_H-M   'P 1'
_cell_length_a   18.30008133
_cell_length_b   18.30300951
_cell_length_c   18.30044323
_cell_angle_alpha   89.99974154
_cell_angle_beta   89.99891282
_cell_angle_gamma   89.99984134
_symmetry_Int_Tables_number   1
_chemical_formula_structural   AgSbTe2
_chemical_formula_sum   'Ag54 Sb54 Te108'
_cell_volume   6129.67055220
_cell_formula_units_Z   54
loop_
 _symmetry_equiv_pos_site_id
 _symmetry_equiv_pos_as_xyz
  1  'x, y, z'
loop_
 _atom_site_type_symbol
 _atom_site_label
 _atom_site_symmetry_multiplicity
 _atom_site_fract_x
 _atom_site_fract_y
 _atom_site_fract_z
 _atom_site_occupancy
  Ag  Ag0  1  0.82985349  0.17084498  0.66297710  1
  Ag  Ag1  1  0.50927634  0.17347339  0.65709485  1
  Ag  Ag2  1  0.83501837  0.49453172  0.66766007  1
  Ag  Ag3  1  0.33530683  0.49667882  0.16547151  1
  Ag  Ag4  1  0.83638306  0.49973148  0.32776163  1
  Ag  Ag5  1  0.15799846  0.49491169  -0.00024502  1
  Ag  Ag6  1  0.33643812  0.00113982  0.33246978  1
  Ag  Ag7  1  0.32810591  0.33779727  0.00732400  1
  Ag  Ag8  1  0.83305798  0.33744478  0.83885125  1
  Ag  Ag9  1  0.33314883  0.66492818  0.33514424  1
  Ag  Ag10  1  0.50725635  0.00307040  0.16983277  1
  Ag  Ag11  1  0.83233883  -0.00057598  0.50184429  1
  Ag  Ag12  1  0.66621735  0.00055796  0.32699366  1
  Ag  Ag13  1  -0.00156958  0.66583684  0.00158922  1
  Ag  Ag14  1  -0.00530377  0.83855211  0.84284387  1
  Ag  Ag15  1  0.67791811  0.83659983  0.83858419  1
  Ag  Ag16  1  0.50678545  0.33481130  0.17097410  1
  Ag  Ag17  1  0.67028977  0.84117197  0.49498816  1
  Ag  Ag18  1  0.66542066  0.16811363  0.17048628  1
  Ag  Ag19  1  0.83764746  -0.00285723  0.83155709  1
  Ag  Ag20  1  0.15613655  -0.00127525  0.83757149  1
  Ag  Ag21  1  0.67409972  0.33078688  0.00598440  1
  Ag  Ag22  1  0.50167415  0.49322361  0.66443649  1
  Ag  Ag23  1  0.83307248  0.66693452  0.50202118  1
  Ag  Ag24  1  -0.00502450  0.83102739  0.16148516  1
  Ag  Ag25  1  0.67160754  0.83954850  0.16849535  1
  Ag  Ag26  1  -0.00467521  0.49806942  0.16257069  1
  Ag  Ag27  1  -0.00634030  0.17187567  0.49757898  1
  Ag  Ag28  1  0.16417642  0.49753031  0.66983479  1
  Ag  Ag29  1  0.67435661  0.00252135  0.00812597  1
  Ag  Ag30  1  0.16249199  0.17102181  0.00576623  1
  Ag  Ag31  1  0.67147576  0.49085358  0.16584759  1
  Ag  Ag32  1  0.33446051  0.66108121  0.66153052  1
  Ag  Ag33  1  0.15947432  0.83552568  0.00400108  1
  Ag  Ag34  1  0.49899965  0.33112544  0.49478212  1
  Ag  Ag35  1  0.83966530  0.49383958  0.00548838  1
  Ag  Ag36  1  -0.00404804  0.00105056  0.67305585  1
  Ag  Ag37  1  0.83451187  0.66593451  0.83073168  1
  Ag  Ag38  1  0.00127241  0.33515157  0.33157899  1
  Ag  Ag39  1  0.82844406  0.33891165  0.16243923  1
  Ag  Ag40  1  0.16597043  0.33335631  0.49675121  1
  Ag  Ag41  1  -0.00447987  0.49316428  0.49643242  1
  Ag  Ag42  1  0.67042084  0.16537705  0.49641764  1
  Ag  Ag43  1  0.50062964  0.16869821  0.33472226  1
  Ag  Ag44  1  -0.00365901  0.33884470  0.00629946  1
  Ag  Ag45  1  0.17001647  0.16760834  0.33079900  1
  Ag  Ag46  1  0.50107087  0.65971609  0.16885893  1
  Ag  Ag47  1  0.33121820  0.33347497  0.32930521  1
  Ag  Ag48  1  -0.00285848  -0.00281142  -0.00313535  1
  Ag  Ag49  1  0.33521576  0.83187810  0.49322761  1
  Ag  Ag50  1  0.16409552  0.83899645  0.32988126  1
  Ag  Ag51  1  0.66908500  0.33180510  0.66775257  1
  Ag  Ag52  1  0.83359152  0.83171531  0.33330723  1
  Ag  Ag53  1  0.33041336  0.49936483  0.83582146  1
  Sb  Sb54  1  0.50487807  0.00107868  0.83715030  1
  Sb  Sb55  1  0.16297951  0.66254868  0.49873477  1
  Sb  Sb56  1  0.50013837  0.16931808  0.00463183  1
  Sb  Sb57  1  0.50469490  0.33461517  0.83322102  1
  Sb  Sb58  1  -0.00140058  0.50188762  0.83832827  1
  Sb  Sb59  1  0.00084766  0.66294670  0.32894414  1
  Sb  Sb60  1  0.83335637  0.33250035  0.49882380  1
  Sb  Sb61  1  0.16145582  0.33278182  0.83496102  1
  Sb  Sb62  1  0.32712231  0.65944405  0.00233447  1
  Sb  Sb63  1  0.16811125  0.66622230  0.16727675  1
  Sb  Sb64  1  0.50420035  0.66441495  0.83591721  1
  Sb  Sb65  1  0.16281825  0.49565271  0.33074047  1
  Sb  Sb66  1  -0.00389581  0.83387064  0.49692368  1
  Sb  Sb67  1  0.67390866  0.66616425  0.00206368  1
  Sb  Sb68  1  -0.00186717  0.16119163  0.83168105  1
  Sb  Sb69  1  0.50267021  0.66246464  0.49634947  1
  Sb  Sb70  1  0.67040152  0.16493736  0.83385403  1
  Sb  Sb71  1  0.32993234  0.00374361  0.00549354  1
  Sb  Sb72  1  -0.00646484  0.33202200  0.66589412  1
  Sb  Sb73  1  0.66993483  0.50047748  0.83704479  1
  Sb  Sb74  1  0.50028616  0.83419386  0.00387788  1
  Sb  Sb75  1  0.16535646  0.33348726  0.16847575  1
  Sb  Sb76  1  0.82853988  0.00235177  0.16564012  1
  Sb  Sb77  1  0.66626262  0.67150728  0.33152089  1
  Sb  Sb78  1  0.50098158  0.49728497  0.00252368  1
  Sb  Sb79  1  0.83095662  0.66056010  0.16675938  1
  Sb  Sb80  1  -0.00208890  0.00266243  0.33153331  1
  Sb  Sb81  1  -0.00059011  0.66634927  0.66974912  1
  Sb  Sb82  1  0.32936424  0.50091421  0.49825070  1
  Sb  Sb83  1  0.16482819  0.83047267  0.66604746  1
  Sb  Sb84  1  0.50299158  0.49343703  0.33268046  1
  Sb  Sb85  1  0.50670903  0.00617445  0.49442185  1
  Sb  Sb86  1  0.33173493  0.17195852  0.83531137  1
  Sb  Sb87  1  0.16146699  0.00393058  0.49999755  1
  Sb  Sb88  1  0.16314296  0.17129904  0.66405375  1
  Sb  Sb89  1  0.33960975  0.17360309  0.17018223  1
  Sb  Sb90  1  0.32989754  0.82904265  0.83212716  1
  Sb  Sb91  1  0.67289448  0.49591724  0.49628854  1
  Sb  Sb92  1  0.83905054  0.83106681  0.00186364  1
  Sb  Sb93  1  0.83279653  0.83404873  0.66607139  1
  Sb  Sb94  1  0.33792530  0.33931759  0.66499913  1
  Sb  Sb95  1  -0.00584383  0.17033334  0.16958520  1
  Sb  Sb96  1  0.50184326  0.83353894  0.66473253  1
  Sb  Sb97  1  0.66771205  0.32783011  0.32972087  1
  Sb  Sb98  1  0.83677421  0.17216907  -0.00278232  1
  Sb  Sb99  1  0.67358263  0.00634426  0.66511361  1
  Sb  Sb100  1  0.50166097  0.83909139  0.33175509  1
  Sb  Sb101  1  0.16748326  -0.00071308  0.16412070  1
  Sb  Sb102  1  0.32995189  -0.00246462  0.66195137  1
  Sb  Sb103  1  0.16080908  0.66795324  0.83442527  1
  Sb  Sb104  1  0.33339289  0.82945475  0.17202759  1
  Sb  Sb105  1  0.33541376  0.16599839  0.49603180  1
  Sb  Sb106  1  0.83147482  0.16721520  0.33727093  1
  Sb  Sb107  1  0.66628086  0.66118729  0.66555453  1
  Te  Te108  1  0.16576923  0.16570406  0.16840560  1
  Te  Te109  1  0.16348981  0.17155499  0.49583540  1
  Te  Te110  1  0.16685783  0.16082072  0.83646264  1
  Te  Te111  1  0.16443257  0.50028950  0.16194385  1
  Te  Te112  1  0.16030673  0.49533609  0.50118065  1
  Te  Te113  1  0.16933637  0.50017117  0.83404121  1
  Te  Te114  1  0.16257562  0.83277158  0.16794004  1
  Te  Te115  1  0.16759885  0.83379088  0.49522504  1
  Te  Te116  1  0.16250960  0.83745733  0.83479858  1
  Te  Te117  1  0.50552773  0.16892886  0.16989906  1
  Te  Te118  1  0.50230958  0.17077719  0.49783459  1
  Te  Te119  1  0.50010181  0.16635818  0.82571575  1
  Te  Te120  1  0.50055832  0.49628235  0.16761706  1
  Te  Te121  1  0.50275565  0.49403677  0.50434488  1
  Te  Te122  1  0.49596372  0.50104020  0.82655518  1
  Te  Te123  1  0.50523564  0.83527262  0.16657804  1
  Te  Te124  1  0.50251456  0.83259911  0.49972368  1
  Te  Te125  1  0.50539183  0.83293816  0.83400789  1
  Te  Te126  1  0.82599542  0.17446764  0.16819626  1
  Te  Te127  1  0.83204364  0.16485862  0.50270719  1
  Te  Te128  1  0.83308883  0.16517771  0.82539940  1
  Te  Te129  1  0.83409146  0.49983207  0.16665099  1
  Te  Te130  1  0.83591118  0.50125082  0.50063086  1
  Te  Te131  1  0.83293074  0.49933655  0.83070295  1
  Te  Te132  1  0.83275014  0.83108868  0.17047936  1
  Te  Te133  1  0.83164766  0.83403411  0.49724782  1
  Te  Te134  1  0.83423906  0.83489869  0.83384349  1
  Te  Te135  1  0.16558659  0.00011002  -0.00210258  1
  Te  Te136  1  0.16865951  0.00096600  0.33372540  1
  Te  Te137  1  0.16138478  0.00135426  0.67134479  1
  Te  Te138  1  0.16544506  0.33425236  -0.00083914  1
  Te  Te139  1  0.16613867  0.33077287  0.33580926  1
  Te  Te140  1  0.16717240  0.33838164  0.66369902  1
  Te  Te141  1  0.15947113  0.66544215  -0.00002516  1
  Te  Te142  1  0.17264292  0.67341007  0.33417948  1
  Te  Te143  1  0.17175750  0.65937822  0.66654904  1
  Te  Te144  1  0.50334152  0.00184301  0.00595880  1
  Te  Te145  1  0.50087177  0.00576594  0.33019717  1
  Te  Te146  1  0.49830296  0.00595026  0.66699299  1
  Te  Te147  1  0.50169466  0.33241305  0.00390947  1
  Te  Te148  1  0.49863781  0.32916678  0.33260315  1
  Te  Te149  1  0.50420055  0.33301195  0.66677989  1
  Te  Te150  1  0.49965608  0.66594657  0.00638980  1
  Te  Te151  1  0.49401030  0.66507037  0.32966405  1
  Te  Te152  1  0.49570225  0.66132703  0.66629300  1
  Te  Te153  1  0.83324225  0.00260808  -0.00276959  1
  Te  Te154  1  0.83005933  -0.00350455  0.33615078  1
  Te  Te155  1  0.83656248  0.00140006  0.66706473  1
  Te  Te156  1  0.83385902  0.33346782  0.00063190  1
  Te  Te157  1  0.83788050  0.33700673  0.32953683  1
  Te  Te158  1  0.82970918  0.33400774  0.66718800  1
  Te  Te159  1  0.83879824  0.66009057  -0.00407552  1
  Te  Te160  1  0.83394443  0.66695818  0.33736049  1
  Te  Te161  1  0.83296203  0.66097303  0.66677557  1
  Te  Te162  1  0.00441028  0.16550724  0.00180759  1
  Te  Te163  1  0.00303627  0.17075549  0.33712620  1
  Te  Te164  1  -0.00291058  0.16308453  0.65985571  1
  Te  Te165  1  -0.00036593  0.49806832  0.00026890  1
  Te  Te166  1  -0.00267668  0.49678384  0.33218210  1
  Te  Te167  1  -0.00098089  0.50039524  0.66563464  1
  Te  Te168  1  0.00004351  0.83537480  0.00263019  1
  Te  Te169  1  -0.00060094  0.83281199  0.32814069  1
  Te  Te170  1  0.00065429  0.83832761  0.66975432  1
  Te  Te171  1  0.32726345  0.17331375  0.00100565  1
  Te  Te172  1  0.33128661  0.16795096  0.33309396  1
  Te  Te173  1  0.33681539  0.16665681  0.66609953  1
  Te  Te174  1  0.33303033  0.49655312  0.00280871  1
  Te  Te175  1  0.33226070  0.49783332  0.32940960  1
  Te  Te176  1  0.33112559  0.50276577  0.66517899  1
  Te  Te177  1  0.32449019  0.83278128  0.00015619  1
  Te  Te178  1  0.33277977  0.83485140  0.33478822  1
  Te  Te179  1  0.33347840  0.82736413  0.66188292  1
  Te  Te180  1  0.66682637  0.16744438  0.00359145  1
  Te  Te181  1  0.66478122  0.16200612  0.33491448  1
  Te  Te182  1  0.66793940  0.17082441  0.66537901  1
  Te  Te183  1  0.67006761  0.49685027  0.00475670  1
  Te  Te184  1  0.67331032  0.50154334  0.32741465  1
  Te  Te185  1  0.66891689  0.49404962  0.66667170  1
  Te  Te186  1  0.66728828  0.83590020  0.00241993  1
  Te  Te187  1  0.66902991  0.83746318  0.33284523  1
  Te  Te188  1  0.66600356  0.83364232  0.66393838  1
  Te  Te189  1  -0.00171188  -0.00272231  0.16074014  1
  Te  Te190  1  -0.00585898  0.00268904  0.50017731  1
  Te  Te191  1  -0.00153438  -0.00076497  0.83552006  1
  Te  Te192  1  -0.00250531  0.33529320  0.16707425  1
  Te  Te193  1  0.00024005  0.33352920  0.49935316  1
  Te  Te194  1  -0.00716083  0.33176838  0.83881398  1
  Te  Te195  1  -0.00097610  0.66573462  0.16199234  1
  Te  Te196  1  -0.00667645  0.66278083  0.50052321  1
  Te  Te197  1  -0.00615161  0.67300077  0.83715158  1
  Te  Te198  1  0.34012253  -0.00052391  0.17231473  1
  Te  Te199  1  0.33305463  -0.00579647  0.49481677  1
  Te  Te200  1  0.33300040  -0.00121058  0.83360064  1
  Te  Te201  1  0.33517922  0.33679249  0.16849345  1
  Te  Te202  1  0.33404921  0.33344084  0.49547344  1
  Te  Te203  1  0.33307204  0.33981286  0.83767137  1
  Te  Te204  1  0.33842342  0.66135491  0.16984811  1
  Te  Te205  1  0.33402421  0.66994549  0.49764734  1
  Te  Te206  1  0.33462540  0.66116418  0.83098193  1
  Te  Te207  1  0.66716042  -0.00022704  0.16612868  1
  Te  Te208  1  0.67101325  0.00149851  0.49886152  1
  Te  Te209  1  0.67075142  -0.00426479  0.83676391  1
  Te  Te210  1  0.66713984  0.33278574  0.16690559  1
  Te  Te211  1  0.66270529  0.32814785  0.50082994  1
  Te  Te212  1  0.67246631  0.33320571  0.83615821  1
  Te  Te213  1  0.66095344  0.66904316  0.16623022  1
  Te  Te214  1  0.67213731  0.67179522  0.49954024  1
  Te  Te215  1  0.67290257  0.67368895  0.83345207  1
