# generated using pymatgen
data_AgSbTe2
_symmetry_space_group_name_H-M   'P 1'
_cell_length_a   18.33373687
_cell_length_b   18.33654375
_cell_length_c   18.33796217
_cell_angle_alpha   89.99579102
_cell_angle_beta   89.99946796
_cell_angle_gamma   89.99745307
_symmetry_Int_Tables_number   1
_chemical_formula_structural   AgSbTe2
_chemical_formula_sum   'Ag54 Sb54 Te108'
_cell_volume   6164.80783941
_cell_formula_units_Z   54
loop_
 _symmetry_equiv_pos_site_id
 _symmetry_equiv_pos_as_xyz
  1  'x, y, z'
loop_
 _atom_site_type_symbol
 _atom_site_label
 _atom_site_symmetry_multiplicity
 _atom_site_fract_x
 _atom_site_fract_y
 _atom_site_fract_z
 _atom_site_occupancy
  Ag  Ag0  1  0.15626102  0.16874962  0.66356123  1
  Ag  Ag1  1  0.67393133  0.33143393  0.33798410  1
  Ag  Ag2  1  0.49930275  0.16888790  0.66794390  1
  Ag  Ag3  1  0.66026234  0.16631311  0.83055981  1
  Ag  Ag4  1  0.66471154  0.00465046  0.32851133  1
  Ag  Ag5  1  0.83237174  0.82357349  0.01104745  1
  Ag  Ag6  1  0.50126756  0.16286458  -0.00740652  1
  Ag  Ag7  1  0.50299191  0.49275728  0.66028165  1
  Ag  Ag8  1  0.67095240  0.83536321  0.16643840  1
  Ag  Ag9  1  0.33304849  0.66200247  0.66087573  1
  Ag  Ag10  1  0.15431824  0.49773768  0.00769373  1
  Ag  Ag11  1  0.50271878  0.33755693  0.50089741  1
  Ag  Ag12  1  0.50331098  0.00286010  0.16414413  1
  Ag  Ag13  1  -0.00233634  0.33499769  0.00621742  1
  Ag  Ag14  1  0.83841839  0.33846046  0.17333296  1
  Ag  Ag15  1  0.50136208  0.65502785  0.50195281  1
  Ag  Ag16  1  -0.00432679  0.32747738  0.65061265  1
  Ag  Ag17  1  0.16115346  0.17532273  0.34303299  1
  Ag  Ag18  1  0.15317513  0.33391140  0.50005733  1
  Ag  Ag19  1  0.84232468  0.65979979  0.49903845  1
  Ag  Ag20  1  0.33800370  0.50042409  0.50021506  1
  Ag  Ag21  1  0.33093972  0.66384675  0.34240317  1
  Ag  Ag22  1  0.50090904  0.00615519  0.83270637  1
  Ag  Ag23  1  0.49756245  0.83731760  0.66198430  1
  Ag  Ag24  1  -0.00100258  0.65605713  0.33859937  1
  Ag  Ag25  1  -0.00102262  0.01444204  0.66334861  1
  Ag  Ag26  1  0.00117614  0.18161470  0.50596182  1
  Ag  Ag27  1  0.34320964  0.16548007  0.82921770  1
  Ag  Ag28  1  -0.00495259  0.33833105  0.33635486  1
  Ag  Ag29  1  -0.00087483  0.17879439  0.17052209  1
  Ag  Ag30  1  0.50058831  0.00316244  0.50609737  1
  Ag  Ag31  1  0.83711634  0.50283516  0.00024385  1
  Ag  Ag32  1  0.00124846  0.49606293  0.49702733  1
  Ag  Ag33  1  0.84073263  0.33913325  0.50142238  1
  Ag  Ag34  1  0.67257680  0.67221308  0.00141384  1
  Ag  Ag35  1  0.83590213  0.82859201  0.32841176  1
  Ag  Ag36  1  -0.01123636  0.82943753  0.17362492  1
  Ag  Ag37  1  0.33885681  0.83305702  0.16744670  1
  Ag  Ag38  1  0.83378065  0.66562675  0.83947928  1
  Ag  Ag39  1  0.83565008  0.66667259  0.16728218  1
  Ag  Ag40  1  0.34403463  0.00142846  0.00073773  1
  Ag  Ag41  1  0.66754854  0.33061722  0.65746790  1
  Ag  Ag42  1  0.49506012  0.49750100  0.34391718  1
  Ag  Ag43  1  0.84449000  0.17810064  0.66626365  1
  Ag  Ag44  1  -0.00271220  0.49615893  0.17814015  1
  Ag  Ag45  1  0.33979812  0.33419649  0.66167500  1
  Ag  Ag46  1  -0.00190009  0.16914177  0.81806612  1
  Ag  Ag47  1  0.16484837  0.83451843  0.66366456  1
  Ag  Ag48  1  -0.00191154  0.82517325  0.50029265  1
  Ag  Ag49  1  0.15832975  0.49601230  0.33627443  1
  Ag  Ag50  1  0.50510322  0.33000953  0.17571893  1
  Ag  Ag51  1  0.83676640  0.49594912  0.66260044  1
  Ag  Ag52  1  -0.00320697  0.66316364  0.65729516  1
  Ag  Ag53  1  0.66275578  -0.00201265  0.00500944  1
  Sb  Sb54  1  0.33948957  0.66953677  0.00045183  1
  Sb  Sb55  1  0.67489186  0.50094720  0.16797374  1
  Sb  Sb56  1  0.83137508  0.17003807  -0.00386005  1
  Sb  Sb57  1  0.66986578  0.83409121  0.49602310  1
  Sb  Sb58  1  0.16214743  0.33349035  0.17385858  1
  Sb  Sb59  1  0.83623879  0.50106360  0.33555608  1
  Sb  Sb60  1  0.67121576  0.33155989  0.00190601  1
  Sb  Sb61  1  0.33188084  0.33051805  -0.00377529  1
  Sb  Sb62  1  0.66801874  0.49448178  0.83172897  1
  Sb  Sb63  1  0.17040584  0.00278025  0.83115069  1
  Sb  Sb64  1  0.33233881  0.16493354  0.16437617  1
  Sb  Sb65  1  0.16845339  0.00493415  0.50188584  1
  Sb  Sb66  1  0.16330407  0.33244675  0.82388172  1
  Sb  Sb67  1  0.50552366  0.84054854  -0.00004473  1
  Sb  Sb68  1  -0.00216677  0.49536705  0.82959084  1
  Sb  Sb69  1  -0.00795880  0.66061424  0.00215742  1
  Sb  Sb70  1  0.67140016  0.66381436  0.33138659  1
  Sb  Sb71  1  0.82947365  -0.00189435  0.16698820  1
  Sb  Sb72  1  0.66756363  0.83803003  0.83721128  1
  Sb  Sb73  1  0.15829353  0.66595716  0.16855034  1
  Sb  Sb74  1  0.82916442  -0.00056414  0.83247886  1
  Sb  Sb75  1  0.16809956  0.00044208  0.16729008  1
  Sb  Sb76  1  0.33297844  0.49576813  0.82397053  1
  Sb  Sb77  1  0.50466217  0.66606895  0.17217880  1
  Sb  Sb78  1  0.66952566  0.16458895  0.16447075  1
  Sb  Sb79  1  0.16013669  0.66439642  0.82921581  1
  Sb  Sb80  1  0.50519395  0.67175825  0.82499200  1
  Sb  Sb81  1  0.83481916  0.82910900  0.66400223  1
  Sb  Sb82  1  0.32974105  0.50330198  0.17393177  1
  Sb  Sb83  1  0.66621293  0.00603996  0.66636370  1
  Sb  Sb84  1  0.33931142  -0.00418393  0.33060576  1
  Sb  Sb85  1  0.50289089  0.49436192  0.00101371  1
  Sb  Sb86  1  0.16039149  0.83120606  0.33785526  1
  Sb  Sb87  1  0.16128461  0.82953213  -0.00094354  1
  Sb  Sb88  1  0.33395285  0.00242401  0.66863066  1
  Sb  Sb89  1  0.66920733  0.66125063  0.66785716  1
  Sb  Sb90  1  0.83534519  0.33556731  0.82648328  1
  Sb  Sb91  1  0.49694698  0.17103259  0.33616524  1
  Sb  Sb92  1  0.33520435  0.83737134  0.83419059  1
  Sb  Sb93  1  0.33100525  0.33882551  0.34020151  1
  Sb  Sb94  1  0.50118542  0.32654284  0.82549680  1
  Sb  Sb95  1  0.83756032  0.16895000  0.33705217  1
  Sb  Sb96  1  0.16754739  0.17171245  -0.00357023  1
  Sb  Sb97  1  0.33099919  0.82646137  0.49836270  1
  Sb  Sb98  1  -0.00499271  0.00236551  0.33711778  1
  Sb  Sb99  1  0.66999376  0.16946050  0.50467637  1
  Sb  Sb100  1  0.50402668  0.83030290  0.33683446  1
  Sb  Sb101  1  0.16308328  0.65950747  0.50032288  1
  Sb  Sb102  1  0.83242051  0.00186370  0.50082744  1
  Sb  Sb103  1  0.33064737  0.17483808  0.50626830  1
  Sb  Sb104  1  -0.00270186  0.00454792  -0.00193851  1
  Sb  Sb105  1  0.16310288  0.49587127  0.66023987  1
  Sb  Sb106  1  -0.00261083  0.83647747  0.82836197  1
  Sb  Sb107  1  0.66750668  0.49768404  0.49836668  1
  Te  Te108  1  0.16164506  0.16601428  0.16697392  1
  Te  Te109  1  0.16434382  0.17065563  0.50264686  1
  Te  Te110  1  0.16008524  0.16676776  0.82799758  1
  Te  Te111  1  0.16135096  0.49991459  0.16982487  1
  Te  Te112  1  0.16377491  0.49389158  0.49653144  1
  Te  Te113  1  0.16711936  0.49908518  0.84456777  1
  Te  Te114  1  0.16553871  0.83343416  0.16660986  1
  Te  Te115  1  0.16162234  0.83564483  0.50474728  1
  Te  Te116  1  0.16651628  0.83304057  0.82532009  1
  Te  Te117  1  0.49982587  0.16666247  0.16736280  1
  Te  Te118  1  0.49921450  0.16676517  0.50272447  1
  Te  Te119  1  0.50000346  0.16496633  0.83402074  1
  Te  Te120  1  0.49896925  0.49583059  0.16702552  1
  Te  Te121  1  0.50245078  0.49893644  0.50322685  1
  Te  Te122  1  0.49943498  0.50127387  0.82724651  1
  Te  Te123  1  0.50147388  0.83512108  0.16755183  1
  Te  Te124  1  0.49897069  0.83719148  0.50270587  1
  Te  Te125  1  0.50019922  0.84073373  0.82604560  1
  Te  Te126  1  0.83788702  0.17192862  0.16554211  1
  Te  Te127  1  0.83871984  0.16991509  0.50496792  1
  Te  Te128  1  0.83709124  0.16700715  0.82834707  1
  Te  Te129  1  0.83806954  0.49937127  0.16592249  1
  Te  Te130  1  0.83567978  0.49962296  0.50168640  1
  Te  Te131  1  0.83281597  0.50590309  0.83414351  1
  Te  Te132  1  0.83156608  0.83439797  0.16735392  1
  Te  Te133  1  0.83708930  0.83174829  0.49629595  1
  Te  Te134  1  0.83273309  0.82733934  0.83674129  1
  Te  Te135  1  0.17147933  -0.00077294  -0.00075836  1
  Te  Te136  1  0.16849415  0.00529294  0.33393479  1
  Te  Te137  1  0.16246953  0.00206043  0.66621204  1
  Te  Te138  1  0.16377868  0.33811798  0.00187511  1
  Te  Te139  1  0.16505557  0.33493403  0.33833057  1
  Te  Te140  1  0.16234798  0.33039060  0.66081192  1
  Te  Te141  1  0.16880950  0.66071958  -0.00156615  1
  Te  Te142  1  0.16510603  0.66272857  0.33329514  1
  Te  Te143  1  0.16851087  0.66830442  0.66692379  1
  Te  Te144  1  0.50211039  0.00097284  0.00193308  1
  Te  Te145  1  0.50450071  -0.00009305  0.32980930  1
  Te  Te146  1  0.50038857  0.00162551  0.66653270  1
  Te  Te147  1  0.50112180  0.32819984  0.00357634  1
  Te  Te148  1  0.49744407  0.33500985  0.33435956  1
  Te  Te149  1  0.50049279  0.33369772  0.66552743  1
  Te  Te150  1  0.50733151  0.66613045  -0.00173424  1
  Te  Te151  1  0.49896680  0.66246837  0.33825808  1
  Te  Te152  1  0.50073445  0.66472001  0.66305057  1
  Te  Te153  1  0.82781679  -0.00197618  -0.00114519  1
  Te  Te154  1  0.82577830  -0.00449168  0.33446107  1
  Te  Te155  1  0.83738531  0.00070651  0.66706605  1
  Te  Te156  1  0.83596961  0.33710631  0.00410070  1
  Te  Te157  1  0.83351320  0.33327551  0.33491605  1
  Te  Te158  1  0.83482298  0.33508803  0.66532868  1
  Te  Te159  1  0.83193666  0.66484367  0.00397500  1
  Te  Te160  1  0.83548390  0.66787331  0.33509238  1
  Te  Te161  1  0.83415980  0.66421896  0.65852820  1
  Te  Te162  1  -0.00020079  0.16970379  0.01005048  1
  Te  Te163  1  0.00223097  0.16709272  0.33108434  1
  Te  Te164  1  0.00018717  0.17036313  0.66226884  1
  Te  Te165  1  -0.00327777  0.49695997  -0.00359670  1
  Te  Te166  1  -0.00089178  0.49918902  0.33507208  1
  Te  Te167  1  -0.00163551  0.50161676  0.66417205  1
  Te  Te168  1  -0.00397145  0.83482988  0.00152926  1
  Te  Te169  1  -0.00242566  0.83488550  0.33391273  1
  Te  Te170  1  -0.00011015  0.82277818  0.66389065  1
  Te  Te171  1  0.33622586  0.16305872  -0.00400388  1
  Te  Te172  1  0.32429224  0.16530902  0.33380146  1
  Te  Te173  1  0.33920651  0.16823737  0.67000020  1
  Te  Te174  1  0.33283935  0.50057343  -0.00051829  1
  Te  Te175  1  0.33416945  0.50506194  0.33782882  1
  Te  Te176  1  0.33128087  0.49916917  0.66149234  1
  Te  Te177  1  0.33079574  0.83681732  0.00485991  1
  Te  Te178  1  0.33083762  0.82700831  0.32844998  1
  Te  Te179  1  0.33396106  0.83101336  0.66633077  1
  Te  Te180  1  0.66315575  0.16340293  -0.00424567  1
  Te  Te181  1  0.66690558  0.16892051  0.33326253  1
  Te  Te182  1  0.65984103  0.16990094  0.67043745  1
  Te  Te183  1  0.67241450  0.50341327  -0.00039303  1
  Te  Te184  1  0.65642314  0.49324879  0.33119939  1
  Te  Te185  1  0.66919622  0.49268875  0.66751856  1
  Te  Te186  1  0.67025209  0.83492849  0.00346454  1
  Te  Te187  1  0.67139862  0.83287046  0.32849462  1
  Te  Te188  1  0.66100111  0.83473997  0.66643335  1
  Te  Te189  1  0.00005043  -0.00727912  0.16658078  1
  Te  Te190  1  0.00019636  -0.00394039  0.50432915  1
  Te  Te191  1  -0.00076505  0.00579547  0.82906838  1
  Te  Te192  1  -0.00015246  0.33677879  0.16948709  1
  Te  Te193  1  -0.00300542  0.33635576  0.49608747  1
  Te  Te194  1  -0.00049849  0.32795329  0.84281493  1
  Te  Te195  1  -0.00528457  0.66851424  0.16804458  1
  Te  Te196  1  0.00105891  0.66535579  0.49798509  1
  Te  Te197  1  -0.00704799  0.66765827  0.82966612  1
  Te  Te198  1  0.33864310  -0.00308530  0.16288635  1
  Te  Te199  1  0.34080085  -0.00125891  0.49932367  1
  Te  Te200  1  0.33899778  0.00429929  0.83756721  1
  Te  Te201  1  0.34052143  0.33395481  0.16574735  1
  Te  Te202  1  0.34344667  0.33946168  0.50448644  1
  Te  Te203  1  0.33126864  0.32687296  0.82683722  1
  Te  Te204  1  0.33510846  0.67188268  0.16804998  1
  Te  Te205  1  0.33508868  0.66291144  0.50114801  1
  Te  Te206  1  0.33396815  0.66691422  0.82717735  1
  Te  Te207  1  0.66369286  -0.00153614  0.16666281  1
  Te  Te208  1  0.66126487  0.00134584  0.49489756  1
  Te  Te209  1  0.66232115  0.00492137  0.83640228  1
  Te  Te210  1  0.66739332  0.33264590  0.17046802  1
  Te  Te211  1  0.66383063  0.33172068  0.49854771  1
  Te  Te212  1  0.66818827  0.32587621  0.83091434  1
  Te  Te213  1  0.67201998  0.67068365  0.16394093  1
  Te  Te214  1  0.66268408  0.66874237  0.49939689  1
  Te  Te215  1  0.67292180  0.66725507  0.83782702  1
