# generated using pymatgen
data_AgSbTe2
_symmetry_space_group_name_H-M   'P 1'
_cell_length_a   18.34341864
_cell_length_b   18.33450828
_cell_length_c   18.33470271
_cell_angle_alpha   89.99834058
_cell_angle_beta   90.00313299
_cell_angle_gamma   90.00314074
_symmetry_Int_Tables_number   1
_chemical_formula_structural   AgSbTe2
_chemical_formula_sum   'Ag54 Sb54 Te108'
_cell_volume   6166.28247581
_cell_formula_units_Z   54
loop_
 _symmetry_equiv_pos_site_id
 _symmetry_equiv_pos_as_xyz
  1  'x, y, z'
loop_
 _atom_site_type_symbol
 _atom_site_label
 _atom_site_symmetry_multiplicity
 _atom_site_fract_x
 _atom_site_fract_y
 _atom_site_fract_z
 _atom_site_occupancy
  Ag  Ag0  1  0.66139862  0.33655489  0.65803684  1
  Ag  Ag1  1  0.00069465  0.66623573  0.65150256  1
  Ag  Ag2  1  0.00007544  0.66960297  0.00824407  1
  Ag  Ag3  1  0.66260023  0.16471242  0.49408261  1
  Ag  Ag4  1  0.50109092  -0.00229205  0.17284003  1
  Ag  Ag5  1  0.82426010  -0.00246231  0.83742784  1
  Ag  Ag6  1  0.50011179  0.67084148  0.17615866  1
  Ag  Ag7  1  -0.00016480  0.82645100  0.49953710  1
  Ag  Ag8  1  0.34073296  0.83210592  0.83369456  1
  Ag  Ag9  1  0.33441320  0.67343915  0.00168175  1
  Ag  Ag10  1  0.82578851  0.82325643  0.33570062  1
  Ag  Ag11  1  0.34035249  0.50975819  0.83029207  1
  Ag  Ag12  1  0.50137786  0.16270325  0.33494747  1
  Ag  Ag13  1  0.50133468  -0.00056989  0.83529275  1
  Ag  Ag14  1  0.16758956  0.66521070  0.49196907  1
  Ag  Ag15  1  0.16221124  0.50579280  0.33443525  1
  Ag  Ag16  1  0.66444328  0.34081490  0.34034153  1
  Ag  Ag17  1  0.50307666  0.49681952  0.66220680  1
  Ag  Ag18  1  0.83412383  0.66992413  0.17802277  1
  Ag  Ag19  1  -0.00319726  0.16780710  0.16827834  1
  Ag  Ag20  1  0.50130613  0.33771153  0.50218396  1
  Ag  Ag21  1  0.82313389  -0.00274023  0.16629982  1
  Ag  Ag22  1  -0.01703576  0.66446913  0.33284361  1
  Ag  Ag23  1  -0.00578848  0.34782638  0.33470600  1
  Ag  Ag24  1  0.33859738  0.16221794  0.83420266  1
  Ag  Ag25  1  -0.00089439  0.16205592  0.83574250  1
  Ag  Ag26  1  0.83397310  0.66935460  0.49049918  1
  Ag  Ag27  1  0.49886883  0.67120166  0.49087562  1
  Ag  Ag28  1  0.49874232  0.33502306  0.82291349  1
  Ag  Ag29  1  0.34463509  0.34201815  0.66618424  1
  Ag  Ag30  1  0.35133408  0.66919758  0.33874636  1
  Ag  Ag31  1  -0.00279766  0.83250944  0.83183357  1
  Ag  Ag32  1  0.50116271  -0.00841906  0.48859170  1
  Ag  Ag33  1  0.66028257  0.50483533  0.83037386  1
  Ag  Ag34  1  0.50227739  0.82751204  0.33801653  1
  Ag  Ag35  1  0.34175575  0.16185468  0.16750597  1
  Ag  Ag36  1  0.66062520  -0.00744762  -0.00042664  1
  Ag  Ag37  1  0.83067752  0.16986915  0.66657271  1
  Ag  Ag38  1  -0.00242412  0.50912063  0.17368534  1
  Ag  Ag39  1  0.34188257  -0.01021941  0.32734135  1
  Ag  Ag40  1  0.83310333  0.51113479  0.33694474  1
  Ag  Ag41  1  0.66436832  0.67259548  0.00701157  1
  Ag  Ag42  1  0.82531681  0.50150367  0.66244508  1
  Ag  Ag43  1  0.33391508  0.66349724  0.65853718  1
  Ag  Ag44  1  0.17634652  0.34208938  0.49754348  1
  Ag  Ag45  1  0.16522927  0.66647416  0.17638476  1
  Ag  Ag46  1  0.34074359  0.82836771  0.49775028  1
  Ag  Ag47  1  0.50177951  0.51316134  0.33837447  1
  Ag  Ag48  1  0.17060320  0.82935262  -0.00189774  1
  Ag  Ag49  1  0.66420243  0.83181874  0.83082091  1
  Ag  Ag50  1  0.66708925  0.66464664  0.33229554  1
  Ag  Ag51  1  0.34136250  -0.00794465  0.00243510  1
  Ag  Ag52  1  0.66029797  0.83099186  0.49582104  1
  Ag  Ag53  1  0.66428752  0.16198322  0.17362802  1
  Sb  Sb54  1  0.16991223  0.82211918  0.33094634  1
  Sb  Sb55  1  0.83271252  0.16286931  -0.00155367  1
  Sb  Sb56  1  0.83312598  0.33401166  0.17036669  1
  Sb  Sb57  1  0.33488150  0.33352994  -0.00560610  1
  Sb  Sb58  1  0.83212533  0.82923415  0.66272629  1
  Sb  Sb59  1  0.66382244  0.16470693  0.83361155  1
  Sb  Sb60  1  -0.00056863  -0.00588297  0.00048363  1
  Sb  Sb61  1  0.83198661  0.67094082  0.83198193  1
  Sb  Sb62  1  0.16465028  0.16999372  0.66589448  1
  Sb  Sb63  1  0.16879644  0.15981838  0.00165362  1
  Sb  Sb64  1  0.49987074  0.82620046  0.66106052  1
  Sb  Sb65  1  0.82817895  0.33985453  0.49822976  1
  Sb  Sb66  1  0.16903241  0.66741242  0.83392346  1
  Sb  Sb67  1  0.16681735  0.82908352  0.66832097  1
  Sb  Sb68  1  0.49940995  0.16250355  0.00450710  1
  Sb  Sb69  1  -0.00034539  0.50852290  0.49229211  1
  Sb  Sb70  1  0.83273221  0.83229787  0.00251314  1
  Sb  Sb71  1  0.17079644  -0.00245910  0.83442507  1
  Sb  Sb72  1  0.82559738  -0.00625526  0.49660655  1
  Sb  Sb73  1  0.34122777  0.16346190  0.49990965  1
  Sb  Sb74  1  0.33934298  0.33798797  0.34024838  1
  Sb  Sb75  1  0.16688286  0.33918070  0.17475218  1
  Sb  Sb76  1  0.82765173  0.32984326  0.82878135  1
  Sb  Sb77  1  0.00166899  0.33627354  0.00471417  1
  Sb  Sb78  1  0.17496655  -0.00663503  0.49583248  1
  Sb  Sb79  1  0.49864746  0.66848238  0.83176074  1
  Sb  Sb80  1  0.33564114  0.83259142  0.16808921  1
  Sb  Sb81  1  0.49849536  0.83381479  0.00295813  1
  Sb  Sb82  1  0.17046036  -0.00535990  0.16687492  1
  Sb  Sb83  1  0.17112887  0.17336749  0.33293099  1
  Sb  Sb84  1  0.66479230  0.66092573  0.66223052  1
  Sb  Sb85  1  -0.00219504  0.33917724  0.66053578  1
  Sb  Sb86  1  0.82664887  0.16535700  0.33519587  1
  Sb  Sb87  1  0.00256720  -0.00539043  0.33138770  1
  Sb  Sb88  1  0.66550716  0.00294862  0.66980899  1
  Sb  Sb89  1  0.50027419  0.33284657  0.17350438  1
  Sb  Sb90  1  0.66404716  0.50373373  0.49930648  1
  Sb  Sb91  1  0.33768373  0.50918434  0.50394696  1
  Sb  Sb92  1  0.50366765  0.17346528  0.66362056  1
  Sb  Sb93  1  0.65948963  -0.00367189  0.32844054  1
  Sb  Sb94  1  0.16903806  0.50336337  0.66046902  1
  Sb  Sb95  1  0.49990843  0.50518870  -0.00088568  1
  Sb  Sb96  1  -0.00635363  0.16349013  0.49914678  1
  Sb  Sb97  1  -0.00121305  0.82820963  0.16828172  1
  Sb  Sb98  1  0.17362256  0.33396755  0.82481405  1
  Sb  Sb99  1  0.33794949  -0.00276414  0.66834001  1
  Sb  Sb100  1  0.66373715  0.33338630  0.00062269  1
  Sb  Sb101  1  -0.00153746  0.50422528  0.83556219  1
  Sb  Sb102  1  -0.00421860  -0.00553399  0.66895515  1
  Sb  Sb103  1  0.66952638  0.50235405  0.16839308  1
  Sb  Sb104  1  0.16769924  0.50962258  0.00635200  1
  Sb  Sb105  1  0.66586835  0.83401741  0.16942407  1
  Sb  Sb106  1  0.33226518  0.50280869  0.16620906  1
  Sb  Sb107  1  0.83216982  0.50583617  0.00247755  1
  Te  Te108  1  0.16270629  0.16728179  0.16681188  1
  Te  Te109  1  0.16486002  0.16733283  0.49966316  1
  Te  Te110  1  0.16353489  0.16632057  0.83371892  1
  Te  Te111  1  0.16277041  0.50618941  0.17328775  1
  Te  Te112  1  0.16780078  0.50199970  0.49361020  1
  Te  Te113  1  0.17284517  0.49883010  0.83400900  1
  Te  Te114  1  0.16615786  0.82651526  0.15985686  1
  Te  Te115  1  0.16510207  0.82755466  0.50050670  1
  Te  Te116  1  0.16343041  0.83316261  0.83724369  1
  Te  Te117  1  0.50033517  0.16589826  0.17013862  1
  Te  Te118  1  0.50386126  0.16694006  0.49767838  1
  Te  Te119  1  0.49801443  0.16377953  0.83332651  1
  Te  Te120  1  0.50042270  0.50187782  0.17246345  1
  Te  Te121  1  0.50024573  0.49750530  0.49911346  1
  Te  Te122  1  0.49934980  0.50142875  0.83247583  1
  Te  Te123  1  0.50047670  0.83514401  0.17552927  1
  Te  Te124  1  0.50030703  0.83230435  0.49915826  1
  Te  Te125  1  0.50019411  0.83583069  0.83067862  1
  Te  Te126  1  0.83311321  0.16303892  0.16685808  1
  Te  Te127  1  0.82608376  0.16302118  0.50454809  1
  Te  Te128  1  0.83475873  0.16171813  0.83059232  1
  Te  Te129  1  0.83703976  0.50383324  0.17144408  1
  Te  Te130  1  0.83273216  0.50644232  0.50021348  1
  Te  Te131  1  0.82920861  0.49884106  0.82954523  1
  Te  Te132  1  0.83319019  0.83460738  0.17178529  1
  Te  Te133  1  0.83206235  0.83014839  0.49700477  1
  Te  Te134  1  0.83342565  0.83788281  0.83228052  1
  Te  Te135  1  0.17406204  -0.00858651  0.00103797  1
  Te  Te136  1  0.17797633  0.00058290  0.33239788  1
  Te  Te137  1  0.16574074  0.00133228  0.66458792  1
  Te  Te138  1  0.16710271  0.33424896  -0.00009649  1
  Te  Te139  1  0.16583979  0.34060668  0.33974991  1
  Te  Te140  1  0.16904868  0.33551446  0.65608954  1
  Te  Te141  1  0.16861931  0.67047405  0.00162862  1
  Te  Te142  1  0.16632781  0.66535601  0.33336124  1
  Te  Te143  1  0.16697021  0.66558083  0.65830125  1
  Te  Te144  1  0.50049029  -0.00096553  -0.00078452  1
  Te  Te145  1  0.49799199  0.00223517  0.33202331  1
  Te  Te146  1  0.50056447  0.00185736  0.67217625  1
  Te  Te147  1  0.49973672  0.33445190  -0.00918238  1
  Te  Te148  1  0.50387176  0.32873007  0.33776173  1
  Te  Te149  1  0.50090134  0.33583144  0.66519911  1
  Te  Te150  1  0.50158012  0.66838159  0.00661905  1
  Te  Te151  1  0.50591614  0.66858547  0.33279511  1
  Te  Te152  1  0.49519652  0.65972083  0.66317330  1
  Te  Te153  1  0.82948949  -0.00157155  0.00169084  1
  Te  Te154  1  0.83392752  -0.00317842  0.32801987  1
  Te  Te155  1  0.83262485  0.00471337  0.67091814  1
  Te  Te156  1  0.83359529  0.33492201  -0.00089982  1
  Te  Te157  1  0.83152630  0.33505433  0.33373658  1
  Te  Te158  1  0.82927928  0.33641686  0.66492238  1
  Te  Te159  1  0.83123681  0.66784699  0.00380593  1
  Te  Te160  1  0.82723457  0.66689317  0.33379414  1
  Te  Te161  1  0.83601044  0.66228572  0.66473414  1
  Te  Te162  1  0.00111629  0.16668703  -0.00121679  1
  Te  Te163  1  0.00027372  0.16379165  0.32981310  1
  Te  Te164  1  -0.00523672  0.16874827  0.66933791  1
  Te  Te165  1  0.00007023  0.50596819  0.00693045  1
  Te  Te166  1  -0.00329929  0.50347592  0.33170738  1
  Te  Te167  1  -0.00344288  0.50623921  0.67018150  1
  Te  Te168  1  0.00213246  0.82928222  -0.00461912  1
  Te  Te169  1  0.00002500  0.82894869  0.33709818  1
  Te  Te170  1  -0.00025547  0.82641985  0.66932137  1
  Te  Te171  1  0.33266585  0.16310163  -0.00218416  1
  Te  Te172  1  0.33769487  0.16898319  0.33119402  1
  Te  Te173  1  0.33239418  0.16776661  0.67223340  1
  Te  Te174  1  0.33280773  0.50501031  -0.00646724  1
  Te  Te175  1  0.33894505  0.50578884  0.33115818  1
  Te  Te176  1  0.33452041  0.50175805  0.67084315  1
  Te  Te177  1  0.33430752  0.83251999  -0.00240961  1
  Te  Te178  1  0.33536129  0.82986561  0.33496163  1
  Te  Te179  1  0.33332225  0.82841113  0.66836240  1
  Te  Te180  1  0.66672770  0.16391111  0.00622128  1
  Te  Te181  1  0.66380557  0.16576168  0.33408396  1
  Te  Te182  1  0.67032527  0.17295412  0.66594519  1
  Te  Te183  1  0.66703604  0.50434065  -0.00617658  1
  Te  Te184  1  0.66565392  0.50010040  0.33213912  1
  Te  Te185  1  0.66491397  0.49744894  0.66981742  1
  Te  Te186  1  0.66680256  0.83260709  -0.00701422  1
  Te  Te187  1  0.66577301  0.83101745  0.33570335  1
  Te  Te188  1  0.66674540  0.83218936  0.67039511  1
  Te  Te189  1  -0.00099053  0.00517140  0.16538970  1
  Te  Te190  1  0.00003076  -0.00878938  0.50041838  1
  Te  Te191  1  -0.00166440  -0.00052589  0.83484136  1
  Te  Te192  1  0.00056925  0.33001053  0.17301859  1
  Te  Te193  1  -0.00012876  0.32971473  0.49358644  1
  Te  Te194  1  0.00142180  0.32974356  0.83278987  1
  Te  Te195  1  -0.00268590  0.66828193  0.16932770  1
  Te  Te196  1  -0.00143784  0.66893809  0.49525070  1
  Te  Te197  1  0.00067073  0.66976393  0.84090030  1
  Te  Te198  1  0.33585502  0.00215644  0.16604283  1
  Te  Te199  1  0.34044443  -0.00575469  0.49767874  1
  Te  Te200  1  0.33669543  -0.00266541  0.83567993  1
  Te  Te201  1  0.33302246  0.32458701  0.16500290  1
  Te  Te202  1  0.33612069  0.33045280  0.50491508  1
  Te  Te203  1  0.33719372  0.32877543  0.82848643  1
  Te  Te204  1  0.33653328  0.66568644  0.16440338  1
  Te  Te205  1  0.33665997  0.66911163  0.49872574  1
  Te  Te206  1  0.33353769  0.67049246  0.83619018  1
  Te  Te207  1  0.66374025  0.00058097  0.16270608  1
  Te  Te208  1  0.66090449  -0.00208432  0.50154099  1
  Te  Te209  1  0.66536140  -0.00080417  0.83716409  1
  Te  Te210  1  0.66635958  0.32661048  0.16955908  1
  Te  Te211  1  0.66502073  0.33106263  0.49928272  1
  Te  Te212  1  0.66063782  0.33557472  0.83274351  1
  Te  Te213  1  0.66609914  0.66675919  0.16663653  1
  Te  Te214  1  0.66426679  0.67044782  0.49834300  1
  Te  Te215  1  0.66581829  0.66826698  0.83405786  1
