# generated using pymatgen
data_AgSbTe2
_symmetry_space_group_name_H-M   'P 1'
_cell_length_a   18.33438643
_cell_length_b   18.33404382
_cell_length_c   18.34052762
_cell_angle_alpha   89.99907962
_cell_angle_beta   89.99937670
_cell_angle_gamma   90.00096011
_symmetry_Int_Tables_number   1
_chemical_formula_structural   AgSbTe2
_chemical_formula_sum   'Ag54 Sb54 Te108'
_cell_volume   6165.04811919
_cell_formula_units_Z   54
loop_
 _symmetry_equiv_pos_site_id
 _symmetry_equiv_pos_as_xyz
  1  'x, y, z'
loop_
 _atom_site_type_symbol
 _atom_site_label
 _atom_site_symmetry_multiplicity
 _atom_site_fract_x
 _atom_site_fract_y
 _atom_site_fract_z
 _atom_site_occupancy
  Ag  Ag0  1  0.51177745  0.00045830  0.17014210  1
  Ag  Ag1  1  0.16351051  -0.00807808  0.17057112  1
  Ag  Ag2  1  -0.00931512  0.83434398  0.83696499  1
  Ag  Ag3  1  0.50363910  0.49537314  0.33572353  1
  Ag  Ag4  1  0.83801962  0.33445274  0.17565613  1
  Ag  Ag5  1  0.83562486  0.83394400  0.33000906  1
  Ag  Ag6  1  0.15276381  0.34166807  0.16925869  1
  Ag  Ag7  1  0.83267628  0.83408887  0.00224831  1
  Ag  Ag8  1  0.34573374  0.50300187  0.83189312  1
  Ag  Ag9  1  -0.00523170  -0.00351135  0.00197262  1
  Ag  Ag10  1  0.83133365  0.00222597  0.50014310  1
  Ag  Ag11  1  0.31771648  0.66601509  0.33204655  1
  Ag  Ag12  1  0.51300019  0.33897263  0.82479693  1
  Ag  Ag13  1  0.15980764  0.82022214  0.32708737  1
  Ag  Ag14  1  0.67159173  0.83119152  0.84254733  1
  Ag  Ag15  1  0.15883474  0.50861904  0.33457879  1
  Ag  Ag16  1  0.66964472  0.66884160  -0.00023064  1
  Ag  Ag17  1  0.82989763  0.33980748  0.83143121  1
  Ag  Ag18  1  0.32136587  0.83302561  0.16524949  1
  Ag  Ag19  1  0.15858368  0.83382493  0.00974914  1
  Ag  Ag20  1  0.33387406  0.82856936  0.83991731  1
  Ag  Ag21  1  -0.00479605  0.49188284  0.17672078  1
  Ag  Ag22  1  0.50857853  0.17441464  0.65715572  1
  Ag  Ag23  1  -0.00552355  0.33625702  0.66396816  1
  Ag  Ag24  1  0.83040596  0.66395653  0.83100835  1
  Ag  Ag25  1  0.66875664  0.83741909  0.16265651  1
  Ag  Ag26  1  0.67352896  0.33345631  0.33540287  1
  Ag  Ag27  1  0.66522209  0.49413374  0.83145165  1
  Ag  Ag28  1  -0.00575261  0.00339197  0.66223618  1
  Ag  Ag29  1  0.67345069  0.49151961  0.49869159  1
  Ag  Ag30  1  0.82909634  0.33714994  0.49347159  1
  Ag  Ag31  1  0.00395243  0.65684043  0.33375040  1
  Ag  Ag32  1  0.83664943  0.65341795  0.49867269  1
  Ag  Ag33  1  -0.00813143  0.49801065  0.49399180  1
  Ag  Ag34  1  0.51385025  0.00858207  0.49673958  1
  Ag  Ag35  1  0.66744099  0.17502939  0.49335993  1
  Ag  Ag36  1  0.67124086  0.17047315  0.17640397  1
  Ag  Ag37  1  0.82881996  0.17574756  0.33360955  1
  Ag  Ag38  1  0.15754880  -0.00400849  0.49430975  1
  Ag  Ag39  1  0.51118324  0.17590410  0.33804288  1
  Ag  Ag40  1  0.66979650  0.49556750  0.17001307  1
  Ag  Ag41  1  -0.00830375  0.17832810  0.16852603  1
  Ag  Ag42  1  0.16425562  0.67064658  0.17593597  1
  Ag  Ag43  1  0.83174220  0.49583896  0.66282618  1
  Ag  Ag44  1  0.50718411  0.49829129  -0.00421617  1
  Ag  Ag45  1  -0.00832854  0.33874607  0.32658443  1
  Ag  Ag46  1  0.66931099  0.00308841  0.66562465  1
  Ag  Ag47  1  0.51190458  0.49277582  0.66650682  1
  Ag  Ag48  1  -0.00345592  0.33395097  0.01402486  1
  Ag  Ag49  1  0.51046055  0.33138502  0.50193403  1
  Ag  Ag50  1  0.15518063  0.49982863  0.65742647  1
  Ag  Ag51  1  0.15711747  0.66547112  0.48774115  1
  Ag  Ag52  1  0.67179787  -0.00562517  0.00100910  1
  Ag  Ag53  1  0.66791300  0.17420933  0.83054300  1
  Sb  Sb54  1  0.16341178  0.16854703  0.33149747  1
  Sb  Sb55  1  0.33417878  0.33924543  0.33242918  1
  Sb  Sb56  1  0.83332110  0.00257114  0.16995711  1
  Sb  Sb57  1  0.33529658  -0.00177200  0.66576796  1
  Sb  Sb58  1  0.16415580  0.83082060  0.66493360  1
  Sb  Sb59  1  0.33357715  0.50068158  0.50164927  1
  Sb  Sb60  1  0.16370432  -0.00300522  0.83462625  1
  Sb  Sb61  1  -0.00141474  0.00089570  0.33170776  1
  Sb  Sb62  1  0.16006286  0.33700435  0.49492083  1
  Sb  Sb63  1  0.50584945  0.00297517  0.83392614  1
  Sb  Sb64  1  0.33295252  -0.00569097  0.33285692  1
  Sb  Sb65  1  -0.00082606  0.83267089  0.16490319  1
  Sb  Sb66  1  0.82835888  0.50247055  -0.00311197  1
  Sb  Sb67  1  0.50680955  0.83128353  0.00136374  1
  Sb  Sb68  1  0.33179121  0.66405726  0.66434522  1
  Sb  Sb69  1  -0.00592137  0.50229175  0.83241395  1
  Sb  Sb70  1  0.83011131  -0.00056595  0.83042281  1
  Sb  Sb71  1  0.33102887  0.83112836  0.49604275  1
  Sb  Sb72  1  0.50313707  0.83429513  0.66831009  1
  Sb  Sb73  1  -0.00178492  0.83035124  0.50073610  1
  Sb  Sb74  1  0.50407225  0.66190173  0.49743038  1
  Sb  Sb75  1  0.50701856  0.17026389  0.00294873  1
  Sb  Sb76  1  0.33674506  0.66797621  0.00273155  1
  Sb  Sb77  1  0.16149719  0.16104711  0.00355206  1
  Sb  Sb78  1  0.33418831  -0.00464067  0.00180644  1
  Sb  Sb79  1  0.83619222  0.66283711  0.17019473  1
  Sb  Sb80  1  -0.00162166  0.66358099  0.66192169  1
  Sb  Sb81  1  0.66761743  0.00664603  0.33368255  1
  Sb  Sb82  1  0.83110609  0.16467353  0.00530517  1
  Sb  Sb83  1  0.34401775  0.16913581  0.83223076  1
  Sb  Sb84  1  0.34341612  0.16502323  0.49859069  1
  Sb  Sb85  1  0.82703994  0.17133457  0.66128647  1
  Sb  Sb86  1  0.33419497  0.33750964  0.66697551  1
  Sb  Sb87  1  -0.00830922  0.17125457  0.49513259  1
  Sb  Sb88  1  0.33404157  0.50450860  0.16625169  1
  Sb  Sb89  1  0.16163946  0.66671161  0.83400231  1
  Sb  Sb90  1  0.50524456  0.33154953  0.16947989  1
  Sb  Sb91  1  0.66907602  0.66548634  0.67076902  1
  Sb  Sb92  1  0.33562990  0.16157609  0.16891370  1
  Sb  Sb93  1  0.83362652  0.83162318  0.66790971  1
  Sb  Sb94  1  0.16098014  0.33743154  0.83648492  1
  Sb  Sb95  1  0.50233699  0.83280298  0.33093204  1
  Sb  Sb96  1  0.33023984  0.33649049  0.00124078  1
  Sb  Sb97  1  0.50676127  0.65941597  0.83413097  1
  Sb  Sb98  1  -0.00767136  0.16594646  0.83616116  1
  Sb  Sb99  1  0.50000665  0.66834613  0.16795324  1
  Sb  Sb100  1  0.67059005  0.33248782  0.66111951  1
  Sb  Sb101  1  0.67237624  0.65968641  0.33028444  1
  Sb  Sb102  1  -0.00484098  0.66668091  0.00478010  1
  Sb  Sb103  1  0.16710163  0.50423517  0.00480266  1
  Sb  Sb104  1  0.16649566  0.16996222  0.66217040  1
  Sb  Sb105  1  0.66958907  0.83392783  0.49636985  1
  Sb  Sb106  1  0.83563392  0.49754192  0.33826376  1
  Sb  Sb107  1  0.67268410  0.33488177  0.00163940  1
  Te  Te108  1  0.16614999  0.16309451  0.16722722  1
  Te  Te109  1  0.16861496  0.16212813  0.49852499  1
  Te  Te110  1  0.17007151  0.16716323  0.83219551  1
  Te  Te111  1  0.16722363  0.50145330  0.16855959  1
  Te  Te112  1  0.16663752  0.50084234  0.49809008  1
  Te  Te113  1  0.16727328  0.50098979  0.83245923  1
  Te  Te114  1  0.16267552  0.83230685  0.16817225  1
  Te  Te115  1  0.16591811  0.83306908  0.49636203  1
  Te  Te116  1  0.16804993  0.83193397  0.83383559  1
  Te  Te117  1  0.50400402  0.16258998  0.17106736  1
  Te  Te118  1  0.50590842  0.16675752  0.49852889  1
  Te  Te119  1  0.50697013  0.17373966  0.83156142  1
  Te  Te120  1  0.50235375  0.49978629  0.17061401  1
  Te  Te121  1  0.50211287  0.49842099  0.49941334  1
  Te  Te122  1  0.50450638  0.49813795  0.83082587  1
  Te  Te123  1  0.50641059  0.83904430  0.16719881  1
  Te  Te124  1  0.49983335  0.83995039  0.49985178  1
  Te  Te125  1  0.50087488  0.83233834  0.83401848  1
  Te  Te126  1  0.83194552  0.16936749  0.17080208  1
  Te  Te127  1  0.82830422  0.16570501  0.49544251  1
  Te  Te128  1  0.82732553  0.17267730  0.83287202  1
  Te  Te129  1  0.83205174  0.49583038  0.16315701  1
  Te  Te130  1  0.83309630  0.49708674  0.50165963  1
  Te  Te131  1  0.82902178  0.50176046  0.83084569  1
  Te  Te132  1  0.83050103  0.83278856  0.16616508  1
  Te  Te133  1  0.83387662  0.83998359  0.49780847  1
  Te  Te134  1  0.83116697  0.83288618  0.83428986  1
  Te  Te135  1  0.16267471  -0.00597130  0.00289566  1
  Te  Te136  1  0.16629653  0.00041075  0.33349495  1
  Te  Te137  1  0.16319188  0.00067622  0.66193058  1
  Te  Te138  1  0.15872782  0.33321000  0.00490826  1
  Te  Te139  1  0.16505860  0.33596759  0.32916442  1
  Te  Te140  1  0.16150700  0.33860753  0.66502178  1
  Te  Te141  1  0.16655177  0.67261322  0.00260482  1
  Te  Te142  1  0.16217640  0.66472362  0.33276217  1
  Te  Te143  1  0.16521940  0.65966917  0.66237817  1
  Te  Te144  1  0.50460351  0.00071705  0.00632407  1
  Te  Te145  1  0.49970741  0.00026323  0.33393311  1
  Te  Te146  1  0.50353297  0.00235936  0.66265641  1
  Te  Te147  1  0.49924815  0.33849564  -0.00125231  1
  Te  Te148  1  0.50060273  0.33506887  0.33457572  1
  Te  Te149  1  0.49965692  0.33479719  0.66596783  1
  Te  Te150  1  0.50745212  0.65944753  0.00076779  1
  Te  Te151  1  0.49968358  0.66109542  0.33413229  1
  Te  Te152  1  0.50008409  0.65835251  0.66443468  1
  Te  Te153  1  0.83306732  -0.00443910  -0.00029993  1
  Te  Te154  1  0.83385435  -0.00586084  0.33793607  1
  Te  Te155  1  0.83300025  0.00109995  0.66317169  1
  Te  Te156  1  0.83840031  0.33262867  -0.00246838  1
  Te  Te157  1  0.83310633  0.33391774  0.33402461  1
  Te  Te158  1  0.83541191  0.33535431  0.66688677  1
  Te  Te159  1  0.83001919  0.67217113  -0.00250493  1
  Te  Te160  1  0.83856353  0.67265339  0.33687776  1
  Te  Te161  1  0.83432039  0.66132360  0.66400268  1
  Te  Te162  1  -0.00207119  0.16545768  0.00464630  1
  Te  Te163  1  -0.00429083  0.17179123  0.32824984  1
  Te  Te164  1  0.00026543  0.16354962  0.66719780  1
  Te  Te165  1  -0.00017011  0.49583984  0.00141100  1
  Te  Te166  1  -0.00059735  0.49807368  0.33461334  1
  Te  Te167  1  -0.00237813  0.49845193  0.66600075  1
  Te  Te168  1  -0.00247064  0.83360703  -0.00137628  1
  Te  Te169  1  0.00025835  0.83327048  0.33330758  1
  Te  Te170  1  0.00054241  0.84160743  0.67369508  1
  Te  Te171  1  0.33347755  0.16623547  -0.00127188  1
  Te  Te172  1  0.34222026  0.16741861  0.33307877  1
  Te  Te173  1  0.34265989  0.16664215  0.66714859  1
  Te  Te174  1  0.33889419  0.50108999  -0.00593159  1
  Te  Te175  1  0.33356728  0.50583931  0.33268956  1
  Te  Te176  1  0.33327363  0.50077303  0.67253868  1
  Te  Te177  1  0.33041683  0.83232800  0.00165066  1
  Te  Te178  1  0.33125063  0.82746676  0.32844457  1
  Te  Te179  1  0.33368913  0.83171998  0.67558724  1
  Te  Te180  1  0.66738435  0.15993379  -0.00179143  1
  Te  Te181  1  0.66793766  0.16958107  0.33348034  1
  Te  Te182  1  0.66483048  0.16289172  0.66845257  1
  Te  Te183  1  0.66518890  0.50083178  -0.00020953  1
  Te  Te184  1  0.66494741  0.49657378  0.33302001  1
  Te  Te185  1  0.66941480  0.50059046  0.66642801  1
  Te  Te186  1  0.66808557  0.83353612  0.00158940  1
  Te  Te187  1  0.67041467  0.82902299  0.32788807  1
  Te  Te188  1  0.66642405  0.83977543  0.67125033  1
  Te  Te189  1  0.00167589  0.00161135  0.16345117  1
  Te  Te190  1  -0.00189212  0.00194625  0.50179880  1
  Te  Te191  1  -0.00196551  -0.00210609  0.83806221  1
  Te  Te192  1  -0.00199367  0.33474058  0.16971251  1
  Te  Te193  1  -0.00365530  0.33681786  0.50344576  1
  Te  Te194  1  -0.00628880  0.33310285  0.82488836  1
  Te  Te195  1  0.00327505  0.65946674  0.17063513  1
  Te  Te196  1  -0.00179169  0.66363659  0.49720940  1
  Te  Te197  1  -0.00715375  0.67247095  0.83352579  1
  Te  Te198  1  0.32632575  -0.00665632  0.16654670  1
  Te  Te199  1  0.32796144  -0.00218149  0.50077622  1
  Te  Te200  1  0.33447885  -0.00591111  0.83350980  1
  Te  Te201  1  0.32620216  0.33261581  0.16607012  1
  Te  Te202  1  0.34103414  0.33241037  0.49949823  1
  Te  Te203  1  0.33398806  0.33803980  0.83469988  1
  Te  Te204  1  0.33041133  0.67232447  0.16986836  1
  Te  Te205  1  0.32902595  0.66749992  0.49381310  1
  Te  Te206  1  0.33282269  0.66711085  0.83386855  1
  Te  Te207  1  0.66926547  0.00026521  0.16611759  1
  Te  Te208  1  0.66947988  -0.00139279  0.50150678  1
  Te  Te209  1  0.66613776  -0.00191461  0.83436814  1
  Te  Te210  1  0.66923018  0.33303637  0.16872048  1
  Te  Te211  1  0.66718963  0.33463638  0.49897592  1
  Te  Te212  1  0.66888316  0.33469069  0.83680882  1
  Te  Te213  1  0.66775123  0.66233043  0.16262222  1
  Te  Te214  1  0.67312359  0.66449082  0.50050176  1
  Te  Te215  1  0.67125347  0.66860366  0.83630785  1
