# generated using pymatgen
data_AgSbTe2
_symmetry_space_group_name_H-M   'P 1'
_cell_length_a   18.31439973
_cell_length_b   18.31717509
_cell_length_c   18.31254163
_cell_angle_alpha   90.00132361
_cell_angle_beta   90.00109495
_cell_angle_gamma   90.00190556
_symmetry_Int_Tables_number   1
_chemical_formula_structural   AgSbTe2
_chemical_formula_sum   'Ag54 Sb54 Te108'
_cell_volume   6143.27292489
_cell_formula_units_Z   54
loop_
 _symmetry_equiv_pos_site_id
 _symmetry_equiv_pos_as_xyz
  1  'x, y, z'
loop_
 _atom_site_type_symbol
 _atom_site_label
 _atom_site_symmetry_multiplicity
 _atom_site_fract_x
 _atom_site_fract_y
 _atom_site_fract_z
 _atom_site_occupancy
  Ag  Ag0  1  0.33133762  0.51001587  0.83764468  1
  Ag  Ag1  1  0.32905528  0.66550538  0.68239445  1
  Ag  Ag2  1  0.33124121  0.16673659  0.83687321  1
  Ag  Ag3  1  0.16448513  0.83212337  -0.00208644  1
  Ag  Ag4  1  0.00577789  0.65662613  0.33037537  1
  Ag  Ag5  1  -0.00252540  0.50116114  0.17165636  1
  Ag  Ag6  1  0.00279101  0.16579029  0.49788330  1
  Ag  Ag7  1  0.66776188  0.83137971  0.15760327  1
  Ag  Ag8  1  0.49794251  0.16523259  -0.00181139  1
  Ag  Ag9  1  0.32898961  -0.00182405  -0.00332618  1
  Ag  Ag10  1  0.16356801  0.16853536  0.66684577  1
  Ag  Ag11  1  0.17406845  -0.00120016  0.84016862  1
  Ag  Ag12  1  0.33560524  0.82411414  0.83757356  1
  Ag  Ag13  1  0.00503502  -0.00506856  -0.00097894  1
  Ag  Ag14  1  0.83609482  0.49590238  0.33065991  1
  Ag  Ag15  1  0.50124873  0.66083935  0.16239163  1
  Ag  Ag16  1  0.84132135  0.17189812  0.32629566  1
  Ag  Ag17  1  0.16534780  0.49560010  0.32836784  1
  Ag  Ag18  1  0.33206419  0.00093701  0.32598039  1
  Ag  Ag19  1  0.83125203  0.33225801  0.16792857  1
  Ag  Ag20  1  0.66623654  0.50554008  0.48969448  1
  Ag  Ag21  1  -0.00032709  0.00097288  0.67075274  1
  Ag  Ag22  1  0.17446802  0.66668742  0.83890672  1
  Ag  Ag23  1  0.32448748  0.33736874  0.32669558  1
  Ag  Ag24  1  0.33190120  0.65991380  0.33034661  1
  Ag  Ag25  1  0.65905902  0.67310401  0.00223830  1
  Ag  Ag26  1  0.48926019  0.33453330  0.84122008  1
  Ag  Ag27  1  0.66467642  -0.00282342  0.32475040  1
  Ag  Ag28  1  0.33093129  0.66758899  -0.00633844  1
  Ag  Ag29  1  0.49763845  0.50232659  0.32920253  1
  Ag  Ag30  1  0.83160877  0.15692934  0.00621566  1
  Ag  Ag31  1  0.66771468  0.50512874  0.16990766  1
  Ag  Ag32  1  0.16825701  0.50611782  0.00227863  1
  Ag  Ag33  1  0.49241629  -0.00382060  0.83919725  1
  Ag  Ag34  1  0.00368015  0.33505302  0.66016205  1
  Ag  Ag35  1  0.48821978  0.66796042  0.83944228  1
  Ag  Ag36  1  0.50115977  0.34085543  0.16244714  1
  Ag  Ag37  1  0.67074738  0.83035961  0.49891156  1
  Ag  Ag38  1  0.33294982  0.33334691  -0.00306392  1
  Ag  Ag39  1  0.83464158  0.00425363  0.16232557  1
  Ag  Ag40  1  0.83173228  0.83790005  0.00118521  1
  Ag  Ag41  1  0.00494253  0.66432386  0.66665446  1
  Ag  Ag42  1  0.16292185  0.17501898  0.33713134  1
  Ag  Ag43  1  0.16441686  0.33253360  0.49623088  1
  Ag  Ag44  1  0.65952591  0.83479966  0.84341753  1
  Ag  Ag45  1  0.00697339  0.33903454  0.33553350  1
  Ag  Ag46  1  0.16346658  0.00011183  0.15713967  1
  Ag  Ag47  1  0.67100448  -0.00812279  0.00104798  1
  Ag  Ag48  1  0.49938886  0.66572880  0.49517237  1
  Ag  Ag49  1  0.00845040  0.67234793  0.00018825  1
  Ag  Ag50  1  0.67240595  -0.00233008  0.67463904  1
  Ag  Ag51  1  0.83572658  0.49988948  0.66204900  1
  Ag  Ag52  1  0.17236893  0.33301586  0.83434583  1
  Ag  Ag53  1  -0.00226421  0.83405786  0.49991825  1
  Sb  Sb54  1  0.16526795  0.00367614  0.50076837  1
  Sb  Sb55  1  0.83010631  0.66477180  0.16552168  1
  Sb  Sb56  1  0.00784767  0.16496106  0.83126311  1
  Sb  Sb57  1  0.33483652  0.50145675  0.49866415  1
  Sb  Sb58  1  0.16995872  0.66786621  0.16023639  1
  Sb  Sb59  1  0.65959625  0.50629522  0.83778836  1
  Sb  Sb60  1  0.65939369  0.15944063  0.83618664  1
  Sb  Sb61  1  0.83212340  0.83274873  0.32800512  1
  Sb  Sb62  1  0.83380984  -0.00052080  0.49436012  1
  Sb  Sb63  1  0.50241019  -0.00476905  0.50167643  1
  Sb  Sb64  1  0.49721562  0.17072295  0.32729942  1
  Sb  Sb65  1  0.49337172  0.50002001  0.00535646  1
  Sb  Sb66  1  0.33360766  0.50059945  0.16467079  1
  Sb  Sb67  1  0.00277842  0.83330816  0.83448934  1
  Sb  Sb68  1  0.83771803  0.50103031  0.00469166  1
  Sb  Sb69  1  -0.00393322  0.83018269  0.16585035  1
  Sb  Sb70  1  0.66825618  0.33477226  0.33090252  1
  Sb  Sb71  1  0.16317960  0.49755867  0.66874495  1
  Sb  Sb72  1  0.33046222  -0.00338062  0.67553531  1
  Sb  Sb73  1  0.66889938  0.16382850  0.16578006  1
  Sb  Sb74  1  0.33201546  0.83110763  0.50266968  1
  Sb  Sb75  1  0.50040091  0.82811448  0.33242614  1
  Sb  Sb76  1  0.16760762  0.33212902  0.16727149  1
  Sb  Sb77  1  0.50159833  0.83221310  0.67035650  1
  Sb  Sb78  1  0.50199858  0.83354965  -0.00171805  1
  Sb  Sb79  1  0.33715113  0.83232737  0.15868944  1
  Sb  Sb80  1  -0.00192761  0.50008501  0.49382809  1
  Sb  Sb81  1  0.16631520  0.83176948  0.32722103  1
  Sb  Sb82  1  0.67214328  0.33141844  0.66809470  1
  Sb  Sb83  1  0.49438858  0.33891659  0.49627721  1
  Sb  Sb84  1  0.66613278  0.67021658  0.66968562  1
  Sb  Sb85  1  0.83414767  0.83172543  0.67181567  1
  Sb  Sb86  1  0.83652947  0.33351108  0.83829650  1
  Sb  Sb87  1  0.33272814  0.16644873  0.16171449  1
  Sb  Sb88  1  0.16473382  0.83561551  0.67377185  1
  Sb  Sb89  1  0.67284073  0.16499019  0.49784444  1
  Sb  Sb90  1  0.00498954  0.33293525  0.00206547  1
  Sb  Sb91  1  0.83342906  0.00003661  0.84188951  1
  Sb  Sb92  1  0.50173032  0.50173097  0.66474675  1
  Sb  Sb93  1  0.50157440  -0.00095989  0.15987468  1
  Sb  Sb94  1  0.84112130  0.16816035  0.66687481  1
  Sb  Sb95  1  0.00099109  0.00153256  0.33047960  1
  Sb  Sb96  1  0.16822145  0.66249972  0.50146609  1
  Sb  Sb97  1  -0.00023301  0.16937841  0.16942639  1
  Sb  Sb98  1  0.83468058  0.66660287  0.83562076  1
  Sb  Sb99  1  0.32693973  0.33751150  0.67437344  1
  Sb  Sb100  1  0.66515714  0.66662553  0.32895741  1
  Sb  Sb101  1  0.32732796  0.16769652  0.50177982  1
  Sb  Sb102  1  0.83208075  0.66562336  0.49937428  1
  Sb  Sb103  1  0.16847881  0.16325649  -0.00049793  1
  Sb  Sb104  1  0.49333369  0.16573558  0.67483030  1
  Sb  Sb105  1  0.66123799  0.33384229  0.00200340  1
  Sb  Sb106  1  0.00695219  0.50185934  0.83643240  1
  Sb  Sb107  1  0.84022233  0.33482222  0.49293853  1
  Te  Te108  1  0.16650251  0.15940731  0.17470110  1
  Te  Te109  1  0.16241593  0.17042855  0.49839973  1
  Te  Te110  1  0.17048025  0.16720187  0.83276796  1
  Te  Te111  1  0.16186011  0.50029403  0.16708989  1
  Te  Te112  1  0.16604288  0.49436462  0.49329668  1
  Te  Te113  1  0.17088969  0.50030577  0.83528369  1
  Te  Te114  1  0.16641683  0.84037050  0.15958061  1
  Te  Te115  1  0.16047401  0.83254524  0.50011572  1
  Te  Te116  1  0.16887281  0.83342826  0.83838763  1
  Te  Te117  1  0.50107189  0.17482461  0.15987892  1
  Te  Te118  1  0.50186919  0.16739150  0.50043687  1
  Te  Te119  1  0.49352563  0.16737225  0.83813249  1
  Te  Te120  1  0.50189188  0.50046096  0.17017288  1
  Te  Te121  1  0.50519016  0.50430800  0.49436666  1
  Te  Te122  1  0.49427933  0.50067209  0.83300322  1
  Te  Te123  1  0.50788556  0.82711951  0.16747649  1
  Te  Te124  1  0.50344459  0.82713475  0.50071502  1
  Te  Te125  1  0.49918846  0.83305744  0.83334415  1
  Te  Te126  1  0.83352967  0.16659478  0.16688825  1
  Te  Te127  1  0.84098130  0.16744671  0.49467239  1
  Te  Te128  1  0.83215273  0.16867984  0.83943601  1
  Te  Te129  1  0.83321487  0.49793875  0.16920748  1
  Te  Te130  1  0.82717242  0.49905575  0.49739794  1
  Te  Te131  1  0.83110621  0.49810837  0.82934541  1
  Te  Te132  1  0.82832078  0.83749795  0.16149369  1
  Te  Te133  1  0.83329855  0.83298911  0.50029234  1
  Te  Te134  1  0.82554240  0.83320726  0.84057764  1
  Te  Te135  1  0.16698968  0.00214869  -0.00044213  1
  Te  Te136  1  0.17069000  -0.00003711  0.33244172  1
  Te  Te137  1  0.16265730  0.00387387  0.67015211  1
  Te  Te138  1  0.17164735  0.33495655  -0.00223802  1
  Te  Te139  1  0.16656299  0.33376910  0.32944529  1
  Te  Te140  1  0.16249535  0.33139442  0.66876325  1
  Te  Te141  1  0.16845581  0.66665816  -0.00029110  1
  Te  Te142  1  0.16599326  0.66415563  0.33254748  1
  Te  Te143  1  0.16574308  0.66611682  0.66922096  1
  Te  Te144  1  0.49677393  0.00310348  -0.00180089  1
  Te  Te145  1  0.49959038  0.00213932  0.33187368  1
  Te  Te146  1  0.50315320  0.00137417  0.67326223  1
  Te  Te147  1  0.49605898  0.33261211  -0.00027808  1
  Te  Te148  1  0.49735903  0.33798980  0.32949366  1
  Te  Te149  1  0.50044672  0.33270601  0.67070671  1
  Te  Te150  1  0.49726105  0.66589551  -0.00001940  1
  Te  Te151  1  0.49893742  0.66251867  0.33212998  1
  Te  Te152  1  0.49698820  0.66573591  0.67010740  1
  Te  Te153  1  0.83273486  -0.00078445  0.00232105  1
  Te  Te154  1  0.83090311  0.00141582  0.32675253  1
  Te  Te155  1  0.83652193  0.00100482  0.66717348  1
  Te  Te156  1  0.83385802  0.33160408  0.00667273  1
  Te  Te157  1  0.83457286  0.33322281  0.32846232  1
  Te  Te158  1  0.84062914  0.33674456  0.66777517  1
  Te  Te159  1  0.83821054  0.66972429  0.00030304  1
  Te  Te160  1  0.84041072  0.66093026  0.33289672  1
  Te  Te161  1  0.83839033  0.66149583  0.66760492  1
  Te  Te162  1  -0.00515797  0.16276935  0.00053242  1
  Te  Te163  1  0.00090011  0.16757402  0.33582083  1
  Te  Te164  1  0.00350141  0.16597648  0.66327875  1
  Te  Te165  1  0.00574857  0.50182009  0.00487137  1
  Te  Te166  1  0.00022806  0.49910813  0.33320003  1
  Te  Te167  1  -0.00389031  0.50127362  0.66645212  1
  Te  Te168  1  0.00148139  0.83361446  0.00007094  1
  Te  Te169  1  -0.00065860  0.82929533  0.33812926  1
  Te  Te170  1  -0.00166021  0.83294982  0.66354151  1
  Te  Te171  1  0.33485310  0.16581446  -0.00337617  1
  Te  Te172  1  0.33007223  0.16716326  0.33374639  1
  Te  Te173  1  0.32536585  0.16600363  0.67087346  1
  Te  Te174  1  0.32901764  0.50115653  -0.00152135  1
  Te  Te175  1  0.33225533  0.49915868  0.33295965  1
  Te  Te176  1  0.33324297  0.50672654  0.66964601  1
  Te  Te177  1  0.32903451  0.83415387  -0.00313578  1
  Te  Te178  1  0.33286566  0.83588459  0.33325197  1
  Te  Te179  1  0.33250704  0.82651628  0.67150872  1
  Te  Te180  1  0.66739516  0.16384588  -0.00035075  1
  Te  Te181  1  0.66961920  0.16041659  0.33432727  1
  Te  Te182  1  0.66876151  0.15932062  0.66644301  1
  Te  Te183  1  0.66864176  0.50566952  0.00572496  1
  Te  Te184  1  0.66850014  0.50049771  0.33103696  1
  Te  Te185  1  0.67268899  0.50038136  0.66594924  1
  Te  Te186  1  0.66592769  0.83195049  0.00025228  1
  Te  Te187  1  0.66718445  0.83703127  0.33779852  1
  Te  Te188  1  0.66844966  0.83856290  0.66117344  1
  Te  Te189  1  -0.00112497  -0.00114579  0.16191257  1
  Te  Te190  1  0.00004499  -0.00100091  0.50273703  1
  Te  Te191  1  0.00459421  -0.00148011  0.83428827  1
  Te  Te192  1  -0.00328305  0.33801755  0.16988355  1
  Te  Te193  1  0.00408955  0.33228599  0.49891071  1
  Te  Te194  1  0.00589422  0.33337485  0.83090734  1
  Te  Te195  1  0.00028796  0.66326796  0.16601003  1
  Te  Te196  1  0.00065123  0.67008369  0.50239902  1
  Te  Te197  1  0.00446691  0.66755815  0.83519160  1
  Te  Te198  1  0.33269611  -0.00103939  0.16559599  1
  Te  Te199  1  0.33458344  -0.00117144  0.49432176  1
  Te  Te200  1  0.33310163  0.00046684  0.83484272  1
  Te  Te201  1  0.33733170  0.33319401  0.16471831  1
  Te  Te202  1  0.32689326  0.33345216  0.49529671  1
  Te  Te203  1  0.33262786  0.33165509  0.83437869  1
  Te  Te204  1  0.33930581  0.66723525  0.17120927  1
  Te  Te205  1  0.33873192  0.66831396  0.49033321  1
  Te  Te206  1  0.33171505  0.66667471  0.83763061  1
  Te  Te207  1  0.66737107  -0.00252078  0.16449442  1
  Te  Te208  1  0.66650443  -0.00379553  0.49942064  1
  Te  Te209  1  0.66549184  -0.00435337  0.83664986  1
  Te  Te210  1  0.66603406  0.33852129  0.16607354  1
  Te  Te211  1  0.66498203  0.33865471  0.50159273  1
  Te  Te212  1  0.66085036  0.33458630  0.83354863  1
  Te  Te213  1  0.66415575  0.66710697  0.16375903  1
  Te  Te214  1  0.66226009  0.66681675  0.50094240  1
  Te  Te215  1  0.66401624  0.67206466  0.83819106  1
