# generated using pymatgen
data_AgSbTe2
_symmetry_space_group_name_H-M   'P 1'
_cell_length_a   18.30943603
_cell_length_b   18.31556492
_cell_length_c   18.31524106
_cell_angle_alpha   89.99976128
_cell_angle_beta   90.00190071
_cell_angle_gamma   89.99795183
_symmetry_Int_Tables_number   1
_chemical_formula_structural   AgSbTe2
_chemical_formula_sum   'Ag54 Sb54 Te108'
_cell_volume   6141.97330105
_cell_formula_units_Z   54
loop_
 _symmetry_equiv_pos_site_id
 _symmetry_equiv_pos_as_xyz
  1  'x, y, z'
loop_
 _atom_site_type_symbol
 _atom_site_label
 _atom_site_symmetry_multiplicity
 _atom_site_fract_x
 _atom_site_fract_y
 _atom_site_fract_z
 _atom_site_occupancy
  Ag  Ag0  1  0.83872018  0.00045097  0.16264097  1
  Ag  Ag1  1  0.84153824  0.83682860  -0.00041158  1
  Ag  Ag2  1  0.50126188  0.50384776  0.00053091  1
  Ag  Ag3  1  0.16329750  0.83103532  0.32726263  1
  Ag  Ag4  1  0.84307572  0.32912079  0.15965780  1
  Ag  Ag5  1  0.66337533  0.49918138  0.83394812  1
  Ag  Ag6  1  0.66338446  -0.00059901  0.00091440  1
  Ag  Ag7  1  0.00186510  0.00280011  0.66562561  1
  Ag  Ag8  1  0.16453979  0.83645083  0.00600048  1
  Ag  Ag9  1  0.00368036  0.67022031  0.32934754  1
  Ag  Ag10  1  0.00366660  -0.00441982  0.33531548  1
  Ag  Ag11  1  0.33488794  -0.00203992  0.66942026  1
  Ag  Ag12  1  0.49411064  0.34023466  0.49947723  1
  Ag  Ag13  1  0.83346860  0.49175012  -0.00069394  1
  Ag  Ag14  1  -0.00078663  0.33082030  0.66667245  1
  Ag  Ag15  1  0.33228518  0.67189520  -0.00085701  1
  Ag  Ag16  1  0.33581017  -0.00695548  -0.00341874  1
  Ag  Ag17  1  0.00513445  0.33508666  0.33315308  1
  Ag  Ag18  1  0.33714306  0.83022131  0.50493193  1
  Ag  Ag19  1  0.84080758  0.83318138  0.33116692  1
  Ag  Ag20  1  0.66517514  0.33329000  0.66549818  1
  Ag  Ag21  1  0.49904564  0.67047790  0.83382127  1
  Ag  Ag22  1  0.16674413  0.33771214  0.49484594  1
  Ag  Ag23  1  0.49547295  0.50080336  0.66026425  1
  Ag  Ag24  1  0.00384517  0.66687118  0.00357971  1
  Ag  Ag25  1  0.49501944  0.66602730  0.17070507  1
  Ag  Ag26  1  0.83425544  0.83941421  0.66963180  1
  Ag  Ag27  1  0.83720867  0.33111607  0.83803262  1
  Ag  Ag28  1  0.83675671  0.16562322  0.67233983  1
  Ag  Ag29  1  0.66512232  0.16775059  0.50160795  1
  Ag  Ag30  1  0.49688731  -0.00974165  0.50126866  1
  Ag  Ag31  1  0.33454054  0.83518405  0.83091104  1
  Ag  Ag32  1  0.33365341  0.50133852  0.50288592  1
  Ag  Ag33  1  0.16136494  0.33282712  0.17275300  1
  Ag  Ag34  1  0.16605754  -0.00218287  0.16720133  1
  Ag  Ag35  1  0.16595144  0.49674565  0.33759935  1
  Ag  Ag36  1  0.16923460  0.66940937  0.16783303  1
  Ag  Ag37  1  0.49607600  0.50683470  0.33908144  1
  Ag  Ag38  1  0.83993722  0.16908907  -0.00416135  1
  Ag  Ag39  1  -0.00216598  0.16367714  0.83274330  1
  Ag  Ag40  1  0.65396219  0.66706499  0.33284401  1
  Ag  Ag41  1  0.15980750  0.16232521  0.00696938  1
  Ag  Ag42  1  0.49736504  0.82617900  0.33921519  1
  Ag  Ag43  1  0.16132470  0.17407675  0.32712347  1
  Ag  Ag44  1  0.49685564  0.83295457  0.66216803  1
  Ag  Ag45  1  0.49634232  -0.00756501  0.83202682  1
  Ag  Ag46  1  0.49787030  0.34138408  0.17123912  1
  Ag  Ag47  1  0.17248681  0.49549676  0.65659030  1
  Ag  Ag48  1  0.00146231  0.83670523  0.83469551  1
  Ag  Ag49  1  0.49744456  0.66513879  0.49284358  1
  Ag  Ag50  1  -0.00361000  0.33430951  0.00087367  1
  Ag  Ag51  1  0.33395874  0.33680308  0.66436075  1
  Ag  Ag52  1  0.00991291  0.49762583  0.49875768  1
  Ag  Ag53  1  0.49676782  -0.00495464  0.16541235  1
  Sb  Sb54  1  0.82983452  0.66812292  0.49765068  1
  Sb  Sb55  1  0.84064199  0.16350014  0.33124522  1
  Sb  Sb56  1  0.83578482  0.33321188  0.50056657  1
  Sb  Sb57  1  0.00146201  0.00019330  -0.00035993  1
  Sb  Sb58  1  0.33031915  0.16587552  0.16569801  1
  Sb  Sb59  1  0.66202269  0.66324595  0.66397659  1
  Sb  Sb60  1  0.49602661  0.83191040  0.00005597  1
  Sb  Sb61  1  0.50422768  0.33627079  0.83171717  1
  Sb  Sb62  1  0.50316779  0.16649610  0.66544715  1
  Sb  Sb63  1  0.66809625  0.16638382  0.16873076  1
  Sb  Sb64  1  0.83100444  -0.00096379  0.49819392  1
  Sb  Sb65  1  0.00038827  0.66622953  0.66658700  1
  Sb  Sb66  1  0.32936900  0.33393789  -0.00352524  1
  Sb  Sb67  1  0.33173817  0.83312284  0.16408018  1
  Sb  Sb68  1  0.16958501  0.83153013  0.66642810  1
  Sb  Sb69  1  0.66819311  -0.00403875  0.32978969  1
  Sb  Sb70  1  0.66762042  0.33722047  0.33684667  1
  Sb  Sb71  1  0.16170795  0.17048693  0.66641111  1
  Sb  Sb72  1  0.67314113  0.33153931  -0.00294711  1
  Sb  Sb73  1  0.66446809  0.83144092  0.83444566  1
  Sb  Sb74  1  0.17000531  0.66825763  0.84002895  1
  Sb  Sb75  1  0.32740441  0.33587091  0.33911165  1
  Sb  Sb76  1  0.66383024  0.49977540  0.16310096  1
  Sb  Sb77  1  0.16666349  0.50149504  0.00352391  1
  Sb  Sb78  1  0.33234322  0.66752342  0.32843062  1
  Sb  Sb79  1  0.33039685  -0.00423990  0.33234602  1
  Sb  Sb80  1  0.65984283  0.49662214  0.50396768  1
  Sb  Sb81  1  0.00578479  0.82941498  0.49973812  1
  Sb  Sb82  1  0.83238679  0.49647794  0.67013385  1
  Sb  Sb83  1  0.16844266  -0.00150574  0.83879758  1
  Sb  Sb84  1  0.66582797  0.83361079  0.16653388  1
  Sb  Sb85  1  -0.00257461  0.49982036  0.83150277  1
  Sb  Sb86  1  0.66473538  0.66936955  0.00392034  1
  Sb  Sb87  1  0.00188251  0.49855134  0.17073801  1
  Sb  Sb88  1  0.33910831  0.50505609  0.82853035  1
  Sb  Sb89  1  -0.00157780  0.17128259  0.50418046  1
  Sb  Sb90  1  0.83257970  0.00190864  0.83848016  1
  Sb  Sb91  1  0.67174460  0.16934270  0.83136095  1
  Sb  Sb92  1  0.66562940  0.00361205  0.66970354  1
  Sb  Sb93  1  0.17276196  0.66038580  0.49230173  1
  Sb  Sb94  1  0.50071918  0.16593020  0.00063240  1
  Sb  Sb95  1  0.83071728  0.66545206  0.83573446  1
  Sb  Sb96  1  0.32819605  0.16150845  0.83336481  1
  Sb  Sb97  1  0.83609539  0.50319591  0.32851889  1
  Sb  Sb98  1  0.00205424  0.83488486  0.16305100  1
  Sb  Sb99  1  0.33564672  0.16817120  0.50163316  1
  Sb  Sb100  1  0.33483943  0.50086895  0.17112830  1
  Sb  Sb101  1  0.00165189  0.16710143  0.15997321  1
  Sb  Sb102  1  0.83535458  0.66820729  0.16560759  1
  Sb  Sb103  1  0.16058483  0.33334041  0.83291987  1
  Sb  Sb104  1  0.17067796  0.00296860  0.49463550  1
  Sb  Sb105  1  0.33587904  0.66779188  0.66875640  1
  Sb  Sb106  1  0.65831087  0.83612865  0.49952249  1
  Sb  Sb107  1  0.49600352  0.16729432  0.33478956  1
  Te  Te108  1  0.16655672  0.16785316  0.16695649  1
  Te  Te109  1  0.16652975  0.17443501  0.49491944  1
  Te  Te110  1  0.15873217  0.16569024  0.84015902  1
  Te  Te111  1  0.16894251  0.49861151  0.17253515  1
  Te  Te112  1  0.16976879  0.49845097  0.49814829  1
  Te  Te113  1  0.16789824  0.50138100  0.82728463  1
  Te  Te114  1  0.16745562  0.83338689  0.16689185  1
  Te  Te115  1  0.17458905  0.83307722  0.49656922  1
  Te  Te116  1  0.16634380  0.83248946  0.83647720  1
  Te  Te117  1  0.50005254  0.16461362  0.16745690  1
  Te  Te118  1  0.50327125  0.17194580  0.49875386  1
  Te  Te119  1  0.49977531  0.15914369  0.83399359  1
  Te  Te120  1  0.49898471  0.50052912  0.16667168  1
  Te  Te121  1  0.49890074  0.49994000  0.50046296  1
  Te  Te122  1  0.50284327  0.50185635  0.83370531  1
  Te  Te123  1  0.49862939  0.83357733  0.16990847  1
  Te  Te124  1  0.49723226  0.83260011  0.50103376  1
  Te  Te125  1  0.49787238  0.83287058  0.83269892  1
  Te  Te126  1  0.83329553  0.16576047  0.16280211  1
  Te  Te127  1  0.82801254  0.16579498  0.50371378  1
  Te  Te128  1  0.83713393  0.16854383  0.83364022  1
  Te  Te129  1  0.83211885  0.49570795  0.15934851  1
  Te  Te130  1  0.83669293  0.50099093  0.49993907  1
  Te  Te131  1  0.82941474  0.49705827  0.83806192  1
  Te  Te132  1  0.83307368  0.83672935  0.16690137  1
  Te  Te133  1  0.83310195  0.83351633  0.49957754  1
  Te  Te134  1  0.83597105  0.83363674  0.83307973  1
  Te  Te135  1  0.16809119  -0.00207208  0.00479445  1
  Te  Te136  1  0.16410962  -0.00629265  0.32944323  1
  Te  Te137  1  0.16583592  0.00049889  0.66473280  1
  Te  Te138  1  0.16337785  0.33228446  0.00458284  1
  Te  Te139  1  0.16516623  0.33651918  0.33273998  1
  Te  Te140  1  0.16389741  0.33538996  0.66543439  1
  Te  Te141  1  0.16448325  0.66770907  0.00633325  1
  Te  Te142  1  0.16529690  0.66830240  0.32781831  1
  Te  Te143  1  0.16675784  0.65904822  0.66542395  1
  Te  Te144  1  0.49747048  -0.00020739  0.00369515  1
  Te  Te145  1  0.49975514  -0.00093068  0.33108440  1
  Te  Te146  1  0.49861002  -0.00081951  0.66553032  1
  Te  Te147  1  0.49924861  0.33647344  0.00185969  1
  Te  Te148  1  0.50014027  0.33489258  0.33277031  1
  Te  Te149  1  0.49944299  0.33412981  0.66614872  1
  Te  Te150  1  0.50000652  0.66518869  0.00225986  1
  Te  Te151  1  0.49602765  0.66698515  0.33220694  1
  Te  Te152  1  0.50000926  0.66807961  0.66859045  1
  Te  Te153  1  0.83523240  -0.00097886  0.00356498  1
  Te  Te154  1  0.83665392  -0.00492055  0.32852482  1
  Te  Te155  1  0.83549621  -0.00049974  0.66688378  1
  Te  Te156  1  0.83495628  0.33237528  0.00060281  1
  Te  Te157  1  0.83827157  0.33319869  0.32708377  1
  Te  Te158  1  0.83807562  0.33227038  0.66693342  1
  Te  Te159  1  0.83732901  0.67091809  0.00155068  1
  Te  Te160  1  0.84188330  0.67241067  0.33099218  1
  Te  Te161  1  0.83141422  0.67546664  0.66650343  1
  Te  Te162  1  -0.00017053  0.16735287  -0.00583583  1
  Te  Te163  1  0.00408787  0.16784385  0.33660178  1
  Te  Te164  1  -0.00322105  0.16699305  0.67066882  1
  Te  Te165  1  -0.00229650  0.49982143  -0.00100801  1
  Te  Te166  1  0.00076454  0.49830319  0.33726858  1
  Te  Te167  1  0.00041119  0.49697589  0.66305041  1
  Te  Te168  1  0.00232845  0.83355066  -0.00325138  1
  Te  Te169  1  0.00174278  0.83237924  0.33534180  1
  Te  Te170  1  0.00011044  0.83475617  0.66905576  1
  Te  Te171  1  0.32688990  0.16275050  -0.00145299  1
  Te  Te172  1  0.32248893  0.16518918  0.33367403  1
  Te  Te173  1  0.33108754  0.16300049  0.66761434  1
  Te  Te174  1  0.33680897  0.50304074  -0.00248332  1
  Te  Te175  1  0.33459353  0.50097274  0.34042639  1
  Te  Te176  1  0.33522801  0.49876026  0.66328348  1
  Te  Te177  1  0.32986981  0.83365424  -0.00323710  1
  Te  Te178  1  0.33572272  0.83318331  0.33963442  1
  Te  Te179  1  0.33617044  0.83575583  0.66884125  1
  Te  Te180  1  0.67259871  0.16092450  0.00039812  1
  Te  Te181  1  0.66891745  0.16731581  0.34011749  1
  Te  Te182  1  0.67362057  0.17152833  0.66425762  1
  Te  Te183  1  0.66509684  0.50069738  -0.00412992  1
  Te  Te184  1  0.66415024  0.50567040  0.33401027  1
  Te  Te185  1  0.66299357  0.49489598  0.67085854  1
  Te  Te186  1  0.67540262  0.83808112  -0.00089232  1
  Te  Te187  1  0.66490517  0.82850440  0.33354295  1
  Te  Te188  1  0.66700771  0.83413317  0.66725725  1
  Te  Te189  1  0.00155688  0.00093434  0.17332343  1
  Te  Te190  1  0.00068382  -0.00089724  0.50091721  1
  Te  Te191  1  -0.00025486  -0.00223108  0.82762545  1
  Te  Te192  1  0.00130754  0.33293103  0.16529148  1
  Te  Te193  1  0.00251294  0.33624829  0.50043374  1
  Te  Te194  1  -0.00421186  0.33348248  0.83375702  1
  Te  Te195  1  0.00363767  0.66598684  0.16601067  1
  Te  Te196  1  0.00040547  0.66079546  0.49691538  1
  Te  Te197  1  -0.00012711  0.67195099  0.83762425  1
  Te  Te198  1  0.33265233  -0.00017548  0.16136752  1
  Te  Te199  1  0.33803789  -0.00106921  0.50415962  1
  Te  Te200  1  0.33573287  -0.00398924  0.83240418  1
  Te  Te201  1  0.33703049  0.33316341  0.16440990  1
  Te  Te202  1  0.33397172  0.33491159  0.50480110  1
  Te  Te203  1  0.33351424  0.33186106  0.82517023  1
  Te  Te204  1  0.33395854  0.66625998  0.15790552  1
  Te  Te205  1  0.33913324  0.66604951  0.50212323  1
  Te  Te206  1  0.33777407  0.67274542  0.83904966  1
  Te  Te207  1  0.66419363  0.00036790  0.16212685  1
  Te  Te208  1  0.65923281  0.00568802  0.49911419  1
  Te  Te209  1  0.65939854  0.00038352  0.83878853  1
  Te  Te210  1  0.66039665  0.33278542  0.16765098  1
  Te  Te211  1  0.66431284  0.33025575  0.50410993  1
  Te  Te212  1  0.67252193  0.33617805  0.82852798  1
  Te  Te213  1  0.65955526  0.66637817  0.17283236  1
  Te  Te214  1  0.65964442  0.66640465  0.49355223  1
  Te  Te215  1  0.65973693  0.66084005  0.83463097  1
