# generated using pymatgen
data_AgSbTe2
_symmetry_space_group_name_H-M   'P 1'
_cell_length_a   18.33084339
_cell_length_b   18.33572866
_cell_length_c   18.33711351
_cell_angle_alpha   90.00141116
_cell_angle_beta   89.99633119
_cell_angle_gamma   90.00285877
_symmetry_Int_Tables_number   1
_chemical_formula_structural   AgSbTe2
_chemical_formula_sum   'Ag54 Sb54 Te108'
_cell_volume   6163.27565723
_cell_formula_units_Z   54
loop_
 _symmetry_equiv_pos_site_id
 _symmetry_equiv_pos_as_xyz
  1  'x, y, z'
loop_
 _atom_site_type_symbol
 _atom_site_label
 _atom_site_symmetry_multiplicity
 _atom_site_fract_x
 _atom_site_fract_y
 _atom_site_fract_z
 _atom_site_occupancy
  Ag  Ag0  1  0.16689623  0.83542928  0.00370233  1
  Ag  Ag1  1  0.17435639  0.00055598  0.16423677  1
  Ag  Ag2  1  0.33322674  0.16298818  0.16564672  1
  Ag  Ag3  1  0.33925700  0.33177034  0.32424912  1
  Ag  Ag4  1  0.33438533  0.16129719  0.49713193  1
  Ag  Ag5  1  0.67108860  0.50185579  0.49793993  1
  Ag  Ag6  1  0.49934978  0.32857261  0.49503677  1
  Ag  Ag7  1  -0.00696255  0.66811332  0.00583350  1
  Ag  Ag8  1  0.16701391  0.32639240  0.16750985  1
  Ag  Ag9  1  0.00537071  -0.00335920  0.66888491  1
  Ag  Ag10  1  0.49603642  0.16693910  0.00211768  1
  Ag  Ag11  1  0.49790548  0.32510955  0.84812144  1
  Ag  Ag12  1  0.65531561  -0.00567216  0.00674241  1
  Ag  Ag13  1  0.00311386  0.17179975  0.16549754  1
  Ag  Ag14  1  0.83661258  0.83518339  0.66306415  1
  Ag  Ag15  1  0.33294284  0.84436510  0.16699817  1
  Ag  Ag16  1  0.83566555  0.15783040  0.66122247  1
  Ag  Ag17  1  0.49275355  0.33030006  0.16442147  1
  Ag  Ag18  1  0.83401430  0.67529856  0.83696258  1
  Ag  Ag19  1  0.83513200  -0.00496675  0.83080689  1
  Ag  Ag20  1  0.33596842  0.84312218  0.49432636  1
  Ag  Ag21  1  0.17225513  0.32850216  0.49382476  1
  Ag  Ag22  1  0.83221140  0.50081523  0.33583245  1
  Ag  Ag23  1  0.17401330  -0.00261604  0.83189139  1
  Ag  Ag24  1  0.66818908  0.83417096  0.16936975  1
  Ag  Ag25  1  0.83227909  0.17622764  0.33374404  1
  Ag  Ag26  1  0.49506053  0.00416446  0.49969073  1
  Ag  Ag27  1  0.83876076  0.66847560  0.16991629  1
  Ag  Ag28  1  0.50486126  0.49661790  0.66863958  1
  Ag  Ag29  1  0.66993401  0.83368826  0.49291831  1
  Ag  Ag30  1  0.33655855  0.16064765  0.84652559  1
  Ag  Ag31  1  0.49240775  0.00341281  0.84427537  1
  Ag  Ag32  1  0.50523619  0.67182717  0.16236404  1
  Ag  Ag33  1  0.49330965  0.00050667  0.15974029  1
  Ag  Ag34  1  0.83565264  0.33563382  0.17105518  1
  Ag  Ag35  1  0.16046902  0.84074713  0.66864982  1
  Ag  Ag36  1  0.33064699  -0.00063235  0.66929819  1
  Ag  Ag37  1  -0.00787044  0.66853782  0.32296607  1
  Ag  Ag38  1  0.33689629  0.67394466  0.00411853  1
  Ag  Ag39  1  0.83178553  0.83011540  0.33395717  1
  Ag  Ag40  1  -0.00214778  0.83772759  0.83847556  1
  Ag  Ag41  1  0.33630670  0.32089727  0.00816314  1
  Ag  Ag42  1  0.82785931  0.33717702  0.48929445  1
  Ag  Ag43  1  0.66826871  0.00032470  0.32864880  1
  Ag  Ag44  1  -0.00367920  0.49946087  0.16548395  1
  Ag  Ag45  1  0.66923967  0.32965839  0.33300512  1
  Ag  Ag46  1  0.33708596  0.00200351  0.00280448  1
  Ag  Ag47  1  0.66722446  0.67340285  0.00550168  1
  Ag  Ag48  1  0.00470314  0.33548718  0.00707271  1
  Ag  Ag49  1  -0.00175395  0.83273916  0.16251319  1
  Ag  Ag50  1  0.49861765  0.49203914  0.00091893  1
  Ag  Ag51  1  0.17638123  0.00065009  0.50473914  1
  Ag  Ag52  1  0.83167703  0.66480538  0.49127573  1
  Ag  Ag53  1  0.83069856  0.50212952  0.65793394  1
  Sb  Sb54  1  0.66180258  0.16418634  0.83484696  1
  Sb  Sb55  1  0.66634940  0.33467673  0.65926602  1
  Sb  Sb56  1  0.50059414  0.16867334  0.66842254  1
  Sb  Sb57  1  0.50569718  0.66634140  0.49400530  1
  Sb  Sb58  1  0.66981168  0.50346071  0.17061069  1
  Sb  Sb59  1  0.33599345  0.49462017  0.83568814  1
  Sb  Sb60  1  0.16436886  0.16678428  0.33074839  1
  Sb  Sb61  1  0.34157172  0.49483618  0.50011778  1
  Sb  Sb62  1  -0.00561577  0.67335364  0.66967897  1
  Sb  Sb63  1  0.82927273  0.50297193  0.00388819  1
  Sb  Sb64  1  0.00363726  0.16022497  0.83869832  1
  Sb  Sb65  1  0.16202385  0.67163514  0.49954724  1
  Sb  Sb66  1  0.83079474  -0.00022795  0.50255794  1
  Sb  Sb67  1  0.33540316  0.67636934  0.67191414  1
  Sb  Sb68  1  0.33083453  0.66479914  0.32729180  1
  Sb  Sb69  1  0.66696845  0.50077498  0.83176381  1
  Sb  Sb70  1  0.83020428  0.16492626  0.00251848  1
  Sb  Sb71  1  0.15945051  0.49601101  0.32991455  1
  Sb  Sb72  1  0.33220059  0.49585132  0.16530332  1
  Sb  Sb73  1  0.50369119  0.66853783  0.84203486  1
  Sb  Sb74  1  0.82936422  0.33211607  0.83470627  1
  Sb  Sb75  1  0.66390446  0.16152053  0.16812769  1
  Sb  Sb76  1  0.16256288  0.67054764  0.16506617  1
  Sb  Sb77  1  0.50169564  0.16747914  0.32868475  1
  Sb  Sb78  1  0.16465224  0.50286444  0.66305790  1
  Sb  Sb79  1  -0.00256765  0.32808768  0.67036628  1
  Sb  Sb80  1  0.49523831  0.83757653  0.00271476  1
  Sb  Sb81  1  0.17326010  0.15972280  0.00370969  1
  Sb  Sb82  1  -0.00269024  0.83506127  0.49973693  1
  Sb  Sb83  1  0.33868511  0.00505282  0.33118344  1
  Sb  Sb84  1  0.00143885  0.16656362  0.49473909  1
  Sb  Sb85  1  0.33558028  0.32521679  0.66692397  1
  Sb  Sb86  1  0.17009009  0.50232337  0.00155368  1
  Sb  Sb87  1  -0.00359225  0.50641319  0.83892127  1
  Sb  Sb88  1  0.50147827  0.83332693  0.66420142  1
  Sb  Sb89  1  -0.00843203  0.49863136  0.49422364  1
  Sb  Sb90  1  0.66897148  0.66799579  0.66927101  1
  Sb  Sb91  1  0.66283825  0.16548368  0.49784883  1
  Sb  Sb92  1  -0.00528501  -0.00274317  0.33417676  1
  Sb  Sb93  1  0.66173923  0.33351102  0.00840349  1
  Sb  Sb94  1  0.32840273  0.84127626  0.83936100  1
  Sb  Sb95  1  0.16113621  0.67718184  0.83674173  1
  Sb  Sb96  1  -0.00497911  0.33525716  0.32509990  1
  Sb  Sb97  1  0.83822623  0.83234422  0.00233460  1
  Sb  Sb98  1  0.50482380  0.83584371  0.33009802  1
  Sb  Sb99  1  0.50744501  0.49566917  0.33022251  1
  Sb  Sb100  1  0.66487748  -0.00162749  0.66620276  1
  Sb  Sb101  1  0.16542858  0.15895000  0.66430996  1
  Sb  Sb102  1  0.17216100  0.32419172  0.83838837  1
  Sb  Sb103  1  0.16342840  0.83646536  0.33107795  1
  Sb  Sb104  1  0.67279856  0.83572387  0.83842857  1
  Sb  Sb105  1  0.83259790  -0.00215970  0.16457496  1
  Sb  Sb106  1  0.00320516  -0.00182285  -0.00124862  1
  Sb  Sb107  1  0.67265417  0.66905938  0.32812664  1
  Te  Te108  1  0.16745056  0.16633429  0.16680666  1
  Te  Te109  1  0.17036755  0.16761031  0.49790872  1
  Te  Te110  1  0.17389246  0.15749509  0.83264834  1
  Te  Te111  1  0.15832165  0.49051127  0.16531323  1
  Te  Te112  1  0.16681004  0.49489691  0.49951087  1
  Te  Te113  1  0.16613767  0.49927631  0.83050640  1
  Te  Te114  1  0.16849849  0.83665684  0.16548693  1
  Te  Te115  1  0.16982419  0.83662242  0.50182731  1
  Te  Te116  1  0.16200107  0.84024277  0.83129416  1
  Te  Te117  1  0.49745451  0.16619225  0.16411868  1
  Te  Te118  1  0.49607771  0.16800125  0.50103504  1
  Te  Te119  1  0.49610789  0.16470735  0.83425799  1
  Te  Te120  1  0.50066387  0.49613197  0.16313442  1
  Te  Te121  1  0.50766783  0.49840297  0.50181044  1
  Te  Te122  1  0.50047515  0.49788253  0.83302542  1
  Te  Te123  1  0.49888170  0.83569433  0.16729961  1
  Te  Te124  1  0.49944892  0.83381269  0.49836542  1
  Te  Te125  1  0.50164326  0.83990109  0.83079950  1
  Te  Te126  1  0.83400322  0.16827909  0.16914907  1
  Te  Te127  1  0.83383854  0.16993316  0.49906059  1
  Te  Te128  1  0.83432617  0.16426289  0.83038003  1
  Te  Te129  1  0.83580086  0.50108543  0.16809540  1
  Te  Te130  1  0.83102664  0.49946668  0.49798420  1
  Te  Te131  1  0.83267920  0.50227015  0.82642366  1
  Te  Te132  1  0.83356449  0.83134747  0.16837563  1
  Te  Te133  1  0.83143187  0.83287283  0.49956333  1
  Te  Te134  1  0.83633081  0.83373018  0.83051245  1
  Te  Te135  1  0.16922944  -0.00471524  0.00375056  1
  Te  Te136  1  0.16361301  0.00075786  0.33032606  1
  Te  Te137  1  0.16898304  -0.00225527  0.66433531  1
  Te  Te138  1  0.17014516  0.33397381  0.00319728  1
  Te  Te139  1  0.17001943  0.33263136  0.33322517  1
  Te  Te140  1  0.16603353  0.33400756  0.66377364  1
  Te  Te141  1  0.17025282  0.67135321  -0.00058138  1
  Te  Te142  1  0.15711157  0.66480938  0.33449696  1
  Te  Te143  1  0.16590265  0.67578991  0.66744915  1
  Te  Te144  1  0.49835161  0.00098534  0.00207813  1
  Te  Te145  1  0.50786276  0.00142200  0.33687359  1
  Te  Te146  1  0.49592119  0.00124879  0.66009537  1
  Te  Te147  1  0.49892350  0.33191759  0.00386661  1
  Te  Te148  1  0.50176615  0.33277713  0.33343032  1
  Te  Te149  1  0.49984039  0.33685243  0.65946840  1
  Te  Te150  1  0.49985831  0.66682175  0.00356772  1
  Te  Te151  1  0.49942157  0.66404384  0.32274250  1
  Te  Te152  1  0.50058987  0.65890271  0.66873518  1
  Te  Te153  1  0.83120033  0.00039349  -0.00742919  1
  Te  Te154  1  0.82806396  -0.00713034  0.33440794  1
  Te  Te155  1  0.83144778  -0.00246660  0.66868464  1
  Te  Te156  1  0.83385737  0.33403285  0.00435264  1
  Te  Te157  1  0.83450156  0.33444355  0.33219358  1
  Te  Te158  1  0.83387772  0.33758970  0.66608108  1
  Te  Te159  1  0.83311751  0.66598011  0.00390361  1
  Te  Te160  1  0.83303005  0.66808066  0.33185533  1
  Te  Te161  1  0.83286024  0.66825113  0.66627377  1
  Te  Te162  1  -0.00146309  0.17100165  0.00613370  1
  Te  Te163  1  -0.00849295  0.16499334  0.32617656  1
  Te  Te164  1  -0.00551662  0.16036262  0.66902801  1
  Te  Te165  1  0.00019224  0.50135777  0.00496684  1
  Te  Te166  1  -0.00733521  0.50568640  0.32767441  1
  Te  Te167  1  -0.00386116  0.49996168  0.66891816  1
  Te  Te168  1  0.00442284  0.83232741  0.00056467  1
  Te  Te169  1  -0.00458518  0.82989609  0.32980250  1
  Te  Te170  1  -0.00153015  0.83739358  0.66694039  1
  Te  Te171  1  0.33563109  0.16417018  0.00400302  1
  Te  Te172  1  0.33360839  0.17323273  0.33225921  1
  Te  Te173  1  0.33286395  0.15872072  0.65912041  1
  Te  Te174  1  0.33820124  0.50375440  -0.00054895  1
  Te  Te175  1  0.33289071  0.49369970  0.33401527  1
  Te  Te176  1  0.33516160  0.50276151  0.66751941  1
  Te  Te177  1  0.32919432  0.83659535  0.00462173  1
  Te  Te178  1  0.33236331  0.83046501  0.33125177  1
  Te  Te179  1  0.33344785  0.83948417  0.66162616  1
  Te  Te180  1  0.65953587  0.16085107  0.00071940  1
  Te  Te181  1  0.67354708  0.16628812  0.33316392  1
  Te  Te182  1  0.67705176  0.16674201  0.66692154  1
  Te  Te183  1  0.65995844  0.50327704  0.00020412  1
  Te  Te184  1  0.67293804  0.49480315  0.33754926  1
  Te  Te185  1  0.66804080  0.50111329  0.66174256  1
  Te  Te186  1  0.66728609  0.83386644  0.00498355  1
  Te  Te187  1  0.67011109  0.83494991  0.33179679  1
  Te  Te188  1  0.67221554  0.83317851  0.66002639  1
  Te  Te189  1  0.00090293  -0.00434589  0.16651614  1
  Te  Te190  1  0.00672974  0.00142784  0.50576528  1
  Te  Te191  1  -0.00204028  -0.00268648  0.83128008  1
  Te  Te192  1  -0.00102067  0.33144108  0.16462458  1
  Te  Te193  1  0.00080366  0.33199104  0.50120366  1
  Te  Te194  1  0.00157055  0.33288322  0.84306079  1
  Te  Te195  1  0.00068721  0.67049568  0.16333603  1
  Te  Te196  1  -0.00674974  0.66647467  0.49924111  1
  Te  Te197  1  -0.00582529  0.67361056  0.83992793  1
  Te  Te198  1  0.33423608  0.00153214  0.16850018  1
  Te  Te199  1  0.33395521  0.00047712  0.49197905  1
  Te  Te200  1  0.33352265  0.00057537  0.83528677  1
  Te  Te201  1  0.33343932  0.33393286  0.16573250  1
  Te  Te202  1  0.33519635  0.33165471  0.50101060  1
  Te  Te203  1  0.33821497  0.32569334  0.83631967  1
  Te  Te204  1  0.33252753  0.66592977  0.16391342  1
  Te  Te205  1  0.33364089  0.66968084  0.49931912  1
  Te  Te206  1  0.33356475  0.66873927  0.84051084  1
  Te  Te207  1  0.66657420  -0.00443763  0.16691612  1
  Te  Te208  1  0.66268532  -0.00318244  0.49782717  1
  Te  Te209  1  0.66539702  -0.00090680  0.83744806  1
  Te  Te210  1  0.67005314  0.33416564  0.17214541  1
  Te  Te211  1  0.66789976  0.33223422  0.49481236  1
  Te  Te212  1  0.65862994  0.33280586  0.83480480  1
  Te  Te213  1  0.66639983  0.66991540  0.16419311  1
  Te  Te214  1  0.67088277  0.66870126  0.49945205  1
  Te  Te215  1  0.67296162  0.66801874  0.84263075  1
