# generated using pymatgen
data_AgSbTe2
_symmetry_space_group_name_H-M   'P 1'
_cell_length_a   18.32636635
_cell_length_b   18.33965418
_cell_length_c   18.32971837
_cell_angle_alpha   89.99988159
_cell_angle_beta   89.99994326
_cell_angle_gamma   89.99964198
_symmetry_Int_Tables_number   1
_chemical_formula_structural   AgSbTe2
_chemical_formula_sum   'Ag54 Sb54 Te108'
_cell_volume   6160.60406902
_cell_formula_units_Z   54
loop_
 _symmetry_equiv_pos_site_id
 _symmetry_equiv_pos_as_xyz
  1  'x, y, z'
loop_
 _atom_site_type_symbol
 _atom_site_label
 _atom_site_symmetry_multiplicity
 _atom_site_fract_x
 _atom_site_fract_y
 _atom_site_fract_z
 _atom_site_occupancy
  Ag  Ag0  1  0.50862863  0.67084677  0.16134760  1
  Ag  Ag1  1  0.50843214  0.83388192  0.33469261  1
  Ag  Ag2  1  0.67334121  -0.00897263  0.33644301  1
  Ag  Ag3  1  0.15968027  0.15447192  0.33243207  1
  Ag  Ag4  1  0.18116979  0.83413318  0.66185360  1
  Ag  Ag5  1  0.33232822  -0.00653292  0.67068476  1
  Ag  Ag6  1  0.49493462  0.16324634  0.66742969  1
  Ag  Ag7  1  0.67023462  0.67934450  0.32396199  1
  Ag  Ag8  1  0.00246784  0.00391338  -0.00068044  1
  Ag  Ag9  1  0.34294456  0.83491142  0.50992125  1
  Ag  Ag10  1  0.66723450  0.33208144  0.33320752  1
  Ag  Ag11  1  0.16727735  -0.00587617  0.16968480  1
  Ag  Ag12  1  0.65643417  0.83363275  0.83373821  1
  Ag  Ag13  1  0.82153055  0.83470894  0.33548342  1
  Ag  Ag14  1  0.50230669  0.32786785  0.50039879  1
  Ag  Ag15  1  0.49501247  0.83323487  0.66515740  1
  Ag  Ag16  1  0.50619550  -0.00482191  0.50148639  1
  Ag  Ag17  1  0.49987633  0.33873769  0.16738436  1
  Ag  Ag18  1  0.00102577  0.16502616  0.82821820  1
  Ag  Ag19  1  0.16900563  0.83675538  0.33345305  1
  Ag  Ag20  1  0.16855583  0.67303753  0.16622739  1
  Ag  Ag21  1  0.34150844  0.83317262  0.16720271  1
  Ag  Ag22  1  0.66096081  0.83771468  0.49104370  1
  Ag  Ag23  1  0.83340850  0.15551778  0.33714876  1
  Ag  Ag24  1  0.82963508  0.50631913  0.33073482  1
  Ag  Ag25  1  0.83648440  0.32592480  0.83358572  1
  Ag  Ag26  1  0.49849623  0.50597111  0.66733491  1
  Ag  Ag27  1  0.16301852  0.50016921  0.00453278  1
  Ag  Ag28  1  0.50251212  0.50587073  0.00234581  1
  Ag  Ag29  1  0.33777028  0.32884323  0.66704411  1
  Ag  Ag30  1  0.83249745  0.67449399  0.49239015  1
  Ag  Ag31  1  0.83070433  0.50146691  0.00511524  1
  Ag  Ag32  1  0.50090613  0.67326840  0.83691479  1
  Ag  Ag33  1  0.17091807  0.33380590  0.16658260  1
  Ag  Ag34  1  0.66279322  0.66845851  0.01197784  1
  Ag  Ag35  1  0.65909735  0.82456127  0.17870318  1
  Ag  Ag36  1  0.66575101  0.51306188  0.16809509  1
  Ag  Ag37  1  -0.00669780  0.16429250  0.50420451  1
  Ag  Ag38  1  0.00317024  0.00131810  0.66262430  1
  Ag  Ag39  1  0.50031451  0.83183850  0.00001716  1
  Ag  Ag40  1  -0.00771701  0.00111116  0.33991966  1
  Ag  Ag41  1  0.33858153  0.83866465  0.82227670  1
  Ag  Ag42  1  0.33519663  0.15889783  0.83017908  1
  Ag  Ag43  1  0.00327411  0.32673682  0.66809839  1
  Ag  Ag44  1  -0.00050376  0.33001795  -0.00400632  1
  Ag  Ag45  1  0.33555125  0.68124714  0.66698307  1
  Ag  Ag46  1  0.83725945  0.00119210  0.82781164  1
  Ag  Ag47  1  0.49876858  0.15952508  -0.00492510  1
  Ag  Ag48  1  -0.00345541  0.49488819  0.50180439  1
  Ag  Ag49  1  0.33391670  -0.00327837  -0.00643948  1
  Ag  Ag50  1  0.66920782  0.15611747  0.49671366  1
  Ag  Ag51  1  0.82103547  0.66568739  0.17476541  1
  Ag  Ag52  1  0.82871892  -0.00272921  0.49628466  1
  Ag  Ag53  1  0.00303368  0.67332438  0.66445382  1
  Sb  Sb54  1  0.66541309  0.50496637  0.83987565  1
  Sb  Sb55  1  0.83071874  0.33084668  0.50093457  1
  Sb  Sb56  1  0.66766038  0.33858261  0.00466865  1
  Sb  Sb57  1  -0.00310646  0.66649790  -0.00360763  1
  Sb  Sb58  1  0.82699310  0.83069561  0.00487781  1
  Sb  Sb59  1  -0.00317325  0.83767284  0.49935955  1
  Sb  Sb60  1  0.00025203  0.84006101  0.83034237  1
  Sb  Sb61  1  0.33378953  -0.00376930  0.33584474  1
  Sb  Sb62  1  0.16222380  0.66982736  0.49612337  1
  Sb  Sb63  1  -0.00034076  0.83336460  0.16790841  1
  Sb  Sb64  1  0.82992084  0.16800479  0.00283157  1
  Sb  Sb65  1  -0.00742426  0.67304520  0.33637572  1
  Sb  Sb66  1  0.33873927  0.67173428  0.33525943  1
  Sb  Sb67  1  0.33586029  0.50142207  0.83412294  1
  Sb  Sb68  1  0.16765780  0.16738658  0.00384476  1
  Sb  Sb69  1  0.66459952  0.33214462  0.66238016  1
  Sb  Sb70  1  0.50546715  0.67241557  0.49937694  1
  Sb  Sb71  1  -0.00270059  0.49448826  0.83080707  1
  Sb  Sb72  1  0.66926892  0.50297359  0.49395996  1
  Sb  Sb73  1  0.50725044  0.50461779  0.33240746  1
  Sb  Sb74  1  0.16467420  -0.00132331  0.49618472  1
  Sb  Sb75  1  0.66498506  -0.00590246  0.00416208  1
  Sb  Sb76  1  0.16638412  -0.00043277  0.83572030  1
  Sb  Sb77  1  0.16752193  0.16187233  0.66232087  1
  Sb  Sb78  1  -0.00430352  0.32814775  0.33390887  1
  Sb  Sb79  1  0.50240848  0.16201389  0.33572579  1
  Sb  Sb80  1  0.50368443  0.33466613  0.83344032  1
  Sb  Sb81  1  0.33470236  0.16127032  0.16262985  1
  Sb  Sb82  1  0.16880958  0.50376855  0.67011386  1
  Sb  Sb83  1  0.33886049  0.33097210  0.33548301  1
  Sb  Sb84  1  0.33871482  0.50589344  0.16522653  1
  Sb  Sb85  1  0.15750315  0.50362647  0.32723046  1
  Sb  Sb86  1  0.83353082  0.16452014  0.66243761  1
  Sb  Sb87  1  0.50141443  -0.00659263  0.82864030  1
  Sb  Sb88  1  0.83612324  -0.00638185  0.17172533  1
  Sb  Sb89  1  0.66365204  -0.00201370  0.65903528  1
  Sb  Sb90  1  0.49702311  -0.00685580  0.16946653  1
  Sb  Sb91  1  0.33313122  0.50500036  0.50345503  1
  Sb  Sb92  1  -0.00510260  0.50038120  0.16852538  1
  Sb  Sb93  1  0.82950975  0.83501744  0.66188594  1
  Sb  Sb94  1  0.83113375  0.50026730  0.66606760  1
  Sb  Sb95  1  0.17336444  0.83222099  0.00286185  1
  Sb  Sb96  1  0.34247450  0.67308091  -0.00224058  1
  Sb  Sb97  1  0.66421116  0.16309560  0.17273883  1
  Sb  Sb98  1  0.33205690  0.32935882  -0.00324810  1
  Sb  Sb99  1  0.83091645  0.33889787  0.16593586  1
  Sb  Sb100  1  0.17200085  0.66969386  0.83610114  1
  Sb  Sb101  1  0.16408989  0.33196870  0.83601621  1
  Sb  Sb102  1  0.16919148  0.33143793  0.49605276  1
  Sb  Sb103  1  0.00079410  0.16631560  0.16774951  1
  Sb  Sb104  1  0.66597811  0.16038167  0.82800441  1
  Sb  Sb105  1  0.82874534  0.67031605  0.83290234  1
  Sb  Sb106  1  0.66275794  0.66908781  0.66381087  1
  Sb  Sb107  1  0.33690277  0.15995035  0.50511777  1
  Te  Te108  1  0.16793568  0.16842782  0.17166076  1
  Te  Te109  1  0.16069009  0.16646783  0.49337557  1
  Te  Te110  1  0.16542920  0.16649713  0.83312935  1
  Te  Te111  1  0.16777782  0.49828324  0.16338754  1
  Te  Te112  1  0.15901023  0.50040639  0.49983824  1
  Te  Te113  1  0.16687234  0.50089568  0.84343071  1
  Te  Te114  1  0.16603407  0.83404353  0.16687278  1
  Te  Te115  1  0.17012726  0.83334682  0.50034224  1
  Te  Te116  1  0.17418419  0.83303235  0.82842145  1
  Te  Te117  1  0.49897505  0.17286235  0.16375649  1
  Te  Te118  1  0.50163450  0.16648077  0.50102137  1
  Te  Te119  1  0.49836463  0.16658991  0.83239365  1
  Te  Te120  1  0.50377841  0.50089857  0.16622842  1
  Te  Te121  1  0.50048327  0.49599735  0.50263316  1
  Te  Te122  1  0.50062210  0.50493944  0.83361762  1
  Te  Te123  1  0.50071107  0.83259322  0.16739458  1
  Te  Te124  1  0.50128667  0.83298940  0.49914034  1
  Te  Te125  1  0.49794320  0.83381143  0.83381182  1
  Te  Te126  1  0.83223244  0.16786338  0.17520501  1
  Te  Te127  1  0.83208890  0.16444683  0.49674276  1
  Te  Te128  1  0.83532222  0.16363489  0.83427692  1
  Te  Te129  1  0.82868514  0.50390568  0.16656777  1
  Te  Te130  1  0.83657158  0.50032610  0.49867677  1
  Te  Te131  1  0.83157606  0.49880028  0.83832770  1
  Te  Te132  1  0.83077264  0.82636043  0.17227285  1
  Te  Te133  1  0.83075572  0.83536349  0.49651180  1
  Te  Te134  1  0.83162246  0.83909760  0.83412608  1
  Te  Te135  1  0.16586553  -0.00012047  0.00562182  1
  Te  Te136  1  0.16750817  -0.00173985  0.33044360  1
  Te  Te137  1  0.16667019  -0.00443248  0.66620277  1
  Te  Te138  1  0.16357827  0.33550803  0.00445646  1
  Te  Te139  1  0.16659576  0.33489347  0.32744330  1
  Te  Te140  1  0.16356770  0.33429903  0.66561902  1
  Te  Te141  1  0.16597441  0.66267106  0.00379182  1
  Te  Te142  1  0.16525541  0.67101626  0.32790376  1
  Te  Te143  1  0.16761349  0.67032063  0.66714900  1
  Te  Te144  1  0.49768229  -0.00061683  0.00087297  1
  Te  Te145  1  0.50201038  -0.00437256  0.33845043  1
  Te  Te146  1  0.49781660  -0.00023074  0.66328557  1
  Te  Te147  1  0.50006463  0.33852467  0.00187372  1
  Te  Te148  1  0.50343914  0.33282246  0.33328202  1
  Te  Te149  1  0.49962623  0.33069262  0.66640828  1
  Te  Te150  1  0.50174997  0.66819597  0.00071142  1
  Te  Te151  1  0.50586075  0.67154688  0.32903505  1
  Te  Te152  1  0.49733522  0.66763053  0.66564583  1
  Te  Te153  1  0.83782690  -0.00007711  0.00108415  1
  Te  Te154  1  0.83385439  -0.00311062  0.33438285  1
  Te  Te155  1  0.83861822  0.00064493  0.66427012  1
  Te  Te156  1  0.83706916  0.33599237  -0.00203067  1
  Te  Te157  1  0.82986600  0.33632571  0.33309456  1
  Te  Te158  1  0.83848141  0.33290775  0.67193615  1
  Te  Te159  1  0.82934511  0.66249619  0.00093780  1
  Te  Te160  1  0.83217042  0.66903947  0.33349871  1
  Te  Te161  1  0.83879766  0.66645820  0.66397266  1
  Te  Te162  1  -0.00147446  0.16607909  -0.00374259  1
  Te  Te163  1  -0.00200943  0.16314002  0.33477572  1
  Te  Te164  1  0.00090547  0.16455431  0.66618673  1
  Te  Te165  1  -0.00242725  0.49834658  -0.00093876  1
  Te  Te166  1  -0.00881495  0.49976285  0.33909075  1
  Te  Te167  1  0.00020190  0.49772304  0.66340491  1
  Te  Te168  1  0.00015904  0.83967595  -0.00203211  1
  Te  Te169  1  0.00831279  0.84028121  0.33421972  1
  Te  Te170  1  -0.00060447  0.83589926  0.66566996  1
  Te  Te171  1  0.33702452  0.16149582  -0.00552624  1
  Te  Te172  1  0.32616523  0.16520211  0.33424752  1
  Te  Te173  1  0.33384791  0.16775246  0.66936496  1
  Te  Te174  1  0.33790561  0.49955914  -0.00010333  1
  Te  Te175  1  0.33055697  0.50108191  0.33526841  1
  Te  Te176  1  0.33666202  0.49114291  0.66682558  1
  Te  Te177  1  0.33792485  0.83734237  0.00467801  1
  Te  Te178  1  0.32867883  0.83286593  0.32704745  1
  Te  Te179  1  0.33607104  0.83721362  0.66617186  1
  Te  Te180  1  0.65977848  0.16573794  -0.00098246  1
  Te  Te181  1  0.66759809  0.16912468  0.33763098  1
  Te  Te182  1  0.65859759  0.16590605  0.65923894  1
  Te  Te183  1  0.66505877  0.50411896  0.00530653  1
  Te  Te184  1  0.67067019  0.49482196  0.32911014  1
  Te  Te185  1  0.65924041  0.50004244  0.66710657  1
  Te  Te186  1  0.66200852  0.82995139  -0.00293515  1
  Te  Te187  1  0.66554510  0.83461947  0.33523377  1
  Te  Te188  1  0.65984462  0.83329652  0.67195796  1
  Te  Te189  1  0.00474193  0.00063540  0.16466240  1
  Te  Te190  1  -0.00170536  0.00299294  0.50011739  1
  Te  Te191  1  -0.00068411  0.00392778  0.83206292  1
  Te  Te192  1  0.00383506  0.33373704  0.16156696  1
  Te  Te193  1  0.00046078  0.32985099  0.50231056  1
  Te  Te194  1  -0.00199452  0.32840624  0.83316920  1
  Te  Te195  1  0.00675195  0.66575742  0.16472793  1
  Te  Te196  1  -0.00523225  0.66711258  0.50415190  1
  Te  Te197  1  -0.00089044  0.66689820  0.82642818  1
  Te  Te198  1  0.32940171  -0.00460132  0.16383810  1
  Te  Te199  1  0.33705912  -0.00496786  0.50518408  1
  Te  Te200  1  0.33367786  -0.00032153  0.83309969  1
  Te  Te201  1  0.33516339  0.33382797  0.16645910  1
  Te  Te202  1  0.33840629  0.33295635  0.50443115  1
  Te  Te203  1  0.33397064  0.32855667  0.82847756  1
  Te  Te204  1  0.33077751  0.67192193  0.16666281  1
  Te  Te205  1  0.33253866  0.67220117  0.50569006  1
  Te  Te206  1  0.33909807  0.66981181  0.82797661  1
  Te  Te207  1  0.66669987  -0.00526326  0.17296019  1
  Te  Te208  1  0.66738824  -0.00185141  0.49755898  1
  Te  Te209  1  0.67509648  -0.00434713  0.83557198  1
  Te  Te210  1  0.66277271  0.33079106  0.17070020  1
  Te  Te211  1  0.66312682  0.33474724  0.49619775  1
  Te  Te212  1  0.67445751  0.33208671  0.83330778  1
  Te  Te213  1  0.66523705  0.66841314  0.16763853  1
  Te  Te214  1  0.67279767  0.67039355  0.49634408  1
  Te  Te215  1  0.66224171  0.67214115  0.83299565  1
