# generated using pymatgen
data_AgSbTe2
_symmetry_space_group_name_H-M   'P 1'
_cell_length_a   18.33208566
_cell_length_b   18.33515555
_cell_length_c   18.34132422
_cell_angle_alpha   90.00050184
_cell_angle_beta   90.00071207
_cell_angle_gamma   90.00067960
_symmetry_Int_Tables_number   1
_chemical_formula_structural   AgSbTe2
_chemical_formula_sum   'Ag54 Sb54 Te108'
_cell_volume   6164.91601506
_cell_formula_units_Z   54
loop_
 _symmetry_equiv_pos_site_id
 _symmetry_equiv_pos_as_xyz
  1  'x, y, z'
loop_
 _atom_site_type_symbol
 _atom_site_label
 _atom_site_symmetry_multiplicity
 _atom_site_fract_x
 _atom_site_fract_y
 _atom_site_fract_z
 _atom_site_occupancy
  Ag  Ag0  1  0.32549832  0.34318611  0.33344329  1
  Ag  Ag1  1  0.83692126  -0.00409297  0.16265783  1
  Ag  Ag2  1  0.00379702  -0.00747839  0.65422406  1
  Ag  Ag3  1  0.16366264  0.16167886  0.66717566  1
  Ag  Ag4  1  0.66969747  0.50271853  0.83895233  1
  Ag  Ag5  1  0.84378264  0.83735900  0.32366057  1
  Ag  Ag6  1  0.15993433  0.83069589  0.66667635  1
  Ag  Ag7  1  0.16539363  0.33535311  0.16517294  1
  Ag  Ag8  1  0.48807625  0.66119297  0.49529552  1
  Ag  Ag9  1  0.84197131  -0.00447460  0.84314295  1
  Ag  Ag10  1  0.15792261  -0.01040829  0.50674512  1
  Ag  Ag11  1  0.33126489  -0.00363265  0.00158776  1
  Ag  Ag12  1  0.00355754  0.32718545  0.33139127  1
  Ag  Ag13  1  0.49031835  0.50140923  0.33386940  1
  Ag  Ag14  1  0.83495118  0.15592832  0.00300088  1
  Ag  Ag15  1  0.49368238  0.34209926  0.50053133  1
  Ag  Ag16  1  0.84124196  0.83806449  0.00481543  1
  Ag  Ag17  1  0.66366568  0.50654874  0.16398539  1
  Ag  Ag18  1  0.67784865  0.82690045  0.16290729  1
  Ag  Ag19  1  0.84180825  0.33719276  0.83576676  1
  Ag  Ag20  1  0.00080169  0.33121233  0.00181670  1
  Ag  Ag21  1  0.15860233  0.83203987  -0.00103593  1
  Ag  Ag22  1  0.33087296  0.66058692  0.33170672  1
  Ag  Ag23  1  0.66304313  0.67063724  0.00103885  1
  Ag  Ag24  1  0.33002063  0.34177108  0.66393210  1
  Ag  Ag25  1  0.83507388  0.50159512  0.33464594  1
  Ag  Ag26  1  0.15818801  -0.01209564  0.83054125  1
  Ag  Ag27  1  0.33319353  0.66947554  0.00298815  1
  Ag  Ag28  1  -0.00138179  0.83745113  0.17202064  1
  Ag  Ag29  1  0.49608328  0.34188246  0.83281981  1
  Ag  Ag30  1  0.33528965  0.50486645  0.17413693  1
  Ag  Ag31  1  0.00069166  0.15974397  0.17187200  1
  Ag  Ag32  1  0.16076769  0.83086907  0.33399198  1
  Ag  Ag33  1  0.84121112  0.16040281  0.32496306  1
  Ag  Ag34  1  0.84008000  0.66594340  0.83452866  1
  Ag  Ag35  1  0.49603697  0.66305639  0.83760098  1
  Ag  Ag36  1  0.17049397  0.66799964  0.16768763  1
  Ag  Ag37  1  0.00400575  0.50213614  0.49886773  1
  Ag  Ag38  1  0.32994288  0.50290506  0.49392254  1
  Ag  Ag39  1  0.00275119  0.83521969  0.83345786  1
  Ag  Ag40  1  0.67949988  -0.00692341  0.00084016  1
  Ag  Ag41  1  0.84725817  -0.00096727  0.49047267  1
  Ag  Ag42  1  0.83620790  0.50091545  0.66588835  1
  Ag  Ag43  1  0.00156852  0.15333828  0.49129883  1
  Ag  Ag44  1  0.32653877  0.66061760  0.66189766  1
  Ag  Ag45  1  0.32097271  0.17347913  0.16522418  1
  Ag  Ag46  1  0.00339736  0.84094565  0.49755471  1
  Ag  Ag47  1  0.00825869  0.67577012  0.66606664  1
  Ag  Ag48  1  0.16713845  0.67080138  0.50496327  1
  Ag  Ag49  1  0.16492222  0.67236297  0.82996745  1
  Ag  Ag50  1  -0.00113098  -0.00103863  0.34114373  1
  Ag  Ag51  1  0.16442155  0.33434668  0.83575315  1
  Ag  Ag52  1  0.48848575  0.66495883  0.16241541  1
  Ag  Ag53  1  0.49976192  0.16639159  0.00125270  1
  Sb  Sb54  1  0.49958805  0.49987108  0.00343931  1
  Sb  Sb55  1  0.32678573  0.82884124  0.16501965  1
  Sb  Sb56  1  0.49208112  0.33987432  0.16549667  1
  Sb  Sb57  1  0.16715962  0.50692443  0.00037760  1
  Sb  Sb58  1  0.67459336  0.16567517  0.49820208  1
  Sb  Sb59  1  0.16768002  0.33549721  0.49895415  1
  Sb  Sb60  1  0.84128011  0.33090326  0.16375164  1
  Sb  Sb61  1  0.32861697  0.33526059  0.00106951  1
  Sb  Sb62  1  0.32192115  -0.00040440  0.67047117  1
  Sb  Sb63  1  0.49535758  -0.00120176  0.49957209  1
  Sb  Sb64  1  -0.00365861  0.50370652  0.82889127  1
  Sb  Sb65  1  0.00089526  0.50235332  0.17233935  1
  Sb  Sb66  1  0.32346688  0.82916696  0.83566388  1
  Sb  Sb67  1  0.66852828  0.17097602  0.83593216  1
  Sb  Sb68  1  0.32179640  0.82309430  0.49907551  1
  Sb  Sb69  1  0.67753987  0.83088510  0.49265733  1
  Sb  Sb70  1  0.00558507  0.33356802  0.66566200  1
  Sb  Sb71  1  0.32646325  0.17286124  0.49417214  1
  Sb  Sb72  1  0.00148694  0.66810976  -0.00351330  1
  Sb  Sb73  1  0.48895502  0.82931242  0.66688368  1
  Sb  Sb74  1  0.33582001  0.50279328  0.83190654  1
  Sb  Sb75  1  0.84218380  0.82910135  0.66992745  1
  Sb  Sb76  1  0.66426985  0.33528778  0.66900952  1
  Sb  Sb77  1  0.67774377  0.82625122  0.84106166  1
  Sb  Sb78  1  0.68126670  -0.00257638  0.67450246  1
  Sb  Sb79  1  0.49674758  0.82548610  0.33166889  1
  Sb  Sb80  1  0.50317995  -0.00528724  0.16501536  1
  Sb  Sb81  1  0.50065994  0.83183229  0.00060409  1
  Sb  Sb82  1  0.83418406  0.33167424  0.50111879  1
  Sb  Sb83  1  0.66976990  0.33604831  0.33121902  1
  Sb  Sb84  1  0.67157789  0.16664128  0.16346559  1
  Sb  Sb85  1  0.66701922  0.66618100  0.67274689  1
  Sb  Sb86  1  0.33065865  0.16874652  0.83950343  1
  Sb  Sb87  1  0.00083670  0.16261071  0.83574692  1
  Sb  Sb88  1  0.83967486  0.66888495  0.50344424  1
  Sb  Sb89  1  0.00504954  0.67046274  0.33813833  1
  Sb  Sb90  1  0.15890010  0.16442577  0.33460714  1
  Sb  Sb91  1  0.84249370  0.16871046  0.66864112  1
  Sb  Sb92  1  0.83264308  0.50321409  0.00077946  1
  Sb  Sb93  1  -0.00071324  -0.00036782  0.00091715  1
  Sb  Sb94  1  0.66956404  0.33468144  -0.00032530  1
  Sb  Sb95  1  0.48891949  0.16989507  0.67101924  1
  Sb  Sb96  1  0.16323971  0.16219924  -0.00171522  1
  Sb  Sb97  1  0.16372975  0.50524974  0.66609622  1
  Sb  Sb98  1  0.83660137  0.67143251  0.16400794  1
  Sb  Sb99  1  0.50092118  0.17412016  0.32822208  1
  Sb  Sb100  1  0.32416716  0.00030912  0.32930046  1
  Sb  Sb101  1  0.66293563  0.66537616  0.32533739  1
  Sb  Sb102  1  0.16784358  0.50579060  0.33392317  1
  Sb  Sb103  1  0.50168117  0.50117537  0.66296734  1
  Sb  Sb104  1  0.16051461  -0.00369467  0.16464042  1
  Sb  Sb105  1  0.66622314  0.50234160  0.49817523  1
  Sb  Sb106  1  0.67942406  -0.00201980  0.32648273  1
  Sb  Sb107  1  0.50014243  -0.00346782  0.83701203  1
  Te  Te108  1  0.16281690  0.16777559  0.16651687  1
  Te  Te109  1  0.16097804  0.16604554  0.50300858  1
  Te  Te110  1  0.16663211  0.17325762  0.82981855  1
  Te  Te111  1  0.17041750  0.50109627  0.16666789  1
  Te  Te112  1  0.16796523  0.50512933  0.50008199  1
  Te  Te113  1  0.16675892  0.49508776  0.83361448  1
  Te  Te114  1  0.16201266  0.83129019  0.16386622  1
  Te  Te115  1  0.16180812  0.83066669  0.50044269  1
  Te  Te116  1  0.16231297  0.83172684  0.83527818  1
  Te  Te117  1  0.50243391  0.16717446  0.16191496  1
  Te  Te118  1  0.50051771  0.16929609  0.49958255  1
  Te  Te119  1  0.49979488  0.16885322  0.83885903  1
  Te  Te120  1  0.49924924  0.50462673  0.17012622  1
  Te  Te121  1  0.49912440  0.50184880  0.49696101  1
  Te  Te122  1  0.50286234  0.50138593  0.83265947  1
  Te  Te123  1  0.50559905  0.82588560  0.16823043  1
  Te  Te124  1  0.50272665  0.82855981  0.49888297  1
  Te  Te125  1  0.50295470  0.82610226  0.83238829  1
  Te  Te126  1  0.83710498  0.16455169  0.16524028  1
  Te  Te127  1  0.84013789  0.16307152  0.49930863  1
  Te  Te128  1  0.83355364  0.16797030  0.83724027  1
  Te  Te129  1  0.83085952  0.49967516  0.17107772  1
  Te  Te130  1  0.83355293  0.50035312  0.49908710  1
  Te  Te131  1  0.83154907  0.50073042  0.83424493  1
  Te  Te132  1  0.83683156  0.83381198  0.16540393  1
  Te  Te133  1  0.84093671  0.83708500  0.49787102  1
  Te  Te134  1  0.84010273  0.83283886  0.83599023  1
  Te  Te135  1  0.17087941  -0.00416465  -0.00366913  1
  Te  Te136  1  0.16105030  -0.00574979  0.33602356  1
  Te  Te137  1  0.16339204  -0.00219927  0.66959485  1
  Te  Te138  1  0.16349651  0.33276647  0.00041580  1
  Te  Te139  1  0.16585798  0.33153409  0.33091651  1
  Te  Te140  1  0.17043804  0.33323784  0.66817605  1
  Te  Te141  1  0.16857278  0.67102871  -0.00334158  1
  Te  Te142  1  0.17051345  0.67138552  0.33126421  1
  Te  Te143  1  0.16711093  0.66679219  0.66858486  1
  Te  Te144  1  0.49286893  0.00467693  -0.00018433  1
  Te  Te145  1  0.50148638  0.00154315  0.33499503  1
  Te  Te146  1  0.50063850  -0.00016641  0.66724203  1
  Te  Te147  1  0.49961158  0.32879646  -0.00506377  1
  Te  Te148  1  0.49749279  0.33878126  0.33488951  1
  Te  Te149  1  0.49331157  0.33384400  0.66965112  1
  Te  Te150  1  0.49859192  0.66646673  0.00007552  1
  Te  Te151  1  0.49541669  0.66185482  0.33296715  1
  Te  Te152  1  0.49468067  0.66687114  0.67110946  1
  Te  Te153  1  0.83524905  -0.00133656  0.00065737  1
  Te  Te154  1  0.83879331  -0.00131118  0.33165592  1
  Te  Te155  1  0.84264588  0.00066395  0.67027244  1
  Te  Te156  1  0.83636681  0.33279786  -0.00413839  1
  Te  Te157  1  0.83786164  0.33564804  0.33404511  1
  Te  Te158  1  0.83311243  0.33733877  0.67245196  1
  Te  Te159  1  0.83222005  0.67052157  -0.00486955  1
  Te  Te160  1  0.83218621  0.66487346  0.33529685  1
  Te  Te161  1  0.83429095  0.66198739  0.67190250  1
  Te  Te162  1  -0.00379292  0.17154387  0.00410997  1
  Te  Te163  1  -0.00224460  0.16727579  0.33247050  1
  Te  Te164  1  0.00536550  0.16510713  0.66324201  1
  Te  Te165  1  -0.00007048  0.49071746  0.00075315  1
  Te  Te166  1  -0.00286822  0.49989182  0.33663613  1
  Te  Te167  1  -0.00490680  0.50083048  0.66196612  1
  Te  Te168  1  -0.00020461  0.83209342  -0.00162754  1
  Te  Te169  1  0.00052126  0.83131553  0.33345158  1
  Te  Te170  1  0.00211126  0.83301492  0.66622376  1
  Te  Te171  1  0.33410134  0.16681656  0.00619359  1
  Te  Te172  1  0.33463596  0.16923177  0.32541269  1
  Te  Te173  1  0.32460178  0.16918904  0.66510329  1
  Te  Te174  1  0.33404606  0.50634326  0.00759855  1
  Te  Te175  1  0.33192522  0.50019406  0.33380460  1
  Te  Te176  1  0.33467579  0.50103116  0.66210823  1
  Te  Te177  1  0.33177351  0.83237985  0.00105773  1
  Te  Te178  1  0.32839377  0.83124813  0.33222323  1
  Te  Te179  1  0.32210565  0.82818319  0.66691766  1
  Te  Te180  1  0.66943936  0.16257652  0.00027243  1
  Te  Te181  1  0.67682300  0.16663716  0.33208228  1
  Te  Te182  1  0.66457918  0.16583230  0.66647612  1
  Te  Te183  1  0.66598447  0.50500464  0.00107488  1
  Te  Te184  1  0.67153811  0.49959045  0.32951347  1
  Te  Te185  1  0.67435343  0.50031808  0.67112374  1
  Te  Te186  1  0.66664386  0.83226562  0.00398786  1
  Te  Te187  1  0.67169949  0.83328188  0.32514757  1
  Te  Te188  1  0.66525272  0.83357632  0.66553775  1
  Te  Te189  1  -0.00250809  -0.00013842  0.16865056  1
  Te  Te190  1  0.00222239  -0.00193082  0.49880475  1
  Te  Te191  1  0.00060861  -0.00143937  0.83496198  1
  Te  Te192  1  0.00525158  0.33493158  0.16998551  1
  Te  Te193  1  -0.00025400  0.34140511  0.49659400  1
  Te  Te194  1  0.00080154  0.33308661  0.83315488  1
  Te  Te195  1  0.00769234  0.67040094  0.16559976  1
  Te  Te196  1  0.00306155  0.66216869  0.50466485  1
  Te  Te197  1  0.00166920  0.66850343  0.82994488  1
  Te  Te198  1  0.33391690  0.00313304  0.16299189  1
  Te  Te199  1  0.32735537  0.00150491  0.50042975  1
  Te  Te200  1  0.33082146  0.00040178  0.83849730  1
  Te  Te201  1  0.32822406  0.33427835  0.16851392  1
  Te  Te202  1  0.33428507  0.33720354  0.49785891  1
  Te  Te203  1  0.33236398  0.33565729  0.83175009  1
  Te  Te204  1  0.33093520  0.66719923  0.16654251  1
  Te  Te205  1  0.33063132  0.66337532  0.50004411  1
  Te  Te206  1  0.33126888  0.66484607  0.83625016  1
  Te  Te207  1  0.67116507  -0.00259838  0.15984785  1
  Te  Te208  1  0.66884020  -0.00079614  0.50200584  1
  Te  Te209  1  0.67001423  -0.00135027  0.84091558  1
  Te  Te210  1  0.66492109  0.34140918  0.16506494  1
  Te  Te211  1  0.65640044  0.33351445  0.50039666  1
  Te  Te212  1  0.66396894  0.34025896  0.83365766  1
  Te  Te213  1  0.67067005  0.66624616  0.16119326  1
  Te  Te214  1  0.65883388  0.66722967  0.50137790  1
  Te  Te215  1  0.66656326  0.66272197  0.83762333  1
