# generated using pymatgen
data_AgSbTe2
_symmetry_space_group_name_H-M   'P 1'
_cell_length_a   18.33467110
_cell_length_b   18.33216226
_cell_length_c   18.33288816
_cell_angle_alpha   90.00025617
_cell_angle_beta   90.00124128
_cell_angle_gamma   89.99997735
_symmetry_Int_Tables_number   1
_chemical_formula_structural   AgSbTe2
_chemical_formula_sum   'Ag54 Sb54 Te108'
_cell_volume   6161.94340254
_cell_formula_units_Z   54
loop_
 _symmetry_equiv_pos_site_id
 _symmetry_equiv_pos_as_xyz
  1  'x, y, z'
loop_
 _atom_site_type_symbol
 _atom_site_label
 _atom_site_symmetry_multiplicity
 _atom_site_fract_x
 _atom_site_fract_y
 _atom_site_fract_z
 _atom_site_occupancy
  Ag  Ag0  1  0.17033364  0.49899423  0.67546545  1
  Ag  Ag1  1  0.33472762  0.49304252  0.49718963  1
  Ag  Ag2  1  0.67004111  0.00046266  0.66946199  1
  Ag  Ag3  1  0.34214367  0.66324868  0.66799670  1
  Ag  Ag4  1  0.16193031  0.65223172  0.83226962  1
  Ag  Ag5  1  0.83297526  0.50069736  -0.00336857  1
  Ag  Ag6  1  0.83784803  0.16490823  0.33582859  1
  Ag  Ag7  1  0.83303508  0.82895503  -0.00385951  1
  Ag  Ag8  1  0.50863379  0.00506213  0.83009294  1
  Ag  Ag9  1  0.16322348  0.17687052  0.00390846  1
  Ag  Ag10  1  0.67086339  0.33405366  0.00639297  1
  Ag  Ag11  1  0.66552664  0.66208727  0.66875209  1
  Ag  Ag12  1  0.16323848  0.33264083  0.16726732  1
  Ag  Ag13  1  0.00344502  0.33273867  0.00707121  1
  Ag  Ag14  1  0.83106691  0.16098216  0.66540833  1
  Ag  Ag15  1  0.66011680  0.49396897  0.83596556  1
  Ag  Ag16  1  0.00545210  0.33288970  0.32762673  1
  Ag  Ag17  1  0.33455855  0.49500844  0.17167055  1
  Ag  Ag18  1  0.50018802  0.01327584  0.50878412  1
  Ag  Ag19  1  -0.00031722  0.01208763  -0.00746447  1
  Ag  Ag20  1  0.16787705  0.33434020  0.84098220  1
  Ag  Ag21  1  0.15658061  0.00915943  0.83307633  1
  Ag  Ag22  1  0.66343928  0.49091508  0.50469929  1
  Ag  Ag23  1  0.83445212  -0.00138340  0.83141697  1
  Ag  Ag24  1  0.33352595  0.01524436  0.33268170  1
  Ag  Ag25  1  0.66458305  0.49545639  0.15626543  1
  Ag  Ag26  1  0.66642723  0.33234872  0.32794290  1
  Ag  Ag27  1  -0.01009982  0.00440285  0.67398140  1
  Ag  Ag28  1  -0.00052388  0.64960707  0.33255175  1
  Ag  Ag29  1  0.50199954  0.33961704  0.83119435  1
  Ag  Ag30  1  0.33410872  0.17551424  0.49451450  1
  Ag  Ag31  1  0.83107663  0.66446247  0.83179375  1
  Ag  Ag32  1  0.32488185  0.33201782  0.33396006  1
  Ag  Ag33  1  0.15945653  0.49305100  -0.00795590  1
  Ag  Ag34  1  0.66542591  0.82786216  0.16749247  1
  Ag  Ag35  1  0.50361374  0.65684948  0.83405232  1
  Ag  Ag36  1  0.00348259  0.49238659  0.15935351  1
  Ag  Ag37  1  0.16977532  0.33199507  0.49014927  1
  Ag  Ag38  1  0.83330973  0.84173784  0.33002494  1
  Ag  Ag39  1  0.00721204  0.49711553  0.83889109  1
  Ag  Ag40  1  0.66662758  0.17275747  0.49911671  1
  Ag  Ag41  1  0.66795378  0.17501018  0.82960831  1
  Ag  Ag42  1  0.32559285  0.17391224  0.17440287  1
  Ag  Ag43  1  0.50466539  0.49651906  -0.00715790  1
  Ag  Ag44  1  0.50112958  0.65994849  0.16033990  1
  Ag  Ag45  1  0.83111414  0.84126051  0.67411250  1
  Ag  Ag46  1  0.00182662  0.49124158  0.49990438  1
  Ag  Ag47  1  0.49757091  0.33277989  0.50317513  1
  Ag  Ag48  1  0.49966039  0.50153095  0.67421503  1
  Ag  Ag49  1  0.66749845  0.17640361  0.16884594  1
  Ag  Ag50  1  0.33771110  0.82800412  0.16756600  1
  Ag  Ag51  1  0.00582471  0.17346475  0.17182051  1
  Ag  Ag52  1  -0.00173317  0.17271022  0.49178318  1
  Ag  Ag53  1  0.16527687  0.17112363  0.32741027  1
  Sb  Sb54  1  0.83049835  0.66536370  0.16312263  1
  Sb  Sb55  1  0.50445280  0.82925084  0.66788682  1
  Sb  Sb56  1  0.66572331  0.33380434  0.66667756  1
  Sb  Sb57  1  0.49932029  0.00035097  0.16486519  1
  Sb  Sb58  1  0.49773699  0.17094432  0.33477495  1
  Sb  Sb59  1  0.83340073  0.00119991  0.16224691  1
  Sb  Sb60  1  0.49985630  0.33754743  0.16612261  1
  Sb  Sb61  1  0.32965784  0.33620335  0.00590254  1
  Sb  Sb62  1  0.50105392  0.49680145  0.33290140  1
  Sb  Sb63  1  0.66778928  0.83635474  0.49836912  1
  Sb  Sb64  1  0.33457330  0.66122639  -0.00274141  1
  Sb  Sb65  1  0.83177923  0.33502092  0.83555354  1
  Sb  Sb66  1  0.00270116  0.33212499  0.66577808  1
  Sb  Sb67  1  0.16297138  0.17271035  0.66796526  1
  Sb  Sb68  1  0.33178398  0.33748111  0.65763246  1
  Sb  Sb69  1  0.83692698  0.33277189  0.16708004  1
  Sb  Sb70  1  0.33400518  0.49824039  0.83060766  1
  Sb  Sb71  1  0.16922846  0.01077009  0.50328654  1
  Sb  Sb72  1  -0.00268548  0.83153595  0.83460252  1
  Sb  Sb73  1  0.33415224  0.83405901  0.49643497  1
  Sb  Sb74  1  -0.00171412  0.83218868  0.16578289  1
  Sb  Sb75  1  0.00017661  0.01006850  0.33279600  1
  Sb  Sb76  1  0.33527989  0.16817818  0.83045940  1
  Sb  Sb77  1  0.66930330  0.00688822  -0.00415017  1
  Sb  Sb78  1  0.32992239  0.00296549  0.00301786  1
  Sb  Sb79  1  0.83297141  0.33160137  0.49800253  1
  Sb  Sb80  1  0.16420046  0.49227173  0.33253110  1
  Sb  Sb81  1  0.16403103  0.84099782  0.33078430  1
  Sb  Sb82  1  0.66996195  0.83103363  0.83648870  1
  Sb  Sb83  1  0.83621062  0.17001775  0.00142103  1
  Sb  Sb84  1  0.50422917  0.83475497  0.33140696  1
  Sb  Sb85  1  0.16660164  0.01032090  0.16215128  1
  Sb  Sb86  1  -0.00156838  0.65736022  0.00103740  1
  Sb  Sb87  1  0.83070274  0.00533285  0.50606268  1
  Sb  Sb88  1  0.50401198  0.17156518  0.66477403  1
  Sb  Sb89  1  0.50600691  0.82886718  0.00012740  1
  Sb  Sb90  1  0.16342999  0.82987904  0.66808921  1
  Sb  Sb91  1  -0.00361844  0.66610755  0.66681223  1
  Sb  Sb92  1  0.32868024  0.66062368  0.33423306  1
  Sb  Sb93  1  0.66748653  0.65627259  -0.00397121  1
  Sb  Sb94  1  0.16538644  0.65191897  0.50404820  1
  Sb  Sb95  1  -0.00324993  0.16966197  0.83413780  1
  Sb  Sb96  1  0.50078738  0.65841809  0.50238353  1
  Sb  Sb97  1  -0.00181992  0.83695160  0.49941423  1
  Sb  Sb98  1  0.83382763  0.66528033  0.50340911  1
  Sb  Sb99  1  0.83181739  0.49854025  0.67219504  1
  Sb  Sb100  1  0.66454636  0.00823184  0.33608048  1
  Sb  Sb101  1  0.16876842  0.65494885  0.16293117  1
  Sb  Sb102  1  0.49701489  0.17268790  -0.00168498  1
  Sb  Sb103  1  0.66973779  0.66033140  0.33446743  1
  Sb  Sb104  1  0.83558612  0.49606875  0.32829826  1
  Sb  Sb105  1  0.33349905  0.83180961  0.83718769  1
  Sb  Sb106  1  0.33602088  -0.00300273  0.66433028  1
  Sb  Sb107  1  0.16233349  0.83229990  0.00057232  1
  Te  Te108  1  0.16551282  0.17030508  0.16563072  1
  Te  Te109  1  0.16531890  0.17387457  0.50218977  1
  Te  Te110  1  0.16736421  0.16871774  0.83637999  1
  Te  Te111  1  0.16507400  0.49422971  0.16394503  1
  Te  Te112  1  0.16515339  0.49137083  0.50093833  1
  Te  Te113  1  0.16923516  0.49693430  0.83340252  1
  Te  Te114  1  0.17142198  0.83140352  0.16653992  1
  Te  Te115  1  0.16611295  0.83223986  0.49893382  1
  Te  Te116  1  0.16667326  0.83710893  0.83383795  1
  Te  Te117  1  0.50647563  0.16669241  0.16533814  1
  Te  Te118  1  0.50213607  0.17037350  0.49993708  1
  Te  Te119  1  0.50443105  0.16508451  0.83219156  1
  Te  Te120  1  0.50311071  0.50247229  0.16702360  1
  Te  Te121  1  0.50201477  0.49487085  0.50069013  1
  Te  Te122  1  0.49840585  0.49884306  0.83282873  1
  Te  Te123  1  0.50108777  0.82945858  0.16538437  1
  Te  Te124  1  0.49968938  0.83802825  0.49962146  1
  Te  Te125  1  0.49946269  0.83545815  0.83419290  1
  Te  Te126  1  0.82853144  0.16551073  0.16984329  1
  Te  Te127  1  0.83188220  0.16544699  0.49793833  1
  Te  Te128  1  0.82786205  0.16413319  0.83226910  1
  Te  Te129  1  0.83001537  0.50143476  0.16029957  1
  Te  Te130  1  0.83304710  0.50127965  0.50230980  1
  Te  Te131  1  0.83006830  0.50232268  0.83606635  1
  Te  Te132  1  0.82983677  0.83297161  0.16624784  1
  Te  Te133  1  0.83364425  0.83301938  0.49685101  1
  Te  Te134  1  0.83393809  0.83254245  0.83369880  1
  Te  Te135  1  0.16214926  -0.00009940  -0.00636060  1
  Te  Te136  1  0.17189748  0.00868925  0.33543527  1
  Te  Te137  1  0.16754284  -0.00149019  0.67270571  1
  Te  Te138  1  0.16588252  0.33400414  0.00123182  1
  Te  Te139  1  0.16544577  0.33080366  0.33109228  1
  Te  Te140  1  0.16737823  0.33994937  0.67479638  1
  Te  Te141  1  0.16702334  0.66399250  -0.00687424  1
  Te  Te142  1  0.15881825  0.67046849  0.33375759  1
  Te  Te143  1  0.16525642  0.66242330  0.67227727  1
  Te  Te144  1  0.49964478  0.00035350  -0.00623746  1
  Te  Te145  1  0.49588131  -0.00137030  0.33314406  1
  Te  Te146  1  0.50243574  -0.00256201  0.66763143  1
  Te  Te147  1  0.50325637  0.33755321  -0.00603889  1
  Te  Te148  1  0.50639374  0.33414896  0.33946747  1
  Te  Te149  1  0.49769039  0.33882411  0.66923059  1
  Te  Te150  1  0.50120813  0.66201586  -0.00206060  1
  Te  Te151  1  0.49956674  0.66844932  0.33131847  1
  Te  Te152  1  0.50238111  0.66293264  0.66859045  1
  Te  Te153  1  0.83727790  0.00093128  -0.00477575  1
  Te  Te154  1  0.83262355  0.00260126  0.33312249  1
  Te  Te155  1  0.83203411  0.00097785  0.66812341  1
  Te  Te156  1  0.83282517  0.33870192  0.00040896  1
  Te  Te157  1  0.83097299  0.32896952  0.33240527  1
  Te  Te158  1  0.83513605  0.32109517  0.66740159  1
  Te  Te159  1  0.83367821  0.66626431  -0.00543871  1
  Te  Te160  1  0.83917485  0.66626799  0.33336704  1
  Te  Te161  1  0.82879461  0.67017412  0.67164960  1
  Te  Te162  1  0.00262908  0.17063464  0.00042652  1
  Te  Te163  1  -0.00044767  0.17051002  0.33209865  1
  Te  Te164  1  -0.00303216  0.16256943  0.66522811  1
  Te  Te165  1  -0.00026894  0.49690917  -0.00134214  1
  Te  Te166  1  -0.00156180  0.49386405  0.33480905  1
  Te  Te167  1  -0.00003221  0.50097518  0.66650488  1
  Te  Te168  1  -0.00663553  0.83824559  0.00139232  1
  Te  Te169  1  -0.00574317  0.83719999  0.33288730  1
  Te  Te170  1  -0.00545059  0.83853999  0.66625614  1
  Te  Te171  1  0.32818321  0.16753086  0.00600049  1
  Te  Te172  1  0.33323273  0.17013108  0.33402595  1
  Te  Te173  1  0.33352809  0.16320654  0.65842020  1
  Te  Te174  1  0.33538470  0.50048783  0.00828548  1
  Te  Te175  1  0.33307626  0.49561340  0.33448024  1
  Te  Te176  1  0.33335988  0.50208768  0.66393177  1
  Te  Te177  1  0.33464452  0.83399184  0.00862046  1
  Te  Te178  1  0.33276291  0.82918742  0.32687238  1
  Te  Te179  1  0.33213516  0.82502557  0.66523688  1
  Te  Te180  1  0.66493710  0.17407053  0.00061366  1
  Te  Te181  1  0.66817727  0.17103716  0.33446787  1
  Te  Te182  1  0.66691044  0.16439925  0.66757632  1
  Te  Te183  1  0.66660511  0.49673851  -0.00343396  1
  Te  Te184  1  0.66967191  0.49493275  0.33771435  1
  Te  Te185  1  0.66652760  0.50174021  0.66899002  1
  Te  Te186  1  0.67237434  0.83687420  0.00715996  1
  Te  Te187  1  0.67326022  0.83183113  0.32871514  1
  Te  Te188  1  0.67216739  0.83519515  0.66487536  1
  Te  Te189  1  0.00047409  0.00417236  0.16406433  1
  Te  Te190  1  0.00136706  0.00686952  0.50297428  1
  Te  Te191  1  -0.00176528  0.00174206  0.83318419  1
  Te  Te192  1  0.00038324  0.33350344  0.16687513  1
  Te  Te193  1  -0.00015839  0.33209674  0.49921911  1
  Te  Te194  1  0.00247117  0.33853919  0.83524388  1
  Te  Te195  1  0.00049008  0.66238626  0.17171507  1
  Te  Te196  1  0.00107699  0.66219805  0.49506733  1
  Te  Te197  1  0.00054485  0.66163525  0.83387562  1
  Te  Te198  1  0.33366867  0.00507168  0.17121608  1
  Te  Te199  1  0.33769823  0.00118210  0.49559338  1
  Te  Te200  1  0.33500983  0.00105612  0.83362030  1
  Te  Te201  1  0.33422384  0.33403619  0.17235496  1
  Te  Te202  1  0.33405118  0.33384699  0.49622127  1
  Te  Te203  1  0.33475629  0.33037266  0.83554693  1
  Te  Te204  1  0.33761160  0.66133742  0.16712421  1
  Te  Te205  1  0.33270197  0.66164018  0.50538081  1
  Te  Te206  1  0.33765755  0.66786552  0.82842606  1
  Te  Te207  1  0.66599059  0.00372427  0.16652523  1
  Te  Te208  1  0.66147076  0.00426460  0.50422175  1
  Te  Te209  1  0.66848849  -0.00182501  0.83041251  1
  Te  Te210  1  0.66459130  0.33543803  0.16670891  1
  Te  Te211  1  0.66636081  0.33267943  0.50013790  1
  Te  Te212  1  0.66503512  0.33370230  0.83331602  1
  Te  Te213  1  0.66231134  0.66161120  0.16805262  1
  Te  Te214  1  0.66563891  0.66201205  0.50457619  1
  Te  Te215  1  0.66573557  0.66533749  0.83026399  1
