# generated using pymatgen
data_AgSbTe2
_symmetry_space_group_name_H-M   'P 1'
_cell_length_a   18.32690254
_cell_length_b   18.32605588
_cell_length_c   18.32188623
_cell_angle_alpha   90.00174384
_cell_angle_beta   90.00151464
_cell_angle_gamma   90.00155379
_symmetry_Int_Tables_number   1
_chemical_formula_structural   AgSbTe2
_chemical_formula_sum   'Ag54 Sb54 Te108'
_cell_volume   6153.58577217
_cell_formula_units_Z   54
loop_
 _symmetry_equiv_pos_site_id
 _symmetry_equiv_pos_as_xyz
  1  'x, y, z'
loop_
 _atom_site_type_symbol
 _atom_site_label
 _atom_site_symmetry_multiplicity
 _atom_site_fract_x
 _atom_site_fract_y
 _atom_site_fract_z
 _atom_site_occupancy
  Ag  Ag0  1  0.82718089  0.16479516  0.32453224  1
  Ag  Ag1  1  0.50302606  0.32909094  0.84277808  1
  Ag  Ag2  1  0.50077738  0.49500516  0.32565575  1
  Ag  Ag3  1  0.34070668  0.16886503  0.84323710  1
  Ag  Ag4  1  0.66518429  -0.00049331  0.65852909  1
  Ag  Ag5  1  0.49535021  0.33058995  0.16145293  1
  Ag  Ag6  1  0.00228456  0.66756184  0.33057133  1
  Ag  Ag7  1  0.66941697  0.50543739  0.49675150  1
  Ag  Ag8  1  0.50374177  0.16685665  0.32185365  1
  Ag  Ag9  1  0.66395104  0.66822652  0.65985347  1
  Ag  Ag10  1  0.16291215  0.50495156  0.32462353  1
  Ag  Ag11  1  0.17330968  0.16720743  0.66726175  1
  Ag  Ag12  1  0.00396018  0.32724068  0.00006531  1
  Ag  Ag13  1  0.16521695  0.83587957  0.01154433  1
  Ag  Ag14  1  0.33561196  0.15693975  0.16022367  1
  Ag  Ag15  1  -0.00005757  0.84017883  0.84707775  1
  Ag  Ag16  1  0.00515466  -0.00114168  0.00749382  1
  Ag  Ag17  1  0.49241456  0.66657129  0.16624130  1
  Ag  Ag18  1  0.33114231  0.32696493  0.67369456  1
  Ag  Ag19  1  0.32318257  0.84322761  0.16710625  1
  Ag  Ag20  1  0.84750916  0.84272754  0.00148710  1
  Ag  Ag21  1  0.49497473  0.84245405  0.00505327  1
  Ag  Ag22  1  0.66531438  0.00258976  0.33612128  1
  Ag  Ag23  1  0.33532531  0.83625966  0.49005750  1
  Ag  Ag24  1  0.48942630  0.00656786  0.16684114  1
  Ag  Ag25  1  0.49241057  0.16904537  0.00334458  1
  Ag  Ag26  1  0.49531900  0.48664102  0.00792161  1
  Ag  Ag27  1  0.82950769  0.32843428  0.84182975  1
  Ag  Ag28  1  0.00937677  0.83393985  0.16389598  1
  Ag  Ag29  1  0.32909306  -0.00076223  0.32148892  1
  Ag  Ag30  1  0.16745849  0.33553247  0.16427558  1
  Ag  Ag31  1  0.16577253  0.83721082  0.32415111  1
  Ag  Ag32  1  0.16942814  0.67734182  0.16837260  1
  Ag  Ag33  1  0.83421613  0.16716618  0.00258109  1
  Ag  Ag34  1  0.33652442  0.32579097  0.00157374  1
  Ag  Ag35  1  0.00316719  0.66304093  0.66228293  1
  Ag  Ag36  1  0.49625942  0.16869821  0.67791735  1
  Ag  Ag37  1  0.33332562  0.66551087  0.66627050  1
  Ag  Ag38  1  -0.00032856  0.16773195  0.83701719  1
  Ag  Ag39  1  0.00963030  0.50221080  0.16946667  1
  Ag  Ag40  1  0.83532649  0.00053491  0.49427795  1
  Ag  Ag41  1  0.66327921  0.32971373  0.33255291  1
  Ag  Ag42  1  0.00869552  -0.00346059  0.32531899  1
  Ag  Ag43  1  0.66692188  0.66583214  0.33696517  1
  Ag  Ag44  1  0.66296138  0.83370500  0.49718525  1
  Ag  Ag45  1  0.16455150  -0.00194921  0.48751576  1
  Ag  Ag46  1  -0.00138240  0.50018250  0.48958675  1
  Ag  Ag47  1  0.00471632  0.33290586  0.67540484  1
  Ag  Ag48  1  0.66451288  0.49004771  0.83155781  1
  Ag  Ag49  1  0.17577986  -0.01063980  0.16961232  1
  Ag  Ag50  1  0.83567778  0.33033363  0.16175429  1
  Ag  Ag51  1  0.16806767  0.49723273  0.00844226  1
  Ag  Ag52  1  0.65884880  0.17121899  0.83301800  1
  Ag  Ag53  1  0.32983883  0.00740939  0.00971010  1
  Sb  Sb54  1  0.33702655  0.32693420  0.32718229  1
  Sb  Sb55  1  0.50090476  0.66105484  0.83792747  1
  Sb  Sb56  1  0.83663797  0.83989531  0.32883531  1
  Sb  Sb57  1  0.66342061  0.49764490  0.16888822  1
  Sb  Sb58  1  0.49711888  0.83531254  0.32515924  1
  Sb  Sb59  1  0.66357933  0.33072075  0.00140628  1
  Sb  Sb60  1  0.32972416  0.83935843  0.83986541  1
  Sb  Sb61  1  0.50054643  0.33293452  0.49748023  1
  Sb  Sb62  1  -0.00294419  0.49564888  0.83685442  1
  Sb  Sb63  1  0.83515658  0.00561698  0.16913631  1
  Sb  Sb64  1  -0.00041014  0.16860853  0.50246233  1
  Sb  Sb65  1  0.83433006  0.83493056  0.66978581  1
  Sb  Sb66  1  0.16504205  0.49628509  0.66714984  1
  Sb  Sb67  1  0.83214096  0.67125417  0.49839756  1
  Sb  Sb68  1  0.67047821  0.83533294  0.83160583  1
  Sb  Sb69  1  0.66535744  0.33238601  0.66655143  1
  Sb  Sb70  1  0.50124223  0.49627730  0.66665628  1
  Sb  Sb71  1  0.16525142  0.00271406  0.83985375  1
  Sb  Sb72  1  0.50034116  0.00818310  0.84081806  1
  Sb  Sb73  1  0.33322257  0.66797887  0.00049090  1
  Sb  Sb74  1  0.49977386  -0.00027142  0.49200083  1
  Sb  Sb75  1  0.16817686  0.16242007  0.33205473  1
  Sb  Sb76  1  0.16621593  0.33156613  0.49573335  1
  Sb  Sb77  1  -0.00161536  0.00139207  0.66661967  1
  Sb  Sb78  1  0.33788503  0.49238381  0.83587007  1
  Sb  Sb79  1  0.66375854  0.66626147  0.00303454  1
  Sb  Sb80  1  0.33156840  0.67191221  0.33115015  1
  Sb  Sb81  1  0.16555968  0.66785466  0.83791263  1
  Sb  Sb82  1  0.83657418  0.66403267  0.16805015  1
  Sb  Sb83  1  0.49990386  0.83688133  0.67163512  1
  Sb  Sb84  1  0.16679639  0.83634295  0.66567162  1
  Sb  Sb85  1  0.33229539  0.50398855  0.49807840  1
  Sb  Sb86  1  0.83332920  0.49848889  0.66674662  1
  Sb  Sb87  1  0.66641473  0.83361310  0.17108692  1
  Sb  Sb88  1  0.83196709  0.49468516  0.33139711  1
  Sb  Sb89  1  0.33375332  0.16168638  0.49827882  1
  Sb  Sb90  1  0.83172080  0.16705645  0.67122754  1
  Sb  Sb91  1  0.16784234  0.33021284  0.84068517  1
  Sb  Sb92  1  0.83346227  0.32934530  0.49858374  1
  Sb  Sb93  1  0.00562634  0.16554442  0.16147995  1
  Sb  Sb94  1  0.66549060  0.00263793  0.00375955  1
  Sb  Sb95  1  0.00191005  0.66900980  0.00478754  1
  Sb  Sb96  1  0.83301024  0.00635448  0.83379622  1
  Sb  Sb97  1  0.50124221  0.66707566  0.49385297  1
  Sb  Sb98  1  0.00076933  0.83188846  0.49509131  1
  Sb  Sb99  1  0.32866430  0.49897695  0.16671485  1
  Sb  Sb100  1  -0.00225806  0.33201803  0.32663516  1
  Sb  Sb101  1  0.83369708  0.49423584  0.00211141  1
  Sb  Sb102  1  0.16576475  0.67106166  0.49344406  1
  Sb  Sb103  1  0.65947676  0.16775235  0.16590199  1
  Sb  Sb104  1  0.66650101  0.16354769  0.49975154  1
  Sb  Sb105  1  0.83411406  0.66308639  0.83418275  1
  Sb  Sb106  1  0.16892711  0.16588207  -0.00005303  1
  Sb  Sb107  1  0.33624993  0.00350216  0.66636960  1
  Te  Te108  1  0.17412597  0.17314770  0.16750068  1
  Te  Te109  1  0.16613428  0.16079457  0.50484197  1
  Te  Te110  1  0.16253231  0.16674395  0.82584446  1
  Te  Te111  1  0.16710741  0.49577025  0.16659935  1
  Te  Te112  1  0.16237402  0.50060185  0.49453937  1
  Te  Te113  1  0.16677484  0.50073107  0.84216661  1
  Te  Te114  1  0.16477228  0.83297706  0.16786308  1
  Te  Te115  1  0.16961670  0.83820718  0.49782412  1
  Te  Te116  1  0.16011623  0.83450874  0.83737676  1
  Te  Te117  1  0.49837830  0.16866131  0.16415104  1
  Te  Te118  1  0.50054408  0.16670695  0.49989441  1
  Te  Te119  1  0.49982577  0.16958105  0.83636357  1
  Te  Te120  1  0.49836477  0.49840738  0.16698586  1
  Te  Te121  1  0.50435336  0.50059997  0.49376906  1
  Te  Te122  1  0.50498649  0.49339295  0.83602437  1
  Te  Te123  1  0.50097400  0.83009652  0.16285962  1
  Te  Te124  1  0.49956515  0.83347303  0.50284299  1
  Te  Te125  1  0.49980616  0.83278126  0.84290624  1
  Te  Te126  1  0.83311137  0.17140555  0.16413844  1
  Te  Te127  1  0.83292603  0.16130835  0.49367704  1
  Te  Te128  1  0.83735541  0.17084795  0.83744696  1
  Te  Te129  1  0.84148130  0.49324431  0.16590461  1
  Te  Te130  1  0.83439000  0.49937691  0.49920759  1
  Te  Te131  1  0.82573558  0.49195860  0.83506503  1
  Te  Te132  1  0.83621533  0.83271221  0.16054925  1
  Te  Te133  1  0.82814943  0.84051190  0.49992561  1
  Te  Te134  1  0.83892388  0.83381265  0.84047791  1
  Te  Te135  1  0.16544403  -0.00141237  0.00494824  1
  Te  Te136  1  0.16670380  0.00096307  0.33018682  1
  Te  Te137  1  0.16712108  0.00451336  0.66502787  1
  Te  Te138  1  0.16618614  0.33419436  0.00331373  1
  Te  Te139  1  0.16749775  0.33669589  0.32798852  1
  Te  Te140  1  0.16630214  0.33073067  0.66463707  1
  Te  Te141  1  0.16733689  0.66483470  0.00579172  1
  Te  Te142  1  0.16461906  0.66504297  0.32867324  1
  Te  Te143  1  0.16539369  0.66614294  0.66653455  1
  Te  Te144  1  0.49914971  0.00348978  0.00593714  1
  Te  Te145  1  0.50025903  0.00185930  0.32851442  1
  Te  Te146  1  0.50451209  0.00519372  0.66712494  1
  Te  Te147  1  0.49999480  0.33046687  0.00040705  1
  Te  Te148  1  0.50171242  0.33186021  0.33078882  1
  Te  Te149  1  0.49697921  0.32929309  0.66793388  1
  Te  Te150  1  0.49959981  0.66446581  0.00595844  1
  Te  Te151  1  0.50146827  0.66502487  0.32745600  1
  Te  Te152  1  0.50163943  0.66636388  0.66888128  1
  Te  Te153  1  0.83643583  0.00233710  0.00136080  1
  Te  Te154  1  0.82953540  0.00412946  0.33473140  1
  Te  Te155  1  0.82766004  0.00083949  0.65944690  1
  Te  Te156  1  0.83352863  0.33005362  0.00103924  1
  Te  Te157  1  0.82961804  0.32626053  0.33048396  1
  Te  Te158  1  0.83941810  0.33159589  0.66971414  1
  Te  Te159  1  0.83210376  0.67378034  0.00029233  1
  Te  Te160  1  0.83397402  0.66766657  0.33277597  1
  Te  Te161  1  0.83271392  0.66692257  0.66630437  1
  Te  Te162  1  0.00063492  0.16717371  -0.00218317  1
  Te  Te163  1  -0.00350764  0.16198131  0.33344635  1
  Te  Te164  1  -0.00001436  0.16983943  0.67090699  1
  Te  Te165  1  0.00166206  0.49822937  0.00470145  1
  Te  Te166  1  0.00057964  0.49918013  0.33097229  1
  Te  Te167  1  0.00084660  0.50059357  0.66695465  1
  Te  Te168  1  0.00366347  0.83271142  0.00285129  1
  Te  Te169  1  0.00335141  0.83422985  0.33078026  1
  Te  Te170  1  0.00012657  0.82879261  0.66727127  1
  Te  Te171  1  0.33188714  0.16681817  0.00017203  1
  Te  Te172  1  0.33824827  0.16028955  0.33087216  1
  Te  Te173  1  0.33520218  0.16845471  0.66531828  1
  Te  Te174  1  0.33457277  0.49681525  -0.00065818  1
  Te  Te175  1  0.33681101  0.49936509  0.33510110  1
  Te  Te176  1  0.33277061  0.50181317  0.66661766  1
  Te  Te177  1  0.33215832  0.83503231  0.00280341  1
  Te  Te178  1  0.33051906  0.83695895  0.33179454  1
  Te  Te179  1  0.33337169  0.83034048  0.66878465  1
  Te  Te180  1  0.67165599  0.16530511  -0.00694736  1
  Te  Te181  1  0.66408890  0.16639278  0.33384051  1
  Te  Te182  1  0.66364795  0.16487147  0.67008092  1
  Te  Te183  1  0.66234300  0.50049270  -0.00394086  1
  Te  Te184  1  0.66528684  0.50239402  0.33468278  1
  Te  Te185  1  0.66604438  0.50378635  0.66429107  1
  Te  Te186  1  0.66082646  0.83450154  -0.00130978  1
  Te  Te187  1  0.66727739  0.83239341  0.33796039  1
  Te  Te188  1  0.66645759  0.83266450  0.66315374  1
  Te  Te189  1  0.00042512  -0.00051445  0.16649634  1
  Te  Te190  1  0.00053903  -0.00045274  0.49803585  1
  Te  Te191  1  -0.00150642  0.00068159  0.83581133  1
  Te  Te192  1  0.00084797  0.33232857  0.16250129  1
  Te  Te193  1  -0.00037391  0.33951552  0.50477022  1
  Te  Te194  1  -0.00033575  0.33204470  0.83630770  1
  Te  Te195  1  0.00218737  0.66613451  0.17088287  1
  Te  Te196  1  -0.00106858  0.66289144  0.49842170  1
  Te  Te197  1  -0.00125659  0.66684858  0.82651715  1
  Te  Te198  1  0.33388783  -0.00126357  0.16523565  1
  Te  Te199  1  0.32925039  -0.00554792  0.49950252  1
  Te  Te200  1  0.33280025  0.00792370  0.83753970  1
  Te  Te201  1  0.33563860  0.33197107  0.16351790  1
  Te  Te202  1  0.33212769  0.33480502  0.50847084  1
  Te  Te203  1  0.33521650  0.32813624  0.83427822  1
  Te  Te204  1  0.33225283  0.67499665  0.16621001  1
  Te  Te205  1  0.33362452  0.67292247  0.50535671  1
  Te  Te206  1  0.33358980  0.66791097  0.82611843  1
  Te  Te207  1  0.66401320  0.00030197  0.17392774  1
  Te  Te208  1  0.66555690  -0.00237630  0.49739764  1
  Te  Te209  1  0.66762463  0.00428690  0.82753974  1
  Te  Te210  1  0.66697256  0.33398407  0.17284366  1
  Te  Te211  1  0.66862810  0.33999468  0.49492037  1
  Te  Te212  1  0.66596920  0.33148785  0.83151704  1
  Te  Te213  1  0.66473812  0.66505159  0.17291894  1
  Te  Te214  1  0.66676973  0.66706162  0.49859604  1
  Te  Te215  1  0.66711222  0.66513145  0.82749739  1
