# generated using pymatgen
data_AgSbTe2
_symmetry_space_group_name_H-M   'P 1'
_cell_length_a   18.32788935
_cell_length_b   18.32617020
_cell_length_c   18.31692942
_cell_angle_alpha   89.99964246
_cell_angle_beta   90.00246022
_cell_angle_gamma   89.99979477
_symmetry_Int_Tables_number   1
_chemical_formula_structural   AgSbTe2
_chemical_formula_sum   'Ag54 Sb54 Te108'
_cell_volume   6152.29060528
_cell_formula_units_Z   54
loop_
 _symmetry_equiv_pos_site_id
 _symmetry_equiv_pos_as_xyz
  1  'x, y, z'
loop_
 _atom_site_type_symbol
 _atom_site_label
 _atom_site_symmetry_multiplicity
 _atom_site_fract_x
 _atom_site_fract_y
 _atom_site_fract_z
 _atom_site_occupancy
  Ag  Ag0  1  0.50543269  0.33180928  0.16937095  1
  Ag  Ag1  1  0.16604477  0.66946987  0.49150576  1
  Ag  Ag2  1  -0.00681892  0.32791133  0.68149731  1
  Ag  Ag3  1  0.66718275  0.49524588  0.16600554  1
  Ag  Ag4  1  0.16247773  0.83042594  0.33296761  1
  Ag  Ag5  1  0.16208613  0.17030092  -0.00072184  1
  Ag  Ag6  1  0.16320913  0.67204449  0.16164018  1
  Ag  Ag7  1  0.66685738  0.49747778  0.49651546  1
  Ag  Ag8  1  0.50128976  -0.00648390  0.83178786  1
  Ag  Ag9  1  0.00490288  0.67144516  0.32724730  1
  Ag  Ag10  1  0.66923964  0.82813045  0.83111258  1
  Ag  Ag11  1  0.33242140  0.50882734  0.83814952  1
  Ag  Ag12  1  0.84016925  -0.00410044  0.83580952  1
  Ag  Ag13  1  0.84113960  0.00034448  0.15853472  1
  Ag  Ag14  1  0.83123084  0.49906722  0.32546516  1
  Ag  Ag15  1  -0.00460555  0.33595914  0.33075935  1
  Ag  Ag16  1  0.32658353  0.33848045  -0.00380209  1
  Ag  Ag17  1  0.32774050  0.16421911  0.83471442  1
  Ag  Ag18  1  0.50265197  0.00269782  0.16338688  1
  Ag  Ag19  1  0.32247799  0.66087761  -0.00564066  1
  Ag  Ag20  1  0.66946649  0.33118101  0.66829420  1
  Ag  Ag21  1  0.15891452  -0.00469965  0.16328714  1
  Ag  Ag22  1  0.66914177  0.33810467  0.33197135  1
  Ag  Ag23  1  0.50410689  0.84051312  0.67302468  1
  Ag  Ag24  1  0.84036849  0.17232178  -0.00375688  1
  Ag  Ag25  1  0.00089449  0.33929067  -0.00343720  1
  Ag  Ag26  1  0.00213738  0.16518005  0.83551413  1
  Ag  Ag27  1  0.15805946  -0.00612384  0.83871160  1
  Ag  Ag28  1  0.33298092  0.16455588  0.50418087  1
  Ag  Ag29  1  0.32645932  0.83223929  0.50610750  1
  Ag  Ag30  1  0.50158222  0.16294004  0.66985880  1
  Ag  Ag31  1  0.16424830  0.15917467  0.32591820  1
  Ag  Ag32  1  0.15855295  0.50487478  -0.00273873  1
  Ag  Ag33  1  0.49886478  0.67214115  0.83498836  1
  Ag  Ag34  1  0.00407726  0.65999822  -0.00509977  1
  Ag  Ag35  1  0.50873293  0.49811921  0.33205900  1
  Ag  Ag36  1  -0.00517033  -0.00070651  0.67951947  1
  Ag  Ag37  1  0.00715976  0.83151502  0.49866423  1
  Ag  Ag38  1  0.83747802  0.33740527  0.83562618  1
  Ag  Ag39  1  0.16416827  0.67218605  0.84211608  1
  Ag  Ag40  1  0.66580980  0.17241105  0.16556111  1
  Ag  Ag41  1  -0.00162446  0.83488897  0.83323641  1
  Ag  Ag42  1  0.50174421  0.33426349  0.49749771  1
  Ag  Ag43  1  0.83708208  0.66625029  0.83702761  1
  Ag  Ag44  1  0.33272438  0.82897187  0.83008522  1
  Ag  Ag45  1  0.32263637  0.66663609  0.32998054  1
  Ag  Ag46  1  0.00237383  -0.00559767  0.33053385  1
  Ag  Ag47  1  0.66917350  0.00219248  0.67194714  1
  Ag  Ag48  1  0.83825285  0.49825863  -0.00251184  1
  Ag  Ag49  1  0.67321848  0.66183292  -0.00479538  1
  Ag  Ag50  1  0.00295645  0.83465061  0.16631382  1
  Ag  Ag51  1  0.83405092  0.83621715  0.67219241  1
  Ag  Ag52  1  0.67192118  0.50703717  0.83652606  1
  Ag  Ag53  1  -0.00445990  0.50227297  0.83810890  1
  Sb  Sb54  1  0.50319419  0.49824281  0.66713691  1
  Sb  Sb55  1  0.16414195  0.50058932  0.67672332  1
  Sb  Sb56  1  0.32722847  0.83211730  0.16338178  1
  Sb  Sb57  1  0.66997219  0.33777325  -0.00085490  1
  Sb  Sb58  1  -0.00140434  0.16295970  0.15864761  1
  Sb  Sb59  1  0.15935790  0.33261541  0.83610403  1
  Sb  Sb60  1  0.66865731  0.16601733  0.83707934  1
  Sb  Sb61  1  0.33463659  0.33083152  0.67301701  1
  Sb  Sb62  1  0.83678087  0.83031600  -0.00829689  1
  Sb  Sb63  1  0.83957225  0.66943634  0.15982881  1
  Sb  Sb64  1  0.83615628  -0.00186885  0.50439859  1
  Sb  Sb65  1  -0.00372163  0.50327752  0.16107280  1
  Sb  Sb66  1  0.49944499  0.00316079  0.50357348  1
  Sb  Sb67  1  0.49361573  0.82962201  0.33728627  1
  Sb  Sb68  1  0.66183592  0.17285310  0.49827578  1
  Sb  Sb69  1  0.66972320  0.65895122  0.32721280  1
  Sb  Sb70  1  0.16522278  -0.00403876  0.49993578  1
  Sb  Sb71  1  0.67231675  0.00470913  0.33274449  1
  Sb  Sb72  1  0.49885508  0.83252248  -0.00754630  1
  Sb  Sb73  1  0.00002382  -0.00018927  -0.00163974  1
  Sb  Sb74  1  0.83792708  0.66540297  0.50361834  1
  Sb  Sb75  1  0.67173335  0.83375940  0.16117863  1
  Sb  Sb76  1  0.33485309  0.16652580  0.16260759  1
  Sb  Sb77  1  0.49519405  0.17092328  0.33506065  1
  Sb  Sb78  1  0.33290160  0.66886017  0.67312674  1
  Sb  Sb79  1  0.16726825  0.33360820  0.16349973  1
  Sb  Sb80  1  0.16386884  0.82994874  -0.00061254  1
  Sb  Sb81  1  0.66940398  -0.00273132  -0.00591651  1
  Sb  Sb82  1  0.50207060  0.49990162  0.00090152  1
  Sb  Sb83  1  0.49903684  0.16783727  -0.00373328  1
  Sb  Sb84  1  0.84036020  0.17109483  0.32580234  1
  Sb  Sb85  1  0.16917894  0.33646610  0.49763821  1
  Sb  Sb86  1  0.83061921  0.33215515  0.16124545  1
  Sb  Sb87  1  0.32742237  -0.00330987  0.33211583  1
  Sb  Sb88  1  0.33348410  -0.00079790  0.67094550  1
  Sb  Sb89  1  0.83288311  0.50215568  0.67517028  1
  Sb  Sb90  1  0.33400551  0.33676803  0.32985322  1
  Sb  Sb91  1  0.84158738  0.82958620  0.33562718  1
  Sb  Sb92  1  0.83006806  0.33567638  0.50441781  1
  Sb  Sb93  1  0.00004143  0.67024384  0.67412716  1
  Sb  Sb94  1  0.16383067  0.83430772  0.66748354  1
  Sb  Sb95  1  0.00506172  0.16389922  0.50319922  1
  Sb  Sb96  1  -0.00288966  0.50338636  0.50227462  1
  Sb  Sb97  1  0.50313152  0.33385572  0.83402861  1
  Sb  Sb98  1  0.66693067  0.66608316  0.67548035  1
  Sb  Sb99  1  0.83070303  0.16342389  0.67473399  1
  Sb  Sb100  1  0.49604520  0.66359760  0.50403807  1
  Sb  Sb101  1  0.66624410  0.82832970  0.50784770  1
  Sb  Sb102  1  0.33661724  0.50114539  0.16062637  1
  Sb  Sb103  1  0.49707688  0.66759939  0.16179712  1
  Sb  Sb104  1  0.33053457  -0.00123791  -0.00397726  1
  Sb  Sb105  1  0.16340389  0.50500739  0.32641463  1
  Sb  Sb106  1  0.33571423  0.50239502  0.50259074  1
  Sb  Sb107  1  0.16783480  0.16418931  0.67205511  1
  Te  Te108  1  0.16719406  0.16300920  0.16504791  1
  Te  Te109  1  0.17354809  0.16751668  0.49794195  1
  Te  Te110  1  0.16602311  0.16500476  0.83656515  1
  Te  Te111  1  0.16712725  0.50467777  0.15820029  1
  Te  Te112  1  0.16735289  0.50678185  0.50135136  1
  Te  Te113  1  0.16623502  0.50297044  0.83872608  1
  Te  Te114  1  0.16340829  0.83541484  0.16992590  1
  Te  Te115  1  0.16671741  0.83106547  0.49852984  1
  Te  Te116  1  0.16597549  0.83357738  0.83286732  1
  Te  Te117  1  0.50238040  0.16525582  0.16711109  1
  Te  Te118  1  0.49418275  0.17069992  0.50316217  1
  Te  Te119  1  0.49903043  0.16453993  0.83027080  1
  Te  Te120  1  0.50494279  0.49980429  0.17135573  1
  Te  Te121  1  0.50334552  0.49595951  0.49666059  1
  Te  Te122  1  0.50171693  0.50335094  0.83300201  1
  Te  Te123  1  0.50123663  0.83907255  0.16772662  1
  Te  Te124  1  0.49553870  0.83338437  0.50637104  1
  Te  Te125  1  0.49944910  0.83381579  0.83133465  1
  Te  Te126  1  0.82983717  0.16200907  0.16066272  1
  Te  Te127  1  0.83374801  0.16661274  0.49876591  1
  Te  Te128  1  0.83625258  0.16399142  0.83750155  1
  Te  Te129  1  0.82861161  0.50141820  0.16369617  1
  Te  Te130  1  0.82794374  0.50113678  0.49494186  1
  Te  Te131  1  0.83435389  0.50169532  0.83565112  1
  Te  Te132  1  0.83870671  0.84046978  0.16766128  1
  Te  Te133  1  0.83794307  0.83129037  0.50745121  1
  Te  Te134  1  0.83486416  0.83592797  0.83228562  1
  Te  Te135  1  0.16645054  0.00558393  0.00001357  1
  Te  Te136  1  0.16291728  -0.00189970  0.33152440  1
  Te  Te137  1  0.15755821  0.00029924  0.67440962  1
  Te  Te138  1  0.16500854  0.33268070  0.00128031  1
  Te  Te139  1  0.16442659  0.33248045  0.33110777  1
  Te  Te140  1  0.15756226  0.33245512  0.66411829  1
  Te  Te141  1  0.16474431  0.66616762  0.00015524  1
  Te  Te142  1  0.16488773  0.66673393  0.33009139  1
  Te  Te143  1  0.16619902  0.66626327  0.66464202  1
  Te  Te144  1  0.50053607  0.00077331  0.00029850  1
  Te  Te145  1  0.50160085  -0.00011183  0.32946142  1
  Te  Te146  1  0.50191516  0.00120421  0.66913453  1
  Te  Te147  1  0.49502592  0.33272398  0.00531633  1
  Te  Te148  1  0.50055913  0.33616059  0.33160349  1
  Te  Te149  1  0.50287519  0.33028578  0.66456317  1
  Te  Te150  1  0.49771755  0.66636566  -0.00493621  1
  Te  Te151  1  0.49907012  0.66147521  0.33298040  1
  Te  Te152  1  0.50019597  0.67083059  0.67302908  1
  Te  Te153  1  0.83329022  0.00465889  -0.00147353  1
  Te  Te154  1  0.83956112  0.00087804  0.33085177  1
  Te  Te155  1  0.83338626  -0.00198614  0.67078217  1
  Te  Te156  1  0.83685624  0.33502084  -0.00365255  1
  Te  Te157  1  0.83169510  0.33770065  0.33288548  1
  Te  Te158  1  0.83278942  0.33257239  0.67166955  1
  Te  Te159  1  0.83577901  0.66261023  -0.00418528  1
  Te  Te160  1  0.83839805  0.66169972  0.33249777  1
  Te  Te161  1  0.83337075  0.67335449  0.67426002  1
  Te  Te162  1  0.00054538  0.17064457  -0.00419654  1
  Te  Te163  1  0.00549961  0.16706659  0.33485533  1
  Te  Te164  1  -0.00089820  0.16564248  0.67105080  1
  Te  Te165  1  -0.00095587  0.49884879  -0.00104172  1
  Te  Te166  1  -0.00342494  0.49888197  0.33369822  1
  Te  Te167  1  -0.00183773  0.49156451  0.67179158  1
  Te  Te168  1  -0.00040032  0.82425746  -0.00120557  1
  Te  Te169  1  0.00226171  0.83250036  0.33392678  1
  Te  Te170  1  -0.00191104  0.83624800  0.67112944  1
  Te  Te171  1  0.32946609  0.16931198  -0.00473569  1
  Te  Te172  1  0.32637317  0.16733017  0.33538631  1
  Te  Te173  1  0.33732372  0.16611348  0.66874752  1
  Te  Te174  1  0.33435285  0.50012325  -0.00388246  1
  Te  Te175  1  0.33346832  0.50541828  0.33368318  1
  Te  Te176  1  0.33409719  0.49803144  0.67659241  1
  Te  Te177  1  0.33183459  0.82609716  -0.00693641  1
  Te  Te178  1  0.32811652  0.82881767  0.33576951  1
  Te  Te179  1  0.33790869  0.83451111  0.66827270  1
  Te  Te180  1  0.66974707  0.16723932  0.00577054  1
  Te  Te181  1  0.66745853  0.17327375  0.32897144  1
  Te  Te182  1  0.66306492  0.16842670  0.66576960  1
  Te  Te183  1  0.66852358  0.50176982  -0.00255280  1
  Te  Te184  1  0.66801153  0.49779173  0.32971207  1
  Te  Te185  1  0.66740798  0.49372911  0.66952179  1
  Te  Te186  1  0.66792349  0.82539609  -0.00681308  1
  Te  Te187  1  0.66620741  0.83326696  0.33624130  1
  Te  Te188  1  0.66677220  0.83569486  0.67060539  1
  Te  Te189  1  0.00090445  -0.00293903  0.16594315  1
  Te  Te190  1  0.00089063  -0.00493180  0.49478941  1
  Te  Te191  1  0.00018520  -0.00171701  0.83628623  1
  Te  Te192  1  -0.00121538  0.33220138  0.17040881  1
  Te  Te193  1  -0.00034184  0.33343122  0.49238545  1
  Te  Te194  1  -0.00147280  0.33235565  0.83668181  1
  Te  Te195  1  0.00319556  0.66991520  0.16762601  1
  Te  Te196  1  0.00391709  0.67069541  0.49847783  1
  Te  Te197  1  0.00167666  0.66617898  0.83382475  1
  Te  Te198  1  0.33657570  -0.00085235  0.16491876  1
  Te  Te199  1  0.33292166  -0.00108668  0.50042047  1
  Te  Te200  1  0.33563995  0.00043950  0.83361039  1
  Te  Te201  1  0.33963948  0.33339021  0.16086302  1
  Te  Te202  1  0.33817171  0.33215002  0.50090532  1
  Te  Te203  1  0.33436822  0.32976876  0.83711540  1
  Te  Te204  1  0.32892113  0.66780360  0.16625380  1
  Te  Te205  1  0.32914630  0.66966248  0.49741717  1
  Te  Te206  1  0.33066339  0.66796490  0.83461080  1
  Te  Te207  1  0.66577492  0.00000881  0.16691031  1
  Te  Te208  1  0.66765002  -0.00044398  0.50693513  1
  Te  Te209  1  0.66397724  -0.00111343  0.83017552  1
  Te  Te210  1  0.66537840  0.33455314  0.16702033  1
  Te  Te211  1  0.66373239  0.33725396  0.49931455  1
  Te  Te212  1  0.67121302  0.33446743  0.83075403  1
  Te  Te213  1  0.66656969  0.66450121  0.15888172  1
  Te  Te214  1  0.66618440  0.65877757  0.49900061  1
  Te  Te215  1  0.66719977  0.66753116  0.83497494  1
