# generated using pymatgen
data_AgSbTe2
_symmetry_space_group_name_H-M   'P 1'
_cell_length_a   18.33707145
_cell_length_b   18.33383973
_cell_length_c   18.33635772
_cell_angle_alpha   90.00261003
_cell_angle_beta   90.00300351
_cell_angle_gamma   89.99851743
_symmetry_Int_Tables_number   1
_chemical_formula_structural   AgSbTe2
_chemical_formula_sum   'Ag54 Sb54 Te108'
_cell_volume   6164.48044895
_cell_formula_units_Z   54
loop_
 _symmetry_equiv_pos_site_id
 _symmetry_equiv_pos_as_xyz
  1  'x, y, z'
loop_
 _atom_site_type_symbol
 _atom_site_label
 _atom_site_symmetry_multiplicity
 _atom_site_fract_x
 _atom_site_fract_y
 _atom_site_fract_z
 _atom_site_occupancy
  Ag  Ag0  1  0.00234383  -0.00328684  0.34064560  1
  Ag  Ag1  1  0.33061278  0.15408021  0.50376789  1
  Ag  Ag2  1  0.83853977  -0.00375659  0.50194596  1
  Ag  Ag3  1  0.66699123  0.67704123  0.66602299  1
  Ag  Ag4  1  0.00000311  0.33939324  0.33011559  1
  Ag  Ag5  1  0.84320090  0.16530151  -0.00305997  1
  Ag  Ag6  1  0.84200874  0.83984458  0.65871114  1
  Ag  Ag7  1  0.67043085  0.00396301  0.34230929  1
  Ag  Ag8  1  0.00469672  0.67556027  0.65552204  1
  Ag  Ag9  1  0.48368306  0.00239086  0.50893000  1
  Ag  Ag10  1  0.32627635  0.84159369  0.50095487  1
  Ag  Ag11  1  0.49984988  0.00199092  0.81858747  1
  Ag  Ag12  1  0.00646291  0.49390325  0.17200666  1
  Ag  Ag13  1  0.00821215  0.67540657  0.00065268  1
  Ag  Ag14  1  0.16733117  0.66554591  0.82703798  1
  Ag  Ag15  1  0.00255713  0.16884448  0.16600080  1
  Ag  Ag16  1  0.32498830  0.67429725  0.66832058  1
  Ag  Ag17  1  0.49596136  0.32518831  0.50745532  1
  Ag  Ag18  1  0.32124324  -0.00250105  0.34770087  1
  Ag  Ag19  1  0.33031497  0.50287258  0.83473041  1
  Ag  Ag20  1  0.32601104  0.50730960  0.16577062  1
  Ag  Ag21  1  0.66380940  0.32013317  0.66602958  1
  Ag  Ag22  1  0.34475370  -0.00490981  0.65913522  1
  Ag  Ag23  1  0.16385990  0.67957461  0.50572271  1
  Ag  Ag24  1  0.32445779  0.67058632  -0.00336302  1
  Ag  Ag25  1  0.49415500  0.66925562  0.16560454  1
  Ag  Ag26  1  0.16749542  0.83466023  0.00108630  1
  Ag  Ag27  1  0.49007642  0.83381645  -0.00766065  1
  Ag  Ag28  1  0.84401968  0.33162878  0.17127625  1
  Ag  Ag29  1  0.33201561  0.83034041  0.16884720  1
  Ag  Ag30  1  0.00427435  -0.00394422  0.00051383  1
  Ag  Ag31  1  0.50350486  0.15599016  0.66701343  1
  Ag  Ag32  1  0.16427922  0.00371210  0.17499549  1
  Ag  Ag33  1  0.16706826  0.16345469  0.66661964  1
  Ag  Ag34  1  0.84792126  0.68052688  0.50150413  1
  Ag  Ag35  1  0.84421789  0.49961884  0.33286686  1
  Ag  Ag36  1  0.83761986  0.83527213  0.34208852  1
  Ag  Ag37  1  0.16714338  0.32779151  0.49847144  1
  Ag  Ag38  1  -0.00007094  0.66866786  0.33579964  1
  Ag  Ag39  1  0.67323576  0.32879953  0.33551982  1
  Ag  Ag40  1  0.49961936  0.84369118  0.66824802  1
  Ag  Ag41  1  0.16199210  0.49854149  0.33220195  1
  Ag  Ag42  1  0.66516890  0.16760864  0.82818055  1
  Ag  Ag43  1  0.00250807  0.83411228  0.81878835  1
  Ag  Ag44  1  0.17022373  -0.00212776  0.50091979  1
  Ag  Ag45  1  0.16880392  0.33365386  0.83311100  1
  Ag  Ag46  1  0.82831364  0.15672165  0.66792916  1
  Ag  Ag47  1  0.49900652  0.32700423  0.82501509  1
  Ag  Ag48  1  -0.00010436  -0.00459901  0.65882276  1
  Ag  Ag49  1  0.66686382  0.32892708  -0.00522375  1
  Ag  Ag50  1  0.00209245  0.83534237  0.50222211  1
  Ag  Ag51  1  0.65700302  0.00209043  0.66011371  1
  Ag  Ag52  1  0.16196782  0.32979285  0.16818993  1
  Ag  Ag53  1  0.16251088  0.16198535  -0.00237631  1
  Sb  Sb54  1  0.00186750  0.50842136  0.49211731  1
  Sb  Sb55  1  0.83550840  0.16460624  0.33744043  1
  Sb  Sb56  1  0.32736386  -0.00591099  -0.00241841  1
  Sb  Sb57  1  0.66242273  0.16348735  0.50740437  1
  Sb  Sb58  1  0.83499270  0.66369632  0.17197695  1
  Sb  Sb59  1  0.49218356  -0.00343241  0.17037956  1
  Sb  Sb60  1  0.32461770  0.16375415  0.17051762  1
  Sb  Sb61  1  0.00563960  0.83533457  0.17074575  1
  Sb  Sb62  1  0.16788191  0.66656221  0.16751725  1
  Sb  Sb63  1  0.49538031  0.67315927  0.50055610  1
  Sb  Sb64  1  0.49706333  0.49940777  0.33316638  1
  Sb  Sb65  1  0.00733672  0.50545515  0.83913131  1
  Sb  Sb66  1  0.67329365  0.16777623  0.16202071  1
  Sb  Sb67  1  0.16689424  0.50093782  0.00524871  1
  Sb  Sb68  1  0.83471755  0.50229893  0.65959567  1
  Sb  Sb69  1  0.00000747  0.32987258  0.00569637  1
  Sb  Sb70  1  0.49817574  0.49981700  0.66662676  1
  Sb  Sb71  1  0.16547286  0.83763959  0.66603206  1
  Sb  Sb72  1  0.50061358  0.16565528  0.34130091  1
  Sb  Sb73  1  0.83408273  0.33083158  0.83605414  1
  Sb  Sb74  1  0.33449650  0.33626530  -0.00192093  1
  Sb  Sb75  1  0.32973460  0.50279178  0.50042595  1
  Sb  Sb76  1  0.33407072  0.16756236  0.82660786  1
  Sb  Sb77  1  0.67461913  0.66786394  0.33960613  1
  Sb  Sb78  1  0.66140113  0.83498045  0.16728896  1
  Sb  Sb79  1  0.16615536  0.49980913  0.66225934  1
  Sb  Sb80  1  0.66774084  0.49782043  0.16845362  1
  Sb  Sb81  1  0.67133865  0.83770703  0.50277473  1
  Sb  Sb82  1  0.49338304  0.66945681  0.83319411  1
  Sb  Sb83  1  0.00609815  0.15769956  0.49788520  1
  Sb  Sb84  1  0.33576986  0.33042964  0.66569502  1
  Sb  Sb85  1  0.83701564  0.49544834  0.00638374  1
  Sb  Sb86  1  -0.00045727  0.16202135  0.83559173  1
  Sb  Sb87  1  0.84301261  0.00471919  0.17352700  1
  Sb  Sb88  1  0.50141672  0.83577938  0.33950508  1
  Sb  Sb89  1  0.83581436  0.32897918  0.49620610  1
  Sb  Sb90  1  0.32622208  0.67180510  0.33452409  1
  Sb  Sb91  1  0.84221709  0.66886336  0.82469434  1
  Sb  Sb92  1  0.16247598  0.83337157  0.33309849  1
  Sb  Sb93  1  0.66018125  0.49318303  0.83116358  1
  Sb  Sb94  1  0.83972540  0.83924956  -0.00049834  1
  Sb  Sb95  1  0.83219520  0.00095845  0.82263832  1
  Sb  Sb96  1  0.66605416  0.66475954  -0.00571038  1
  Sb  Sb97  1  0.32737966  0.83096115  0.83036630  1
  Sb  Sb98  1  0.66791862  0.83768786  0.82872855  1
  Sb  Sb99  1  0.49774991  0.50425151  -0.00050498  1
  Sb  Sb100  1  0.16380337  0.16632961  0.33684901  1
  Sb  Sb101  1  -0.00090636  0.33013556  0.66158566  1
  Sb  Sb102  1  0.66689766  0.49795037  0.49975523  1
  Sb  Sb103  1  0.49756864  0.33626361  0.16644295  1
  Sb  Sb104  1  0.32854987  0.33011065  0.33503100  1
  Sb  Sb105  1  0.16792612  -0.00138216  0.82857500  1
  Sb  Sb106  1  0.49735887  0.16157829  -0.00711610  1
  Sb  Sb107  1  0.67103673  0.00392201  -0.00315505  1
  Te  Te108  1  0.16326191  0.16597174  0.16380342  1
  Te  Te109  1  0.16943291  0.16539555  0.50323326  1
  Te  Te110  1  0.16662402  0.17048725  0.83271425  1
  Te  Te111  1  0.16628815  0.49968664  0.17029985  1
  Te  Te112  1  0.16740890  0.48953766  0.49399245  1
  Te  Te113  1  0.17141449  0.49978163  0.83355790  1
  Te  Te114  1  0.17145464  0.83711339  0.16262373  1
  Te  Te115  1  0.16542312  0.83616271  0.49857557  1
  Te  Te116  1  0.16187672  0.82946187  0.84067450  1
  Te  Te117  1  0.49774683  0.16742950  0.16428005  1
  Te  Te118  1  0.49540667  0.16522818  0.50610213  1
  Te  Te119  1  0.50061405  0.16693637  0.82887786  1
  Te  Te120  1  0.49310993  0.50557450  0.16672686  1
  Te  Te121  1  0.49816985  0.48998531  0.49863807  1
  Te  Te122  1  0.49237295  0.49295265  0.83418903  1
  Te  Te123  1  0.49394623  0.83001315  0.16641030  1
  Te  Te124  1  0.49429228  0.83809758  0.50566264  1
  Te  Te125  1  0.50052811  0.83588645  0.83086152  1
  Te  Te126  1  0.83939256  0.17141224  0.16217845  1
  Te  Te127  1  0.83567462  0.16134331  0.50764289  1
  Te  Te128  1  0.82981239  0.16701137  0.83233849  1
  Te  Te129  1  0.83618952  0.49499276  0.17298123  1
  Te  Te130  1  0.83382859  0.50093513  0.49192539  1
  Te  Te131  1  0.83332823  0.49987131  0.83498963  1
  Te  Te132  1  0.83089636  0.83330111  0.16952701  1
  Te  Te133  1  0.83448113  0.83503036  0.50234882  1
  Te  Te134  1  0.84086785  0.83386401  0.83036062  1
  Te  Te135  1  0.16421299  0.00003567  -0.00535153  1
  Te  Te136  1  0.16409995  -0.00030476  0.33515631  1
  Te  Te137  1  0.15916911  0.00323895  0.66526342  1
  Te  Te138  1  0.16703051  0.33003348  0.00045604  1
  Te  Te139  1  0.16435182  0.33319126  0.33180985  1
  Te  Te140  1  0.16705972  0.32937932  0.66541153  1
  Te  Te141  1  0.16743974  0.66696554  0.00170262  1
  Te  Te142  1  0.16139141  0.66398783  0.33845425  1
  Te  Te143  1  0.16529499  0.66561168  0.66629351  1
  Te  Te144  1  0.50094815  -0.00711220  0.00141212  1
  Te  Te145  1  0.50725458  -0.00026727  0.33833549  1
  Te  Te146  1  0.50038997  0.00022417  0.66339074  1
  Te  Te147  1  0.50431297  0.33148260  -0.00332148  1
  Te  Te148  1  0.50378758  0.33314811  0.33707806  1
  Te  Te149  1  0.50210676  0.33338849  0.66668576  1
  Te  Te150  1  0.49991297  0.67307671  0.00132168  1
  Te  Te151  1  0.50333236  0.66705637  0.33008615  1
  Te  Te152  1  0.50141694  0.66875262  0.66547470  1
  Te  Te153  1  0.83865737  0.00624461  0.00193369  1
  Te  Te154  1  0.83504371  -0.00181351  0.33733784  1
  Te  Te155  1  0.84097803  -0.00101334  0.66388868  1
  Te  Te156  1  0.83046331  0.32799126  0.00411601  1
  Te  Te157  1  0.83568425  0.33219084  0.33160219  1
  Te  Te158  1  0.82898760  0.33260316  0.66613058  1
  Te  Te159  1  0.83558526  0.66781604  -0.00018222  1
  Te  Te160  1  0.83712433  0.66787022  0.33852244  1
  Te  Te161  1  0.83468735  0.66868711  0.66094577  1
  Te  Te162  1  0.00199122  0.16446284  0.00157068  1
  Te  Te163  1  -0.00143484  0.16261885  0.32752901  1
  Te  Te164  1  0.00149148  0.16369831  0.66820532  1
  Te  Te165  1  -0.00018655  0.50834547  0.00791158  1
  Te  Te166  1  0.00124369  0.49816286  0.33111717  1
  Te  Te167  1  -0.00124139  0.50725605  0.66930556  1
  Te  Te168  1  0.00294551  0.83462925  0.00471014  1
  Te  Te169  1  -0.00284902  0.83475092  0.33589558  1
  Te  Te170  1  0.00139633  0.83220241  0.66319956  1
  Te  Te171  1  0.32593563  0.16628596  0.00010159  1
  Te  Te172  1  0.33351717  0.15847151  0.33964002  1
  Te  Te173  1  0.33084018  0.16418751  0.66342277  1
  Te  Te174  1  0.33340563  0.50691880  0.00218915  1
  Te  Te175  1  0.32843316  0.50094316  0.32810901  1
  Te  Te176  1  0.33200203  0.50944566  0.66973506  1
  Te  Te177  1  0.33193545  0.82938572  -0.00102908  1
  Te  Te178  1  0.33448406  0.83824223  0.33377296  1
  Te  Te179  1  0.33233354  0.83410078  0.66542426  1
  Te  Te180  1  0.66681619  0.17054973  -0.00573049  1
  Te  Te181  1  0.66818604  0.16729965  0.33060035  1
  Te  Te182  1  0.66608858  0.16301492  0.66849994  1
  Te  Te183  1  0.66744502  0.49043690  -0.00024743  1
  Te  Te184  1  0.66966632  0.49539776  0.33288887  1
  Te  Te185  1  0.66713525  0.50054122  0.66709590  1
  Te  Te186  1  0.66472222  0.83298890  -0.00182566  1
  Te  Te187  1  0.67344828  0.83732565  0.33337983  1
  Te  Te188  1  0.66460502  0.83690610  0.66797461  1
  Te  Te189  1  0.00593744  0.00237341  0.16442989  1
  Te  Te190  1  0.00121921  -0.00225086  0.49886151  1
  Te  Te191  1  -0.00042342  -0.00499407  0.83790768  1
  Te  Te192  1  0.00252246  0.33321500  0.16732379  1
  Te  Te193  1  0.00456347  0.33165794  0.49463463  1
  Te  Te194  1  0.00728475  0.33590049  0.83260223  1
  Te  Te195  1  -0.00041839  0.66447074  0.17048907  1
  Te  Te196  1  0.00381039  0.67012249  0.49744176  1
  Te  Te197  1  0.00667691  0.67076620  0.83945383  1
  Te  Te198  1  0.32561917  -0.00430268  0.16658151  1
  Te  Te199  1  0.32893432  -0.00214683  0.50273295  1
  Te  Te200  1  0.33859072  -0.00044689  0.82717048  1
  Te  Te201  1  0.32764425  0.33665279  0.16658879  1
  Te  Te202  1  0.33167976  0.33424285  0.49954450  1
  Te  Te203  1  0.33089116  0.33820272  0.83268942  1
  Te  Te204  1  0.33341852  0.66896227  0.16773638  1
  Te  Te205  1  0.32816384  0.67060812  0.50331606  1
  Te  Te206  1  0.32933075  0.66473505  0.83362592  1
  Te  Te207  1  0.66632537  0.00163967  0.17072618  1
  Te  Te208  1  0.67396806  0.00035928  0.50059488  1
  Te  Te209  1  0.66183688  0.00470930  0.82961829  1
  Te  Te210  1  0.66605289  0.33328444  0.17115645  1
  Te  Te211  1  0.66688275  0.33140307  0.49996446  1
  Te  Te212  1  0.66602189  0.32906534  0.82960674  1
  Te  Te213  1  0.66060008  0.66601822  0.16517649  1
  Te  Te214  1  0.66428367  0.66593675  0.50682577  1
  Te  Te215  1  0.66665352  0.66391153  0.82688072  1
