# generated using pymatgen
data_AgSbTe2
_symmetry_space_group_name_H-M   'P 1'
_cell_length_a   18.34475250
_cell_length_b   18.34659400
_cell_length_c   18.34667751
_cell_angle_alpha   90.00135268
_cell_angle_beta   90.00389462
_cell_angle_gamma   90.00445318
_symmetry_Int_Tables_number   1
_chemical_formula_structural   AgSbTe2
_chemical_formula_sum   'Ag54 Sb54 Te108'
_cell_volume   6174.82611358
_cell_formula_units_Z   54
loop_
 _symmetry_equiv_pos_site_id
 _symmetry_equiv_pos_as_xyz
  1  'x, y, z'
loop_
 _atom_site_type_symbol
 _atom_site_label
 _atom_site_symmetry_multiplicity
 _atom_site_fract_x
 _atom_site_fract_y
 _atom_site_fract_z
 _atom_site_occupancy
  Ag  Ag0  1  0.84280179  0.66839815  0.82288822  1
  Ag  Ag1  1  0.49369542  0.00023945  0.49965837  1
  Ag  Ag2  1  0.83271073  0.50396854  0.33741617  1
  Ag  Ag3  1  0.49667214  0.34352507  0.83549318  1
  Ag  Ag4  1  0.32570329  0.83015620  0.83085663  1
  Ag  Ag5  1  0.50082439  0.66196908  0.83072837  1
  Ag  Ag6  1  0.33418138  0.66264772  0.66661947  1
  Ag  Ag7  1  0.84178908  0.66347182  0.51009420  1
  Ag  Ag8  1  -0.00273047  0.82997192  0.83975673  1
  Ag  Ag9  1  0.16640127  0.00137901  0.50036871  1
  Ag  Ag10  1  -0.00122719  0.82100921  0.50258131  1
  Ag  Ag11  1  0.16190645  0.18116005  0.33179003  1
  Ag  Ag12  1  0.84000384  0.17263860  0.33218766  1
  Ag  Ag13  1  0.33519065  0.34112749  0.65676734  1
  Ag  Ag14  1  0.00236300  0.17297061  0.15568078  1
  Ag  Ag15  1  0.83302449  0.50890639  0.65572035  1
  Ag  Ag16  1  -0.00066042  0.01075701  -0.00489333  1
  Ag  Ag17  1  0.00544046  0.32307233  0.00424075  1
  Ag  Ag18  1  0.34248871  0.49618659  0.17638297  1
  Ag  Ag19  1  -0.00020912  0.66744063  -0.00516396  1
  Ag  Ag20  1  0.32992897  0.49770439  0.49547340  1
  Ag  Ag21  1  0.84319932  0.16383051  0.00170740  1
  Ag  Ag22  1  0.00059094  0.16220619  0.84281865  1
  Ag  Ag23  1  -0.00181642  0.50825066  0.83282860  1
  Ag  Ag24  1  0.32361472  0.33850394  0.33440243  1
  Ag  Ag25  1  0.15803463  0.00009430  0.83221131  1
  Ag  Ag26  1  0.49838468  0.49875246  0.01457848  1
  Ag  Ag27  1  0.16646476  0.49553538  0.33556833  1
  Ag  Ag28  1  0.83680830  0.82225238  0.33240860  1
  Ag  Ag29  1  0.84004811  0.83244280  -0.00552911  1
  Ag  Ag30  1  -0.00387603  0.83092287  0.16055192  1
  Ag  Ag31  1  0.15456493  0.17106092  0.00882016  1
  Ag  Ag32  1  0.49159981  0.34609183  0.16801237  1
  Ag  Ag33  1  0.84121460  -0.01311149  0.83550131  1
  Ag  Ag34  1  0.16483967  0.65711572  0.17335726  1
  Ag  Ag35  1  0.32460821  0.33589385  0.00937292  1
  Ag  Ag36  1  0.00147959  0.50418556  0.49831915  1
  Ag  Ag37  1  0.16965627  0.33960513  0.17720682  1
  Ag  Ag38  1  0.16897198  0.34029212  0.48891582  1
  Ag  Ag39  1  0.15815848  0.65733580  0.49610812  1
  Ag  Ag40  1  -0.00782013  0.66621656  0.66784110  1
  Ag  Ag41  1  0.49126864  0.18114571  0.33373054  1
  Ag  Ag42  1  0.65471681  0.50491858  0.17704597  1
  Ag  Ag43  1  0.49689075  0.49752144  0.32882143  1
  Ag  Ag44  1  0.32882079  0.18010418  0.49732015  1
  Ag  Ag45  1  0.67762372  0.82318576  0.16928128  1
  Ag  Ag46  1  0.68035655  0.66249260  0.66207505  1
  Ag  Ag47  1  0.83469548  0.82038210  0.67286657  1
  Ag  Ag48  1  0.67138013  0.50314547  0.49504075  1
  Ag  Ag49  1  0.66220704  0.34396476  0.66527352  1
  Ag  Ag50  1  0.01111214  0.33409016  0.32808525  1
  Ag  Ag51  1  0.50087577  0.65703138  0.16456225  1
  Ag  Ag52  1  0.66930264  0.66209358  0.33633305  1
  Ag  Ag53  1  0.50321711  0.82438444  0.66722982  1
  Sb  Sb54  1  -0.00441752  0.66104104  0.33619212  1
  Sb  Sb55  1  0.49788688  0.17580301  0.00663634  1
  Sb  Sb56  1  0.83569980  0.16914273  0.66615541  1
  Sb  Sb57  1  0.83445923  0.33740373  0.83349041  1
  Sb  Sb58  1  0.00039276  0.49974435  0.16949884  1
  Sb  Sb59  1  -0.00036640  0.00386317  0.33063223  1
  Sb  Sb60  1  0.33110869  0.82098521  0.16191654  1
  Sb  Sb61  1  0.16162981  0.83029074  0.66661020  1
  Sb  Sb62  1  0.67432058  -0.00190515  -0.00059624  1
  Sb  Sb63  1  0.33023229  0.50132422  0.83032386  1
  Sb  Sb64  1  0.16297293  0.50192345  0.65881851  1
  Sb  Sb65  1  0.32833519  0.16710555  0.82905747  1
  Sb  Sb66  1  0.83942578  0.34254361  0.49833858  1
  Sb  Sb67  1  0.16749184  0.49569832  0.00620122  1
  Sb  Sb68  1  0.50360265  0.50361522  0.66304430  1
  Sb  Sb69  1  0.49849996  -0.00417584  0.82976960  1
  Sb  Sb70  1  0.66340536  0.17584209  0.49652741  1
  Sb  Sb71  1  0.66621553  0.34293284  0.33632418  1
  Sb  Sb72  1  0.33217346  0.01015932  0.33559737  1
  Sb  Sb73  1  0.32843328  0.82819570  0.50371772  1
  Sb  Sb74  1  0.00183875  0.34108472  0.66727656  1
  Sb  Sb75  1  0.33575295  0.65841910  0.33748735  1
  Sb  Sb76  1  0.15792011  0.83541990  -0.00086210  1
  Sb  Sb77  1  0.16336156  0.00296179  0.16783098  1
  Sb  Sb78  1  0.33011283  0.66103074  -0.00319676  1
  Sb  Sb79  1  0.67393890  0.82888347  0.83424337  1
  Sb  Sb80  1  0.83693056  0.33432229  0.16829732  1
  Sb  Sb81  1  0.16559896  0.16852154  0.66288015  1
  Sb  Sb82  1  0.66914366  0.50241808  0.83086640  1
  Sb  Sb83  1  0.83799696  -0.00751204  0.50366581  1
  Sb  Sb84  1  0.50489592  0.82601770  -0.00425574  1
  Sb  Sb85  1  0.67135635  0.66475019  0.00099481  1
  Sb  Sb86  1  0.50416337  0.82679997  0.33637682  1
  Sb  Sb87  1  0.16896988  0.33075417  0.83446546  1
  Sb  Sb88  1  0.15968403  0.82958378  0.33478951  1
  Sb  Sb89  1  -0.00049137  -0.00846118  0.67416435  1
  Sb  Sb90  1  0.50044772  0.66656554  0.50199114  1
  Sb  Sb91  1  0.50036131  -0.00162881  0.17114493  1
  Sb  Sb92  1  0.16291687  0.66917758  0.83174492  1
  Sb  Sb93  1  0.32524177  0.00620104  -0.00156288  1
  Sb  Sb94  1  0.67245376  0.82521195  0.49809206  1
  Sb  Sb95  1  0.67119069  0.17113116  0.16996972  1
  Sb  Sb96  1  0.32595044  0.17737963  0.17173221  1
  Sb  Sb97  1  0.83410868  0.50211232  0.00230092  1
  Sb  Sb98  1  0.00483771  0.16981001  0.49765939  1
  Sb  Sb99  1  0.66778968  -0.00687516  0.66542662  1
  Sb  Sb100  1  0.49857105  0.16840727  0.66157881  1
  Sb  Sb101  1  0.33256539  -0.00305088  0.66497095  1
  Sb  Sb102  1  0.83423012  0.66791017  0.16794056  1
  Sb  Sb103  1  0.66788789  0.33612380  -0.00070850  1
  Sb  Sb104  1  0.66885592  -0.00527693  0.33527905  1
  Sb  Sb105  1  0.49221427  0.33464726  0.49689947  1
  Sb  Sb106  1  0.83657802  -0.00229855  0.16220450  1
  Sb  Sb107  1  0.67156800  0.16991597  0.83366134  1
  Te  Te108  1  0.16192888  0.16844413  0.16941311  1
  Te  Te109  1  0.16923296  0.16507461  0.49644756  1
  Te  Te110  1  0.16277466  0.16209528  0.83336416  1
  Te  Te111  1  0.16600099  0.49875749  0.17120870  1
  Te  Te112  1  0.16614877  0.50020965  0.49771291  1
  Te  Te113  1  0.15938461  0.50018599  0.83427937  1
  Te  Te114  1  0.16274544  0.82972338  0.16694756  1
  Te  Te115  1  0.16066602  0.83629500  0.49998244  1
  Te  Te116  1  0.16386778  0.83748158  0.83307967  1
  Te  Te117  1  0.50110378  0.16658537  0.17441313  1
  Te  Te118  1  0.49591439  0.16387447  0.49392453  1
  Te  Te119  1  0.50011637  0.16571113  0.83529318  1
  Te  Te120  1  0.49887260  0.50108543  0.16936435  1
  Te  Te121  1  0.49653399  0.50092667  0.49379314  1
  Te  Te122  1  0.49891824  0.50161128  0.83062768  1
  Te  Te123  1  0.50001336  0.82861119  0.16583858  1
  Te  Te124  1  0.49925149  0.83639181  0.50491928  1
  Te  Te125  1  0.50133651  0.83053201  0.82863795  1
  Te  Te126  1  0.83894279  0.16568673  0.16821682  1
  Te  Te127  1  0.83295731  0.16372068  0.49631580  1
  Te  Te128  1  0.83846259  0.16898900  0.83506170  1
  Te  Te129  1  0.82914842  0.49989847  0.17167729  1
  Te  Te130  1  0.83504089  0.50327768  0.49796053  1
  Te  Te131  1  0.83687753  0.50550348  0.83478429  1
  Te  Te132  1  0.83589667  0.83322117  0.17067569  1
  Te  Te133  1  0.83768894  0.82885121  0.49709113  1
  Te  Te134  1  0.83565771  0.82866618  0.83383329  1
  Te  Te135  1  0.16111195  0.00663963  -0.00191311  1
  Te  Te136  1  0.16702287  0.00138394  0.33830499  1
  Te  Te137  1  0.16661924  0.00016922  0.66608606  1
  Te  Te138  1  0.16518544  0.33073889  -0.00002364  1
  Te  Te139  1  0.16743458  0.33564965  0.33299917  1
  Te  Te140  1  0.17270039  0.33452267  0.66395080  1
  Te  Te141  1  0.16242848  0.66614741  0.00460505  1
  Te  Te142  1  0.16831933  0.66303630  0.33447428  1
  Te  Te143  1  0.17308435  0.66708372  0.66086063  1
  Te  Te144  1  0.49962889  0.00235662  -0.00013202  1
  Te  Te145  1  0.50042293  -0.00100001  0.33953428  1
  Te  Te146  1  0.50077372  -0.00412853  0.66142916  1
  Te  Te147  1  0.50036387  0.33684813  0.00019077  1
  Te  Te148  1  0.50124069  0.33705956  0.33139975  1
  Te  Te149  1  0.49822412  0.33344649  0.66830132  1
  Te  Te150  1  0.49877875  0.66171794  -0.00147929  1
  Te  Te151  1  0.50484796  0.66224902  0.32948144  1
  Te  Te152  1  0.49338920  0.66741282  0.66807992  1
  Te  Te153  1  0.83870156  -0.00176546  -0.00414209  1
  Te  Te154  1  0.83350750  0.00259287  0.33489934  1
  Te  Te155  1  0.83207154  -0.00273136  0.67284872  1
  Te  Te156  1  0.83936673  0.33061222  0.00028365  1
  Te  Te157  1  0.83507312  0.33260683  0.33343511  1
  Te  Te158  1  0.82965898  0.33818173  0.66631352  1
  Te  Te159  1  0.83805227  0.66962236  -0.00310279  1
  Te  Te160  1  0.82993166  0.66472215  0.33353537  1
  Te  Te161  1  0.83565858  0.66526176  0.66657403  1
  Te  Te162  1  -0.00070727  0.16699954  -0.00067773  1
  Te  Te163  1  0.00125901  0.17061403  0.33326391  1
  Te  Te164  1  -0.00098481  0.16877025  0.67320481  1
  Te  Te165  1  -0.00062719  0.50664007  -0.00159924  1
  Te  Te166  1  -0.00078545  0.49494230  0.33495533  1
  Te  Te167  1  -0.00414608  0.50426681  0.66586411  1
  Te  Te168  1  -0.00238810  0.82645211  -0.00046964  1
  Te  Te169  1  -0.00450660  0.83619382  0.33213338  1
  Te  Te170  1  -0.00416933  0.82745529  0.66464869  1
  Te  Te171  1  0.32953283  0.17411253  -0.00036805  1
  Te  Te172  1  0.33330397  0.17478902  0.33632663  1
  Te  Te173  1  0.33367492  0.17162026  0.65995111  1
  Te  Te174  1  0.33651253  0.49416494  -0.00159167  1
  Te  Te175  1  0.33245585  0.49885345  0.33462793  1
  Te  Te176  1  0.33371917  0.49948273  0.66372171  1
  Te  Te177  1  0.33463110  0.83492756  -0.00677884  1
  Te  Te178  1  0.33365020  0.83370299  0.33215710  1
  Te  Te179  1  0.33706060  0.83027932  0.67044640  1
  Te  Te180  1  0.67568605  0.16672383  0.00242743  1
  Te  Te181  1  0.67234111  0.16474832  0.33256400  1
  Te  Te182  1  0.66677278  0.17206526  0.66551439  1
  Te  Te183  1  0.66167127  0.49948816  0.00436710  1
  Te  Te184  1  0.67013654  0.50264773  0.33551126  1
  Te  Te185  1  0.66964213  0.50319882  0.66540209  1
  Te  Te186  1  0.67335263  0.83276462  0.00766704  1
  Te  Te187  1  0.67199196  0.82712624  0.33033473  1
  Te  Te188  1  0.66851944  0.82623726  0.66601114  1
  Te  Te189  1  0.00118988  -0.00513197  0.15952716  1
  Te  Te190  1  0.00443148  0.00063820  0.50165975  1
  Te  Te191  1  -0.00022986  -0.00304680  0.83493270  1
  Te  Te192  1  0.00260372  0.33294489  0.16604994  1
  Te  Te193  1  0.00664012  0.33768790  0.49861615  1
  Te  Te194  1  0.00099069  0.33472005  0.83599688  1
  Te  Te195  1  0.00265667  0.66812239  0.16757507  1
  Te  Te196  1  0.00082077  0.66486062  0.49850373  1
  Te  Te197  1  0.00214259  0.66853325  0.82993381  1
  Te  Te198  1  0.33296138  -0.00329970  0.16614523  1
  Te  Te199  1  0.33068213  -0.00259279  0.50038671  1
  Te  Te200  1  0.32944942  -0.00546766  0.83285350  1
  Te  Te201  1  0.33154105  0.33645036  0.16837898  1
  Te  Te202  1  0.33129106  0.33693910  0.49747290  1
  Te  Te203  1  0.33693274  0.33317892  0.83198552  1
  Te  Te204  1  0.33299149  0.65834702  0.16500899  1
  Te  Te205  1  0.33036150  0.66260530  0.50417176  1
  Te  Te206  1  0.33325649  0.66912077  0.82998636  1
  Te  Te207  1  0.66600266  -0.00846177  0.16673246  1
  Te  Te208  1  0.66348818  0.00170122  0.50158537  1
  Te  Te209  1  0.67205697  0.00095435  0.83265526  1
  Te  Te210  1  0.65969324  0.33837558  0.16683673  1
  Te  Te211  1  0.66674404  0.34152332  0.50561226  1
  Te  Te212  1  0.65933202  0.33441914  0.82873109  1
  Te  Te213  1  0.66596458  0.66463599  0.16614006  1
  Te  Te214  1  0.66677747  0.66231872  0.50090909  1
  Te  Te215  1  0.66060820  0.66617985  0.82941898  1
