# generated using pymatgen
data_AgSbTe2
_symmetry_space_group_name_H-M   'P 1'
_cell_length_a   18.31881266
_cell_length_b   18.32373675
_cell_length_c   18.32432029
_cell_angle_alpha   89.99921995
_cell_angle_beta   90.00325275
_cell_angle_gamma   90.00340780
_symmetry_Int_Tables_number   1
_chemical_formula_structural   AgSbTe2
_chemical_formula_sum   'Ag54 Sb54 Te108'
_cell_volume   6150.90809089
_cell_formula_units_Z   54
loop_
 _symmetry_equiv_pos_site_id
 _symmetry_equiv_pos_as_xyz
  1  'x, y, z'
loop_
 _atom_site_type_symbol
 _atom_site_label
 _atom_site_symmetry_multiplicity
 _atom_site_fract_x
 _atom_site_fract_y
 _atom_site_fract_z
 _atom_site_occupancy
  Ag  Ag0  1  0.84479605  -0.00378953  0.83559044  1
  Ag  Ag1  1  0.15891096  0.66904591  0.16874570  1
  Ag  Ag2  1  0.82966503  0.83235391  0.33330618  1
  Ag  Ag3  1  0.15631863  0.68004772  0.82960387  1
  Ag  Ag4  1  0.33218647  0.33064685  0.33629431  1
  Ag  Ag5  1  0.66662975  0.50765346  0.50325693  1
  Ag  Ag6  1  0.83925905  0.33203732  0.82819940  1
  Ag  Ag7  1  -0.00327162  0.66274964  0.67714849  1
  Ag  Ag8  1  -0.00401230  0.16659345  0.16056549  1
  Ag  Ag9  1  0.50071610  0.66784522  0.17531943  1
  Ag  Ag10  1  0.50780446  0.66841127  0.49663499  1
  Ag  Ag11  1  0.50094631  0.16253373  0.32936823  1
  Ag  Ag12  1  0.00073923  -0.00140653  0.32549176  1
  Ag  Ag13  1  0.83683181  -0.00006937  0.16335717  1
  Ag  Ag14  1  0.33022650  -0.00229117  0.67702919  1
  Ag  Ag15  1  0.66666741  0.83373441  0.17290102  1
  Ag  Ag16  1  0.00752483  0.82340087  0.83405128  1
  Ag  Ag17  1  -0.00276153  0.33159930  -0.01098121  1
  Ag  Ag18  1  0.66712115  0.16865671  0.49767734  1
  Ag  Ag19  1  -0.00219354  0.51209942  0.83555827  1
  Ag  Ag20  1  0.66981317  0.83133355  0.83046790  1
  Ag  Ag21  1  0.15829195  0.16219575  0.66987487  1
  Ag  Ag22  1  0.32023594  0.83892587  0.83064065  1
  Ag  Ag23  1  0.84420106  0.67159496  0.82931050  1
  Ag  Ag24  1  0.83342513  0.49806598  0.66906859  1
  Ag  Ag25  1  0.50249997  0.49620551  -0.00635519  1
  Ag  Ag26  1  0.32509560  0.15790172  0.83193746  1
  Ag  Ag27  1  0.16328373  0.83251487  -0.01157171  1
  Ag  Ag28  1  0.83923072  0.17331303  0.66965248  1
  Ag  Ag29  1  0.00065161  0.16541585  0.83563230  1
  Ag  Ag30  1  0.00043796  0.66880040  0.33210287  1
  Ag  Ag31  1  0.15605651  0.33723612  0.50085250  1
  Ag  Ag32  1  0.50089063  0.82747863  0.66640032  1
  Ag  Ag33  1  0.66527987  0.82383240  0.49834992  1
  Ag  Ag34  1  0.33109550  -0.00343485  0.33142719  1
  Ag  Ag35  1  0.33954208  0.67314176  0.33355466  1
  Ag  Ag36  1  0.50746483  0.50860901  0.67036225  1
  Ag  Ag37  1  0.32578178  -0.00064524  -0.00850442  1
  Ag  Ag38  1  0.67016252  0.16210007  0.16933506  1
  Ag  Ag39  1  0.67102003  0.33189450  -0.00276339  1
  Ag  Ag40  1  0.16803270  0.83298998  0.67457839  1
  Ag  Ag41  1  0.00260467  0.66733970  -0.01071583  1
  Ag  Ag42  1  0.50137928  0.17019416  0.00110593  1
  Ag  Ag43  1  0.16510471  0.66634159  0.50188373  1
  Ag  Ag44  1  0.50493887  0.33312241  0.83482335  1
  Ag  Ag45  1  0.16126310  -0.00794299  0.83332635  1
  Ag  Ag46  1  0.00330340  0.00018808  -0.00599893  1
  Ag  Ag47  1  0.66833070  0.66801541  0.66212241  1
  Ag  Ag48  1  0.50441034  0.82805036  0.33736929  1
  Ag  Ag49  1  0.66298885  0.67209499  0.34218232  1
  Ag  Ag50  1  0.83686198  0.33221381  0.50813954  1
  Ag  Ag51  1  -0.00016130  0.33234784  0.33616165  1
  Ag  Ag52  1  -0.00421712  0.33631052  0.67372285  1
  Ag  Ag53  1  -0.00109317  0.50174304  0.15985138  1
  Sb  Sb54  1  0.66425130  -0.00618397  0.66874568  1
  Sb  Sb55  1  0.16143708  -0.00459573  0.16164904  1
  Sb  Sb56  1  0.50170453  0.16576038  0.66776329  1
  Sb  Sb57  1  0.16194292  0.33614951  0.17066056  1
  Sb  Sb58  1  0.32869970  0.67169729  0.00238673  1
  Sb  Sb59  1  0.83589095  0.67145094  0.16560483  1
  Sb  Sb60  1  0.66862247  0.33403828  0.33244679  1
  Sb  Sb61  1  0.66932347  0.66440706  -0.00209271  1
  Sb  Sb62  1  0.33265328  0.16476093  0.16412858  1
  Sb  Sb63  1  0.16350265  0.50286462  0.33484836  1
  Sb  Sb64  1  0.83261970  0.83183709  0.66805931  1
  Sb  Sb65  1  0.83801208  0.83396191  -0.00138888  1
  Sb  Sb66  1  0.00213108  -0.00056635  0.67331686  1
  Sb  Sb67  1  0.66856946  -0.00711040  0.33259465  1
  Sb  Sb68  1  0.49913969  0.66562252  0.83116711  1
  Sb  Sb69  1  0.16322100  0.50326495  0.66752949  1
  Sb  Sb70  1  0.16462057  0.50503178  -0.00120325  1
  Sb  Sb71  1  0.50046181  0.33609450  0.16343892  1
  Sb  Sb72  1  0.16611093  0.83095957  0.33536491  1
  Sb  Sb73  1  -0.00465518  0.49952285  0.50406844  1
  Sb  Sb74  1  -0.00340349  0.83331844  0.16284750  1
  Sb  Sb75  1  0.66860228  0.00290565  -0.00117808  1
  Sb  Sb76  1  0.50053502  -0.00547246  0.49875853  1
  Sb  Sb77  1  0.50119034  0.50431944  0.33407772  1
  Sb  Sb78  1  0.67004020  0.16551228  0.83299223  1
  Sb  Sb79  1  0.49717354  0.83360495  -0.00221684  1
  Sb  Sb80  1  0.67177520  0.50295166  0.82889028  1
  Sb  Sb81  1  0.33770035  0.50223565  0.50067814  1
  Sb  Sb82  1  0.33761563  0.83200414  0.50386605  1
  Sb  Sb83  1  0.33188312  0.67224191  0.66410570  1
  Sb  Sb84  1  0.33681134  0.16630042  0.50253564  1
  Sb  Sb85  1  0.67082701  0.50140547  0.16881747  1
  Sb  Sb86  1  0.83153066  0.16253645  0.33599857  1
  Sb  Sb87  1  0.33057460  0.50118456  0.83297971  1
  Sb  Sb88  1  0.15999235  0.33192542  0.82825685  1
  Sb  Sb89  1  0.67359833  0.33790030  0.66940341  1
  Sb  Sb90  1  0.50321862  0.33745588  0.50360491  1
  Sb  Sb91  1  0.33054186  0.50240761  0.16695943  1
  Sb  Sb92  1  0.83395442  0.16675201  -0.00526223  1
  Sb  Sb93  1  0.16482566  0.16144764  -0.00645901  1
  Sb  Sb94  1  0.33663748  0.83307968  0.16557345  1
  Sb  Sb95  1  0.83387334  0.49928723  -0.00658963  1
  Sb  Sb96  1  0.50401887  -0.00328998  0.16775413  1
  Sb  Sb97  1  0.83407860  0.00240230  0.50274380  1
  Sb  Sb98  1  -0.00252973  0.16932792  0.50286762  1
  Sb  Sb99  1  -0.00359724  0.83095179  0.50381600  1
  Sb  Sb100  1  0.83209870  0.66397848  0.50500312  1
  Sb  Sb101  1  0.83635686  0.32799380  0.16502262  1
  Sb  Sb102  1  0.16809012  0.16641645  0.33808769  1
  Sb  Sb103  1  0.16598445  -0.00276903  0.50624486  1
  Sb  Sb104  1  0.49538270  0.00192822  0.83390938  1
  Sb  Sb105  1  0.83578030  0.50433676  0.33932081  1
  Sb  Sb106  1  0.33127724  0.32819176  0.00066202  1
  Sb  Sb107  1  0.32864943  0.32904360  0.66443354  1
  Te  Te108  1  0.15893390  0.16608286  0.16666601  1
  Te  Te109  1  0.16797685  0.16913977  0.50789337  1
  Te  Te110  1  0.16642703  0.16601648  0.82958171  1
  Te  Te111  1  0.15933576  0.50803270  0.16565026  1
  Te  Te112  1  0.16676815  0.50140873  0.50207920  1
  Te  Te113  1  0.16065961  0.50378068  0.83328738  1
  Te  Te114  1  0.16736366  0.82765680  0.16465199  1
  Te  Te115  1  0.16612482  0.82827924  0.50734835  1
  Te  Te116  1  0.16447053  0.83548733  0.83201944  1
  Te  Te117  1  0.50140034  0.16769190  0.16700820  1
  Te  Te118  1  0.50481453  0.16848315  0.49631482  1
  Te  Te119  1  0.50142115  0.16996775  0.83572184  1
  Te  Te120  1  0.50167307  0.50573495  0.16299566  1
  Te  Te121  1  0.50540218  0.50503198  0.50465414  1
  Te  Te122  1  0.49902415  0.49685108  0.83255920  1
  Te  Te123  1  0.50477239  0.82928096  0.16809810  1
  Te  Te124  1  0.50389968  0.82879708  0.50013315  1
  Te  Te125  1  0.50831557  0.83408643  0.82989836  1
  Te  Te126  1  0.83408708  0.16138480  0.16793585  1
  Te  Te127  1  0.82949272  0.16989119  0.50499246  1
  Te  Te128  1  0.83533673  0.16839539  0.82990124  1
  Te  Te129  1  0.83933608  0.49959386  0.16620412  1
  Te  Te130  1  0.82826523  0.49476036  0.50669675  1
  Te  Te131  1  0.83782169  0.49754757  0.82860843  1
  Te  Te132  1  0.82848064  0.83803128  0.17013797  1
  Te  Te133  1  0.82698093  0.83484223  0.49551626  1
  Te  Te134  1  0.83157117  0.83402130  0.83273238  1
  Te  Te135  1  0.16488629  -0.00413969  -0.00439375  1
  Te  Te136  1  0.16569507  -0.00087138  0.33353212  1
  Te  Te137  1  0.16898525  -0.00050100  0.67019956  1
  Te  Te138  1  0.16022506  0.33409386  0.00155462  1
  Te  Te139  1  0.16331108  0.33322147  0.33894571  1
  Te  Te140  1  0.16131759  0.33265218  0.66106916  1
  Te  Te141  1  0.16354199  0.67049051  0.00005910  1
  Te  Te142  1  0.16459233  0.66825166  0.33497894  1
  Te  Te143  1  0.16470119  0.66805625  0.66554631  1
  Te  Te144  1  0.49576181  0.00462732  0.00156222  1
  Te  Te145  1  0.49687604  0.00029347  0.33252655  1
  Te  Te146  1  0.49294190  -0.00596114  0.66583399  1
  Te  Te147  1  0.49696129  0.33144225  -0.00309522  1
  Te  Te148  1  0.49905480  0.33170717  0.33385931  1
  Te  Te149  1  0.49875127  0.33479177  0.67226123  1
  Te  Te150  1  0.49921949  0.66439262  0.00231997  1
  Te  Te151  1  0.50118471  0.66680979  0.33499886  1
  Te  Te152  1  0.49927444  0.66758088  0.66453346  1
  Te  Te153  1  0.83856530  0.00037535  -0.00157762  1
  Te  Te154  1  0.83794169  -0.00472479  0.33265188  1
  Te  Te155  1  0.83304380  0.00445781  0.67178269  1
  Te  Te156  1  0.83585426  0.33332967  -0.00473233  1
  Te  Te157  1  0.83814379  0.33354248  0.33697579  1
  Te  Te158  1  0.83523311  0.33391141  0.66779013  1
  Te  Te159  1  0.83907212  0.66634868  -0.00747031  1
  Te  Te160  1  0.83394369  0.67147919  0.33414565  1
  Te  Te161  1  0.83515387  0.66535458  0.66960911  1
  Te  Te162  1  0.00006145  0.16632253  0.00005227  1
  Te  Te163  1  0.00000319  0.16775891  0.33231464  1
  Te  Te164  1  -0.00008339  0.16670117  0.66789292  1
  Te  Te165  1  -0.00040683  0.50025843  -0.00179209  1
  Te  Te166  1  -0.00135474  0.49882027  0.32981673  1
  Te  Te167  1  -0.00285484  0.50101181  0.67010725  1
  Te  Te168  1  0.00234439  0.83335960  -0.00372220  1
  Te  Te169  1  -0.00128010  0.83363016  0.33325096  1
  Te  Te170  1  0.00190257  0.82977158  0.67122985  1
  Te  Te171  1  0.33593305  0.16142221  -0.00347944  1
  Te  Te172  1  0.33695769  0.16678860  0.33310267  1
  Te  Te173  1  0.33294127  0.16133696  0.67104664  1
  Te  Te174  1  0.34153098  0.49856321  -0.00003832  1
  Te  Te175  1  0.33340850  0.49797055  0.33279739  1
  Te  Te176  1  0.34286866  0.49854585  0.66805333  1
  Te  Te177  1  0.32966577  0.83894963  -0.00476935  1
  Te  Te178  1  0.33731776  0.83216046  0.33364668  1
  Te  Te179  1  0.33404013  0.83675797  0.67017273  1
  Te  Te180  1  0.66260784  0.17027518  0.00283887  1
  Te  Te181  1  0.66360136  0.16658661  0.33074665  1
  Te  Te182  1  0.66919431  0.16592457  0.66287866  1
  Te  Te183  1  0.66219397  0.49482339  0.00073050  1
  Te  Te184  1  0.66794542  0.50601480  0.33791901  1
  Te  Te185  1  0.66753854  0.50398285  0.66456542  1
  Te  Te186  1  0.66577451  0.83385037  0.00072579  1
  Te  Te187  1  0.66485907  0.83203099  0.33341505  1
  Te  Te188  1  0.66520153  0.82905937  0.66491176  1
  Te  Te189  1  -0.00287520  0.00106425  0.16539476  1
  Te  Te190  1  0.00056229  -0.00064603  0.48810794  1
  Te  Te191  1  0.00175278  0.00574584  0.83394160  1
  Te  Te192  1  -0.00025030  0.33120381  0.16870683  1
  Te  Te193  1  -0.00171649  0.33463913  0.49899355  1
  Te  Te194  1  -0.00058582  0.32483531  0.83147122  1
  Te  Te195  1  0.00006390  0.66657159  0.17212107  1
  Te  Te196  1  0.00180834  0.66503870  0.49244991  1
  Te  Te197  1  0.00045441  0.66774848  0.83336940  1
  Te  Te198  1  0.33227779  0.00031203  0.17164823  1
  Te  Te199  1  0.33260840  -0.00031746  0.49045956  1
  Te  Te200  1  0.33319713  0.00001100  0.83415018  1
  Te  Te201  1  0.33093806  0.33386448  0.17517914  1
  Te  Te202  1  0.33138303  0.33438726  0.49542738  1
  Te  Te203  1  0.33362077  0.33081440  0.83357438  1
  Te  Te204  1  0.33520176  0.66622842  0.17183749  1
  Te  Te205  1  0.32958295  0.66641186  0.49375362  1
  Te  Te206  1  0.32900690  0.67154783  0.83381855  1
  Te  Te207  1  0.67248601  0.00103163  0.16598270  1
  Te  Te208  1  0.66727927  0.00587986  0.50054615  1
  Te  Te209  1  0.67340570  -0.00586722  0.83448312  1
  Te  Te210  1  0.66826947  0.32990627  0.16107373  1
  Te  Te211  1  0.67086881  0.33079875  0.49941545  1
  Te  Te212  1  0.66682553  0.33375551  0.83739839  1
  Te  Te213  1  0.66636258  0.66908714  0.16679139  1
  Te  Te214  1  0.66826256  0.66745318  0.50174039  1
  Te  Te215  1  0.66724846  0.67040030  0.82995610  1
