# generated using pymatgen
data_AgSbTe2
_symmetry_space_group_name_H-M   'P 1'
_cell_length_a   18.32111328
_cell_length_b   18.32309524
_cell_length_c   18.32853016
_cell_angle_alpha   90.00032274
_cell_angle_beta   90.00366294
_cell_angle_gamma   90.00160278
_symmetry_Int_Tables_number   1
_chemical_formula_structural   AgSbTe2
_chemical_formula_sum   'Ag54 Sb54 Te108'
_cell_volume   6152.87845919
_cell_formula_units_Z   54
loop_
 _symmetry_equiv_pos_site_id
 _symmetry_equiv_pos_as_xyz
  1  'x, y, z'
loop_
 _atom_site_type_symbol
 _atom_site_label
 _atom_site_symmetry_multiplicity
 _atom_site_fract_x
 _atom_site_fract_y
 _atom_site_fract_z
 _atom_site_occupancy
  Ag  Ag0  1  0.83889636  0.16390113  0.00375983  1
  Ag  Ag1  1  0.84188450  0.83585980  0.33787727  1
  Ag  Ag2  1  0.00951684  -0.00259641  0.66568951  1
  Ag  Ag3  1  0.16426831  0.51038900  -0.00645463  1
  Ag  Ag4  1  0.33617147  -0.00002068  -0.01156591  1
  Ag  Ag5  1  0.33246872  0.32420829  0.33698400  1
  Ag  Ag6  1  0.83084602  0.00573096  0.16983555  1
  Ag  Ag7  1  0.00538819  0.50134222  0.16458541  1
  Ag  Ag8  1  0.33323944  0.15549409  0.83324163  1
  Ag  Ag9  1  0.32827261  0.32878018  0.66479385  1
  Ag  Ag10  1  0.16806421  0.16243653  -0.00180615  1
  Ag  Ag11  1  0.66828121  0.50099068  0.50504697  1
  Ag  Ag12  1  0.49309789  0.50618143  0.66474283  1
  Ag  Ag13  1  0.66749020  0.84115710  0.50149464  1
  Ag  Ag14  1  0.66009047  0.16208851  0.83082641  1
  Ag  Ag15  1  0.33056021  0.16492753  0.16832330  1
  Ag  Ag16  1  0.16770139  0.33896585  0.83075936  1
  Ag  Ag17  1  0.16523953  0.50931377  0.67259777  1
  Ag  Ag18  1  0.82479012  0.00014966  0.49781277  1
  Ag  Ag19  1  0.00731815  0.66498882  0.00020828  1
  Ag  Ag20  1  0.33592855  0.00099657  0.67453554  1
  Ag  Ag21  1  0.83686591  0.32773619  0.17181927  1
  Ag  Ag22  1  0.32549248  0.67276521  0.33485420  1
  Ag  Ag23  1  0.16993983  0.82934685  0.66897857  1
  Ag  Ag24  1  0.00814386  0.34336761  0.66544039  1
  Ag  Ag25  1  0.65656066  -0.00062232  0.66469389  1
  Ag  Ag26  1  0.33503645  0.00204530  0.33490231  1
  Ag  Ag27  1  0.83379508  0.32930656  0.49709849  1
  Ag  Ag28  1  0.49094002  0.83649707  0.66488537  1
  Ag  Ag29  1  0.66569498  0.49967755  0.16404646  1
  Ag  Ag30  1  0.17692379  -0.00404415  0.83284392  1
  Ag  Ag31  1  0.65449524  0.00036373  -0.00629434  1
  Ag  Ag32  1  0.48908340  0.83963385  -0.00795599  1
  Ag  Ag33  1  0.16550830  0.66500302  0.16631039  1
  Ag  Ag34  1  0.00812923  0.66812621  0.33961466  1
  Ag  Ag35  1  0.00754053  0.66184434  0.66001819  1
  Ag  Ag36  1  0.32924184  0.84218011  0.83217643  1
  Ag  Ag37  1  0.50135136  -0.00309978  0.50741033  1
  Ag  Ag38  1  0.32527197  0.49581798  0.16725605  1
  Ag  Ag39  1  0.49442870  0.67346837  0.50149475  1
  Ag  Ag40  1  0.16616601  0.66592370  0.83158037  1
  Ag  Ag41  1  0.16653833  0.82842129  0.33985279  1
  Ag  Ag42  1  0.49752011  0.00041166  0.16328129  1
  Ag  Ag43  1  0.49397846  0.16119681  0.33562444  1
  Ag  Ag44  1  0.00041478  0.50988787  0.50784808  1
  Ag  Ag45  1  0.00368175  0.16850010  0.16447666  1
  Ag  Ag46  1  0.16551992  0.66955750  0.50077708  1
  Ag  Ag47  1  0.00962265  0.50195176  0.82562249  1
  Ag  Ag48  1  0.66048006  0.15596948  0.50492108  1
  Ag  Ag49  1  0.16950169  0.83077032  -0.00852578  1
  Ag  Ag50  1  0.66650495  0.49679599  0.82905557  1
  Ag  Ag51  1  0.48971540  -0.00127505  0.83004079  1
  Ag  Ag52  1  0.00257102  0.82757056  0.50099456  1
  Ag  Ag53  1  0.33664999  0.16270113  0.49862112  1
  Sb  Sb54  1  0.33136436  0.83917384  0.16440593  1
  Sb  Sb55  1  0.49666319  0.15965172  0.66247697  1
  Sb  Sb56  1  0.49485766  0.50911210  -0.00409077  1
  Sb  Sb57  1  0.83024949  0.16194263  0.33130307  1
  Sb  Sb58  1  0.83716714  0.84094054  0.00576600  1
  Sb  Sb59  1  0.66924701  0.32777331  -0.00034840  1
  Sb  Sb60  1  0.00585932  0.16929557  0.83648283  1
  Sb  Sb61  1  0.33123076  0.49829558  0.49867962  1
  Sb  Sb62  1  0.00519433  0.33805676  0.33613528  1
  Sb  Sb63  1  0.50002260  0.32934361  0.16747207  1
  Sb  Sb64  1  0.17027277  -0.00497477  0.50649698  1
  Sb  Sb65  1  0.66534654  0.16605203  0.16605495  1
  Sb  Sb66  1  0.67012148  0.67075850  -0.00123708  1
  Sb  Sb67  1  0.50103596  0.33028551  0.50186615  1
  Sb  Sb68  1  0.49720932  0.49858974  0.33801052  1
  Sb  Sb69  1  0.32649240  0.66925358  0.66186034  1
  Sb  Sb70  1  0.49382261  0.32796085  0.82913908  1
  Sb  Sb71  1  0.65904009  0.83786313  0.82727102  1
  Sb  Sb72  1  0.00149603  0.16489644  0.49788430  1
  Sb  Sb73  1  0.66147601  0.00002384  0.33753742  1
  Sb  Sb74  1  0.00963868  0.82862351  0.82602527  1
  Sb  Sb75  1  0.66637278  0.83299528  0.17055852  1
  Sb  Sb76  1  0.66475792  0.33179575  0.66456620  1
  Sb  Sb77  1  0.32838583  0.49994105  0.83487695  1
  Sb  Sb78  1  0.66837636  0.66910816  0.66454342  1
  Sb  Sb79  1  0.00416243  -0.00446382  0.33627984  1
  Sb  Sb80  1  0.84045997  0.66566556  0.16840041  1
  Sb  Sb81  1  0.83819322  0.66972462  0.49891223  1
  Sb  Sb82  1  0.83298401  0.16506263  0.66807659  1
  Sb  Sb83  1  0.00520001  -0.00284652  -0.00354963  1
  Sb  Sb84  1  0.17020588  0.16454133  0.67164977  1
  Sb  Sb85  1  0.16993114  -0.00301023  0.16148835  1
  Sb  Sb86  1  0.83182684  0.00160746  0.83202056  1
  Sb  Sb87  1  0.00240138  0.33692925  -0.00247143  1
  Sb  Sb88  1  0.00259580  0.83188419  0.17128214  1
  Sb  Sb89  1  0.83776268  0.33164986  0.83121603  1
  Sb  Sb90  1  0.33035859  0.32628190  -0.00177087  1
  Sb  Sb91  1  0.16483653  0.33864424  0.50623007  1
  Sb  Sb92  1  0.84194891  0.66458944  0.83313550  1
  Sb  Sb93  1  0.49194498  0.67014669  0.17160318  1
  Sb  Sb94  1  0.32528203  0.67285790  0.00383877  1
  Sb  Sb95  1  0.83780856  0.83703530  0.66091795  1
  Sb  Sb96  1  0.66586042  0.66760254  0.33604818  1
  Sb  Sb97  1  0.49361468  0.67095702  0.82699936  1
  Sb  Sb98  1  0.16471155  0.33755700  0.16343805  1
  Sb  Sb99  1  0.33233365  0.83865184  0.50416834  1
  Sb  Sb100  1  0.49545679  0.83828001  0.33827399  1
  Sb  Sb101  1  0.83811017  0.49872712  0.66444157  1
  Sb  Sb102  1  0.83925777  0.49491316  0.00241518  1
  Sb  Sb103  1  0.16758208  0.50770587  0.33296143  1
  Sb  Sb104  1  0.17314070  0.16009987  0.32824338  1
  Sb  Sb105  1  0.83495184  0.50289602  0.33398520  1
  Sb  Sb106  1  0.49588249  0.15753975  0.00205177  1
  Sb  Sb107  1  0.66409884  0.33222775  0.33490731  1
  Te  Te108  1  0.16724522  0.16744654  0.16117071  1
  Te  Te109  1  0.17206859  0.16706695  0.49787897  1
  Te  Te110  1  0.16977376  0.16271816  0.83782567  1
  Te  Te111  1  0.16559375  0.50225750  0.16506565  1
  Te  Te112  1  0.16227027  0.50566620  0.50565391  1
  Te  Te113  1  0.16669780  0.50178488  0.83354452  1
  Te  Te114  1  0.16659405  0.82708233  0.16467810  1
  Te  Te115  1  0.16542291  0.82997195  0.50282573  1
  Te  Te116  1  0.16860101  0.83383093  0.83135891  1
  Te  Te117  1  0.49670710  0.16233111  0.17087756  1
  Te  Te118  1  0.49957285  0.16375693  0.49785864  1
  Te  Te119  1  0.49951698  0.16124983  0.83411377  1
  Te  Te120  1  0.50159686  0.50063940  0.16559764  1
  Te  Te121  1  0.50108426  0.50051748  0.50463196  1
  Te  Te122  1  0.50203544  0.50166919  0.82834682  1
  Te  Te123  1  0.50019435  0.83894871  0.16474981  1
  Te  Te124  1  0.50000077  0.83468061  0.50313907  1
  Te  Te125  1  0.49468530  0.83698588  0.83045126  1
  Te  Te126  1  0.83174139  0.16580805  0.16553024  1
  Te  Te127  1  0.83196219  0.16441917  0.49891365  1
  Te  Te128  1  0.82855942  0.16799610  0.84094682  1
  Te  Te129  1  0.83423791  0.49656762  0.16682639  1
  Te  Te130  1  0.83456034  0.49719565  0.49886201  1
  Te  Te131  1  0.82862610  0.49731607  0.83490650  1
  Te  Te132  1  0.83349442  0.83947936  0.17421598  1
  Te  Te133  1  0.83290866  0.83634883  0.49720160  1
  Te  Te134  1  0.83129497  0.83270410  0.83526186  1
  Te  Te135  1  0.17019396  -0.00166727  -0.00395425  1
  Te  Te136  1  0.17214728  -0.00800354  0.33277297  1
  Te  Te137  1  0.16998216  -0.00225231  0.67073687  1
  Te  Te138  1  0.16639957  0.32971759  -0.00642066  1
  Te  Te139  1  0.17323478  0.33369541  0.33461633  1
  Te  Te140  1  0.16761181  0.33247954  0.67010707  1
  Te  Te141  1  0.16538471  0.66829301  0.00022778  1
  Te  Te142  1  0.16788198  0.66818678  0.33488011  1
  Te  Te143  1  0.16578349  0.66827246  0.66625490  1
  Te  Te144  1  0.49815037  -0.00301556  -0.00060084  1
  Te  Te145  1  0.49543815  0.00111164  0.33264289  1
  Te  Te146  1  0.49770779  -0.00151422  0.66709826  1
  Te  Te147  1  0.50021568  0.33762982  -0.00146077  1
  Te  Te148  1  0.49249883  0.32763419  0.33390949  1
  Te  Te149  1  0.49400658  0.34452598  0.66679915  1
  Te  Te150  1  0.50083364  0.67835190  0.00025236  1
  Te  Te151  1  0.49488728  0.66754591  0.34021302  1
  Te  Te152  1  0.50061287  0.66875532  0.66110208  1
  Te  Te153  1  0.83520263  0.00405903  0.00403573  1
  Te  Te154  1  0.83516226  -0.00367350  0.33461438  1
  Te  Te155  1  0.83068426  0.00059121  0.66077220  1
  Te  Te156  1  0.83476716  0.32542191  0.00504791  1
  Te  Te157  1  0.83509933  0.33194595  0.33380353  1
  Te  Te158  1  0.83838804  0.33179169  0.66131507  1
  Te  Te159  1  0.84184726  0.66825516  0.00147573  1
  Te  Te160  1  0.83764802  0.67455590  0.33254918  1
  Te  Te161  1  0.84426363  0.66846411  0.66737586  1
  Te  Te162  1  0.00221087  0.16661754  0.00380518  1
  Te  Te163  1  0.00124647  0.16833814  0.32544659  1
  Te  Te164  1  0.00073664  0.16137238  0.66733465  1
  Te  Te165  1  0.00391335  0.50296490  0.00237173  1
  Te  Te166  1  0.00062194  0.50553948  0.33170702  1
  Te  Te167  1  0.00237291  0.50077502  0.66667980  1
  Te  Te168  1  0.00520665  0.82845369  -0.00081812  1
  Te  Te169  1  0.00461967  0.83000108  0.33783718  1
  Te  Te170  1  0.00374059  0.83682038  0.66156770  1
  Te  Te171  1  0.33083959  0.16163223  0.00003566  1
  Te  Te172  1  0.33383817  0.16485668  0.33212119  1
  Te  Te173  1  0.33399692  0.16600411  0.66751148  1
  Te  Te174  1  0.32821017  0.49855585  0.00615692  1
  Te  Te175  1  0.33403068  0.49854590  0.32834365  1
  Te  Te176  1  0.33053063  0.49851451  0.66678139  1
  Te  Te177  1  0.33083830  0.83828895  -0.00177616  1
  Te  Te178  1  0.32848565  0.83334446  0.33243039  1
  Te  Te179  1  0.33166873  0.83480877  0.66958888  1
  Te  Te180  1  0.66582828  0.16079478  -0.00240157  1
  Te  Te181  1  0.65997710  0.16755149  0.34104032  1
  Te  Te182  1  0.66562653  0.16383405  0.66607977  1
  Te  Te183  1  0.66577292  0.50097533  -0.00067295  1
  Te  Te184  1  0.66606117  0.49989998  0.33373453  1
  Te  Te185  1  0.66691876  0.50041854  0.66710823  1
  Te  Te186  1  0.66797546  0.83988968  -0.00041976  1
  Te  Te187  1  0.66883915  0.83236288  0.34108523  1
  Te  Te188  1  0.66501798  0.83688211  0.66103179  1
  Te  Te189  1  -0.00254410  0.00441266  0.16627626  1
  Te  Te190  1  -0.00057525  -0.00165330  0.50374902  1
  Te  Te191  1  0.00057301  0.00049652  0.82685099  1
  Te  Te192  1  -0.00262246  0.33446557  0.16810455  1
  Te  Te193  1  -0.00381250  0.33296601  0.50372427  1
  Te  Te194  1  0.00480910  0.33744101  0.82737207  1
  Te  Te195  1  0.00423021  0.66415878  0.16766471  1
  Te  Te196  1  0.00077028  0.66719916  0.49933974  1
  Te  Te197  1  0.00562966  0.66170386  0.83309697  1
  Te  Te198  1  0.33466348  0.00445082  0.17188066  1
  Te  Te199  1  0.33642891  0.00292415  0.49851581  1
  Te  Te200  1  0.33332933  -0.00032656  0.83205006  1
  Te  Te201  1  0.33321216  0.33130056  0.16892571  1
  Te  Te202  1  0.33282762  0.32824406  0.50171808  1
  Te  Te203  1  0.32765409  0.32993118  0.82895268  1
  Te  Te204  1  0.32899280  0.66208324  0.17215299  1
  Te  Te205  1  0.33218742  0.66610286  0.49560151  1
  Te  Te206  1  0.32731812  0.67008967  0.83438124  1
  Te  Te207  1  0.66562259  -0.00038622  0.16533264  1
  Te  Te208  1  0.66487979  -0.00019743  0.50039247  1
  Te  Te209  1  0.66695211  0.00243763  0.83084327  1
  Te  Te210  1  0.67116523  0.33806864  0.16721711  1
  Te  Te211  1  0.67222442  0.33898174  0.50031819  1
  Te  Te212  1  0.66583553  0.33357370  0.83232127  1
  Te  Te213  1  0.66598158  0.66051284  0.16725036  1
  Te  Te214  1  0.66395944  0.66076224  0.50033683  1
  Te  Te215  1  0.66667425  0.66131825  0.83333771  1
