# generated using pymatgen
data_AgSbTe2
_symmetry_space_group_name_H-M   'P 1'
_cell_length_a   18.33615138
_cell_length_b   18.33080126
_cell_length_c   18.33403225
_cell_angle_alpha   90.00007739
_cell_angle_beta   89.99438841
_cell_angle_gamma   90.00197220
_symmetry_Int_Tables_number   1
_chemical_formula_structural   AgSbTe2
_chemical_formula_sum   'Ag54 Sb54 Te108'
_cell_volume   6162.36791057
_cell_formula_units_Z   54
loop_
 _symmetry_equiv_pos_site_id
 _symmetry_equiv_pos_as_xyz
  1  'x, y, z'
loop_
 _atom_site_type_symbol
 _atom_site_label
 _atom_site_symmetry_multiplicity
 _atom_site_fract_x
 _atom_site_fract_y
 _atom_site_fract_z
 _atom_site_occupancy
  Ag  Ag0  1  -0.01067771  0.66324289  0.32172196  1
  Ag  Ag1  1  0.67100694  0.17375959  0.15399657  1
  Ag  Ag2  1  0.00010248  0.83750641  0.16268638  1
  Ag  Ag3  1  0.50812698  0.01338396  0.83134318  1
  Ag  Ag4  1  0.67719988  0.01228366  -0.00836991  1
  Ag  Ag5  1  -0.00907418  0.00454643  0.67689683  1
  Ag  Ag6  1  0.82806769  0.66216302  0.15943529  1
  Ag  Ag7  1  0.16464411  0.49910653  0.00222266  1
  Ag  Ag8  1  0.16117246  0.00224237  0.15669196  1
  Ag  Ag9  1  0.82310295  0.66152779  0.84256449  1
  Ag  Ag10  1  0.66534475  0.32865529  -0.00467616  1
  Ag  Ag11  1  0.50253971  0.66161558  0.83670861  1
  Ag  Ag12  1  -0.01006135  0.16302600  0.16362582  1
  Ag  Ag13  1  0.66612675  0.83005563  0.50244409  1
  Ag  Ag14  1  0.34227392  0.17216088  0.83553744  1
  Ag  Ag15  1  0.50337648  0.33037606  0.83433323  1
  Ag  Ag16  1  0.50319375  0.33546903  0.51586286  1
  Ag  Ag17  1  0.82302117  0.50111554  0.32536787  1
  Ag  Ag18  1  0.50322458  0.49597269  0.67017152  1
  Ag  Ag19  1  0.83100336  0.16836494  -0.00434409  1
  Ag  Ag20  1  0.51032250  0.17154183  0.67254056  1
  Ag  Ag21  1  0.50303073  0.83188852  0.66908827  1
  Ag  Ag22  1  0.34135128  0.66435741  0.68050985  1
  Ag  Ag23  1  0.15798061  0.00262484  0.50114403  1
  Ag  Ag24  1  0.50548237  0.50133057  0.33327299  1
  Ag  Ag25  1  -0.00343333  0.16361790  0.50214766  1
  Ag  Ag26  1  0.15920861  0.16222039  -0.00297769  1
  Ag  Ag27  1  0.17024765  0.50261272  0.32638722  1
  Ag  Ag28  1  -0.00791051  0.66963445  0.00464801  1
  Ag  Ag29  1  0.33537778  0.65881233  -0.00133026  1
  Ag  Ag30  1  0.67144208  0.01095889  0.67435758  1
  Ag  Ag31  1  0.82200276  0.32714091  0.83470264  1
  Ag  Ag32  1  0.83181883  0.50478471  0.00126492  1
  Ag  Ag33  1  0.50616000  0.33997715  0.15790032  1
  Ag  Ag34  1  0.66668811  0.16803438  0.83526474  1
  Ag  Ag35  1  -0.00946423  0.32088803  0.67008163  1
  Ag  Ag36  1  0.17390176  0.32793638  0.83671553  1
  Ag  Ag37  1  0.66758066  0.65937986  0.32321984  1
  Ag  Ag38  1  0.16371749  0.84154364  0.00053673  1
  Ag  Ag39  1  0.83531536  0.00685239  0.50946159  1
  Ag  Ag40  1  0.82907670  0.16511942  0.67658120  1
  Ag  Ag41  1  0.16363113  0.00817031  0.83943855  1
  Ag  Ag42  1  0.66429856  0.50049472  0.49329216  1
  Ag  Ag43  1  0.34122754  0.33754659  -0.00610378  1
  Ag  Ag44  1  0.66587456  0.50039318  0.16698600  1
  Ag  Ag45  1  0.66460083  0.32767834  0.67575782  1
  Ag  Ag46  1  0.83262616  0.16977205  0.32970371  1
  Ag  Ag47  1  0.33715854  0.49416723  0.83763707  1
  Ag  Ag48  1  0.50842624  0.66092001  0.15984906  1
  Ag  Ag49  1  0.33214965  0.00167459  0.33286902  1
  Ag  Ag50  1  0.33809542  0.66273874  0.32809227  1
  Ag  Ag51  1  0.67355412  0.66243081  0.00329361  1
  Ag  Ag52  1  -0.00128744  0.00228842  -0.00336447  1
  Ag  Ag53  1  0.82721471  0.00964396  0.83293611  1
  Sb  Sb54  1  0.66259995  0.66460232  0.67272044  1
  Sb  Sb55  1  -0.00527951  0.49821927  0.16559424  1
  Sb  Sb56  1  0.16599112  0.83210378  0.32837055  1
  Sb  Sb57  1  0.17040021  0.83674991  0.67276564  1
  Sb  Sb58  1  0.83670054  0.83271040  -0.00022813  1
  Sb  Sb59  1  0.82723564  0.84185815  0.66736980  1
  Sb  Sb60  1  0.33498560  0.83245360  0.83483405  1
  Sb  Sb61  1  0.50334241  0.00462649  0.50711883  1
  Sb  Sb62  1  0.67065436  0.82971507  0.16684554  1
  Sb  Sb63  1  0.32999524  0.00229567  -0.00089941  1
  Sb  Sb64  1  0.50118082  0.82583623  0.33680890  1
  Sb  Sb65  1  0.17030891  0.66488476  0.83998546  1
  Sb  Sb66  1  0.66493663  -0.00119413  0.33295961  1
  Sb  Sb67  1  0.67188066  0.16865526  0.50505958  1
  Sb  Sb68  1  0.16928073  0.33075394  0.15732036  1
  Sb  Sb69  1  0.33914605  0.49916317  0.50185531  1
  Sb  Sb70  1  -0.00402497  0.83968538  0.49498933  1
  Sb  Sb71  1  0.16684825  0.66970888  0.49623662  1
  Sb  Sb72  1  0.50192520  0.66067100  0.50216927  1
  Sb  Sb73  1  0.34154262  0.33628952  0.67634048  1
  Sb  Sb74  1  0.66209078  0.49465529  0.83792101  1
  Sb  Sb75  1  0.50430969  0.49958136  -0.00140622  1
  Sb  Sb76  1  0.82735132  0.32834894  0.50565641  1
  Sb  Sb77  1  0.16436537  0.66791016  0.16395568  1
  Sb  Sb78  1  0.00123907  0.49846265  0.83546646  1
  Sb  Sb79  1  0.00186190  -0.00074428  0.32947457  1
  Sb  Sb80  1  0.16306930  0.16849971  0.32819110  1
  Sb  Sb81  1  0.17218926  0.49748323  0.67141971  1
  Sb  Sb82  1  0.66551392  0.83923675  0.83195003  1
  Sb  Sb83  1  0.32947838  0.83197333  0.16474721  1
  Sb  Sb84  1  0.83607080  0.00152414  0.16203654  1
  Sb  Sb85  1  0.82994376  0.66826532  0.49978176  1
  Sb  Sb86  1  0.33599322  -0.00151682  0.66798827  1
  Sb  Sb87  1  0.82579512  0.49419137  0.67068397  1
  Sb  Sb88  1  -0.00639978  0.49507824  0.49755482  1
  Sb  Sb89  1  0.50543869  0.17162091  0.33694273  1
  Sb  Sb90  1  0.82756949  0.33483316  0.15821349  1
  Sb  Sb91  1  0.16242545  0.16544472  0.67714128  1
  Sb  Sb92  1  -0.00653145  0.16581410  0.83523037  1
  Sb  Sb93  1  0.66672966  0.33880938  0.33107657  1
  Sb  Sb94  1  0.32984161  0.16595182  0.50696873  1
  Sb  Sb95  1  0.33768391  0.83350910  0.50117705  1
  Sb  Sb96  1  -0.00337416  0.32975812  -0.00531813  1
  Sb  Sb97  1  0.33634848  0.16721487  0.15842048  1
  Sb  Sb98  1  -0.00204278  0.33566306  0.33570559  1
  Sb  Sb99  1  0.16910194  0.32976703  0.50570279  1
  Sb  Sb100  1  0.00096714  0.66972404  0.67137143  1
  Sb  Sb101  1  0.49674047  0.82912407  -0.00473089  1
  Sb  Sb102  1  0.49982110  0.00121684  0.16020359  1
  Sb  Sb103  1  0.34005941  0.50197849  0.16002352  1
  Sb  Sb104  1  0.00013751  0.83683823  0.83971837  1
  Sb  Sb105  1  0.83307502  0.83180768  0.33213407  1
  Sb  Sb106  1  0.33576640  0.33555175  0.32613048  1
  Sb  Sb107  1  0.50489238  0.16884808  -0.00699508  1
  Te  Te108  1  0.16712975  0.16304943  0.16117464  1
  Te  Te109  1  0.16172310  0.16274004  0.49845879  1
  Te  Te110  1  0.16760267  0.16736319  0.83793754  1
  Te  Te111  1  0.16592340  0.49879227  0.16617151  1
  Te  Te112  1  0.16503969  0.49927840  0.49655471  1
  Te  Te113  1  0.17255174  0.49645920  0.83746572  1
  Te  Te114  1  0.16118732  0.83856522  0.16167797  1
  Te  Te115  1  0.16607239  0.84176405  0.50087252  1
  Te  Te116  1  0.16760671  0.84075870  0.83977106  1
  Te  Te117  1  0.50626352  0.16895588  0.16797577  1
  Te  Te118  1  0.49888148  0.17337644  0.50565953  1
  Te  Te119  1  0.50304970  0.16901728  0.83182461  1
  Te  Te120  1  0.50478730  0.50140375  0.16843990  1
  Te  Te121  1  0.50392749  0.49515067  0.49893670  1
  Te  Te122  1  0.49727325  0.50155812  0.83210877  1
  Te  Te123  1  0.50079343  0.82763708  0.16751988  1
  Te  Te124  1  0.50490063  0.83563364  0.50631200  1
  Te  Te125  1  0.49979972  0.82475694  0.82776045  1
  Te  Te126  1  0.83117138  0.16782869  0.16389669  1
  Te  Te127  1  0.83695027  0.16452778  0.49804022  1
  Te  Te128  1  0.82971064  0.16648103  0.83537825  1
  Te  Te129  1  0.82899614  0.50114331  0.16556528  1
  Te  Te130  1  0.82651522  0.49935311  0.49707009  1
  Te  Te131  1  0.83334872  0.50150697  0.83829350  1
  Te  Te132  1  0.83953963  0.82526591  0.16764435  1
  Te  Te133  1  0.82759036  0.84133038  0.49972788  1
  Te  Te134  1  0.83298235  0.82753869  0.83191168  1
  Te  Te135  1  0.16792193  0.00177033  -0.00058037  1
  Te  Te136  1  0.16976481  0.00047506  0.33521379  1
  Te  Te137  1  0.16556299  -0.00056460  0.66583124  1
  Te  Te138  1  0.16315902  0.33682921  -0.00393263  1
  Te  Te139  1  0.16745630  0.34053515  0.33383628  1
  Te  Te140  1  0.16243680  0.33341028  0.67277474  1
  Te  Te141  1  0.16772957  0.65952339  0.00052005  1
  Te  Te142  1  0.17163214  0.66343628  0.33168071  1
  Te  Te143  1  0.17157109  0.66733167  0.66654390  1
  Te  Te144  1  0.50038915  -0.00235452  -0.00717610  1
  Te  Te145  1  0.49501354  0.00015410  0.33339229  1
  Te  Te146  1  0.50251316  0.00308473  0.67099977  1
  Te  Te147  1  0.50273317  0.33307647  -0.00240882  1
  Te  Te148  1  0.49939714  0.33913003  0.32701126  1
  Te  Te149  1  0.50248347  0.33383986  0.67259254  1
  Te  Te150  1  0.49752820  0.66638729  -0.00050518  1
  Te  Te151  1  0.50223292  0.66216784  0.33465109  1
  Te  Te152  1  0.49852868  0.66274561  0.66887752  1
  Te  Te153  1  0.83497124  0.00008968  -0.00276601  1
  Te  Te154  1  0.83316199  0.00512889  0.33266960  1
  Te  Te155  1  0.83186655  0.00358590  0.67009852  1
  Te  Te156  1  0.83078687  0.33182112  -0.00531029  1
  Te  Te157  1  0.83414564  0.33374700  0.33475420  1
  Te  Te158  1  0.83096757  0.32953790  0.67252106  1
  Te  Te159  1  0.83428097  0.66795957  -0.00024938  1
  Te  Te160  1  0.83096319  0.66362779  0.33422875  1
  Te  Te161  1  0.83541360  0.66634027  0.67301692  1
  Te  Te162  1  -0.00218626  0.16430409  0.00219642  1
  Te  Te163  1  -0.00445392  0.16779287  0.33022839  1
  Te  Te164  1  -0.00226634  0.16247831  0.66530096  1
  Te  Te165  1  -0.00208654  0.50312232  0.00091070  1
  Te  Te166  1  0.00019536  0.50433887  0.33305813  1
  Te  Te167  1  -0.00008925  0.49963260  0.66467282  1
  Te  Te168  1  0.00425970  0.83363024  0.00442540  1
  Te  Te169  1  0.00046323  0.82398555  0.32633075  1
  Te  Te170  1  0.00110834  0.83984913  0.66462597  1
  Te  Te171  1  0.32805730  0.16994878  -0.00508689  1
  Te  Te172  1  0.33369256  0.16479010  0.33302174  1
  Te  Te173  1  0.33560279  0.16680922  0.67415475  1
  Te  Te174  1  0.33071826  0.49831708  -0.00237636  1
  Te  Te175  1  0.33395353  0.50182366  0.33329592  1
  Te  Te176  1  0.33905809  0.50497042  0.66975444  1
  Te  Te177  1  0.32556692  0.82593254  0.00030803  1
  Te  Te178  1  0.33345705  0.83067333  0.33339437  1
  Te  Te179  1  0.34033237  0.82605126  0.66635395  1
  Te  Te180  1  0.66790363  0.16753008  -0.00260865  1
  Te  Te181  1  0.67206877  0.16655552  0.33107168  1
  Te  Te182  1  0.66883540  0.16751741  0.66644835  1
  Te  Te183  1  0.67117675  0.50174086  0.00343085  1
  Te  Te184  1  0.66607785  0.50102061  0.33087493  1
  Te  Te185  1  0.66253190  0.49743681  0.66246432  1
  Te  Te186  1  0.66498196  0.82891066  0.00057719  1
  Te  Te187  1  0.66648122  0.82737292  0.33891388  1
  Te  Te188  1  0.66132023  0.83254282  0.66310852  1
  Te  Te189  1  0.00169907  0.00119853  0.16304925  1
  Te  Te190  1  -0.00282120  0.00295037  0.49640041  1
  Te  Te191  1  0.00117168  -0.00016795  0.83567024  1
  Te  Te192  1  0.00071191  0.32433761  0.16715595  1
  Te  Te193  1  0.00045130  0.32720361  0.50755508  1
  Te  Te194  1  0.00180408  0.33355301  0.82754625  1
  Te  Te195  1  -0.00143927  0.66392474  0.16472625  1
  Te  Te196  1  -0.00057270  0.66841070  0.49865268  1
  Te  Te197  1  -0.00110609  0.66746003  0.83835228  1
  Te  Te198  1  0.33065155  -0.00005284  0.17105862  1
  Te  Te199  1  0.33128202  0.00071659  0.49625412  1
  Te  Te200  1  0.33324107  0.00428169  0.83263572  1
  Te  Te201  1  0.34072094  0.33296201  0.15661174  1
  Te  Te202  1  0.33879811  0.33203732  0.49961486  1
  Te  Te203  1  0.33456451  0.33338943  0.83624266  1
  Te  Te204  1  0.33780251  0.66682068  0.16587468  1
  Te  Te205  1  0.33293853  0.66669042  0.49137433  1
  Te  Te206  1  0.33548913  0.66528696  0.83702903  1
  Te  Te207  1  0.66583960  0.00120905  0.16206352  1
  Te  Te208  1  0.67007388  -0.00123045  0.50115579  1
  Te  Te209  1  0.66709069  0.00181501  0.83395658  1
  Te  Te210  1  0.66457840  0.33367356  0.16296926  1
  Te  Te211  1  0.66198468  0.33670642  0.50226693  1
  Te  Te212  1  0.66491274  0.33298002  0.83476531  1
  Te  Te213  1  0.66750075  0.66722737  0.16498470  1
  Te  Te214  1  0.66716532  0.66531576  0.49960851  1
  Te  Te215  1  0.66442139  0.66620632  0.83825990  1
