# generated using pymatgen
data_AgSbTe2
_symmetry_space_group_name_H-M   'P 1'
_cell_length_a   18.33054516
_cell_length_b   18.32672376
_cell_length_c   18.33722161
_cell_angle_alpha   89.99984820
_cell_angle_beta   89.99786542
_cell_angle_gamma   89.99521930
_symmetry_Int_Tables_number   1
_chemical_formula_structural   AgSbTe2
_chemical_formula_sum   'Ag54 Sb54 Te108'
_cell_volume   6160.18488605
_cell_formula_units_Z   54
loop_
 _symmetry_equiv_pos_site_id
 _symmetry_equiv_pos_as_xyz
  1  'x, y, z'
loop_
 _atom_site_type_symbol
 _atom_site_label
 _atom_site_symmetry_multiplicity
 _atom_site_fract_x
 _atom_site_fract_y
 _atom_site_fract_z
 _atom_site_occupancy
  Ag  Ag0  1  0.15992382  0.17141930  0.00628839  1
  Ag  Ag1  1  0.66664552  0.16705836  0.49873667  1
  Ag  Ag2  1  0.01461265  0.66881029  0.32563837  1
  Ag  Ag3  1  0.16523623  0.67091358  0.17051022  1
  Ag  Ag4  1  0.00323875  0.16624169  0.16347854  1
  Ag  Ag5  1  0.01208592  0.83301791  0.50001665  1
  Ag  Ag6  1  0.33101690  0.67305400  0.32849771  1
  Ag  Ag7  1  0.00858388  0.83152773  0.16514771  1
  Ag  Ag8  1  0.82769715  0.33313170  0.15669664  1
  Ag  Ag9  1  0.50020831  0.66972390  0.83860127  1
  Ag  Ag10  1  0.83159777  0.83082576  -0.00006166  1
  Ag  Ag11  1  0.16706241  0.16154696  0.32782969  1
  Ag  Ag12  1  0.16034027  0.33900178  0.82718348  1
  Ag  Ag13  1  0.66564898  0.17833259  0.84260844  1
  Ag  Ag14  1  0.00273003  0.66904454  0.00319724  1
  Ag  Ag15  1  0.33155508  0.83218614  0.49088733  1
  Ag  Ag16  1  0.49613995  0.82852980  0.66278918  1
  Ag  Ag17  1  0.83243927  0.33405046  0.83912807  1
  Ag  Ag18  1  0.16837901  0.66503225  0.83723024  1
  Ag  Ag19  1  0.50911124  0.17241156  0.00071232  1
  Ag  Ag20  1  0.33736475  0.66844369  0.00455762  1
  Ag  Ag21  1  0.66653801  0.49665698  0.15842853  1
  Ag  Ag22  1  0.67034066  0.33436651  -0.00136574  1
  Ag  Ag23  1  0.66185885  0.66593356  0.33021010  1
  Ag  Ag24  1  0.00366896  -0.00588084  0.66698805  1
  Ag  Ag25  1  0.66969687  0.17627715  0.15902997  1
  Ag  Ag26  1  0.32864454  -0.01379881  0.33352174  1
  Ag  Ag27  1  0.00267445  0.83030261  0.83880912  1
  Ag  Ag28  1  0.83407566  0.49734107  0.66550156  1
  Ag  Ag29  1  0.50267410  0.67172450  0.50060911  1
  Ag  Ag30  1  0.16713766  -0.00616816  0.49275997  1
  Ag  Ag31  1  0.66169842  0.66201248  0.67043849  1
  Ag  Ag32  1  0.50601522  0.50647942  0.00060319  1
  Ag  Ag33  1  0.16325509  0.49917190  0.66543626  1
  Ag  Ag34  1  0.50284626  0.82381607  -0.00035252  1
  Ag  Ag35  1  0.16690523  0.82747486  0.65788903  1
  Ag  Ag36  1  0.82842714  0.17568105  0.00180275  1
  Ag  Ag37  1  0.16680716  -0.01103757  0.17479567  1
  Ag  Ag38  1  0.32825416  0.33591856  0.33379780  1
  Ag  Ag39  1  0.65860262  0.82930879  0.49971040  1
  Ag  Ag40  1  0.65868038  0.65850512  -0.00104967  1
  Ag  Ag41  1  0.16756883  0.32994873  0.50419602  1
  Ag  Ag42  1  -0.01008599  0.33447678  -0.00248643  1
  Ag  Ag43  1  0.17234734  0.83038460  0.33452138  1
  Ag  Ag44  1  0.16619756  0.50927332  0.33488858  1
  Ag  Ag45  1  0.32589618  0.83007491  0.17701397  1
  Ag  Ag46  1  0.50159370  -0.01286918  0.83494382  1
  Ag  Ag47  1  0.66838776  0.34105575  0.67812435  1
  Ag  Ag48  1  0.32302639  0.33556818  0.66307916  1
  Ag  Ag49  1  0.50738573  0.33250764  0.16270190  1
  Ag  Ag50  1  0.00579663  0.33320069  0.67499205  1
  Ag  Ag51  1  0.48576259  0.82950809  0.33399796  1
  Ag  Ag52  1  0.83451674  0.50192837  0.33356737  1
  Ag  Ag53  1  0.66682041  0.49716063  0.84000897  1
  Sb  Sb54  1  0.33571506  0.50440653  0.16734018  1
  Sb  Sb55  1  0.16924706  0.50019032  -0.00046129  1
  Sb  Sb56  1  0.50331601  0.16420519  0.67099360  1
  Sb  Sb57  1  0.33555773  0.66532305  0.66494803  1
  Sb  Sb58  1  0.00816836  -0.00740451  0.33421851  1
  Sb  Sb59  1  0.16550222  0.33541519  0.16692923  1
  Sb  Sb60  1  0.16741152  0.83153360  0.00344777  1
  Sb  Sb61  1  0.82767985  0.49856756  0.00041937  1
  Sb  Sb62  1  0.66695866  0.50212493  0.50053688  1
  Sb  Sb63  1  0.17020349  0.67104339  0.49807002  1
  Sb  Sb64  1  -0.00001435  0.66628565  0.66762288  1
  Sb  Sb65  1  0.49728090  0.33729196  0.49774718  1
  Sb  Sb66  1  0.66651472  0.82899865  0.83251580  1
  Sb  Sb67  1  0.66468783  0.00291851  -0.00011846  1
  Sb  Sb68  1  0.83675440  0.33352301  0.50199839  1
  Sb  Sb69  1  0.16830053  -0.00176981  0.83387209  1
  Sb  Sb70  1  0.32941966  -0.00030687  0.66321230  1
  Sb  Sb71  1  -0.00329572  0.50082334  0.16605073  1
  Sb  Sb72  1  0.49644679  0.16413663  0.32906338  1
  Sb  Sb73  1  0.83887632  -0.00215136  0.50012962  1
  Sb  Sb74  1  -0.00341978  0.50063867  0.83331886  1
  Sb  Sb75  1  0.33435550  0.16405710  0.49729853  1
  Sb  Sb76  1  0.66650941  0.82995294  0.16751402  1
  Sb  Sb77  1  0.00029141  0.16410910  0.49627228  1
  Sb  Sb78  1  0.66333630  0.33795206  0.32878384  1
  Sb  Sb79  1  0.00296509  0.50547001  0.50034023  1
  Sb  Sb80  1  0.65983764  -0.00535523  0.33381100  1
  Sb  Sb81  1  0.32969658  0.16419805  0.16686208  1
  Sb  Sb82  1  0.83204424  0.17403275  0.67274647  1
  Sb  Sb83  1  0.00220070  -0.00147368  -0.00158962  1
  Sb  Sb84  1  0.16503941  0.16959215  0.66696871  1
  Sb  Sb85  1  -0.00234611  0.16707067  0.83901904  1
  Sb  Sb86  1  0.33679300  0.16904712  0.83547292  1
  Sb  Sb87  1  0.83202095  0.66130044  0.83596690  1
  Sb  Sb88  1  0.83748738  0.82724869  0.32891744  1
  Sb  Sb89  1  0.83530594  0.82747009  0.67025276  1
  Sb  Sb90  1  0.66923856  -0.00257171  0.66677867  1
  Sb  Sb91  1  0.83917938  0.00400905  0.16561767  1
  Sb  Sb92  1  0.00581104  0.33846943  0.33134141  1
  Sb  Sb93  1  0.82878093  0.66770914  0.49898544  1
  Sb  Sb94  1  0.33079603  0.50550010  0.49882740  1
  Sb  Sb95  1  0.50170744  0.50377274  0.67173528  1
  Sb  Sb96  1  0.33598469  0.50038086  0.83295888  1
  Sb  Sb97  1  0.50418378  0.33667440  0.83800874  1
  Sb  Sb98  1  0.83018713  0.00322885  0.83451763  1
  Sb  Sb99  1  0.33294043  -0.00595074  0.00479029  1
  Sb  Sb100  1  0.49555124  -0.00743823  0.50316354  1
  Sb  Sb101  1  0.49547998  0.00075146  0.16309125  1
  Sb  Sb102  1  0.33190701  0.83087793  0.83334249  1
  Sb  Sb103  1  0.33557570  0.33649616  0.00033593  1
  Sb  Sb104  1  0.83594841  0.66193352  0.16552862  1
  Sb  Sb105  1  0.49864107  0.50622352  0.32829036  1
  Sb  Sb106  1  0.83615919  0.17511568  0.32657779  1
  Sb  Sb107  1  0.49642358  0.66620773  0.16388492  1
  Te  Te108  1  0.16423186  0.16900385  0.16720596  1
  Te  Te109  1  0.16637482  0.16717457  0.49569810  1
  Te  Te110  1  0.16715109  0.16817728  0.83788064  1
  Te  Te111  1  0.16681662  0.50747117  0.17092777  1
  Te  Te112  1  0.16666335  0.49374798  0.50078016  1
  Te  Te113  1  0.16629500  0.50107918  0.83108244  1
  Te  Te114  1  0.16627254  0.83074404  0.16524860  1
  Te  Te115  1  0.16887786  0.83195602  0.49931443  1
  Te  Te116  1  0.16393266  0.83175812  0.83240849  1
  Te  Te117  1  0.50288638  0.16829583  0.16308510  1
  Te  Te118  1  0.50594711  0.16633482  0.49925308  1
  Te  Te119  1  0.50459573  0.16861543  0.83819131  1
  Te  Te120  1  0.50485883  0.49482898  0.16223990  1
  Te  Te121  1  0.49867988  0.50801538  0.49998951  1
  Te  Te122  1  0.50517386  0.50606608  0.83837959  1
  Te  Te123  1  0.49938403  0.83515202  0.16573825  1
  Te  Te124  1  0.49955665  0.83190019  0.50074501  1
  Te  Te125  1  0.50030992  0.82951192  0.83537723  1
  Te  Te126  1  0.83448950  0.17032434  0.16221694  1
  Te  Te127  1  0.82807008  0.16564984  0.49839984  1
  Te  Te128  1  0.82829850  0.17102606  0.83990106  1
  Te  Te129  1  0.82911775  0.49495423  0.17032860  1
  Te  Te130  1  0.83491722  0.49971855  0.49923668  1
  Te  Te131  1  0.82869572  0.49437743  0.82783522  1
  Te  Te132  1  0.83654456  0.83529144  0.16067415  1
  Te  Te133  1  0.82907986  0.83447321  0.50067743  1
  Te  Te134  1  0.83849601  0.83434704  0.83820341  1
  Te  Te135  1  0.16872805  0.00997928  0.00215174  1
  Te  Te136  1  0.16822652  -0.00181373  0.33337245  1
  Te  Te137  1  0.16411936  -0.00318282  0.66609145  1
  Te  Te138  1  0.16786018  0.33268307  -0.00238767  1
  Te  Te139  1  0.16756667  0.33529695  0.33410845  1
  Te  Te140  1  0.16468977  0.33243950  0.66729021  1
  Te  Te141  1  0.16335928  0.66515026  -0.00334242  1
  Te  Te142  1  0.17033751  0.66838654  0.33534161  1
  Te  Te143  1  0.16709767  0.66611178  0.66930155  1
  Te  Te144  1  0.49822555  -0.00003053  -0.00423273  1
  Te  Te145  1  0.49183518  -0.00651003  0.33354288  1
  Te  Te146  1  0.49961192  -0.00628648  0.67210317  1
  Te  Te147  1  0.50122340  0.33156726  0.00230783  1
  Te  Te148  1  0.49387944  0.33426334  0.32929042  1
  Te  Te149  1  0.50509577  0.33437402  0.66627017  1
  Te  Te150  1  0.50131912  0.66662497  0.00030068  1
  Te  Te151  1  0.49962612  0.67011284  0.33074341  1
  Te  Te152  1  0.50125610  0.66928385  0.66964096  1
  Te  Te153  1  0.83345602  -0.00395696  -0.00029025  1
  Te  Te154  1  0.83277850  0.00271895  0.33327951  1
  Te  Te155  1  0.84193450  0.00005764  0.66744673  1
  Te  Te156  1  0.83216031  0.33535422  -0.00045645  1
  Te  Te157  1  0.83502460  0.34157020  0.33229518  1
  Te  Te158  1  0.82919940  0.33784730  0.66853402  1
  Te  Te159  1  0.83840626  0.66948011  -0.00010641  1
  Te  Te160  1  0.82523341  0.66082271  0.33230677  1
  Te  Te161  1  0.82731988  0.65893009  0.66740128  1
  Te  Te162  1  -0.00042863  0.16758893  0.00261624  1
  Te  Te163  1  0.00474141  0.16632588  0.32768610  1
  Te  Te164  1  -0.00101773  0.17201414  0.66562599  1
  Te  Te165  1  0.00011693  0.49900008  -0.00009190  1
  Te  Te166  1  0.00272769  0.50724719  0.33338777  1
  Te  Te167  1  0.00176679  0.49584462  0.66655989  1
  Te  Te168  1  0.00136315  0.83202353  0.00107687  1
  Te  Te169  1  0.00098407  0.82787686  0.33128378  1
  Te  Te170  1  0.00102697  0.83139870  0.66409523  1
  Te  Te171  1  0.33579841  0.16668800  0.00097783  1
  Te  Te172  1  0.32807673  0.17463653  0.33307383  1
  Te  Te173  1  0.33449132  0.17450933  0.66613248  1
  Te  Te174  1  0.34078901  0.50700755  0.00001174  1
  Te  Te175  1  0.32887184  0.49777860  0.33333910  1
  Te  Te176  1  0.32722197  0.49549659  0.66586387  1
  Te  Te177  1  0.33781255  0.82775120  0.00091124  1
  Te  Te178  1  0.33023950  0.82993398  0.33323722  1
  Te  Te179  1  0.33178562  0.83359898  0.66403669  1
  Te  Te180  1  0.66793720  0.16751892  0.00193189  1
  Te  Te181  1  0.66643425  0.16513294  0.33390981  1
  Te  Te182  1  0.66719875  0.16867710  0.66419468  1
  Te  Te183  1  0.66697405  0.49877633  0.00005291  1
  Te  Te184  1  0.66657742  0.50509743  0.33279574  1
  Te  Te185  1  0.66679671  0.50075295  0.66665986  1
  Te  Te186  1  0.66539807  0.83196200  0.00031569  1
  Te  Te187  1  0.66915581  0.82733417  0.33606208  1
  Te  Te188  1  0.66630441  0.82932530  0.66442146  1
  Te  Te189  1  0.00627168  -0.00113485  0.16661333  1
  Te  Te190  1  0.00586244  -0.00405906  0.50392803  1
  Te  Te191  1  0.00002926  -0.00464226  0.82809567  1
  Te  Te192  1  -0.00261681  0.33112118  0.16290893  1
  Te  Te193  1  0.00485988  0.33251478  0.50334832  1
  Te  Te194  1  -0.00074786  0.33292438  0.83599527  1
  Te  Te195  1  0.00184911  0.66772917  0.16573834  1
  Te  Te196  1  -0.00095886  0.67350732  0.49666125  1
  Te  Te197  1  0.00222253  0.66936646  0.83579274  1
  Te  Te198  1  0.32793885  -0.00509722  0.17158910  1
  Te  Te199  1  0.32800200  -0.00355588  0.49617499  1
  Te  Te200  1  0.34067495  0.00088909  0.83233808  1
  Te  Te201  1  0.33595335  0.33378169  0.16899818  1
  Te  Te202  1  0.33025755  0.33242996  0.50017813  1
  Te  Te203  1  0.32594737  0.33426098  0.82960908  1
  Te  Te204  1  0.32956298  0.66976586  0.16633056  1
  Te  Te205  1  0.33962582  0.67201449  0.49642935  1
  Te  Te206  1  0.33233022  0.66609164  0.83703816  1
  Te  Te207  1  0.66709439  0.00664944  0.16845646  1
  Te  Te208  1  0.66689169  -0.00149713  0.50074125  1
  Te  Te209  1  0.66211429  0.00410528  0.83169160  1
  Te  Te210  1  0.66715916  0.33473084  0.16666615  1
  Te  Te211  1  0.66628075  0.33068315  0.49983347  1
  Te  Te212  1  0.66587923  0.33525884  0.83591200  1
  Te  Te213  1  0.66839982  0.66364811  0.16301586  1
  Te  Te214  1  0.66270906  0.66871988  0.50094960  1
  Te  Te215  1  0.66499750  0.66476316  0.83641956  1
