# generated using pymatgen
data_AgSbTe2
_symmetry_space_group_name_H-M   'P 1'
_cell_length_a   18.31153969
_cell_length_b   18.31250605
_cell_length_c   18.31164098
_cell_angle_alpha   89.99959145
_cell_angle_beta   89.99888206
_cell_angle_gamma   90.00175492
_symmetry_Int_Tables_number   1
_chemical_formula_structural   AgSbTe2
_chemical_formula_sum   'Ag54 Sb54 Te108'
_cell_volume   6140.44588872
_cell_formula_units_Z   54
loop_
 _symmetry_equiv_pos_site_id
 _symmetry_equiv_pos_as_xyz
  1  'x, y, z'
loop_
 _atom_site_type_symbol
 _atom_site_label
 _atom_site_symmetry_multiplicity
 _atom_site_fract_x
 _atom_site_fract_y
 _atom_site_fract_z
 _atom_site_occupancy
  Ag  Ag0  1  0.66982066  0.83551982  0.83585955  1
  Ag  Ag1  1  0.16779841  0.82915996  0.33348458  1
  Ag  Ag2  1  0.17241440  0.66471827  0.50555189  1
  Ag  Ag3  1  0.67320340  0.00091603  0.67159560  1
  Ag  Ag4  1  0.83171723  -0.01149201  0.17172512  1
  Ag  Ag5  1  0.33386555  0.82534727  0.16669593  1
  Ag  Ag6  1  0.16446945  0.16752928  0.66979963  1
  Ag  Ag7  1  0.33478956  0.82774190  0.83530555  1
  Ag  Ag8  1  0.49745571  0.16700029  -0.00351785  1
  Ag  Ag9  1  0.50358260  0.16727054  0.67204522  1
  Ag  Ag10  1  -0.00229994  0.16709681  0.50629088  1
  Ag  Ag11  1  0.83570072  0.67039614  0.16508815  1
  Ag  Ag12  1  0.66695975  0.49849129  0.50206281  1
  Ag  Ag13  1  0.83479792  0.82942855  0.32754902  1
  Ag  Ag14  1  0.82626161  0.33442248  0.50106670  1
  Ag  Ag15  1  0.16063410  0.82570871  0.66752711  1
  Ag  Ag16  1  0.49113049  0.65898499  0.50519344  1
  Ag  Ag17  1  0.83001012  0.66952724  0.83164458  1
  Ag  Ag18  1  0.17285920  0.33714900  0.16473324  1
  Ag  Ag19  1  0.17092921  0.66324221  0.17087027  1
  Ag  Ag20  1  0.17088617  0.33301866  0.83329953  1
  Ag  Ag21  1  0.00404199  0.17030451  0.16823806  1
  Ag  Ag22  1  0.83900749  0.83375781  0.67113436  1
  Ag  Ag23  1  -0.00813499  -0.00448116  0.66757784  1
  Ag  Ag24  1  0.16140159  0.50953025  0.66797606  1
  Ag  Ag25  1  0.50282715  0.66756622  0.82898468  1
  Ag  Ag26  1  0.32959611  0.50647947  0.17240637  1
  Ag  Ag27  1  0.66961467  0.50327885  0.16927421  1
  Ag  Ag28  1  0.66690409  -0.00180990  -0.00984491  1
  Ag  Ag29  1  0.32779796  0.66719764  0.66422018  1
  Ag  Ag30  1  0.00117528  0.50128531  0.16436024  1
  Ag  Ag31  1  0.33905446  0.50579261  0.49676590  1
  Ag  Ag32  1  0.50532127  0.33695872  0.49841178  1
  Ag  Ag33  1  0.49579466  0.33144228  0.16889551  1
  Ag  Ag34  1  0.33429301  -0.00760389  0.33130523  1
  Ag  Ag35  1  0.66470018  0.33572231  0.33399530  1
  Ag  Ag36  1  0.17163665  0.16785951  -0.00101468  1
  Ag  Ag37  1  0.83623770  0.50448466  0.66462764  1
  Ag  Ag38  1  0.83051470  0.50537965  0.33602568  1
  Ag  Ag39  1  0.67428977  0.83024549  0.16267748  1
  Ag  Ag40  1  0.00271885  0.67032067  0.66882920  1
  Ag  Ag41  1  0.83310077  0.00207093  0.50627787  1
  Ag  Ag42  1  0.33262770  0.66918793  0.00348830  1
  Ag  Ag43  1  0.83060827  0.83293682  -0.00230771  1
  Ag  Ag44  1  0.66231135  0.15879272  0.83041021  1
  Ag  Ag45  1  0.33149301  0.66963008  0.33173686  1
  Ag  Ag46  1  0.83429403  0.15600902  0.66565383  1
  Ag  Ag47  1  -0.00894772  0.82715934  0.82750577  1
  Ag  Ag48  1  0.49923257  0.16983674  0.33110727  1
  Ag  Ag49  1  0.50491264  0.00457051  0.83163925  1
  Ag  Ag50  1  0.50046845  0.32871618  0.83161268  1
  Ag  Ag51  1  -0.00524301  0.50571856  0.82743915  1
  Ag  Ag52  1  0.33175387  0.16841725  0.16664580  1
  Ag  Ag53  1  0.66930901  0.50312241  0.82982654  1
  Sb  Sb54  1  0.50048694  0.83402518  0.67063262  1
  Sb  Sb55  1  0.50334216  0.00460261  0.16322425  1
  Sb  Sb56  1  0.83204135  0.50632938  -0.00095400  1
  Sb  Sb57  1  -0.00218353  0.16689455  0.83014440  1
  Sb  Sb58  1  0.16473698  -0.00032628  0.16725063  1
  Sb  Sb59  1  0.83135130  0.33837205  0.17227430  1
  Sb  Sb60  1  0.50228525  0.49846351  0.66524666  1
  Sb  Sb61  1  -0.00010741  0.33387214  0.66672961  1
  Sb  Sb62  1  0.17064429  0.16350148  0.33291823  1
  Sb  Sb63  1  0.66952537  0.17247409  0.50577605  1
  Sb  Sb64  1  0.33842959  -0.00264212  0.00262804  1
  Sb  Sb65  1  0.82996225  0.16630131  0.33795258  1
  Sb  Sb66  1  0.66560125  0.16651354  0.16315239  1
  Sb  Sb67  1  0.66424785  0.32988785  0.00164896  1
  Sb  Sb68  1  0.66387131  0.66320722  0.33257352  1
  Sb  Sb69  1  0.49689350  0.66216557  0.16568973  1
  Sb  Sb70  1  0.33187686  0.82530984  0.49870300  1
  Sb  Sb71  1  0.66495883  0.00244460  0.33463942  1
  Sb  Sb72  1  0.33380272  0.33817962  0.66699340  1
  Sb  Sb73  1  0.16787660  0.49863412  -0.00174332  1
  Sb  Sb74  1  0.49987612  0.49716213  -0.00005094  1
  Sb  Sb75  1  0.17036795  0.00269309  0.83104386  1
  Sb  Sb76  1  0.00255392  0.66695376  -0.00388450  1
  Sb  Sb77  1  -0.00479231  0.33444720  0.33259851  1
  Sb  Sb78  1  0.50433050  0.83614936  -0.00256137  1
  Sb  Sb79  1  -0.00321754  0.83090706  0.16348588  1
  Sb  Sb80  1  0.83059866  0.33949851  0.82657425  1
  Sb  Sb81  1  0.16659655  0.66454553  0.82935998  1
  Sb  Sb82  1  0.33915870  0.16384953  0.83607096  1
  Sb  Sb83  1  -0.00616406  -0.00107884  -0.00442077  1
  Sb  Sb84  1  0.83115439  0.15881415  -0.00445576  1
  Sb  Sb85  1  0.16515619  0.83501509  -0.00128190  1
  Sb  Sb86  1  0.50451659  0.00278965  0.50421943  1
  Sb  Sb87  1  0.66893748  0.66947967  0.66938143  1
  Sb  Sb88  1  0.49881423  0.83499103  0.33161288  1
  Sb  Sb89  1  0.00243989  0.66727054  0.33624470  1
  Sb  Sb90  1  0.66641229  0.33057207  0.66476344  1
  Sb  Sb91  1  0.33374363  0.33622664  0.00196947  1
  Sb  Sb92  1  0.33331586  -0.00462479  0.66407584  1
  Sb  Sb93  1  0.33290585  0.17093837  0.49766158  1
  Sb  Sb94  1  0.33867335  0.33732390  0.33018113  1
  Sb  Sb95  1  0.66372768  0.67150716  -0.00165232  1
  Sb  Sb96  1  0.16804078  0.33796923  0.50042727  1
  Sb  Sb97  1  0.83409782  0.66602892  0.50235970  1
  Sb  Sb98  1  -0.00317888  0.49752241  0.50293333  1
  Sb  Sb99  1  0.33451660  0.50621410  0.83167197  1
  Sb  Sb100  1  0.00122030  -0.00090839  0.33673007  1
  Sb  Sb101  1  0.82608520  -0.00911435  0.82828392  1
  Sb  Sb102  1  -0.00113659  0.83496609  0.50814294  1
  Sb  Sb103  1  0.66901914  0.82862463  0.50165367  1
  Sb  Sb104  1  0.00166961  0.33232063  0.00058067  1
  Sb  Sb105  1  0.50505918  0.49615561  0.33403828  1
  Sb  Sb106  1  0.16446033  0.50512345  0.33309203  1
  Sb  Sb107  1  0.16289286  -0.00385875  0.50227351  1
  Te  Te108  1  0.16804967  0.16688095  0.16727592  1
  Te  Te109  1  0.16242539  0.16789319  0.50271426  1
  Te  Te110  1  0.16698598  0.17076659  0.83248577  1
  Te  Te111  1  0.16671841  0.50013580  0.16615608  1
  Te  Te112  1  0.16725734  0.50298320  0.50381294  1
  Te  Te113  1  0.16569041  0.49481169  0.83047813  1
  Te  Te114  1  0.16787144  0.83013681  0.16702883  1
  Te  Te115  1  0.16549543  0.82801057  0.50109366  1
  Te  Te116  1  0.16994270  0.83394562  0.83005552  1
  Te  Te117  1  0.49838128  0.16996209  0.16602904  1
  Te  Te118  1  0.49984439  0.17165737  0.50325393  1
  Te  Te119  1  0.50037983  0.16819895  0.83192580  1
  Te  Te120  1  0.50211481  0.49409463  0.16703002  1
  Te  Te121  1  0.50140953  0.49859368  0.50028057  1
  Te  Te122  1  0.50362834  0.50030967  0.83246425  1
  Te  Te123  1  0.49916118  0.83359804  0.16560132  1
  Te  Te124  1  0.50115917  0.82817854  0.50098046  1
  Te  Te125  1  0.50244211  0.82839284  0.83379577  1
  Te  Te126  1  0.83700413  0.16835371  0.16556869  1
  Te  Te127  1  0.83557140  0.16622129  0.50368869  1
  Te  Te128  1  0.82838263  0.17049696  0.82689874  1
  Te  Te129  1  0.83143043  0.50299733  0.16649689  1
  Te  Te130  1  0.83107283  0.49895823  0.50081270  1
  Te  Te131  1  0.83307312  0.50528214  0.83210058  1
  Te  Te132  1  0.83432542  0.82975019  0.16821912  1
  Te  Te133  1  0.83284045  0.83568434  0.49912128  1
  Te  Te134  1  0.83068126  0.83069640  0.83086818  1
  Te  Te135  1  0.16638404  0.00792931  -0.00063761  1
  Te  Te136  1  0.17237508  -0.00887678  0.33482352  1
  Te  Te137  1  0.16459315  0.00139188  0.66568388  1
  Te  Te138  1  0.16797313  0.32748629  0.00179046  1
  Te  Te139  1  0.16660603  0.33306655  0.32734215  1
  Te  Te140  1  0.16714858  0.32922248  0.66838575  1
  Te  Te141  1  0.17180446  0.66787822  0.00816035  1
  Te  Te142  1  0.16894501  0.66992736  0.33070487  1
  Te  Te143  1  0.16614363  0.66676278  0.66809996  1
  Te  Te144  1  0.50541223  0.00536044  -0.00551847  1
  Te  Te145  1  0.49613048  0.00598907  0.33514542  1
  Te  Te146  1  0.50219120  0.00435911  0.67031803  1
  Te  Te147  1  0.49931366  0.32671739  -0.00115767  1
  Te  Te148  1  0.50346034  0.33014180  0.33373333  1
  Te  Te149  1  0.49944111  0.32887922  0.66795638  1
  Te  Te150  1  0.49316227  0.66652688  -0.00628772  1
  Te  Te151  1  0.49357514  0.66699411  0.33794813  1
  Te  Te152  1  0.49637148  0.66599024  0.66768935  1
  Te  Te153  1  0.82726334  -0.00563168  0.00615113  1
  Te  Te154  1  0.83312001  -0.00320081  0.33287268  1
  Te  Te155  1  0.83311195  -0.00184394  0.66667343  1
  Te  Te156  1  0.83294573  0.33025298  -0.00093999  1
  Te  Te157  1  0.82743269  0.33642181  0.33975002  1
  Te  Te158  1  0.83329685  0.33948120  0.66087428  1
  Te  Te159  1  0.83389167  0.67335386  -0.00029219  1
  Te  Te160  1  0.83302308  0.66729423  0.33220486  1
  Te  Te161  1  0.83550644  0.66640317  0.66819121  1
  Te  Te162  1  0.00402729  0.16491138  0.00345746  1
  Te  Te163  1  0.00025347  0.16603107  0.32882313  1
  Te  Te164  1  -0.00141498  0.16487157  0.66654491  1
  Te  Te165  1  -0.00029566  0.49988803  0.00287206  1
  Te  Te166  1  -0.00798831  0.50087932  0.32735686  1
  Te  Te167  1  -0.00043244  0.50183680  0.66751601  1
  Te  Te168  1  -0.00590855  0.83384693  -0.01019377  1
  Te  Te169  1  -0.00089250  0.83394969  0.33296383  1
  Te  Te170  1  0.00013387  0.83312940  0.66928742  1
  Te  Te171  1  0.33351890  0.16511429  0.00426539  1
  Te  Te172  1  0.33780372  0.16610521  0.32967253  1
  Te  Te173  1  0.32974266  0.16508724  0.66691509  1
  Te  Te174  1  0.33343483  0.50805312  0.00823513  1
  Te  Te175  1  0.33167756  0.50493378  0.33286293  1
  Te  Te176  1  0.32949424  0.50516668  0.66342572  1
  Te  Te177  1  0.33250580  0.83014424  0.00147437  1
  Te  Te178  1  0.33261021  0.83122926  0.33046957  1
  Te  Te179  1  0.32967533  0.82967246  0.66937821  1
  Te  Te180  1  0.66298471  0.16135207  -0.00561782  1
  Te  Te181  1  0.66130874  0.17129838  0.33336535  1
  Te  Te182  1  0.66746101  0.16409542  0.67019981  1
  Te  Te183  1  0.66637618  0.50008071  0.00018428  1
  Te  Te184  1  0.67098820  0.49800168  0.33144877  1
  Te  Te185  1  0.67124208  0.50115751  0.66818394  1
  Te  Te186  1  0.66992503  0.83685562  0.00097035  1
  Te  Te187  1  0.67079269  0.83362961  0.32862988  1
  Te  Te188  1  0.67087297  0.83789662  0.66964793  1
  Te  Te189  1  -0.00639977  0.00254153  0.16550129  1
  Te  Te190  1  -0.00480067  0.00557516  0.50461669  1
  Te  Te191  1  0.00176534  -0.00265362  0.82740427  1
  Te  Te192  1  0.00391945  0.33418074  0.16668033  1
  Te  Te193  1  -0.00340630  0.32749615  0.49912474  1
  Te  Te194  1  0.00383891  0.33972239  0.83419699  1
  Te  Te195  1  -0.00180385  0.66324781  0.16656589  1
  Te  Te196  1  0.00675820  0.66553513  0.50673339  1
  Te  Te197  1  -0.00094400  0.66569065  0.83045202  1
  Te  Te198  1  0.33335663  -0.00069139  0.17003142  1
  Te  Te199  1  0.33523727  0.00083938  0.49318812  1
  Te  Te200  1  0.34180471  -0.00873120  0.83367247  1
  Te  Te201  1  0.33392781  0.33236304  0.16633008  1
  Te  Te202  1  0.33856269  0.34065831  0.49843987  1
  Te  Te203  1  0.33425320  0.33518528  0.83460525  1
  Te  Te204  1  0.33535494  0.66680481  0.16899782  1
  Te  Te205  1  0.33245332  0.66404483  0.50159644  1
  Te  Te206  1  0.33377987  0.66916082  0.83032606  1
  Te  Te207  1  0.67100903  -0.00386548  0.16751345  1
  Te  Te208  1  0.67246729  -0.00108583  0.50388179  1
  Te  Te209  1  0.66501739  -0.00195099  0.83133127  1
  Te  Te210  1  0.66293850  0.33694918  0.16962935  1
  Te  Te211  1  0.66550850  0.33789189  0.49755698  1
  Te  Te212  1  0.66246034  0.33954184  0.83422548  1
  Te  Te213  1  0.66802588  0.66622582  0.16523959  1
  Te  Te214  1  0.66104781  0.65958886  0.50145834  1
  Te  Te215  1  0.66681307  0.66550720  0.83410213  1
