# generated using pymatgen
data_AgSbTe2
_symmetry_space_group_name_H-M   'P 1'
_cell_length_a   18.37385537
_cell_length_b   18.36348015
_cell_length_c   18.37395828
_cell_angle_alpha   89.99886319
_cell_angle_beta   89.99916271
_cell_angle_gamma   89.99714269
_symmetry_Int_Tables_number   1
_chemical_formula_structural   AgSbTe2
_chemical_formula_sum   'Ag54 Sb54 Te108'
_cell_volume   6199.51918843
_cell_formula_units_Z   54
loop_
 _symmetry_equiv_pos_site_id
 _symmetry_equiv_pos_as_xyz
  1  'x, y, z'
loop_
 _atom_site_type_symbol
 _atom_site_label
 _atom_site_symmetry_multiplicity
 _atom_site_fract_x
 _atom_site_fract_y
 _atom_site_fract_z
 _atom_site_occupancy
  Ag  Ag0  1  0.17586109  0.84415689  0.66048611  1
  Ag  Ag1  1  0.00307414  0.00085104  0.33525306  1
  Ag  Ag2  1  0.17551287  0.67930161  0.50127055  1
  Ag  Ag3  1  0.17165190  0.15774506  0.66965415  1
  Ag  Ag4  1  0.34025010  0.32941828  0.34295343  1
  Ag  Ag5  1  0.81968365  0.16343419  0.31910023  1
  Ag  Ag6  1  0.17551975  -0.00100442  0.50810010  1
  Ag  Ag7  1  0.64591412  0.00245913  0.67780572  1
  Ag  Ag8  1  0.49976545  0.67278359  0.18004275  1
  Ag  Ag9  1  0.83482924  0.00225252  0.15828703  1
  Ag  Ag10  1  0.50261977  0.83718386  0.00534481  1
  Ag  Ag11  1  0.16854614  0.67485748  0.82748227  1
  Ag  Ag12  1  0.49651141  0.32961899  0.49721787  1
  Ag  Ag13  1  0.49568038  -0.00717174  0.51061598  1
  Ag  Ag14  1  0.82452396  0.84209493  0.00397625  1
  Ag  Ag15  1  0.49924296  0.16513779  0.66281249  1
  Ag  Ag16  1  0.50236172  0.16455545  0.33753054  1
  Ag  Ag17  1  -0.00804934  0.32007710  0.00178726  1
  Ag  Ag18  1  0.49765179  0.48354565  0.66761949  1
  Ag  Ag19  1  0.01921471  0.00359881  0.67295566  1
  Ag  Ag20  1  0.50206938  0.33010240  0.17548470  1
  Ag  Ag21  1  0.65069504  0.83672114  0.48884413  1
  Ag  Ag22  1  0.16018753  0.16517942  -0.00972411  1
  Ag  Ag23  1  0.33886975  0.67491157  0.33614412  1
  Ag  Ag24  1  -0.00879772  0.16223058  0.15805900  1
  Ag  Ag25  1  -0.00814395  0.16226319  0.83960326  1
  Ag  Ag26  1  0.65695482  0.32622504  0.32774822  1
  Ag  Ag27  1  0.33276731  0.00342935  0.66295133  1
  Ag  Ag28  1  0.49516543  0.84899451  0.65012688  1
  Ag  Ag29  1  0.17819389  0.32133211  0.50131957  1
  Ag  Ag30  1  0.33788945  0.00068976  0.34032202  1
  Ag  Ag31  1  0.16372727  0.00116312  0.82299261  1
  Ag  Ag32  1  0.33384640  0.49375681  0.83085324  1
  Ag  Ag33  1  0.33730173  0.32513994  0.66029862  1
  Ag  Ag34  1  0.33624889  0.83848969  0.50046173  1
  Ag  Ag35  1  0.49925180  0.32023529  0.83104458  1
  Ag  Ag36  1  0.67252653  0.16163915  0.84190061  1
  Ag  Ag37  1  0.17520747  0.67190960  0.17362419  1
  Ag  Ag38  1  0.50402158  0.00203304  0.82247458  1
  Ag  Ag39  1  0.83402370  0.00338369  0.83559039  1
  Ag  Ag40  1  0.65518972  0.67368622  0.33092706  1
  Ag  Ag41  1  -0.00727102  0.84434692  0.16801570  1
  Ag  Ag42  1  0.50143181  0.84172211  0.33639106  1
  Ag  Ag43  1  -0.00836001  0.00286542  -0.00116998  1
  Ag  Ag44  1  0.34345456  0.33024526  -0.00646355  1
  Ag  Ag45  1  0.00822767  0.84115759  0.49461681  1
  Ag  Ag46  1  0.81910561  0.32130243  0.15763658  1
  Ag  Ag47  1  0.66424593  0.84390254  0.16833748  1
  Ag  Ag48  1  0.67290191  0.00351006  -0.00368469  1
  Ag  Ag49  1  0.82178792  0.31942798  0.84160316  1
  Ag  Ag50  1  0.49529536  0.68030377  0.49681807  1
  Ag  Ag51  1  0.66568485  0.32320100  0.00962533  1
  Ag  Ag52  1  0.67047713  0.16198364  0.16000934  1
  Ag  Ag53  1  0.82787944  0.16080876  0.67804404  1
  Sb  Sb54  1  0.00067115  0.49642187  0.16555939  1
  Sb  Sb55  1  0.00313784  0.67999109  0.66649043  1
  Sb  Sb56  1  0.17530123  0.83552739  0.33966676  1
  Sb  Sb57  1  0.83121316  0.84495867  0.66981017  1
  Sb  Sb58  1  0.33622881  0.50062380  0.50358434  1
  Sb  Sb59  1  0.00175569  0.15934156  0.50141444  1
  Sb  Sb60  1  0.33394686  0.66335621  0.00240113  1
  Sb  Sb61  1  0.49995363  0.49705823  -0.00426168  1
  Sb  Sb62  1  0.83729658  0.67364491  0.83332631  1
  Sb  Sb63  1  0.33708708  0.15992719  0.50218439  1
  Sb  Sb64  1  0.15865466  -0.00247982  0.16752377  1
  Sb  Sb65  1  0.00620401  0.48906834  0.83382355  1
  Sb  Sb66  1  0.66392776  0.49559343  0.16648828  1
  Sb  Sb67  1  0.00278612  0.67500833  0.00039290  1
  Sb  Sb68  1  0.83228763  0.49725952  -0.00053587  1
  Sb  Sb69  1  0.16904008  0.50145285  0.33382388  1
  Sb  Sb70  1  0.16852048  0.83888811  -0.00243987  1
  Sb  Sb71  1  0.66201342  0.15999900  0.49911253  1
  Sb  Sb72  1  0.17119174  0.16402786  0.33632351  1
  Sb  Sb73  1  0.83118361  0.00152152  0.50281907  1
  Sb  Sb74  1  0.82673919  0.48569675  0.66906921  1
  Sb  Sb75  1  0.66266309  0.67892854  0.66263456  1
  Sb  Sb76  1  0.17129508  0.33205891  0.16842482  1
  Sb  Sb77  1  0.66376511  0.67466036  0.00485121  1
  Sb  Sb78  1  0.50522121  0.00083772  0.16896654  1
  Sb  Sb79  1  0.17179962  0.32539974  0.83095992  1
  Sb  Sb80  1  0.83019578  0.49029799  0.33254718  1
  Sb  Sb81  1  0.33666905  0.83373720  0.17226715  1
  Sb  Sb82  1  0.83031137  0.32748919  0.49886676  1
  Sb  Sb83  1  0.33557649  0.49929841  0.16497967  1
  Sb  Sb84  1  0.49746674  0.67110223  0.82976470  1
  Sb  Sb85  1  0.00209220  0.67829010  0.33327025  1
  Sb  Sb86  1  0.65768203  0.32206374  0.66389259  1
  Sb  Sb87  1  0.33752398  0.16770898  0.16686326  1
  Sb  Sb88  1  0.83856301  0.15849142  0.00016036  1
  Sb  Sb89  1  0.66497860  0.00201258  0.33286752  1
  Sb  Sb90  1  0.00024810  0.32293822  0.32924899  1
  Sb  Sb91  1  0.16869779  0.49379321  -0.00175658  1
  Sb  Sb92  1  0.00510398  0.32206145  0.66999219  1
  Sb  Sb93  1  0.82895044  0.67294877  0.16820097  1
  Sb  Sb94  1  0.17279465  0.49888100  0.66818149  1
  Sb  Sb95  1  0.65943049  0.48611383  0.83186917  1
  Sb  Sb96  1  0.50053752  0.16552190  -0.00125987  1
  Sb  Sb97  1  0.33599727  0.16764094  0.83095807  1
  Sb  Sb98  1  0.33518362  0.66809994  0.66255205  1
  Sb  Sb99  1  0.00429614  0.50608525  0.50168645  1
  Sb  Sb100  1  0.82854766  0.67289683  0.49764674  1
  Sb  Sb101  1  0.33515086  0.00442515  -0.00076629  1
  Sb  Sb102  1  0.82806792  0.84116701  0.32992650  1
  Sb  Sb103  1  0.66337632  0.84219686  0.83580158  1
  Sb  Sb104  1  0.00203780  0.84506971  0.83447618  1
  Sb  Sb105  1  0.33398963  0.83370135  0.82723877  1
  Sb  Sb106  1  0.49916905  0.49888420  0.33731357  1
  Sb  Sb107  1  0.66117366  0.50454156  0.50034473  1
  Te  Te108  1  0.16299036  0.16744774  0.16779415  1
  Te  Te109  1  0.16658602  0.16358615  0.50446388  1
  Te  Te110  1  0.16651443  0.16229247  0.83041163  1
  Te  Te111  1  0.16694053  0.51209574  0.16557835  1
  Te  Te112  1  0.16670565  0.50467209  0.50092411  1
  Te  Te113  1  0.17203217  0.50682587  0.83341285  1
  Te  Te114  1  0.16532583  0.82935957  0.16563387  1
  Te  Te115  1  0.16753803  0.83643693  0.50044885  1
  Te  Te116  1  0.16718948  0.83594427  0.82827962  1
  Te  Te117  1  0.50416815  0.17145018  0.16955791  1
  Te  Te118  1  0.50118150  0.16957908  0.49790711  1
  Te  Te119  1  0.50267513  0.16306064  0.83364321  1
  Te  Te120  1  0.49996708  0.50252306  0.16364643  1
  Te  Te121  1  0.50092216  0.48826482  0.50929651  1
  Te  Te122  1  0.49464103  0.50391311  0.82783962  1
  Te  Te123  1  0.50232996  0.83246705  0.16818617  1
  Te  Te124  1  0.49662658  0.83574577  0.49531423  1
  Te  Te125  1  0.50030333  0.83816599  0.83562089  1
  Te  Te126  1  0.83249168  0.16564337  0.16291018  1
  Te  Te127  1  0.83318812  0.16738970  0.50097808  1
  Te  Te128  1  0.83226123  0.16392940  0.83598562  1
  Te  Te129  1  0.83431503  0.49315812  0.16697537  1
  Te  Te130  1  0.83376786  0.50089038  0.50115016  1
  Te  Te131  1  0.83445263  0.49909451  0.83218201  1
  Te  Te132  1  0.83219984  0.83696872  0.16422489  1
  Te  Te133  1  0.84123255  0.83331223  0.50094205  1
  Te  Te134  1  0.83354168  0.83861477  0.84072812  1
  Te  Te135  1  0.16813784  0.00426920  -0.00220288  1
  Te  Te136  1  0.16857368  -0.00028664  0.33863995  1
  Te  Te137  1  0.17249695  -0.00043134  0.66549852  1
  Te  Te138  1  0.16648096  0.32723055  0.00018346  1
  Te  Te139  1  0.16903362  0.33378141  0.33924811  1
  Te  Te140  1  0.17207867  0.33208267  0.66261528  1
  Te  Te141  1  0.16731567  0.66728635  -0.00094995  1
  Te  Te142  1  0.17086560  0.66802538  0.33476652  1
  Te  Te143  1  0.16699735  0.66694570  0.66498805  1
  Te  Te144  1  0.50017826  -0.00247094  0.00161796  1
  Te  Te145  1  0.49879544  0.00230335  0.33196796  1
  Te  Te146  1  0.49265489  0.00376056  0.66616563  1
  Te  Te147  1  0.50248581  0.33296787  -0.00573119  1
  Te  Te148  1  0.49913471  0.33532152  0.33283706  1
  Te  Te149  1  0.49732568  0.32662455  0.67050039  1
  Te  Te150  1  0.49947584  0.67147430  -0.00061269  1
  Te  Te151  1  0.49833619  0.66072749  0.33611331  1
  Te  Te152  1  0.50065396  0.67443331  0.66071978  1
  Te  Te153  1  0.83269051  -0.00303022  -0.00106994  1
  Te  Te154  1  0.83520900  0.00568948  0.33266325  1
  Te  Te155  1  0.83320309  0.00367624  0.67080439  1
  Te  Te156  1  0.83182569  0.33765935  -0.00121024  1
  Te  Te157  1  0.83280367  0.32359433  0.33021861  1
  Te  Te158  1  0.83462020  0.32332425  0.67186158  1
  Te  Te159  1  0.83343566  0.67172751  -0.00016903  1
  Te  Te160  1  0.83078251  0.66313800  0.33271616  1
  Te  Te161  1  0.83313034  0.66336955  0.66683448  1
  Te  Te162  1  0.00045823  0.16391451  -0.00058043  1
  Te  Te163  1  0.00254281  0.16029308  0.33137973  1
  Te  Te164  1  0.00230117  0.16077687  0.66770253  1
  Te  Te165  1  0.00040146  0.49562317  -0.00061963  1
  Te  Te166  1  -0.00106932  0.50138100  0.33316133  1
  Te  Te167  1  -0.00337873  0.50106609  0.66805081  1
  Te  Te168  1  0.00125317  0.84003762  0.00630223  1
  Te  Te169  1  -0.00345635  0.84073265  0.32926773  1
  Te  Te170  1  0.00010194  0.84312638  0.66505085  1
  Te  Te171  1  0.32575226  0.17252793  0.00162246  1
  Te  Te172  1  0.33916378  0.16791262  0.33285080  1
  Te  Te173  1  0.33394105  0.16688722  0.66607140  1
  Te  Te174  1  0.33287360  0.49315049  -0.00645160  1
  Te  Te175  1  0.33218413  0.49261998  0.33244956  1
  Te  Te176  1  0.33802096  0.49721173  0.67094724  1
  Te  Te177  1  0.34010241  0.83229332  0.00110270  1
  Te  Te178  1  0.34042710  0.83305904  0.33771681  1
  Te  Te179  1  0.33461519  0.83332846  0.66254126  1
  Te  Te180  1  0.66126315  0.16594872  0.00080458  1
  Te  Te181  1  0.66414817  0.16787360  0.33380510  1
  Te  Te182  1  0.66554372  0.15998410  0.66530322  1
  Te  Te183  1  0.66686512  0.49328700  -0.00189190  1
  Te  Te184  1  0.66813993  0.50155393  0.33353241  1
  Te  Te185  1  0.65950174  0.50293782  0.66739859  1
  Te  Te186  1  0.66498175  0.83811135  0.00519651  1
  Te  Te187  1  0.66474280  0.83268066  0.33049462  1
  Te  Te188  1  0.66291142  0.84272353  0.66539041  1
  Te  Te189  1  -0.00134709  0.00141034  0.16435218  1
  Te  Te190  1  -0.00182176  -0.00265859  0.49758408  1
  Te  Te191  1  0.00172187  0.00298573  0.83392589  1
  Te  Te192  1  0.00282499  0.32920005  0.16199655  1
  Te  Te193  1  0.00157100  0.33755598  0.49940796  1
  Te  Te194  1  0.00167017  0.32482403  0.83729490  1
  Te  Te195  1  0.00014256  0.66707875  0.16670479  1
  Te  Te196  1  0.00415124  0.67414795  0.50023007  1
  Te  Te197  1  0.00599677  0.66395490  0.83378422  1
  Te  Te198  1  0.33043002  0.00064674  0.17244805  1
  Te  Te199  1  0.33590080  -0.00090799  0.49911908  1
  Te  Te200  1  0.33527211  -0.00070296  0.83172349  1
  Te  Te201  1  0.33900044  0.33442480  0.16696476  1
  Te  Te202  1  0.33437230  0.33543546  0.50095746  1
  Te  Te203  1  0.33635751  0.33418590  0.83403660  1
  Te  Te204  1  0.33623860  0.66617021  0.17062441  1
  Te  Te205  1  0.33438736  0.66662662  0.49709363  1
  Te  Te206  1  0.32909930  0.66345196  0.83369399  1
  Te  Te207  1  0.67027986  0.00226769  0.16652791  1
  Te  Te208  1  0.66134489  -0.00552997  0.49979997  1
  Te  Te209  1  0.66448675  0.00222938  0.83585988  1
  Te  Te210  1  0.66375226  0.33274635  0.16749156  1
  Te  Te211  1  0.66252505  0.33583916  0.49557096  1
  Te  Te212  1  0.66422992  0.32441731  0.83031992  1
  Te  Te213  1  0.66162255  0.66782492  0.17027432  1
  Te  Te214  1  0.66108681  0.67332051  0.49516739  1
  Te  Te215  1  0.66944127  0.66256600  0.83472656  1
