# generated using pymatgen
data_AgSbTe2
_symmetry_space_group_name_H-M   'P 1'
_cell_length_a   18.34405077
_cell_length_b   18.33860313
_cell_length_c   18.34158259
_cell_angle_alpha   89.99955590
_cell_angle_beta   90.00169672
_cell_angle_gamma   89.99915461
_symmetry_Int_Tables_number   1
_chemical_formula_structural   AgSbTe2
_chemical_formula_sum   'Ag54 Sb54 Te108'
_cell_volume   6170.18664006
_cell_formula_units_Z   54
loop_
 _symmetry_equiv_pos_site_id
 _symmetry_equiv_pos_as_xyz
  1  'x, y, z'
loop_
 _atom_site_type_symbol
 _atom_site_label
 _atom_site_symmetry_multiplicity
 _atom_site_fract_x
 _atom_site_fract_y
 _atom_site_fract_z
 _atom_site_occupancy
  Ag  Ag0  1  0.50397082  -0.00467979  0.49395042  1
  Ag  Ag1  1  0.16842380  0.66650040  0.49014740  1
  Ag  Ag2  1  0.32182270  0.00436798  0.33389080  1
  Ag  Ag3  1  0.00163887  0.83716583  0.84052063  1
  Ag  Ag4  1  0.32392666  0.16824773  0.16643117  1
  Ag  Ag5  1  0.83457384  0.15985092  0.67152862  1
  Ag  Ag6  1  0.49864434  0.66902260  0.16716214  1
  Ag  Ag7  1  0.16615134  0.00037117  0.49501240  1
  Ag  Ag8  1  0.83494208  0.00521643  0.82048576  1
  Ag  Ag9  1  0.00033898  0.65531198  0.00755723  1
  Ag  Ag10  1  0.67236862  0.00243380  0.33757354  1
  Ag  Ag11  1  -0.00051842  0.33085640  0.32737733  1
  Ag  Ag12  1  0.00282452  0.17577181  0.16683519  1
  Ag  Ag13  1  -0.00186875  0.33501881  0.00813372  1
  Ag  Ag14  1  0.66330296  0.49575290  0.49604606  1
  Ag  Ag15  1  0.33590872  0.00803417  0.01134194  1
  Ag  Ag16  1  -0.00090501  0.83172974  0.16645695  1
  Ag  Ag17  1  -0.00002440  0.49852269  0.16659575  1
  Ag  Ag18  1  0.31960382  0.32886518  0.33218035  1
  Ag  Ag19  1  0.15945003  0.49196038  0.01014256  1
  Ag  Ag20  1  0.16143424  0.84038456  0.33441547  1
  Ag  Ag21  1  0.16125649  0.17176087  0.00997091  1
  Ag  Ag22  1  0.32118481  0.32996236  0.00429665  1
  Ag  Ag23  1  0.83354005  0.00377999  0.50530605  1
  Ag  Ag24  1  0.50341490  0.83397058  0.66513537  1
  Ag  Ag25  1  0.49882766  -0.00358875  0.17362500  1
  Ag  Ag26  1  0.15816387  0.66559752  0.17087062  1
  Ag  Ag27  1  0.15960592  0.49282873  0.33020909  1
  Ag  Ag28  1  0.84246531  0.65863750  0.16986099  1
  Ag  Ag29  1  0.68150895  0.33152556  0.00138171  1
  Ag  Ag30  1  0.50107945  0.50113616  0.66436696  1
  Ag  Ag31  1  0.00282847  0.00239061  0.33423709  1
  Ag  Ag32  1  0.67218780  0.66087471  0.33162128  1
  Ag  Ag33  1  0.83892010  0.48862997  0.01161351  1
  Ag  Ag34  1  0.83917084  0.17200964  -0.00153042  1
  Ag  Ag35  1  0.83431330  0.33735761  0.16281988  1
  Ag  Ag36  1  0.67351110  0.00452295  0.65745108  1
  Ag  Ag37  1  0.33441258  0.33416479  0.65767426  1
  Ag  Ag38  1  0.83840768  0.32833529  0.84679040  1
  Ag  Ag39  1  0.83883028  0.84125954  0.33487131  1
  Ag  Ag40  1  0.83187481  0.84347624  0.65747918  1
  Ag  Ag41  1  -0.01097391  -0.00054646  0.65271218  1
  Ag  Ag42  1  0.83518765  0.33033708  0.49599072  1
  Ag  Ag43  1  0.50008984  0.49733654  0.00408946  1
  Ag  Ag44  1  0.16156955  0.33353319  0.85071685  1
  Ag  Ag45  1  0.83882610  0.48920819  0.33116117  1
  Ag  Ag46  1  0.32490516  0.83727068  0.82603687  1
  Ag  Ag47  1  0.66859851  0.00659486  0.00418107  1
  Ag  Ag48  1  0.16573494  0.33238415  0.48751785  1
  Ag  Ag49  1  0.67042481  0.32994126  0.66055467  1
  Ag  Ag50  1  0.33321280  0.49564196  0.49718781  1
  Ag  Ag51  1  0.67884874  0.33453125  0.33675966  1
  Ag  Ag52  1  0.16642035  0.17195175  0.32861561  1
  Ag  Ag53  1  0.32927795  0.83679347  0.50024964  1
  Sb  Sb54  1  0.16895466  0.49554203  0.65940814  1
  Sb  Sb55  1  -0.00103946  0.16547118  0.49296908  1
  Sb  Sb56  1  0.67099410  0.83435311  0.16976872  1
  Sb  Sb57  1  0.83259841  0.00170074  0.16972248  1
  Sb  Sb58  1  0.50385474  0.16625572  0.66439123  1
  Sb  Sb59  1  0.32940375  0.16586653  0.83903336  1
  Sb  Sb60  1  -0.00338325  0.32846137  0.66561746  1
  Sb  Sb61  1  0.49742199  0.66842902  0.49611905  1
  Sb  Sb62  1  -0.00084920  0.67294855  0.66929773  1
  Sb  Sb63  1  0.50376019  -0.00215790  0.83262963  1
  Sb  Sb64  1  0.83048070  0.49692108  0.66247914  1
  Sb  Sb65  1  0.16487813  0.83432167  0.66076258  1
  Sb  Sb66  1  0.32930883  0.83795979  0.17034628  1
  Sb  Sb67  1  0.16748702  0.00011787  0.17436786  1
  Sb  Sb68  1  0.33131664  0.49849843  0.83220327  1
  Sb  Sb69  1  0.66585520  0.83506492  0.49758785  1
  Sb  Sb70  1  0.33356941  0.66511215  0.66418624  1
  Sb  Sb71  1  0.16510664  0.66335067  0.83630568  1
  Sb  Sb72  1  -0.00003992  0.49913069  0.84218465  1
  Sb  Sb73  1  0.67128258  0.66121142  0.00836445  1
  Sb  Sb74  1  0.50442875  0.33342149  0.16617968  1
  Sb  Sb75  1  0.67034665  0.16838894  0.49820790  1
  Sb  Sb76  1  0.00055936  0.00407261  0.00597085  1
  Sb  Sb77  1  0.15677711  0.33533873  0.16762099  1
  Sb  Sb78  1  0.16237715  0.16958037  0.66276318  1
  Sb  Sb79  1  -0.00230206  0.16495271  0.83930374  1
  Sb  Sb80  1  0.83539487  0.66674716  0.83951044  1
  Sb  Sb81  1  0.49987959  0.33191561  0.49829544  1
  Sb  Sb82  1  0.33078302  0.16796417  0.49546549  1
  Sb  Sb83  1  0.49813002  0.83184730  -0.00171921  1
  Sb  Sb84  1  0.67289676  0.49957830  0.17152809  1
  Sb  Sb85  1  0.50165894  0.50011441  0.33141574  1
  Sb  Sb86  1  0.50039679  0.33468139  0.83404960  1
  Sb  Sb87  1  0.66986606  0.16778430  0.83424432  1
  Sb  Sb88  1  0.32892669  0.66432201  0.00280440  1
  Sb  Sb89  1  0.00276460  0.83605997  0.49510304  1
  Sb  Sb90  1  0.67018819  0.16640481  0.16680759  1
  Sb  Sb91  1  0.49409611  0.16438637  0.33138799  1
  Sb  Sb92  1  0.32908174  0.49362585  0.16922899  1
  Sb  Sb93  1  0.33477428  0.00283931  0.66210790  1
  Sb  Sb94  1  0.67029548  0.83733569  0.83187831  1
  Sb  Sb95  1  0.50025004  0.17016751  0.00251130  1
  Sb  Sb96  1  0.16614613  0.83473583  0.00455203  1
  Sb  Sb97  1  0.49897914  0.66648590  0.83712348  1
  Sb  Sb98  1  0.33027701  0.66660722  0.33333254  1
  Sb  Sb99  1  0.83938816  0.16952769  0.33141686  1
  Sb  Sb100  1  0.83461370  0.83500556  0.00302337  1
  Sb  Sb101  1  0.83662345  0.66650102  0.49265278  1
  Sb  Sb102  1  0.66793415  0.49652419  0.83286981  1
  Sb  Sb103  1  0.49800483  0.83698267  0.33567339  1
  Sb  Sb104  1  -0.00080937  0.66785600  0.32551062  1
  Sb  Sb105  1  0.66755716  0.66623385  0.65885356  1
  Sb  Sb106  1  0.16193036  0.00274833  0.83033148  1
  Sb  Sb107  1  0.00205208  0.49756908  0.49161356  1
  Te  Te108  1  0.16500551  0.16464215  0.16751740  1
  Te  Te109  1  0.16558484  0.17030217  0.49519750  1
  Te  Te110  1  0.16546362  0.17267636  0.83694359  1
  Te  Te111  1  0.16501999  0.50517894  0.16875522  1
  Te  Te112  1  0.16937535  0.49456509  0.49422048  1
  Te  Te113  1  0.16668480  0.49501104  0.83760856  1
  Te  Te114  1  0.16266136  0.82698748  0.17164009  1
  Te  Te115  1  0.16904582  0.83597642  0.49613906  1
  Te  Te116  1  0.16466173  0.83243189  0.83324904  1
  Te  Te117  1  0.49606037  0.15879123  0.16577167  1
  Te  Te118  1  0.50000380  0.15380822  0.50079774  1
  Te  Te119  1  0.49786099  0.16627746  0.83297729  1
  Te  Te120  1  0.49735747  0.50303251  0.16253761  1
  Te  Te121  1  0.49750373  0.50058747  0.50278007  1
  Te  Te122  1  0.49898446  0.50134760  0.83063732  1
  Te  Te123  1  0.50009578  0.83515855  0.16615813  1
  Te  Te124  1  0.49619107  0.83542690  0.50328662  1
  Te  Te125  1  0.49644938  0.83208227  0.82670467  1
  Te  Te126  1  0.83685631  0.17028846  0.16092229  1
  Te  Te127  1  0.83319037  0.16659341  0.50429405  1
  Te  Te128  1  0.83326616  0.16701115  0.83502797  1
  Te  Te129  1  0.83442617  0.49909280  0.16965822  1
  Te  Te130  1  0.83216003  0.49866515  0.49407081  1
  Te  Te131  1  0.83345546  0.49676516  0.83487937  1
  Te  Te132  1  0.83721006  0.83197754  0.17174008  1
  Te  Te133  1  0.83337069  0.83472629  0.49756076  1
  Te  Te134  1  0.83848356  0.83450422  0.83477842  1
  Te  Te135  1  0.17161606  0.00473057  -0.00339644  1
  Te  Te136  1  0.16486116  -0.00125939  0.33488156  1
  Te  Te137  1  0.16481717  0.00171194  0.66058311  1
  Te  Te138  1  0.16373599  0.33288602  0.00376438  1
  Te  Te139  1  0.16326720  0.33309195  0.33104651  1
  Te  Te140  1  0.16876658  0.33326091  0.66063723  1
  Te  Te141  1  0.16125048  0.66585587  0.00431594  1
  Te  Te142  1  0.16693186  0.66475331  0.33224560  1
  Te  Te143  1  0.16632383  0.66448510  0.66341760  1
  Te  Te144  1  0.49913706  -0.00025668  0.00017706  1
  Te  Te145  1  0.50446598  -0.00120026  0.33392552  1
  Te  Te146  1  0.50343952  -0.00307163  0.66442478  1
  Te  Te147  1  0.49988786  0.33799750  -0.00029439  1
  Te  Te148  1  0.50597684  0.33248427  0.33241335  1
  Te  Te149  1  0.50226179  0.33614032  0.66655712  1
  Te  Te150  1  0.50199875  0.66206040  0.00502990  1
  Te  Te151  1  0.50551890  0.66848923  0.32880458  1
  Te  Te152  1  0.50116881  0.66600269  0.66646378  1
  Te  Te153  1  0.82943232  0.00354399  0.00347537  1
  Te  Te154  1  0.83497846  0.00184316  0.33430962  1
  Te  Te155  1  0.83272658  -0.00137875  0.66518906  1
  Te  Te156  1  0.83747740  0.33227631  0.00187754  1
  Te  Te157  1  0.83734489  0.33058703  0.33668623  1
  Te  Te158  1  0.83017590  0.33305330  0.65533296  1
  Te  Te159  1  0.83787393  0.66640614  0.00735722  1
  Te  Te160  1  0.83197151  0.66656654  0.33066711  1
  Te  Te161  1  0.83268441  0.67096955  0.66734907  1
  Te  Te162  1  0.00067769  0.17004475  0.00501266  1
  Te  Te163  1  0.00504488  0.16612314  0.32743526  1
  Te  Te164  1  -0.00550996  0.15976990  0.66846350  1
  Te  Te165  1  -0.00094459  0.49745776  0.00254099  1
  Te  Te166  1  -0.00095185  0.49724788  0.32872257  1
  Te  Te167  1  -0.00029090  0.50294933  0.67010356  1
  Te  Te168  1  0.00079693  0.83614490  0.00324743  1
  Te  Te169  1  -0.00061937  0.83438012  0.33040884  1
  Te  Te170  1  -0.00345296  0.83898927  0.66692067  1
  Te  Te171  1  0.33351158  0.16704274  0.00441448  1
  Te  Te172  1  0.32816576  0.16712280  0.32970166  1
  Te  Te173  1  0.33281231  0.17592739  0.66852507  1
  Te  Te174  1  0.33413882  0.49541186  -0.00021369  1
  Te  Te175  1  0.33155389  0.49670456  0.33677446  1
  Te  Te176  1  0.33600243  0.49486775  0.66452480  1
  Te  Te177  1  0.33332942  0.83739680  -0.00073714  1
  Te  Te178  1  0.32982437  0.83657602  0.33867560  1
  Te  Te179  1  0.33474342  0.83434619  0.66357218  1
  Te  Te180  1  0.66937169  0.16853130  0.00067141  1
  Te  Te181  1  0.66530033  0.16556129  0.33172852  1
  Te  Te182  1  0.67142642  0.16791820  0.66714590  1
  Te  Te183  1  0.66678737  0.49503451  0.00000484  1
  Te  Te184  1  0.66692224  0.49526389  0.33700499  1
  Te  Te185  1  0.66348508  0.49822317  0.66150002  1
  Te  Te186  1  0.66536433  0.83983737  -0.00001222  1
  Te  Te187  1  0.67262990  0.84149886  0.33351477  1
  Te  Te188  1  0.66785376  0.83531643  0.66490648  1
  Te  Te189  1  -0.00031324  -0.00617163  0.17383393  1
  Te  Te190  1  -0.00288674  -0.00009863  0.49613979  1
  Te  Te191  1  -0.00432001  -0.00367172  0.83696826  1
  Te  Te192  1  -0.00426246  0.33559365  0.16853505  1
  Te  Te193  1  0.00047717  0.33220394  0.49979423  1
  Te  Te194  1  -0.00047781  0.33278480  0.83173632  1
  Te  Te195  1  -0.00031659  0.66536448  0.16522173  1
  Te  Te196  1  0.00852683  0.66514668  0.50312722  1
  Te  Te197  1  0.00043836  0.67529091  0.84070438  1
  Te  Te198  1  0.33536974  0.00222558  0.16888611  1
  Te  Te199  1  0.32907554  -0.00036982  0.49598812  1
  Te  Te200  1  0.33216890  -0.00432391  0.83117515  1
  Te  Te201  1  0.33972877  0.32789510  0.16881133  1
  Te  Te202  1  0.33298816  0.33506073  0.49617248  1
  Te  Te203  1  0.33077900  0.33366874  0.84006781  1
  Te  Te204  1  0.33760795  0.66759044  0.16617101  1
  Te  Te205  1  0.32821721  0.66576207  0.50005212  1
  Te  Te206  1  0.33167464  0.67594594  0.83356373  1
  Te  Te207  1  0.66152838  0.00013958  0.16595152  1
  Te  Te208  1  0.67060839  -0.00041914  0.50015796  1
  Te  Te209  1  0.67313770  -0.00022006  0.83379466  1
  Te  Te210  1  0.67245776  0.33296203  0.16584705  1
  Te  Te211  1  0.66546931  0.33525789  0.49860973  1
  Te  Te212  1  0.67117450  0.33419140  0.83647207  1
  Te  Te213  1  0.66424951  0.66745301  0.17332082  1
  Te  Te214  1  0.66685047  0.66052506  0.49063139  1
  Te  Te215  1  0.66669068  0.66740653  0.83363901  1
