# generated using pymatgen
data_AgSbTe2
_symmetry_space_group_name_H-M   'P 1'
_cell_length_a   18.33538130
_cell_length_b   18.33257240
_cell_length_c   18.33653358
_cell_angle_alpha   90.00146276
_cell_angle_beta   90.00437375
_cell_angle_gamma   89.99967037
_symmetry_Int_Tables_number   1
_chemical_formula_structural   AgSbTe2
_chemical_formula_sum   'Ag54 Sb54 Te108'
_cell_volume   6163.54528964
_cell_formula_units_Z   54
loop_
 _symmetry_equiv_pos_site_id
 _symmetry_equiv_pos_as_xyz
  1  'x, y, z'
loop_
 _atom_site_type_symbol
 _atom_site_label
 _atom_site_symmetry_multiplicity
 _atom_site_fract_x
 _atom_site_fract_y
 _atom_site_fract_z
 _atom_site_occupancy
  Ag  Ag0  1  0.00040166  0.15664544  0.84880637  1
  Ag  Ag1  1  0.49712700  0.32778551  0.49881748  1
  Ag  Ag2  1  0.83356353  0.33493138  0.83559759  1
  Ag  Ag3  1  0.33043394  0.67098446  0.00098825  1
  Ag  Ag4  1  0.16112773  0.65798852  0.17386108  1
  Ag  Ag5  1  0.33706790  0.33443498  0.66260632  1
  Ag  Ag6  1  0.65736867  0.34216961  0.66568596  1
  Ag  Ag7  1  0.67424939  0.82824952  0.83437881  1
  Ag  Ag8  1  0.67288196  0.66657013  -0.00841060  1
  Ag  Ag9  1  0.00517486  0.00288472  0.32715413  1
  Ag  Ag10  1  0.65558620  0.49515901  0.50638764  1
  Ag  Ag11  1  0.66245536  0.66041922  0.67293772  1
  Ag  Ag12  1  0.32540501  0.83535017  0.83279648  1
  Ag  Ag13  1  0.00852642  0.00073502  0.67478469  1
  Ag  Ag14  1  0.16414813  -0.00045074  0.82923441  1
  Ag  Ag15  1  0.16866750  0.00120342  0.50048728  1
  Ag  Ag16  1  0.33317326  0.66812025  0.66560705  1
  Ag  Ag17  1  0.32986755  0.00239131  0.33637375  1
  Ag  Ag18  1  0.33477553  0.16009511  0.49732863  1
  Ag  Ag19  1  0.84534125  0.16103908  0.00519998  1
  Ag  Ag20  1  0.32363135  0.50239240  0.17333007  1
  Ag  Ag21  1  0.00310102  0.16228848  0.16428536  1
  Ag  Ag22  1  0.00616966  0.16337708  0.49048460  1
  Ag  Ag23  1  0.49999937  0.49777212  0.66312333  1
  Ag  Ag24  1  0.32588947  0.66664347  0.33412500  1
  Ag  Ag25  1  0.16986552  0.66940592  0.48963697  1
  Ag  Ag26  1  0.84437831  0.67203318  0.16220157  1
  Ag  Ag27  1  0.83071666  0.66742914  0.84290039  1
  Ag  Ag28  1  0.15849458  0.16577133  0.00889970  1
  Ag  Ag29  1  0.17003590  0.50697513  0.32287622  1
  Ag  Ag30  1  0.32496703  0.00083875  0.00213680  1
  Ag  Ag31  1  0.84612202  0.16322217  0.32765141  1
  Ag  Ag32  1  0.32750174  -0.00139009  0.65765205  1
  Ag  Ag33  1  0.65480444  0.16859327  0.49696800  1
  Ag  Ag34  1  0.33527178  0.49646890  0.49696248  1
  Ag  Ag35  1  0.84425761  0.00080025  0.16618186  1
  Ag  Ag36  1  0.00001889  0.84045716  0.16110881  1
  Ag  Ag37  1  0.16494180  0.16269647  0.32928941  1
  Ag  Ag38  1  0.00228445  0.31937469  0.00210524  1
  Ag  Ag39  1  0.49843968  0.00671286  0.17260859  1
  Ag  Ag40  1  0.16728536  0.49961570  0.01035298  1
  Ag  Ag41  1  0.49722749  0.16507577  0.01008251  1
  Ag  Ag42  1  0.00221335  0.83942624  0.84045330  1
  Ag  Ag43  1  0.16805244  0.34388375  0.16558164  1
  Ag  Ag44  1  0.16885397  0.83877404  0.67014443  1
  Ag  Ag45  1  0.01152591  0.50392325  0.16595934  1
  Ag  Ag46  1  0.48630991  0.00997386  0.49214352  1
  Ag  Ag47  1  0.83607564  0.83544609  0.00007164  1
  Ag  Ag48  1  0.00656849  0.00571941  0.00502414  1
  Ag  Ag49  1  0.49332711  0.32645198  0.16999106  1
  Ag  Ag50  1  0.00838854  0.67121662  0.32683278  1
  Ag  Ag51  1  0.49631133  0.16380825  0.33260455  1
  Ag  Ag52  1  0.66799503  0.50997318  0.82622847  1
  Ag  Ag53  1  0.65894912  0.00503031  0.33366565  1
  Sb  Sb54  1  0.17255716  0.32882243  0.49515406  1
  Sb  Sb55  1  0.49855613  0.16987954  0.66236012  1
  Sb  Sb56  1  0.00286188  0.32705543  0.67104688  1
  Sb  Sb57  1  0.82699642  0.49964580  0.66839109  1
  Sb  Sb58  1  0.49522142  0.66634950  0.16674759  1
  Sb  Sb59  1  0.50464824  0.66633687  0.83388576  1
  Sb  Sb60  1  0.66340946  -0.00168856  0.66209922  1
  Sb  Sb61  1  0.49810370  0.84235304  0.33271526  1
  Sb  Sb62  1  0.00741927  0.49520760  0.49284163  1
  Sb  Sb63  1  0.66453638  0.32756983  0.33922687  1
  Sb  Sb64  1  0.83764010  0.00412989  0.49191043  1
  Sb  Sb65  1  0.32607181  0.83140847  0.16227448  1
  Sb  Sb66  1  0.49350293  0.83069265  0.66755030  1
  Sb  Sb67  1  0.50264929  0.33217290  0.83085627  1
  Sb  Sb68  1  0.16606418  0.83435420  0.33332263  1
  Sb  Sb69  1  0.49279253  0.49426592  0.33665183  1
  Sb  Sb70  1  0.33203365  0.32996260  0.33629839  1
  Sb  Sb71  1  0.83682552  0.83986110  0.32541939  1
  Sb  Sb72  1  0.00349522  0.84083119  0.49919043  1
  Sb  Sb73  1  0.32959575  0.16829738  0.17027753  1
  Sb  Sb74  1  0.16310069  0.32652957  0.83888515  1
  Sb  Sb75  1  0.66755672  0.16556684  0.17189556  1
  Sb  Sb76  1  0.67299920  0.83508763  0.16115364  1
  Sb  Sb77  1  0.83930496  0.49611061  0.33145513  1
  Sb  Sb78  1  0.66955163  0.33632559  -0.00431710  1
  Sb  Sb79  1  0.66832261  -0.00146104  0.00294163  1
  Sb  Sb80  1  0.83550059  0.16424055  0.66812482  1
  Sb  Sb81  1  0.82848934  0.32957736  0.50533289  1
  Sb  Sb82  1  0.16243695  0.83729598  -0.00205006  1
  Sb  Sb83  1  0.16708570  0.16076726  0.66245219  1
  Sb  Sb84  1  0.84253684  -0.00106171  0.84161163  1
  Sb  Sb85  1  0.33599444  0.50554385  0.83213568  1
  Sb  Sb86  1  0.49254047  0.66396203  0.50117041  1
  Sb  Sb87  1  0.32729010  0.16108115  0.83179862  1
  Sb  Sb88  1  0.66589890  0.83456868  0.50556086  1
  Sb  Sb89  1  0.00198571  0.67083955  0.00755904  1
  Sb  Sb90  1  0.17323924  0.50409922  0.66493828  1
  Sb  Sb91  1  0.16532454  0.00124734  0.16838560  1
  Sb  Sb92  1  0.49317619  0.00113289  0.83374625  1
  Sb  Sb93  1  0.83842352  0.83326484  0.67635669  1
  Sb  Sb94  1  0.50085996  0.83745852  -0.00001167  1
  Sb  Sb95  1  -0.00302078  0.50185975  0.83944941  1
  Sb  Sb96  1  0.83857909  0.50162648  0.00107565  1
  Sb  Sb97  1  0.33041643  0.83541419  0.50357028  1
  Sb  Sb98  1  0.66666952  0.66995073  0.33407388  1
  Sb  Sb99  1  0.49577751  0.49649477  -0.00121249  1
  Sb  Sb100  1  0.83743968  0.66529030  0.49825484  1
  Sb  Sb101  1  0.66524297  0.50053516  0.16720362  1
  Sb  Sb102  1  0.16348891  0.67159966  0.83579119  1
  Sb  Sb103  1  0.83781895  0.32991247  0.16179896  1
  Sb  Sb104  1  0.00396658  0.67147621  0.66372510  1
  Sb  Sb105  1  0.00322053  0.32621418  0.32587964  1
  Sb  Sb106  1  0.67200220  0.16449546  0.83029973  1
  Sb  Sb107  1  0.32914012  0.33023112  -0.00130432  1
  Te  Te108  1  0.16492036  0.16691661  0.16857627  1
  Te  Te109  1  0.16935211  0.16404948  0.49605294  1
  Te  Te110  1  0.16056357  0.16131188  0.83840928  1
  Te  Te111  1  0.16741063  0.49947188  0.16693252  1
  Te  Te112  1  0.17288523  0.50092143  0.49708741  1
  Te  Te113  1  0.16632874  0.49852183  0.83750605  1
  Te  Te114  1  0.15969612  0.82126056  0.16457287  1
  Te  Te115  1  0.16558864  0.83404065  0.50758973  1
  Te  Te116  1  0.16457418  0.83767414  0.83200293  1
  Te  Te117  1  0.49954578  0.16624728  0.16995554  1
  Te  Te118  1  0.49669612  0.16721362  0.49997852  1
  Te  Te119  1  0.50098974  0.16654294  0.84086773  1
  Te  Te120  1  0.49577429  0.49538313  0.16739042  1
  Te  Te121  1  0.49662918  0.49761446  0.50249277  1
  Te  Te122  1  0.50691602  0.49858510  0.82840230  1
  Te  Te123  1  0.50042823  0.84048649  0.16605205  1
  Te  Te124  1  0.50128297  0.84397727  0.50016560  1
  Te  Te125  1  0.49886859  0.83426377  0.83396369  1
  Te  Te126  1  0.83417619  0.16527740  0.16616634  1
  Te  Te127  1  0.83637726  0.16730031  0.49467742  1
  Te  Te128  1  0.83850264  0.16839784  0.83794758  1
  Te  Te129  1  0.83528032  0.50289019  0.16781138  1
  Te  Te130  1  0.82962410  0.49825045  0.49879482  1
  Te  Te131  1  0.82895056  0.50200087  0.83472740  1
  Te  Te132  1  0.83871216  0.83357800  0.16067946  1
  Te  Te133  1  0.83397730  0.83223751  0.50064277  1
  Te  Te134  1  0.83592179  0.83083411  0.83940485  1
  Te  Te135  1  0.16674714  0.00270462  0.00158385  1
  Te  Te136  1  0.16837379  0.00027394  0.33469746  1
  Te  Te137  1  0.16753692  0.00044019  0.66583036  1
  Te  Te138  1  0.16444189  0.32982830  0.00364540  1
  Te  Te139  1  0.16653730  0.33043559  0.32735360  1
  Te  Te140  1  0.17237049  0.33414475  0.66728477  1
  Te  Te141  1  0.17034631  0.66475394  0.00034794  1
  Te  Te142  1  0.16835449  0.67006858  0.33324922  1
  Te  Te143  1  0.17119283  0.67145849  0.66717563  1
  Te  Te144  1  0.50018894  0.00493009  0.00178000  1
  Te  Te145  1  0.49568330  0.00393033  0.33305046  1
  Te  Te146  1  0.49382544  -0.00048500  0.66408208  1
  Te  Te147  1  0.49939491  0.32817063  0.00338059  1
  Te  Te148  1  0.49881199  0.32683064  0.33310975  1
  Te  Te149  1  0.49844319  0.33549367  0.66401296  1
  Te  Te150  1  0.49377809  0.66591151  0.00168282  1
  Te  Te151  1  0.49558220  0.66746344  0.33378642  1
  Te  Te152  1  0.49812599  0.66226897  0.66623800  1
  Te  Te153  1  0.83309613  0.00098205  0.00621773  1
  Te  Te154  1  0.83950111  0.00451881  0.32602072  1
  Te  Te155  1  0.83777179  -0.00119178  0.66536561  1
  Te  Te156  1  0.83659568  0.33033100  -0.00372493  1
  Te  Te157  1  0.83302459  0.32456433  0.33252176  1
  Te  Te158  1  0.83229822  0.33204570  0.67442065  1
  Te  Te159  1  0.83378851  0.66688636  0.00176201  1
  Te  Te160  1  0.83545711  0.66628353  0.32832112  1
  Te  Te161  1  0.83053094  0.66702685  0.66752059  1
  Te  Te162  1  0.00122456  0.16373490  0.00387969  1
  Te  Te163  1  0.00332888  0.16466969  0.33002137  1
  Te  Te164  1  0.00011866  0.16107366  0.66205947  1
  Te  Te165  1  0.00571434  0.49989973  0.00484510  1
  Te  Te166  1  0.00663752  0.50277755  0.32862256  1
  Te  Te167  1  0.00119578  0.49864276  0.66395615  1
  Te  Te168  1  -0.00315342  0.83618995  0.00028106  1
  Te  Te169  1  -0.00024209  0.83457054  0.32904471  1
  Te  Te170  1  0.00497264  0.83937017  0.66926255  1
  Te  Te171  1  0.33456463  0.16269132  -0.00051229  1
  Te  Te172  1  0.33082544  0.16353935  0.33606428  1
  Te  Te173  1  0.33307071  0.16412714  0.66338097  1
  Te  Te174  1  0.32977281  0.50104665  0.00008164  1
  Te  Te175  1  0.32956185  0.50222751  0.33405717  1
  Te  Te176  1  0.33696926  0.50455271  0.66508065  1
  Te  Te177  1  0.33344521  0.83572271  -0.00431456  1
  Te  Te178  1  0.33324042  0.83197579  0.33067411  1
  Te  Te179  1  0.32988554  0.83394293  0.67109893  1
  Te  Te180  1  0.66373261  0.16760661  -0.00060827  1
  Te  Te181  1  0.66040677  0.16303102  0.33783251  1
  Te  Te182  1  0.66730499  0.16809200  0.66029571  1
  Te  Te183  1  0.66511440  0.50519855  -0.00270591  1
  Te  Te184  1  0.66648567  0.50143686  0.33940201  1
  Te  Te185  1  0.66445178  0.50081788  0.66590398  1
  Te  Te186  1  0.67026705  0.82835611  -0.00565851  1
  Te  Te187  1  0.66824199  0.84038808  0.33429846  1
  Te  Te188  1  0.66634536  0.82887205  0.67315592  1
  Te  Te189  1  0.00349952  0.00067613  0.16563808  1
  Te  Te190  1  0.00430647  0.00388957  0.49419191  1
  Te  Te191  1  0.00265012  -0.00039375  0.83454673  1
  Te  Te192  1  0.00217550  0.33149153  0.16178225  1
  Te  Te193  1  -0.00044202  0.32636213  0.50181418  1
  Te  Te194  1  -0.00454230  0.33370561  0.83799237  1
  Te  Te195  1  0.00061727  0.66448730  0.16768194  1
  Te  Te196  1  0.00627808  0.66515434  0.49375218  1
  Te  Te197  1  -0.00643344  0.67060911  0.83128812  1
  Te  Te198  1  0.33493293  -0.00117206  0.16554903  1
  Te  Te199  1  0.33009315  -0.00043512  0.49859485  1
  Te  Te200  1  0.32795524  -0.00356977  0.83706908  1
  Te  Te201  1  0.33234520  0.33785082  0.16522009  1
  Te  Te202  1  0.33668040  0.33546949  0.50249683  1
  Te  Te203  1  0.33347981  0.33342296  0.82546760  1
  Te  Te204  1  0.33172840  0.66410598  0.16523204  1
  Te  Te205  1  0.32986316  0.66771924  0.50037314  1
  Te  Te206  1  0.33254759  0.67170574  0.83354237  1
  Te  Te207  1  0.66164993  -0.00075007  0.17164311  1
  Te  Te208  1  0.66803830  0.00320996  0.49591168  1
  Te  Te209  1  0.66712016  -0.00530448  0.83082108  1
  Te  Te210  1  0.66058059  0.33478935  0.16595203  1
  Te  Te211  1  0.66252037  0.33332139  0.50489403  1
  Te  Te212  1  0.67024626  0.33326085  0.82779569  1
  Te  Te213  1  0.66750627  0.66754672  0.16407736  1
  Te  Te214  1  0.66593731  0.66401736  0.50385487  1
  Te  Te215  1  0.66875143  0.66728451  0.83351290  1
