# generated using pymatgen
data_AgSbTe2
_symmetry_space_group_name_H-M   'P 1'
_cell_length_a   18.33829744
_cell_length_b   18.32104615
_cell_length_c   18.33999482
_cell_angle_alpha   90.00457253
_cell_angle_beta   89.99791453
_cell_angle_gamma   90.00162318
_symmetry_Int_Tables_number   1
_chemical_formula_structural   AgSbTe2
_chemical_formula_sum   'Ag54 Sb54 Te108'
_cell_volume   6161.81263102
_cell_formula_units_Z   54
loop_
 _symmetry_equiv_pos_site_id
 _symmetry_equiv_pos_as_xyz
  1  'x, y, z'
loop_
 _atom_site_type_symbol
 _atom_site_label
 _atom_site_symmetry_multiplicity
 _atom_site_fract_x
 _atom_site_fract_y
 _atom_site_fract_z
 _atom_site_occupancy
  Ag  Ag0  1  0.16091206  0.84929450  -0.00308668  1
  Ag  Ag1  1  -0.00076512  0.66814468  0.66825378  1
  Ag  Ag2  1  0.49709757  0.16836835  -0.00207491  1
  Ag  Ag3  1  0.49637905  0.34406533  0.16212380  1
  Ag  Ag4  1  0.49534797  -0.00010396  0.16635639  1
  Ag  Ag5  1  0.83100706  0.66008707  0.16638175  1
  Ag  Ag6  1  0.83483827  0.49538317  0.00492659  1
  Ag  Ag7  1  0.33463511  0.66159500  0.33334885  1
  Ag  Ag8  1  0.33450676  0.50201242  0.49719174  1
  Ag  Ag9  1  0.16563564  0.00362192  0.16465879  1
  Ag  Ag10  1  0.16358158  0.16756355  0.00114712  1
  Ag  Ag11  1  0.66408795  0.00123598  0.33375845  1
  Ag  Ag12  1  0.34555127  0.50157982  0.16764053  1
  Ag  Ag13  1  0.49976265  0.49284281  0.00991118  1
  Ag  Ag14  1  0.50354849  0.65566200  0.16318612  1
  Ag  Ag15  1  0.15958985  0.00283401  0.83633284  1
  Ag  Ag16  1  0.84801524  0.00566089  0.83051036  1
  Ag  Ag17  1  0.50139578  0.49985587  0.32252311  1
  Ag  Ag18  1  0.00325902  0.33284209  -0.00112214  1
  Ag  Ag19  1  0.00558732  -0.00206069  0.67893054  1
  Ag  Ag20  1  0.00133435  0.83487504  0.16037926  1
  Ag  Ag21  1  0.83209485  0.49585370  0.66886247  1
  Ag  Ag22  1  0.49984062  0.66409332  0.83680560  1
  Ag  Ag23  1  0.66877068  0.33658884  0.00057329  1
  Ag  Ag24  1  0.00097045  0.15595069  0.83444265  1
  Ag  Ag25  1  0.84032106  0.33143641  0.83538972  1
  Ag  Ag26  1  0.16738989  0.33439185  0.15882782  1
  Ag  Ag27  1  0.16269958  0.16270269  0.32612529  1
  Ag  Ag28  1  -0.00234904  0.50277753  0.16543878  1
  Ag  Ag29  1  0.33101915  -0.00263370  0.33798702  1
  Ag  Ag30  1  0.16592065  0.33096176  0.49917921  1
  Ag  Ag31  1  0.16051217  0.32758893  0.84246245  1
  Ag  Ag32  1  0.66200208  0.49947172  0.49359631  1
  Ag  Ag33  1  0.33114852  0.84266257  0.49983030  1
  Ag  Ag34  1  0.65850022  0.50277115  0.16769374  1
  Ag  Ag35  1  0.83991506  0.16586663  0.33463649  1
  Ag  Ag36  1  0.00078551  0.84153196  0.83839537  1
  Ag  Ag37  1  0.66703748  0.83148514  0.16146418  1
  Ag  Ag38  1  0.00787260  0.00217068  0.33095349  1
  Ag  Ag39  1  0.50448706  0.15618790  0.67456467  1
  Ag  Ag40  1  0.49088149  0.00175649  0.50561594  1
  Ag  Ag41  1  0.50117045  0.49795255  0.66760027  1
  Ag  Ag42  1  0.16401613  0.84143125  0.67348973  1
  Ag  Ag43  1  0.33069878  -0.00111064  0.66351650  1
  Ag  Ag44  1  0.83261464  0.16442128  0.67167209  1
  Ag  Ag45  1  0.66082891  -0.00003084  0.66806273  1
  Ag  Ag46  1  0.17045677  0.00340128  0.50202972  1
  Ag  Ag47  1  0.16390562  0.49082211  0.00306706  1
  Ag  Ag48  1  0.00469069  0.00431381  -0.00801323  1
  Ag  Ag49  1  0.00175029  0.49850065  0.49719752  1
  Ag  Ag50  1  0.33634882  0.50012059  0.83879756  1
  Ag  Ag51  1  0.49876034  -0.00042782  0.82974057  1
  Ag  Ag52  1  0.66812827  0.83931741  0.83850508  1
  Ag  Ag53  1  0.82954571  0.49608382  0.32176741  1
  Sb  Sb54  1  0.16784450  0.66675404  0.50029150  1
  Sb  Sb55  1  0.83622537  0.17036303  -0.00161012  1
  Sb  Sb56  1  0.83355553  0.83447530  0.33016674  1
  Sb  Sb57  1  0.33159476  0.66876801  0.66329775  1
  Sb  Sb58  1  0.66899909  0.66889508  0.66813762  1
  Sb  Sb59  1  0.00214280  0.16865618  0.50430613  1
  Sb  Sb60  1  0.00278490  0.50075100  0.83599709  1
  Sb  Sb61  1  0.00056188  0.66653980  -0.00211342  1
  Sb  Sb62  1  0.83703034  0.83203141  0.00037568  1
  Sb  Sb63  1  0.49846693  0.16425273  0.33137631  1
  Sb  Sb64  1  0.49896479  0.33308600  0.84005826  1
  Sb  Sb65  1  0.66250187  0.50171209  0.83701822  1
  Sb  Sb66  1  0.00637314  0.83432325  0.50188574  1
  Sb  Sb67  1  0.33309673  0.33053951  0.66659001  1
  Sb  Sb68  1  0.00341050  0.66736864  0.33372328  1
  Sb  Sb69  1  0.16491827  0.16071005  0.67014183  1
  Sb  Sb70  1  0.32780079  -0.00021292  -0.00026247  1
  Sb  Sb71  1  0.66819691  0.00387401  -0.00131182  1
  Sb  Sb72  1  0.66025796  0.83544837  0.49963123  1
  Sb  Sb73  1  0.32932617  0.16781069  0.83333013  1
  Sb  Sb74  1  0.83652655  0.00115826  0.50391714  1
  Sb  Sb75  1  0.66760296  0.33333024  0.32802964  1
  Sb  Sb76  1  0.66640810  0.66184597  0.00201335  1
  Sb  Sb77  1  0.49676378  0.83430729  0.00012395  1
  Sb  Sb78  1  0.49813204  0.66540068  0.49939307  1
  Sb  Sb79  1  0.16977132  0.66843306  0.83426301  1
  Sb  Sb80  1  0.33475655  0.66313242  0.00388317  1
  Sb  Sb81  1  0.66385549  0.66651223  0.32993175  1
  Sb  Sb82  1  0.00021860  0.33185300  0.67255384  1
  Sb  Sb83  1  0.33195695  0.16420559  0.50070214  1
  Sb  Sb84  1  0.67064924  0.16168049  0.83318067  1
  Sb  Sb85  1  0.00234541  0.16483142  0.16161080  1
  Sb  Sb86  1  0.32837960  0.33602828  0.00063867  1
  Sb  Sb87  1  0.16693721  0.84266800  0.33093543  1
  Sb  Sb88  1  0.83689490  -0.00230848  0.16427176  1
  Sb  Sb89  1  0.66603347  0.16738137  0.16570052  1
  Sb  Sb90  1  0.83834295  0.33637019  0.50436208  1
  Sb  Sb91  1  0.83507901  0.33909912  0.16061568  1
  Sb  Sb92  1  0.66708684  0.33215236  0.67199523  1
  Sb  Sb93  1  0.00082830  0.33040909  0.32774687  1
  Sb  Sb94  1  0.83430773  0.66100558  0.49573158  1
  Sb  Sb95  1  0.16770409  0.66519284  0.16560795  1
  Sb  Sb96  1  0.33145772  0.16904095  0.16676573  1
  Sb  Sb97  1  0.66614355  0.16919460  0.50033905  1
  Sb  Sb98  1  0.16668776  0.50139306  0.66836401  1
  Sb  Sb99  1  0.33211087  0.33356165  0.33210913  1
  Sb  Sb100  1  0.33158729  0.83178341  0.16991160  1
  Sb  Sb101  1  0.16806939  0.49348868  0.32844781  1
  Sb  Sb102  1  0.49671577  0.83622437  0.66846094  1
  Sb  Sb103  1  0.83071770  0.66556743  0.83643099  1
  Sb  Sb104  1  0.49593059  0.33367887  0.49661324  1
  Sb  Sb105  1  0.49855383  0.83321602  0.33080637  1
  Sb  Sb106  1  0.83889349  0.83618596  0.67020049  1
  Sb  Sb107  1  0.33086159  0.83358353  0.82988065  1
  Te  Te108  1  0.16676584  0.16603229  0.16392313  1
  Te  Te109  1  0.16619939  0.16529750  0.49890193  1
  Te  Te110  1  0.16347663  0.16588961  0.83587044  1
  Te  Te111  1  0.15858337  0.49819812  0.16426670  1
  Te  Te112  1  0.16627257  0.49847126  0.49926483  1
  Te  Te113  1  0.17134388  0.49925769  0.83698602  1
  Te  Te114  1  0.16370609  0.83546608  0.16171455  1
  Te  Te115  1  0.17092526  0.83871928  0.50264553  1
  Te  Te116  1  0.16471201  0.83582755  0.83459819  1
  Te  Te117  1  0.49880340  0.15909149  0.16315059  1
  Te  Te118  1  0.50007534  0.16325760  0.50305676  1
  Te  Te119  1  0.49933171  0.16609266  0.83377165  1
  Te  Te120  1  0.50194980  0.50000503  0.16634727  1
  Te  Te121  1  0.49925907  0.49851513  0.50488011  1
  Te  Te122  1  0.49774770  0.49913795  0.82974117  1
  Te  Te123  1  0.50265202  0.84073881  0.16471283  1
  Te  Te124  1  0.49386084  0.83942129  0.49985818  1
  Te  Te125  1  0.50126961  0.83299210  0.83529414  1
  Te  Te126  1  0.83385121  0.16801773  0.17282972  1
  Te  Te127  1  0.83373342  0.16873578  0.49964683  1
  Te  Te128  1  0.83677290  0.16603651  0.83266345  1
  Te  Te129  1  0.83724610  0.49915135  0.16539684  1
  Te  Te130  1  0.83527410  0.49883397  0.50537450  1
  Te  Te131  1  0.83203576  0.49919308  0.83265870  1
  Te  Te132  1  0.83198909  0.82699216  0.16580827  1
  Te  Te133  1  0.83133509  0.83041139  0.49962983  1
  Te  Te134  1  0.83354881  0.83620320  0.83468180  1
  Te  Te135  1  0.16568355  0.00585325  -0.00026397  1
  Te  Te136  1  0.16767063  0.00255499  0.33051646  1
  Te  Te137  1  0.16590739  0.00180699  0.66832410  1
  Te  Te138  1  0.16489531  0.33064390  0.00045653  1
  Te  Te139  1  0.16632680  0.32456193  0.33410210  1
  Te  Te140  1  0.16666565  0.33085422  0.66377074  1
  Te  Te141  1  0.16744321  0.65694310  -0.00025012  1
  Te  Te142  1  0.17371508  0.66769846  0.33295428  1
  Te  Te143  1  0.16101953  0.67300033  0.66720549  1
  Te  Te144  1  0.49935685  0.00162919  0.00169199  1
  Te  Te145  1  0.50001451  0.00130566  0.33092061  1
  Te  Te146  1  0.50046697  -0.00204622  0.66634579  1
  Te  Te147  1  0.49999444  0.33298034  0.00255700  1
  Te  Te148  1  0.49990179  0.33560131  0.32660953  1
  Te  Te149  1  0.50083545  0.33567311  0.66717935  1
  Te  Te150  1  0.50036111  0.66350398  0.00023300  1
  Te  Te151  1  0.49688777  0.66183752  0.33080407  1
  Te  Te152  1  0.50045133  0.66214488  0.67028235  1
  Te  Te153  1  0.83919856  0.00173478  -0.00610143  1
  Te  Te154  1  0.83078184  0.00225975  0.33465541  1
  Te  Te155  1  0.83516893  0.00239234  0.66929925  1
  Te  Te156  1  0.83708390  0.33536794  -0.00400882  1
  Te  Te157  1  0.83317747  0.33456025  0.33465912  1
  Te  Te158  1  0.83315759  0.33203561  0.67330595  1
  Te  Te159  1  0.83324850  0.65721192  0.00478253  1
  Te  Te160  1  0.83461700  0.65942087  0.32731583  1
  Te  Te161  1  0.83718797  0.66116664  0.66781482  1
  Te  Te162  1  0.00139921  0.16692976  -0.00428533  1
  Te  Te163  1  0.00036392  0.16375992  0.33400209  1
  Te  Te164  1  -0.00503160  0.16244980  0.67160988  1
  Te  Te165  1  0.00096632  0.49993674  0.00138090  1
  Te  Te166  1  -0.00192585  0.50043210  0.33302247  1
  Te  Te167  1  -0.00202705  0.50026954  0.66526180  1
  Te  Te168  1  0.00227928  0.83336836  0.00029758  1
  Te  Te169  1  -0.00091952  0.83696170  0.32963901  1
  Te  Te170  1  0.00374084  0.83704997  0.66663079  1
  Te  Te171  1  0.33723359  0.16658187  -0.00046507  1
  Te  Te172  1  0.32834286  0.15856827  0.33366345  1
  Te  Te173  1  0.34261273  0.16042547  0.66735352  1
  Te  Te174  1  0.33595907  0.50087958  0.00230350  1
  Te  Te175  1  0.33453055  0.49964701  0.33136562  1
  Te  Te176  1  0.33524385  0.50095136  0.66295633  1
  Te  Te177  1  0.32215321  0.83087405  -0.00012363  1
  Te  Te178  1  0.33276894  0.83601765  0.33781126  1
  Te  Te179  1  0.32769637  0.83660530  0.66231554  1
  Te  Te180  1  0.66221744  0.17390338  0.00038802  1
  Te  Te181  1  0.67006129  0.16239956  0.33342087  1
  Te  Te182  1  0.66741966  0.16231361  0.66647545  1
  Te  Te183  1  0.66491557  0.49657731  0.00312057  1
  Te  Te184  1  0.66694498  0.49986322  0.33058140  1
  Te  Te185  1  0.66827864  0.50064739  0.66739369  1
  Te  Te186  1  0.66702136  0.83502665  0.00101165  1
  Te  Te187  1  0.66639261  0.83964345  0.33029944  1
  Te  Te188  1  0.66781144  0.83831399  0.66763045  1
  Te  Te189  1  0.00203946  -0.00187781  0.16977439  1
  Te  Te190  1  0.00449094  0.00043724  0.49208727  1
  Te  Te191  1  0.00323315  -0.00203556  0.83526842  1
  Te  Te192  1  0.00441456  0.33586958  0.16107156  1
  Te  Te193  1  0.00598163  0.33837500  0.50002525  1
  Te  Te194  1  0.00106046  0.33516263  0.83767394  1
  Te  Te195  1  -0.00182185  0.66853248  0.16743889  1
  Te  Te196  1  0.00082916  0.66166521  0.50456640  1
  Te  Te197  1  -0.00083158  0.67243870  0.82805858  1
  Te  Te198  1  0.33038465  -0.00158018  0.16908685  1
  Te  Te199  1  0.33156514  0.00179821  0.50093318  1
  Te  Te200  1  0.33878123  -0.00034595  0.82956487  1
  Te  Te201  1  0.33083901  0.33981187  0.16751693  1
  Te  Te202  1  0.32731745  0.34057828  0.49949731  1
  Te  Te203  1  0.32606434  0.33931024  0.83164936  1
  Te  Te204  1  0.33785553  0.66387736  0.17191120  1
  Te  Te205  1  0.33384243  0.66235500  0.49501736  1
  Te  Te206  1  0.33946230  0.66224377  0.83160123  1
  Te  Te207  1  0.66888037  -0.00190311  0.16697478  1
  Te  Te208  1  0.66505827  0.00059274  0.50089405  1
  Te  Te209  1  0.65744444  -0.00260964  0.83214264  1
  Te  Te210  1  0.66367946  0.33745129  0.16165020  1
  Te  Te211  1  0.66523301  0.34096958  0.49998007  1
  Te  Te212  1  0.67140237  0.33349571  0.83963727  1
  Te  Te213  1  0.66413073  0.66788055  0.16715224  1
  Te  Te214  1  0.66605005  0.66031069  0.49943046  1
  Te  Te215  1  0.66181617  0.67659008  0.83337487  1
