# generated using pymatgen
data_AgSbTe2
_symmetry_space_group_name_H-M   'P 1'
_cell_length_a   18.32860253
_cell_length_b   18.33406396
_cell_length_c   18.33353118
_cell_angle_alpha   89.99985805
_cell_angle_beta   89.99770861
_cell_angle_gamma   90.00223540
_symmetry_Int_Tables_number   1
_chemical_formula_structural   AgSbTe2
_chemical_formula_sum   'Ag54 Sb54 Te108'
_cell_volume   6160.75894365
_cell_formula_units_Z   54
loop_
 _symmetry_equiv_pos_site_id
 _symmetry_equiv_pos_as_xyz
  1  'x, y, z'
loop_
 _atom_site_type_symbol
 _atom_site_label
 _atom_site_symmetry_multiplicity
 _atom_site_fract_x
 _atom_site_fract_y
 _atom_site_fract_z
 _atom_site_occupancy
  Ag  Ag0  1  0.83113380  0.15860092  0.32114389  1
  Ag  Ag1  1  0.17253310  0.83354044  0.00894141  1
  Ag  Ag2  1  0.82531872  0.83638848  0.33127953  1
  Ag  Ag3  1  0.66661354  0.50470701  0.17018827  1
  Ag  Ag4  1  0.66949007  0.50750871  0.48886096  1
  Ag  Ag5  1  0.49299100  0.66976228  0.83846697  1
  Ag  Ag6  1  0.32993817  0.33056706  0.00601439  1
  Ag  Ag7  1  0.17416878  0.67690920  0.16399976  1
  Ag  Ag8  1  0.00748895  0.33279295  0.00644820  1
  Ag  Ag9  1  0.50085086  0.66703322  0.48412672  1
  Ag  Ag10  1  0.67843889  0.16872555  0.16855643  1
  Ag  Ag11  1  0.33207580  0.50214678  0.16723335  1
  Ag  Ag12  1  0.32933984  -0.00038471  0.32160721  1
  Ag  Ag13  1  0.66155438  0.34479675  0.32876515  1
  Ag  Ag14  1  0.33044504  -0.00502524  0.00370759  1
  Ag  Ag15  1  0.33293341  0.16751142  0.16193887  1
  Ag  Ag16  1  0.16999271  -0.00292706  0.16669346  1
  Ag  Ag17  1  0.50403468  0.82707951  0.33058227  1
  Ag  Ag18  1  0.83311191  0.49877491  0.00629950  1
  Ag  Ag19  1  0.50438974  0.50897802  0.33088641  1
  Ag  Ag20  1  0.65830994  0.66680928  0.01174517  1
  Ag  Ag21  1  0.83156473  0.83661593  0.66393546  1
  Ag  Ag22  1  0.16830303  0.32981724  0.48806777  1
  Ag  Ag23  1  0.49052797  0.16676372  0.67213145  1
  Ag  Ag24  1  0.17211844  0.16347853  0.66773716  1
  Ag  Ag25  1  -0.00330145  0.50034972  0.48908627  1
  Ag  Ag26  1  0.66453786  0.66630829  0.32787536  1
  Ag  Ag27  1  0.16502368  0.00142845  0.49847578  1
  Ag  Ag28  1  0.32784830  0.83232133  0.16271197  1
  Ag  Ag29  1  0.33264785  0.33175189  0.66984111  1
  Ag  Ag30  1  -0.00136872  0.49558763  0.16895675  1
  Ag  Ag31  1  0.83703528  0.00972554  0.16776162  1
  Ag  Ag32  1  0.33501619  0.67353481  0.00125678  1
  Ag  Ag33  1  0.17438000  0.83553827  0.32582527  1
  Ag  Ag34  1  0.49475930  0.32870293  0.83268207  1
  Ag  Ag35  1  0.17270334  -0.00504893  0.83978221  1
  Ag  Ag36  1  0.33356111  0.66690067  0.67965595  1
  Ag  Ag37  1  0.17694231  0.67596814  0.84505401  1
  Ag  Ag38  1  -0.00881914  0.17242703  0.16582474  1
  Ag  Ag39  1  0.66399062  0.82295538  0.16994992  1
  Ag  Ag40  1  0.83535896  -0.00354059  0.83729882  1
  Ag  Ag41  1  0.83290426  0.16725517  0.00973368  1
  Ag  Ag42  1  0.66899148  0.82777290  0.48773832  1
  Ag  Ag43  1  0.33266987  0.83724114  0.84134719  1
  Ag  Ag44  1  0.33462668  0.15775918  0.84072090  1
  Ag  Ag45  1  0.48770476  -0.00230913  0.83324680  1
  Ag  Ag46  1  0.16966847  0.33015140  0.16845353  1
  Ag  Ag47  1  0.83789184  -0.00389800  0.49023180  1
  Ag  Ag48  1  0.84002361  0.32372620  0.16606998  1
  Ag  Ag49  1  -0.00682120  0.66651296  0.33059272  1
  Ag  Ag50  1  0.00213210  0.00035668  0.66651512  1
  Ag  Ag51  1  0.49821226  0.66776350  0.16752412  1
  Ag  Ag52  1  0.83197290  0.67583950  0.83632799  1
  Ag  Ag53  1  0.33477560  0.32943127  0.32211021  1
  Sb  Sb54  1  0.32856451  0.00117677  0.67133392  1
  Sb  Sb55  1  0.67095114  -0.00105998  0.66666923  1
  Sb  Sb56  1  0.33574221  0.83216513  0.49527455  1
  Sb  Sb57  1  0.66346114  -0.00506899  0.00434248  1
  Sb  Sb58  1  0.66234588  0.33228238  0.65971268  1
  Sb  Sb59  1  0.17070875  0.50376017  0.32896867  1
  Sb  Sb60  1  0.83710597  0.33042580  0.48951159  1
  Sb  Sb61  1  0.16906536  0.49672142  0.66527300  1
  Sb  Sb62  1  0.33418308  0.50082519  0.49180812  1
  Sb  Sb63  1  0.00463833  0.83432744  0.83331263  1
  Sb  Sb64  1  0.17171378  0.66862569  0.49524015  1
  Sb  Sb65  1  0.66417655  0.50264723  0.83825301  1
  Sb  Sb66  1  0.83039462  0.66740375  0.16463360  1
  Sb  Sb67  1  0.66218872  0.83172885  0.83844243  1
  Sb  Sb68  1  0.49284102  0.83111373  0.00581425  1
  Sb  Sb69  1  -0.00369658  0.83204149  0.49757106  1
  Sb  Sb70  1  0.00249280  0.83254283  0.16869799  1
  Sb  Sb71  1  0.82856182  0.33078551  0.84327825  1
  Sb  Sb72  1  0.83621540  0.15983757  0.66839291  1
  Sb  Sb73  1  0.49940215  0.16752208  -0.00085287  1
  Sb  Sb74  1  0.66793081  0.16483812  0.49225260  1
  Sb  Sb75  1  0.16821798  0.16246924  0.00200852  1
  Sb  Sb76  1  0.00532889  0.16467392  0.83887971  1
  Sb  Sb77  1  0.33748730  0.66930414  0.32392554  1
  Sb  Sb78  1  0.66067795  0.66800730  0.66565562  1
  Sb  Sb79  1  0.16668849  0.83868385  0.66525605  1
  Sb  Sb80  1  0.49760784  0.50047349  0.66257724  1
  Sb  Sb81  1  0.33424503  0.50229025  0.84175124  1
  Sb  Sb82  1  0.00573841  0.32851580  0.66917182  1
  Sb  Sb83  1  0.49840291  -0.00439195  0.50194206  1
  Sb  Sb84  1  0.83721772  0.83436278  0.00323218  1
  Sb  Sb85  1  0.00370191  0.67035863  0.66317997  1
  Sb  Sb86  1  0.50135054  0.83523143  0.66509049  1
  Sb  Sb87  1  0.66362814  0.33790576  0.00884560  1
  Sb  Sb88  1  0.66134502  0.16522866  0.83975635  1
  Sb  Sb89  1  0.00202579  0.16871244  0.49328324  1
  Sb  Sb90  1  0.82778633  0.50162068  0.32666542  1
  Sb  Sb91  1  0.82832896  0.67127096  0.50004053  1
  Sb  Sb92  1  0.50083659  0.50267689  0.00747081  1
  Sb  Sb93  1  0.83316757  0.50550547  0.66944340  1
  Sb  Sb94  1  0.00345300  0.00438269  0.00116044  1
  Sb  Sb95  1  0.00219094  0.33756420  0.32484906  1
  Sb  Sb96  1  0.49572869  0.33768996  0.16504126  1
  Sb  Sb97  1  0.49466968  0.33774444  0.49998943  1
  Sb  Sb98  1  0.17436070  0.33076497  0.83822290  1
  Sb  Sb99  1  0.66610395  -0.00652779  0.33002173  1
  Sb  Sb100  1  0.49393752  -0.00552581  0.16426334  1
  Sb  Sb101  1  0.33231304  0.16701638  0.50002364  1
  Sb  Sb102  1  0.50120291  0.16470828  0.33335741  1
  Sb  Sb103  1  0.00057628  0.50131299  0.83849996  1
  Sb  Sb104  1  0.16475866  0.16286010  0.32937467  1
  Sb  Sb105  1  0.00088697  -0.00417514  0.33335954  1
  Sb  Sb106  1  0.00241500  0.66181272  0.00695470  1
  Sb  Sb107  1  0.16668969  0.50316952  0.00482422  1
  Te  Te108  1  0.17470021  0.16704000  0.16640345  1
  Te  Te109  1  0.16558259  0.16556682  0.50244343  1
  Te  Te110  1  0.17246393  0.16261572  0.83166571  1
  Te  Te111  1  0.16730154  0.49393397  0.16679018  1
  Te  Te112  1  0.16266238  0.49654745  0.49735799  1
  Te  Te113  1  0.16564074  0.50994431  0.83337510  1
  Te  Te114  1  0.16600450  0.83508465  0.16842284  1
  Te  Te115  1  0.16624719  0.83854328  0.49548946  1
  Te  Te116  1  0.17079808  0.83425474  0.83046993  1
  Te  Te117  1  0.49071050  0.16434937  0.16697495  1
  Te  Te118  1  0.50153955  0.16569630  0.50754253  1
  Te  Te119  1  0.49612729  0.16447412  0.83236561  1
  Te  Te120  1  0.50108250  0.50407116  0.17097112  1
  Te  Te121  1  0.50416371  0.50479125  0.49391581  1
  Te  Te122  1  0.50104755  0.50659900  0.83151953  1
  Te  Te123  1  0.50199531  0.83021398  0.17069843  1
  Te  Te124  1  0.50560695  0.82896306  0.49643398  1
  Te  Te125  1  0.49550964  0.83394852  0.83295318  1
  Te  Te126  1  0.83508612  0.16759384  0.16593420  1
  Te  Te127  1  0.83405198  0.15891849  0.49862018  1
  Te  Te128  1  0.83244957  0.16163927  0.83665794  1
  Te  Te129  1  0.83339408  0.50108677  0.16470438  1
  Te  Te130  1  0.83363471  0.49960025  0.50104286  1
  Te  Te131  1  0.83258208  0.50106665  0.83879795  1
  Te  Te132  1  0.83243857  0.83549934  0.16973060  1
  Te  Te133  1  0.83028890  0.83651813  0.49708669  1
  Te  Te134  1  0.83164114  0.83545500  0.83552461  1
  Te  Te135  1  0.16953587  -0.00322323  -0.00023230  1
  Te  Te136  1  0.16749434  -0.00215503  0.33044143  1
  Te  Te137  1  0.16364720  0.00241077  0.66507699  1
  Te  Te138  1  0.16839030  0.33373531  0.00456665  1
  Te  Te139  1  0.17061252  0.33271859  0.33084939  1
  Te  Te140  1  0.17132784  0.32785489  0.67014264  1
  Te  Te141  1  0.16911826  0.66894453  0.00308429  1
  Te  Te142  1  0.16789465  0.67187353  0.32948891  1
  Te  Te143  1  0.17139463  0.66702039  0.66625830  1
  Te  Te144  1  0.49428277  -0.00021071  -0.00764807  1
  Te  Te145  1  0.49198911  -0.00363592  0.33541472  1
  Te  Te146  1  0.50040514  0.00346489  0.67097057  1
  Te  Te147  1  0.49430826  0.33560185  -0.00716261  1
  Te  Te148  1  0.49757199  0.33221948  0.33449926  1
  Te  Te149  1  0.49492095  0.33018462  0.66875396  1
  Te  Te150  1  0.49880901  0.66625487  0.00105824  1
  Te  Te151  1  0.50042844  0.66742036  0.32852455  1
  Te  Te152  1  0.49441666  0.66766394  0.67785301  1
  Te  Te153  1  0.83398099  0.00188300  0.00330589  1
  Te  Te154  1  0.83392591  -0.00198315  0.33061267  1
  Te  Te155  1  0.83728498  -0.00302033  0.66989970  1
  Te  Te156  1  0.83047959  0.33337878  0.00559115  1
  Te  Te157  1  0.83121389  0.33069324  0.32687971  1
  Te  Te158  1  0.83438079  0.33253547  0.66781407  1
  Te  Te159  1  0.83528141  0.66596325  -0.00347464  1
  Te  Te160  1  0.83052903  0.67142956  0.33438074  1
  Te  Te161  1  0.83443014  0.67269440  0.67224492  1
  Te  Te162  1  -0.00391923  0.17138306  0.00503129  1
  Te  Te163  1  -0.00593519  0.16714601  0.32687803  1
  Te  Te164  1  0.00508261  0.16229858  0.66702739  1
  Te  Te165  1  -0.00461259  0.49436599  0.00543710  1
  Te  Te166  1  -0.00081196  0.50382168  0.33044429  1
  Te  Te167  1  0.00008671  0.49966163  0.66323525  1
  Te  Te168  1  0.01006652  0.83280581  0.00039416  1
  Te  Te169  1  -0.00183225  0.82715568  0.33374574  1
  Te  Te170  1  -0.00732214  0.83809283  0.66537436  1
  Te  Te171  1  0.33388665  0.16835088  -0.00132273  1
  Te  Te172  1  0.33350387  0.16666997  0.33024844  1
  Te  Te173  1  0.33198491  0.16728007  0.66659095  1
  Te  Te174  1  0.33369418  0.49690825  0.00836658  1
  Te  Te175  1  0.33849964  0.49500324  0.32729817  1
  Te  Te176  1  0.33294711  0.49742750  0.66439888  1
  Te  Te177  1  0.33094733  0.83354274  0.00067355  1
  Te  Te178  1  0.33350137  0.83516628  0.33056870  1
  Te  Te179  1  0.33445334  0.82923744  0.67022501  1
  Te  Te180  1  0.67034215  0.16699890  0.00716108  1
  Te  Te181  1  0.66912189  0.16851889  0.32798943  1
  Te  Te182  1  0.66274093  0.16736704  0.66667739  1
  Te  Te183  1  0.67051818  0.50550742  0.00540495  1
  Te  Te184  1  0.66661702  0.50282981  0.33157156  1
  Te  Te185  1  0.66686672  0.49931062  0.65741794  1
  Te  Te186  1  0.66807526  0.82663981  0.00716614  1
  Te  Te187  1  0.66514077  0.83202649  0.33041632  1
  Te  Te188  1  0.67244227  0.83298872  0.66469535  1
  Te  Te189  1  0.00291325  0.00393582  0.16650144  1
  Te  Te190  1  0.00059420  0.00104279  0.50179937  1
  Te  Te191  1  -0.00213081  0.00056418  0.83103400  1
  Te  Te192  1  0.00016926  0.33392767  0.16504291  1
  Te  Te193  1  0.00645751  0.33842158  0.50057646  1
  Te  Te194  1  -0.00001374  0.33339286  0.84185471  1
  Te  Te195  1  0.00492938  0.66231912  0.17122864  1
  Te  Te196  1  0.00126613  0.66051802  0.49580479  1
  Te  Te197  1  -0.00399834  0.66667835  0.83243582  1
  Te  Te198  1  0.33233585  -0.00476553  0.16393339  1
  Te  Te199  1  0.32867933  -0.00091924  0.49594667  1
  Te  Te200  1  0.33039925  -0.00039869  0.83272562  1
  Te  Te201  1  0.33488475  0.33378273  0.16565935  1
  Te  Te202  1  0.32724699  0.33423742  0.50406044  1
  Te  Te203  1  0.33610428  0.33509919  0.83246537  1
  Te  Te204  1  0.33403600  0.66925549  0.16431436  1
  Te  Te205  1  0.33969420  0.66559450  0.50634258  1
  Te  Te206  1  0.33292595  0.66441429  0.83878892  1
  Te  Te207  1  0.66932714  0.00539072  0.16600599  1
  Te  Te208  1  0.67025015  -0.00501801  0.49867826  1
  Te  Te209  1  0.67292541  -0.00077054  0.83554869  1
  Te  Te210  1  0.66270302  0.33487917  0.17043020  1
  Te  Te211  1  0.66696476  0.33611023  0.49160888  1
  Te  Te212  1  0.65820409  0.33392903  0.83188145  1
  Te  Te213  1  0.66783470  0.66567603  0.16765900  1
  Te  Te214  1  0.66274835  0.66759214  0.49910191  1
  Te  Te215  1  0.66886340  0.66704892  0.83431201  1
