# generated using pymatgen
data_AgSbTe2
_symmetry_space_group_name_H-M   'P 1'
_cell_length_a   18.33621368
_cell_length_b   18.32804737
_cell_length_c   18.33624801
_cell_angle_alpha   90.00169724
_cell_angle_beta   89.99872505
_cell_angle_gamma   89.99669190
_symmetry_Int_Tables_number   1
_chemical_formula_structural   AgSbTe2
_chemical_formula_sum   'Ag54 Sb54 Te108'
_cell_volume   6162.20771341
_cell_formula_units_Z   54
loop_
 _symmetry_equiv_pos_site_id
 _symmetry_equiv_pos_as_xyz
  1  'x, y, z'
loop_
 _atom_site_type_symbol
 _atom_site_label
 _atom_site_symmetry_multiplicity
 _atom_site_fract_x
 _atom_site_fract_y
 _atom_site_fract_z
 _atom_site_occupancy
  Ag  Ag0  1  0.83580387  0.83352456  0.66889576  1
  Ag  Ag1  1  0.16046705  -0.00481059  0.50109302  1
  Ag  Ag2  1  0.83299046  -0.00700950  0.83460642  1
  Ag  Ag3  1  0.51038201  -0.00151569  0.50127564  1
  Ag  Ag4  1  0.67492139  0.66730139  0.00360538  1
  Ag  Ag5  1  0.84271216  0.66987659  0.16148625  1
  Ag  Ag6  1  0.83916346  0.50296086  0.33543526  1
  Ag  Ag7  1  0.66964651  -0.01151900  0.34545644  1
  Ag  Ag8  1  0.83195483  0.16203000  0.00115926  1
  Ag  Ag9  1  0.83090894  -0.00398081  0.50335839  1
  Ag  Ag10  1  0.33230556  0.00614537  0.00000834  1
  Ag  Ag11  1  -0.00691146  0.83445295  0.83227646  1
  Ag  Ag12  1  0.50260353  0.16568393  -0.00212537  1
  Ag  Ag13  1  0.67093427  0.50707864  0.83179065  1
  Ag  Ag14  1  0.15668496  0.65699203  0.16593953  1
  Ag  Ag15  1  0.67461515  0.83163970  0.82953352  1
  Ag  Ag16  1  0.16455151  0.50145414  0.32349403  1
  Ag  Ag17  1  0.33096495  0.65848343  0.00589853  1
  Ag  Ag18  1  0.32246424  0.33787242  -0.00082076  1
  Ag  Ag19  1  0.49853711  0.16755993  0.67248259  1
  Ag  Ag20  1  0.49876300  0.66676124  0.16769599  1
  Ag  Ag21  1  0.15381003  0.83395514  0.66569003  1
  Ag  Ag22  1  0.16714851  0.49818617  0.01106965  1
  Ag  Ag23  1  0.33536576  0.50048947  0.49157578  1
  Ag  Ag24  1  0.16853564  0.33592574  0.84599309  1
  Ag  Ag25  1  -0.00196565  0.81920328  0.16431823  1
  Ag  Ag26  1  0.83206785  0.67454166  0.83933900  1
  Ag  Ag27  1  0.66787102  0.50672553  0.50309367  1
  Ag  Ag28  1  -0.00621483  0.66762852  0.00967785  1
  Ag  Ag29  1  0.83635103  -0.00733148  0.15592460  1
  Ag  Ag30  1  0.82996803  0.50820958  0.66217728  1
  Ag  Ag31  1  0.50422241  0.82945110  0.33362874  1
  Ag  Ag32  1  0.67028822  0.33699620  -0.00100154  1
  Ag  Ag33  1  0.16237279  0.34531888  0.16232124  1
  Ag  Ag34  1  0.66881719  0.66968748  0.32721611  1
  Ag  Ag35  1  0.00548022  0.34423351  0.32246010  1
  Ag  Ag36  1  0.00902662  0.50559961  0.16765295  1
  Ag  Ag37  1  0.67760063  -0.00272858  -0.00278764  1
  Ag  Ag38  1  0.32725209  0.34427706  0.32946244  1
  Ag  Ag39  1  -0.01008639  -0.00612461  0.66880179  1
  Ag  Ag40  1  0.33397000  0.16912510  0.83704076  1
  Ag  Ag41  1  -0.00584936  -0.00345779  0.00162200  1
  Ag  Ag42  1  0.33324393  0.34181426  0.66823522  1
  Ag  Ag43  1  0.67133922  0.83423816  0.50243470  1
  Ag  Ag44  1  -0.00858467  0.83575856  0.50364676  1
  Ag  Ag45  1  0.33144009  0.66134472  0.32404725  1
  Ag  Ag46  1  0.67297939  -0.00587775  0.66235190  1
  Ag  Ag47  1  0.50211803  0.49936564  0.66476286  1
  Ag  Ag48  1  0.00374116  0.33776120  0.00541232  1
  Ag  Ag49  1  -0.00565502  0.66257354  0.32226346  1
  Ag  Ag50  1  0.32263219  0.50395801  0.17314761  1
  Ag  Ag51  1  0.33314373  0.66035104  0.66563832  1
  Ag  Ag52  1  0.83389108  0.33963559  0.50028541  1
  Ag  Ag53  1  -0.00142380  0.16970471  0.16259256  1
  Sb  Sb54  1  0.33291593  0.83499383  0.83369788  1
  Sb  Sb55  1  0.66551196  0.66766732  0.66759823  1
  Sb  Sb56  1  0.32844228  0.17358978  0.15962784  1
  Sb  Sb57  1  -0.00720045  -0.00539681  0.33114501  1
  Sb  Sb58  1  0.66771719  0.16241965  0.50146638  1
  Sb  Sb59  1  0.84128074  0.33781417  0.16749295  1
  Sb  Sb60  1  0.67210589  0.16518504  0.16212447  1
  Sb  Sb61  1  0.50427608  0.83239466  0.66292584  1
  Sb  Sb62  1  0.33471574  0.82987971  0.50075925  1
  Sb  Sb63  1  0.00177524  0.16209421  0.84005495  1
  Sb  Sb64  1  0.16223754  0.82792943  -0.00251118  1
  Sb  Sb65  1  -0.00122336  0.50536425  0.49340590  1
  Sb  Sb66  1  -0.00484055  0.50531965  0.83894897  1
  Sb  Sb67  1  0.83221216  0.66782960  0.49855738  1
  Sb  Sb68  1  0.16709134  0.66885939  0.49525033  1
  Sb  Sb69  1  0.50004829  0.16231674  0.33140909  1
  Sb  Sb70  1  0.17023883  0.16324813  0.66808434  1
  Sb  Sb71  1  0.15992447  -0.00269790  0.16828360  1
  Sb  Sb72  1  0.50650220  -0.00441604  0.16696016  1
  Sb  Sb73  1  0.33478666  0.17061283  0.50415209  1
  Sb  Sb74  1  0.83617932  0.50083791  0.00227242  1
  Sb  Sb75  1  0.16273399  0.66351703  0.83940676  1
  Sb  Sb76  1  0.16117230  0.00115637  0.83210860  1
  Sb  Sb77  1  0.50192183  0.83499913  0.00484520  1
  Sb  Sb78  1  0.16610324  0.82615531  0.33596394  1
  Sb  Sb79  1  0.33580136  -0.00262272  0.32970890  1
  Sb  Sb80  1  0.50697486  0.00047439  0.83161233  1
  Sb  Sb81  1  0.50498830  0.66549609  0.83782538  1
  Sb  Sb82  1  0.83123303  0.82771754  0.33829161  1
  Sb  Sb83  1  0.00078866  0.67284623  0.66806894  1
  Sb  Sb84  1  0.49779229  0.49817706  -0.00286079  1
  Sb  Sb85  1  -0.00226290  0.16127099  0.49587762  1
  Sb  Sb86  1  0.33455569  -0.00076959  0.66902892  1
  Sb  Sb87  1  0.50110807  0.66893628  0.49594985  1
  Sb  Sb88  1  0.00333876  0.33017757  0.66844879  1
  Sb  Sb89  1  0.16561859  0.17309300  0.33167752  1
  Sb  Sb90  1  0.66849415  0.50384165  0.16604404  1
  Sb  Sb91  1  0.49734311  0.50557386  0.33613564  1
  Sb  Sb92  1  0.16475189  0.17283319  -0.00006259  1
  Sb  Sb93  1  0.67494497  0.83131752  0.16703083  1
  Sb  Sb94  1  0.66374908  0.33439638  0.67028976  1
  Sb  Sb95  1  0.32757208  0.82431215  0.16595705  1
  Sb  Sb96  1  0.82871244  0.16149998  0.67115291  1
  Sb  Sb97  1  0.83472197  0.83686158  -0.00730424  1
  Sb  Sb98  1  0.16396885  0.33286327  0.49667950  1
  Sb  Sb99  1  0.66456159  0.16481300  0.83615879  1
  Sb  Sb100  1  0.66857972  0.33935075  0.33007700  1
  Sb  Sb101  1  0.83463168  0.16865950  0.32854022  1
  Sb  Sb102  1  0.33562005  0.49750361  0.83424370  1
  Sb  Sb103  1  0.49573316  0.33284428  0.83437904  1
  Sb  Sb104  1  0.83670545  0.33402654  0.83296451  1
  Sb  Sb105  1  0.16669139  0.50379212  0.66569298  1
  Sb  Sb106  1  0.50358311  0.33245494  0.50062181  1
  Sb  Sb107  1  0.49347026  0.33926577  0.16409622  1
  Te  Te108  1  0.15979505  0.16878043  0.16715973  1
  Te  Te109  1  0.16663505  0.15711963  0.49969128  1
  Te  Te110  1  0.17267605  0.17269170  0.83244632  1
  Te  Te111  1  0.16741778  0.50072969  0.16714909  1
  Te  Te112  1  0.17219470  0.49999414  0.49765383  1
  Te  Te113  1  0.16507412  0.49539688  0.83449797  1
  Te  Te114  1  0.15814817  0.82890301  0.16759663  1
  Te  Te115  1  0.16643655  0.83660240  0.50342097  1
  Te  Te116  1  0.16232231  0.83268135  0.82650490  1
  Te  Te117  1  0.49843805  0.16574616  0.16025044  1
  Te  Te118  1  0.50030517  0.16078555  0.50279847  1
  Te  Te119  1  0.49517505  0.16664109  0.83453147  1
  Te  Te120  1  0.49759603  0.50637933  0.16582056  1
  Te  Te121  1  0.50108098  0.49947472  0.50515925  1
  Te  Te122  1  0.50893954  0.49962100  0.82572670  1
  Te  Te123  1  0.49845479  0.82813025  0.17230075  1
  Te  Te124  1  0.50462197  0.83769270  0.49621125  1
  Te  Te125  1  0.50771920  0.83286810  0.83275648  1
  Te  Te126  1  0.83844628  0.16400857  0.16155313  1
  Te  Te127  1  0.83267323  0.16611482  0.50032593  1
  Te  Te128  1  0.83344319  0.16322630  0.83928134  1
  Te  Te129  1  0.83515051  0.50570383  0.17112151  1
  Te  Te130  1  0.83275696  0.50123983  0.50015350  1
  Te  Te131  1  0.82926031  0.50125759  0.82905405  1
  Te  Te132  1  0.84015856  0.83268027  0.17054384  1
  Te  Te133  1  0.83139655  0.83440714  0.50492987  1
  Te  Te134  1  0.83252796  0.83404493  0.82937387  1
  Te  Te135  1  0.16788887  -0.00077166  0.00063044  1
  Te  Te136  1  0.16631323  -0.00068271  0.33807864  1
  Te  Te137  1  0.16572784  -0.00459906  0.66428787  1
  Te  Te138  1  0.16383768  0.33589612  0.00278470  1
  Te  Te139  1  0.16640310  0.33896801  0.33207452  1
  Te  Te140  1  0.17205826  0.33331274  0.66538367  1
  Te  Te141  1  0.16762785  0.66204980  0.00365461  1
  Te  Te142  1  0.17057263  0.66216761  0.32915298  1
  Te  Te143  1  0.17161931  0.67141906  0.66791307  1
  Te  Te144  1  0.49564922  0.00305458  0.00010416  1
  Te  Te145  1  0.50479827  -0.00433174  0.33554266  1
  Te  Te146  1  0.50277993  0.00138911  0.66383975  1
  Te  Te147  1  0.50534455  0.32859734  0.00078464  1
  Te  Te148  1  0.49477872  0.33156519  0.33236292  1
  Te  Te149  1  0.49517520  0.33313007  0.66660366  1
  Te  Te150  1  0.49728008  0.66659150  0.00473356  1
  Te  Te151  1  0.50231856  0.66899292  0.33029684  1
  Te  Te152  1  0.49487457  0.66245076  0.66686357  1
  Te  Te153  1  0.83485521  -0.00058052  -0.00078479  1
  Te  Te154  1  0.82875966  0.00170563  0.33862129  1
  Te  Te155  1  0.83233180  0.00035160  0.66707619  1
  Te  Te156  1  0.83390071  0.33042935  -0.00023497  1
  Te  Te157  1  0.83431680  0.33770360  0.33691663  1
  Te  Te158  1  0.83339681  0.33291861  0.66368005  1
  Te  Te159  1  0.83408002  0.66462343  0.00036739  1
  Te  Te160  1  0.83184911  0.66265580  0.33277080  1
  Te  Te161  1  0.83350729  0.66716626  0.67138864  1
  Te  Te162  1  -0.00266753  0.16469327  0.00198191  1
  Te  Te163  1  -0.00002594  0.17371153  0.32707188  1
  Te  Te164  1  0.00034515  0.15798781  0.66705664  1
  Te  Te165  1  0.00241676  0.50100945  0.00286870  1
  Te  Te166  1  -0.00005660  0.50212483  0.33284764  1
  Te  Te167  1  -0.00539089  0.49956899  0.66598748  1
  Te  Te168  1  0.00027138  0.83233999  0.00061332  1
  Te  Te169  1  0.00103503  0.82716340  0.33366481  1
  Te  Te170  1  -0.00337963  0.83522887  0.66580653  1
  Te  Te171  1  0.33412804  0.16951749  -0.00241563  1
  Te  Te172  1  0.33406510  0.17184680  0.33265484  1
  Te  Te173  1  0.33830621  0.16872093  0.67140190  1
  Te  Te174  1  0.33215379  0.49817983  -0.00008417  1
  Te  Te175  1  0.33613048  0.50130418  0.33362831  1
  Te  Te176  1  0.33241642  0.50068504  0.66801301  1
  Te  Te177  1  0.33298388  0.83338494  -0.00166148  1
  Te  Te178  1  0.33820621  0.82761331  0.33369422  1
  Te  Te179  1  0.33409898  0.82817243  0.66749203  1
  Te  Te180  1  0.66640182  0.16399528  -0.00055054  1
  Te  Te181  1  0.66566920  0.16277399  0.33155050  1
  Te  Te182  1  0.65896004  0.16303122  0.66871153  1
  Te  Te183  1  0.66657764  0.50315773  -0.00270990  1
  Te  Te184  1  0.66814864  0.50289130  0.33749957  1
  Te  Te185  1  0.66845733  0.49991776  0.66468166  1
  Te  Te186  1  0.66613497  0.83069469  -0.00295618  1
  Te  Te187  1  0.66551613  0.83141710  0.33296142  1
  Te  Te188  1  0.66895066  0.83432088  0.66539065  1
  Te  Te189  1  -0.00372190  0.00471536  0.16422334  1
  Te  Te190  1  -0.00323885  -0.00371507  0.49847189  1
  Te  Te191  1  -0.00322635  -0.00394494  0.83588152  1
  Te  Te192  1  0.00065572  0.33680965  0.16568567  1
  Te  Te193  1  -0.00425809  0.33203947  0.49957228  1
  Te  Te194  1  0.00539290  0.33278134  0.83736018  1
  Te  Te195  1  -0.00099644  0.66284883  0.16619933  1
  Te  Te196  1  0.00064361  0.67417303  0.49704401  1
  Te  Te197  1  -0.00508562  0.67278377  0.83637269  1
  Te  Te198  1  0.33243961  -0.00058760  0.16207585  1
  Te  Te199  1  0.33330551  0.00042764  0.49866129  1
  Te  Te200  1  0.33263606  0.00332556  0.83876681  1
  Te  Te201  1  0.32849687  0.33882689  0.16466809  1
  Te  Te202  1  0.33352636  0.33761250  0.50090150  1
  Te  Te203  1  0.33019953  0.33241532  0.83673848  1
  Te  Te204  1  0.33358589  0.66434990  0.16541084  1
  Te  Te205  1  0.33423693  0.66179144  0.50148866  1
  Te  Te206  1  0.33312890  0.66683018  0.83906495  1
  Te  Te207  1  0.67392814  -0.00144143  0.15771207  1
  Te  Te208  1  0.66901030  -0.00164724  0.50171631  1
  Te  Te209  1  0.67116046  -0.00173027  0.83674069  1
  Te  Te210  1  0.66629290  0.33460106  0.16044152  1
  Te  Te211  1  0.67142819  0.33768556  0.49905077  1
  Te  Te212  1  0.66818465  0.33681630  0.83828547  1
  Te  Te213  1  0.66538585  0.66776409  0.16516784  1
  Te  Te214  1  0.66579256  0.66769263  0.49629601  1
  Te  Te215  1  0.67059250  0.66802703  0.83489822  1
