# generated using pymatgen
data_AgSbTe2
_symmetry_space_group_name_H-M   'P 1'
_cell_length_a   18.34981110
_cell_length_b   18.35139136
_cell_length_c   18.35040206
_cell_angle_alpha   89.99816508
_cell_angle_beta   90.00066926
_cell_angle_gamma   90.00000883
_symmetry_Int_Tables_number   1
_chemical_formula_structural   AgSbTe2
_chemical_formula_sum   'Ag54 Sb54 Te108'
_cell_volume   6179.39815436
_cell_formula_units_Z   54
loop_
 _symmetry_equiv_pos_site_id
 _symmetry_equiv_pos_as_xyz
  1  'x, y, z'
loop_
 _atom_site_type_symbol
 _atom_site_label
 _atom_site_symmetry_multiplicity
 _atom_site_fract_x
 _atom_site_fract_y
 _atom_site_fract_z
 _atom_site_occupancy
  Ag  Ag0  1  0.49406588  0.50003424  -0.00074594  1
  Ag  Ag1  1  0.65641858  0.00245708  0.66402161  1
  Ag  Ag2  1  -0.00485588  0.32699050  0.32679413  1
  Ag  Ag3  1  0.49582860  0.82933063  0.67125130  1
  Ag  Ag4  1  0.33927136  0.33684735  0.00046804  1
  Ag  Ag5  1  0.84142121  0.66303263  0.16379477  1
  Ag  Ag6  1  0.67079706  0.32355999  0.32787658  1
  Ag  Ag7  1  0.17524959  0.49646258  0.67105063  1
  Ag  Ag8  1  0.16611480  0.16502190  0.32136905  1
  Ag  Ag9  1  0.49880256  0.32440267  0.16311029  1
  Ag  Ag10  1  0.49751404  0.83348236  0.32263774  1
  Ag  Ag11  1  0.83011859  0.32582465  0.16457717  1
  Ag  Ag12  1  0.49585199  0.66617454  0.50901325  1
  Ag  Ag13  1  -0.00495831  0.00254750  0.33154578  1
  Ag  Ag14  1  -0.01079624  0.17366649  0.16901714  1
  Ag  Ag15  1  0.83329764  0.49895964  0.00285642  1
  Ag  Ag16  1  0.65816753  0.66545070  0.00107431  1
  Ag  Ag17  1  0.67507814  0.16692700  0.16556697  1
  Ag  Ag18  1  0.33614754  0.65887210  0.66754308  1
  Ag  Ag19  1  0.00273397  0.00238900  0.66026114  1
  Ag  Ag20  1  0.33816478  0.83201117  0.84638151  1
  Ag  Ag21  1  0.33205003  0.49944327  0.50792019  1
  Ag  Ag22  1  0.82496646  0.66372455  0.84671951  1
  Ag  Ag23  1  0.49625334  0.17440666  0.00310538  1
  Ag  Ag24  1  0.33460207  0.65970857  0.00545239  1
  Ag  Ag25  1  0.17839452  0.17356631  0.00605108  1
  Ag  Ag26  1  0.82983068  0.84284858  0.32726085  1
  Ag  Ag27  1  0.17185705  0.16896710  0.66876600  1
  Ag  Ag28  1  0.82816342  0.17693541  0.01099312  1
  Ag  Ag29  1  0.49539263  0.50761885  0.67498230  1
  Ag  Ag30  1  0.16750938  0.66154784  0.16435964  1
  Ag  Ag31  1  0.33228097  0.17060212  0.49079063  1
  Ag  Ag32  1  0.00279544  0.50178215  0.16715497  1
  Ag  Ag33  1  0.33398548  0.16582146  0.16432826  1
  Ag  Ag34  1  0.49977440  0.66321540  0.83855409  1
  Ag  Ag35  1  0.17475996  0.49780623  0.00139371  1
  Ag  Ag36  1  0.49403716  0.82524896  0.00116565  1
  Ag  Ag37  1  0.33599283  -0.00067600  0.32696504  1
  Ag  Ag38  1  0.33118105  0.50376788  0.15719099  1
  Ag  Ag39  1  0.33587487  0.34011829  0.67437929  1
  Ag  Ag40  1  0.49541083  0.00661491  0.16536452  1
  Ag  Ag41  1  0.82649172  0.33398186  0.84632778  1
  Ag  Ag42  1  0.00899294  0.50069756  0.48712865  1
  Ag  Ag43  1  0.00459145  0.66343080  0.32664279  1
  Ag  Ag44  1  0.66685928  0.16688830  0.84941703  1
  Ag  Ag45  1  0.66987550  0.00368902  0.32883991  1
  Ag  Ag46  1  0.50025614  0.33749423  0.84399652  1
  Ag  Ag47  1  0.33287560  0.67031521  0.32149830  1
  Ag  Ag48  1  0.33485734  0.00060404  0.66535638  1
  Ag  Ag49  1  0.84183081  0.16206756  0.32575733  1
  Ag  Ag50  1  0.33686919  0.83397973  0.16405815  1
  Ag  Ag51  1  0.33631634  0.00309569  0.00846845  1
  Ag  Ag52  1  0.82658879  0.01022824  0.16871810  1
  Ag  Ag53  1  -0.00515005  0.66342066  0.00764651  1
  Sb  Sb54  1  0.66141946  0.83764095  0.16651794  1
  Sb  Sb55  1  0.83090759  0.00053659  0.83926247  1
  Sb  Sb56  1  0.00161474  0.83072775  0.16649538  1
  Sb  Sb57  1  0.17579798  0.83341269  0.66790393  1
  Sb  Sb58  1  0.65963599  0.16564063  0.49229805  1
  Sb  Sb59  1  0.17288534  0.66483061  0.84005525  1
  Sb  Sb60  1  0.00655155  0.66582263  0.66553209  1
  Sb  Sb61  1  0.66370535  0.83357925  0.49863872  1
  Sb  Sb62  1  0.17148381  0.00146338  0.16742588  1
  Sb  Sb63  1  0.49711107  0.66650229  0.16020290  1
  Sb  Sb64  1  0.66576010  0.49628669  0.16451455  1
  Sb  Sb65  1  0.16936021  0.00170523  0.83384103  1
  Sb  Sb66  1  0.49647882  0.33689916  0.49668101  1
  Sb  Sb67  1  0.83363801  0.00137662  0.49177068  1
  Sb  Sb68  1  0.83769027  0.49733064  0.32467943  1
  Sb  Sb69  1  0.16750597  0.33333134  0.16483568  1
  Sb  Sb70  1  0.49810795  0.00013140  0.83794708  1
  Sb  Sb71  1  -0.00145750  0.50051664  0.84087748  1
  Sb  Sb72  1  0.16951206  0.33351467  0.50009224  1
  Sb  Sb73  1  0.82749715  0.82953404  0.00711984  1
  Sb  Sb74  1  0.83624294  0.16465665  0.66859418  1
  Sb  Sb75  1  0.66060962  0.00180782  0.00388931  1
  Sb  Sb76  1  0.00212830  0.83152114  0.83399940  1
  Sb  Sb77  1  0.16745022  0.49646912  0.32807116  1
  Sb  Sb78  1  0.66068633  0.83613703  0.83505866  1
  Sb  Sb79  1  0.66133900  0.33286508  0.00510181  1
  Sb  Sb80  1  0.82901900  0.83525312  0.66474760  1
  Sb  Sb81  1  0.66357050  0.49578212  0.83726814  1
  Sb  Sb82  1  0.49595064  0.50357747  0.32863077  1
  Sb  Sb83  1  0.17459105  0.66168176  0.49302468  1
  Sb  Sb84  1  0.33714948  0.16356780  0.84016526  1
  Sb  Sb85  1  0.00388893  0.33041181  0.66350186  1
  Sb  Sb86  1  0.66384006  0.66918132  0.32541541  1
  Sb  Sb87  1  0.66082159  0.32989667  0.66716689  1
  Sb  Sb88  1  0.00689730  0.16992143  0.49097968  1
  Sb  Sb89  1  0.83509455  0.33359406  0.49337371  1
  Sb  Sb90  1  -0.00057251  0.33680643  0.00572895  1
  Sb  Sb91  1  0.66104990  0.50055708  0.49870029  1
  Sb  Sb92  1  0.16976086  0.00237384  0.49940153  1
  Sb  Sb93  1  0.33663606  0.83028789  0.49567032  1
  Sb  Sb94  1  -0.00413993  0.16786586  0.84147885  1
  Sb  Sb95  1  0.49678131  -0.00257450  0.49546168  1
  Sb  Sb96  1  0.49407949  0.16609272  0.67293076  1
  Sb  Sb97  1  0.17570401  0.83082354  0.00398224  1
  Sb  Sb98  1  0.16975875  0.83662332  0.33120425  1
  Sb  Sb99  1  0.00425598  -0.00016331  0.00411400  1
  Sb  Sb100  1  0.83181029  0.66396737  0.49454127  1
  Sb  Sb101  1  0.33670020  0.50408583  0.83509299  1
  Sb  Sb102  1  0.83432145  0.50043565  0.67297233  1
  Sb  Sb103  1  0.49702530  0.16175137  0.32294657  1
  Sb  Sb104  1  -0.00157421  0.83115262  0.49670616  1
  Sb  Sb105  1  0.17112013  0.33330352  0.83445764  1
  Sb  Sb106  1  0.65799242  0.66942747  0.67357491  1
  Sb  Sb107  1  0.33255480  0.33179046  0.32648074  1
  Te  Te108  1  0.17455308  0.16734204  0.16425464  1
  Te  Te109  1  0.17354451  0.16751271  0.50784402  1
  Te  Te110  1  0.16122897  0.16818184  0.83102489  1
  Te  Te111  1  0.16741103  0.50048398  0.16354108  1
  Te  Te112  1  0.16843253  0.50019585  0.50548302  1
  Te  Te113  1  0.16387649  0.49886052  0.83327511  1
  Te  Te114  1  0.17542742  0.82537679  0.16825670  1
  Te  Te115  1  0.16508967  0.83065692  0.50047641  1
  Te  Te116  1  0.17463643  0.83349728  0.83447137  1
  Te  Te117  1  0.49345518  0.16595325  0.16366599  1
  Te  Te118  1  0.49112662  0.16729572  0.50195064  1
  Te  Te119  1  0.50637482  0.16816884  0.83991594  1
  Te  Te120  1  0.49740549  0.49561883  0.16052778  1
  Te  Te121  1  0.49384554  0.50449057  0.50075564  1
  Te  Te122  1  0.50139092  0.49852633  0.83587600  1
  Te  Te123  1  0.49645713  0.83490943  0.16452716  1
  Te  Te124  1  0.49935348  0.82745214  0.50487618  1
  Te  Te125  1  0.49703660  0.83329488  0.83525618  1
  Te  Te126  1  0.83343733  0.16686645  0.16990524  1
  Te  Te127  1  0.83348292  0.16808094  0.49474355  1
  Te  Te128  1  0.82879436  0.16931334  0.83551239  1
  Te  Te129  1  0.83317741  0.50258393  0.16208525  1
  Te  Te130  1  0.83618558  0.50013225  0.50291991  1
  Te  Te131  1  0.83142587  0.50132657  0.83870956  1
  Te  Te132  1  0.83300889  0.83027358  0.17136003  1
  Te  Te133  1  0.83185240  0.83166281  0.49100269  1
  Te  Te134  1  0.83357159  0.82761389  0.83321141  1
  Te  Te135  1  0.17218796  0.00771525  -0.00064802  1
  Te  Te136  1  0.17016162  0.00472832  0.33420841  1
  Te  Te137  1  0.16837115  0.00094442  0.66668792  1
  Te  Te138  1  0.17075845  0.33449378  -0.00235196  1
  Te  Te139  1  0.16220220  0.32563445  0.33275198  1
  Te  Te140  1  0.17158888  0.33436668  0.66803299  1
  Te  Te141  1  0.17206409  0.66340492  0.00347957  1
  Te  Te142  1  0.16870507  0.66593457  0.32662007  1
  Te  Te143  1  0.17330905  0.66387891  0.66831345  1
  Te  Te144  1  0.49651125  0.00090307  0.00386596  1
  Te  Te145  1  0.49639750  -0.00504788  0.33136991  1
  Te  Te146  1  0.49954923  -0.00172213  0.66547432  1
  Te  Te147  1  0.50128630  0.33525339  0.00132776  1
  Te  Te148  1  0.50310198  0.33517010  0.32753895  1
  Te  Te149  1  0.49527788  0.33518852  0.66645322  1
  Te  Te150  1  0.49742402  0.66413753  -0.00096298  1
  Te  Te151  1  0.49675397  0.67097695  0.33161540  1
  Te  Te152  1  0.49802232  0.66650522  0.67163413  1
  Te  Te153  1  0.83528614  -0.00103348  0.00762961  1
  Te  Te154  1  0.83239569  0.00108063  0.33010898  1
  Te  Te155  1  0.83680526  -0.00182979  0.66705521  1
  Te  Te156  1  0.83315826  0.33358767  0.00222469  1
  Te  Te157  1  0.83392084  0.33051199  0.32743287  1
  Te  Te158  1  0.83100403  0.33331322  0.66664992  1
  Te  Te159  1  0.83723756  0.66964914  0.00192643  1
  Te  Te160  1  0.83430918  0.66653149  0.32884943  1
  Te  Te161  1  0.83244287  0.66833916  0.66542210  1
  Te  Te162  1  -0.00195544  0.16550588  0.00877665  1
  Te  Te163  1  0.00188209  0.16609213  0.33102804  1
  Te  Te164  1  0.00454824  0.16347707  0.66336732  1
  Te  Te165  1  -0.00166670  0.50368088  0.00591125  1
  Te  Te166  1  0.00249920  0.50407634  0.32942388  1
  Te  Te167  1  0.00384456  0.49889704  0.66696292  1
  Te  Te168  1  0.00290408  0.82840725  -0.00201746  1
  Te  Te169  1  -0.00158577  0.83685404  0.33414246  1
  Te  Te170  1  0.00031665  0.83923491  0.66541249  1
  Te  Te171  1  0.33541982  0.16537891  -0.00028425  1
  Te  Te172  1  0.33078269  0.16713960  0.33254147  1
  Te  Te173  1  0.33053980  0.16348913  0.67418072  1
  Te  Te174  1  0.33301693  0.49915658  -0.00125224  1
  Te  Te175  1  0.33178461  0.50199379  0.33380941  1
  Te  Te176  1  0.33555965  0.49928039  0.67047901  1
  Te  Te177  1  0.33486228  0.83699112  0.00285185  1
  Te  Te178  1  0.33577112  0.83342654  0.33019167  1
  Te  Te179  1  0.33754225  0.83796205  0.66142481  1
  Te  Te180  1  0.66820856  0.16630158  0.00549785  1
  Te  Te181  1  0.66425903  0.16409907  0.32866305  1
  Te  Te182  1  0.66782475  0.16132746  0.65976119  1
  Te  Te183  1  0.67079501  0.50564698  -0.00094602  1
  Te  Te184  1  0.66560070  0.49764121  0.33410973  1
  Te  Te185  1  0.66138182  0.49930504  0.66647174  1
  Te  Te186  1  0.65762149  0.82978599  0.00002628  1
  Te  Te187  1  0.66388795  0.83789009  0.33284339  1
  Te  Te188  1  0.66113122  0.83956064  0.66732908  1
  Te  Te189  1  0.00189111  -0.00100015  0.17074753  1
  Te  Te190  1  0.00046201  0.00046755  0.49858426  1
  Te  Te191  1  -0.00113165  -0.00042834  0.82845084  1
  Te  Te192  1  -0.00249169  0.33384615  0.16818297  1
  Te  Te193  1  0.00093617  0.34110354  0.49396878  1
  Te  Te194  1  -0.00979951  0.33219491  0.83233469  1
  Te  Te195  1  0.00285493  0.66810618  0.16758673  1
  Te  Te196  1  -0.00030786  0.66021924  0.49697231  1
  Te  Te197  1  -0.00364245  0.66792082  0.83473902  1
  Te  Te198  1  0.33275878  0.00048835  0.16762463  1
  Te  Te199  1  0.33299795  0.00569493  0.50026740  1
  Te  Te200  1  0.33328959  -0.00699321  0.82855239  1
  Te  Te201  1  0.33572310  0.33464730  0.16324807  1
  Te  Te202  1  0.33404081  0.33493092  0.50349648  1
  Te  Te203  1  0.33864224  0.33060547  0.83567356  1
  Te  Te204  1  0.33513393  0.66235966  0.16539192  1
  Te  Te205  1  0.33656580  0.66299434  0.50352698  1
  Te  Te206  1  0.33665888  0.67168538  0.83335695  1
  Te  Te207  1  0.66414226  0.00374928  0.16951707  1
  Te  Te208  1  0.66670918  0.00031933  0.50068821  1
  Te  Te209  1  0.66796950  0.00679067  0.82912803  1
  Te  Te210  1  0.66576282  0.33034770  0.16952824  1
  Te  Te211  1  0.66633079  0.33344003  0.49069645  1
  Te  Te212  1  0.66595237  0.32612142  0.83042180  1
  Te  Te213  1  0.67339601  0.66695395  0.16143569  1
  Te  Te214  1  0.65849713  0.66527495  0.49956778  1
  Te  Te215  1  0.66551547  0.66814920  0.84012173  1
