# generated using pymatgen
data_AgSbTe2
_symmetry_space_group_name_H-M   'P 1'
_cell_length_a   18.34920986
_cell_length_b   18.35006474
_cell_length_c   18.34773061
_cell_angle_alpha   90.00571430
_cell_angle_beta   89.99904503
_cell_angle_gamma   89.99950209
_symmetry_Int_Tables_number   1
_chemical_formula_structural   AgSbTe2
_chemical_formula_sum   'Ag54 Sb54 Te108'
_cell_volume   6177.84946092
_cell_formula_units_Z   54
loop_
 _symmetry_equiv_pos_site_id
 _symmetry_equiv_pos_as_xyz
  1  'x, y, z'
loop_
 _atom_site_type_symbol
 _atom_site_label
 _atom_site_symmetry_multiplicity
 _atom_site_fract_x
 _atom_site_fract_y
 _atom_site_fract_z
 _atom_site_occupancy
  Ag  Ag0  1  0.16921246  0.31861201  0.16190812  1
  Ag  Ag1  1  0.16822060  0.67482763  0.83832138  1
  Ag  Ag2  1  -0.00063979  0.51348474  0.49623857  1
  Ag  Ag3  1  0.50538097  0.68036136  0.50093611  1
  Ag  Ag4  1  0.32766328  0.00278265  0.66186918  1
  Ag  Ag5  1  0.65587306  0.16229202  0.83630669  1
  Ag  Ag6  1  0.32965374  0.15966248  0.50180538  1
  Ag  Ag7  1  0.49566106  -0.00284637  0.49308160  1
  Ag  Ag8  1  0.48957644  0.00515795  0.17348998  1
  Ag  Ag9  1  0.50274723  0.50355736  0.33209709  1
  Ag  Ag10  1  0.17222729  -0.00115742  0.83145584  1
  Ag  Ag11  1  0.16897053  0.16491717  0.00384517  1
  Ag  Ag12  1  0.16232548  0.67217534  0.15860769  1
  Ag  Ag13  1  0.33124291  0.00395407  -0.00078548  1
  Ag  Ag14  1  0.66506104  0.50071271  0.16316452  1
  Ag  Ag15  1  0.66220239  0.00117428  -0.00352705  1
  Ag  Ag16  1  0.66442268  -0.00500566  0.66652590  1
  Ag  Ag17  1  0.00892051  -0.00432102  0.65599838  1
  Ag  Ag18  1  0.83339396  0.82907384  0.00224275  1
  Ag  Ag19  1  0.01087660  0.15736541  0.16938810  1
  Ag  Ag20  1  0.00202185  0.83707302  0.17554694  1
  Ag  Ag21  1  0.32934101  0.00084590  0.33655944  1
  Ag  Ag22  1  0.33265174  0.84637959  0.83478427  1
  Ag  Ag23  1  0.49960835  0.32577153  0.84403602  1
  Ag  Ag24  1  0.00646325  0.15131321  0.49531153  1
  Ag  Ag25  1  -0.01192015  0.83843240  0.48653876  1
  Ag  Ag26  1  0.49171937  0.16059532  0.66481669  1
  Ag  Ag27  1  0.16438326  0.00062962  0.49832474  1
  Ag  Ag28  1  0.15577313  0.83846569  0.33159789  1
  Ag  Ag29  1  0.49773845  0.66680078  0.82964485  1
  Ag  Ag30  1  0.67764353  0.83539560  0.49990583  1
  Ag  Ag31  1  0.33460642  0.16261092  0.83764512  1
  Ag  Ag32  1  0.49760615  0.15409653  0.33525611  1
  Ag  Ag33  1  -0.00180269  0.66549223  0.00295621  1
  Ag  Ag34  1  0.85008889  -0.01370753  0.50114596  1
  Ag  Ag35  1  0.83478516  0.83486488  0.65627562  1
  Ag  Ag36  1  -0.00312725  0.67824939  0.65448882  1
  Ag  Ag37  1  0.84567391  0.83073663  0.34578558  1
  Ag  Ag38  1  0.32907925  0.32244735  0.00286238  1
  Ag  Ag39  1  0.50067996  0.83782350  0.33632073  1
  Ag  Ag40  1  -0.00203832  0.67920105  0.33793748  1
  Ag  Ag41  1  0.00992815  0.33799207  0.00291563  1
  Ag  Ag42  1  0.66407999  0.33137551  0.00081390  1
  Ag  Ag43  1  0.83763899  0.50746929  0.00533360  1
  Ag  Ag44  1  0.32891526  0.16167832  0.15951197  1
  Ag  Ag45  1  0.83443653  0.50867639  0.32989888  1
  Ag  Ag46  1  0.67467365  0.66729029  -0.00239911  1
  Ag  Ag47  1  0.17245956  0.16025843  0.67132172  1
  Ag  Ag48  1  0.16184528  0.49440605  0.00234522  1
  Ag  Ag49  1  0.49553523  0.32246846  0.16252890  1
  Ag  Ag50  1  0.66904744  0.67436787  0.66713628  1
  Ag  Ag51  1  0.17036017  0.00156728  0.16791853  1
  Ag  Ag52  1  0.00971611  -0.01073460  0.34358466  1
  Ag  Ag53  1  0.83855326  0.67735096  0.49801009  1
  Sb  Sb54  1  0.00277568  -0.00260554  0.00214802  1
  Sb  Sb55  1  0.83483545  0.33496469  0.16453006  1
  Sb  Sb56  1  0.16266600  0.83584481  0.00367957  1
  Sb  Sb57  1  0.83558168  -0.00273987  0.82919194  1
  Sb  Sb58  1  0.83723815  0.16443365  0.00095516  1
  Sb  Sb59  1  0.83567065  -0.00275274  0.17142772  1
  Sb  Sb60  1  0.67054737  0.83158762  0.16923065  1
  Sb  Sb61  1  0.50029343  0.49767381  0.00423459  1
  Sb  Sb62  1  0.33066127  0.67542827  0.33430352  1
  Sb  Sb63  1  0.66121755  0.16784634  0.16063333  1
  Sb  Sb64  1  0.66469271  0.33559480  0.32667302  1
  Sb  Sb65  1  0.33386948  0.49661777  0.83534624  1
  Sb  Sb66  1  0.17108653  0.15664246  0.32910667  1
  Sb  Sb67  1  0.33071815  0.66979430  -0.00021254  1
  Sb  Sb68  1  0.33475800  0.32157231  0.32617814  1
  Sb  Sb69  1  0.82836831  0.33277785  0.83775602  1
  Sb  Sb70  1  0.83952701  0.66714950  0.16943645  1
  Sb  Sb71  1  0.32788319  0.84246594  0.16498961  1
  Sb  Sb72  1  0.49082445  0.16707809  -0.00073401  1
  Sb  Sb73  1  0.16273667  0.67410875  0.50153886  1
  Sb  Sb74  1  0.33289524  0.67708194  0.66773330  1
  Sb  Sb75  1  0.33388197  0.32103631  0.67437622  1
  Sb  Sb76  1  0.49663121  0.66971483  0.16854987  1
  Sb  Sb77  1  0.16522737  0.32296992  0.49228796  1
  Sb  Sb78  1  0.66476305  0.15587119  0.50563561  1
  Sb  Sb79  1  0.66203944  0.83620935  0.82987068  1
  Sb  Sb80  1  0.00461312  0.83236784  0.83200309  1
  Sb  Sb81  1  0.50253324  0.83559215  0.00278645  1
  Sb  Sb82  1  0.33014110  0.49535160  0.49653476  1
  Sb  Sb83  1  0.33404909  0.49321828  0.16573055  1
  Sb  Sb84  1  0.83212185  0.16118633  0.33528540  1
  Sb  Sb85  1  0.83549275  0.15692315  0.66506339  1
  Sb  Sb86  1  0.67073422  0.50947503  0.49473083  1
  Sb  Sb87  1  0.17239823  0.32787168  0.84230469  1
  Sb  Sb88  1  0.50430066  0.84049189  0.66179419  1
  Sb  Sb89  1  0.83528090  0.33527515  0.49910963  1
  Sb  Sb90  1  0.00576349  0.16354891  0.83456423  1
  Sb  Sb91  1  0.83430247  0.51122645  0.66361985  1
  Sb  Sb92  1  0.66404976  -0.00197862  0.33470321  1
  Sb  Sb93  1  0.67092012  0.66925764  0.33336584  1
  Sb  Sb94  1  0.00051660  0.50215870  0.83514307  1
  Sb  Sb95  1  0.66391806  0.32880987  0.67274561  1
  Sb  Sb96  1  0.49255435  0.00096333  0.83266599  1
  Sb  Sb97  1  0.16135379  0.84143612  0.66318023  1
  Sb  Sb98  1  0.66502002  0.50038767  0.83971265  1
  Sb  Sb99  1  0.00164890  0.33138319  0.32707262  1
  Sb  Sb100  1  0.50256219  0.50006739  0.66184339  1
  Sb  Sb101  1  0.00189918  0.32839154  0.67040196  1
  Sb  Sb102  1  0.16374072  0.50836067  0.32748323  1
  Sb  Sb103  1  0.83391803  0.66917440  0.83298958  1
  Sb  Sb104  1  0.16385258  0.49967861  0.67117916  1
  Sb  Sb105  1  0.49973591  0.32668716  0.49585161  1
  Sb  Sb106  1  -0.00154988  0.50315167  0.16745055  1
  Sb  Sb107  1  0.33087596  0.84222274  0.50214172  1
  Te  Te108  1  0.16781082  0.16291186  0.16651399  1
  Te  Te109  1  0.16627321  0.16200932  0.49970774  1
  Te  Te110  1  0.17042849  0.16328113  0.83406861  1
  Te  Te111  1  0.16688538  0.50688622  0.16200788  1
  Te  Te112  1  0.16168056  0.49848511  0.49996992  1
  Te  Te113  1  0.16690454  0.50282629  0.83945844  1
  Te  Te114  1  0.16305917  0.83557436  0.16961679  1
  Te  Te115  1  0.16448597  0.83859219  0.49532537  1
  Te  Te116  1  0.17136178  0.83512689  0.83220412  1
  Te  Te117  1  0.49793599  0.16536782  0.16967078  1
  Te  Te118  1  0.49848864  0.16314086  0.50061300  1
  Te  Te119  1  0.49652479  0.16611888  0.83178749  1
  Te  Te120  1  0.50186582  0.50203266  0.17124068  1
  Te  Te121  1  0.50042748  0.49698146  0.49391164  1
  Te  Te122  1  0.49940869  0.50381579  0.83095283  1
  Te  Te123  1  0.50086591  0.83740289  0.17209574  1
  Te  Te124  1  0.49531210  0.83635564  0.49782692  1
  Te  Te125  1  0.49497503  0.82754587  0.83302243  1
  Te  Te126  1  0.84106986  0.16656400  0.16878771  1
  Te  Te127  1  0.83783655  0.16473856  0.49904746  1
  Te  Te128  1  0.82714596  0.16597528  0.83301945  1
  Te  Te129  1  0.82884008  0.50093083  0.16614306  1
  Te  Te130  1  0.83823188  0.50363230  0.49589967  1
  Te  Te131  1  0.83295947  0.50055545  0.84220817  1
  Te  Te132  1  0.83825084  0.83283604  0.16295270  1
  Te  Te133  1  0.83223552  0.83220736  0.50044275  1
  Te  Te134  1  0.83210618  0.83330977  0.84203813  1
  Te  Te135  1  0.16763129  0.00208017  0.00137489  1
  Te  Te136  1  0.16766759  -0.00155040  0.33202993  1
  Te  Te137  1  0.16801580  0.00147983  0.66588580  1
  Te  Te138  1  0.16861820  0.33248323  0.00251378  1
  Te  Te139  1  0.16842664  0.33865458  0.32281265  1
  Te  Te140  1  0.16635890  0.32653353  0.66698572  1
  Te  Te141  1  0.16574197  0.66933893  -0.00143652  1
  Te  Te142  1  0.16201165  0.67434858  0.33293982  1
  Te  Te143  1  0.16161118  0.66660062  0.67088475  1
  Te  Te144  1  0.50117594  0.00021760  0.00363745  1
  Te  Te145  1  0.50272275  -0.00158966  0.33208803  1
  Te  Te146  1  0.50347727  0.00316482  0.66776048  1
  Te  Te147  1  0.50214541  0.33372955  0.00260964  1
  Te  Te148  1  0.49981801  0.34052483  0.32722728  1
  Te  Te149  1  0.50055747  0.32781638  0.67011830  1
  Te  Te150  1  0.50021133  0.66663310  -0.00245325  1
  Te  Te151  1  0.49892561  0.66668443  0.33633976  1
  Te  Te152  1  0.50166306  0.66701616  0.66422880  1
  Te  Te153  1  0.83049784  -0.00243795  -0.00133583  1
  Te  Te154  1  0.83380877  -0.00550747  0.33924540  1
  Te  Te155  1  0.82809127  -0.00544818  0.66235421  1
  Te  Te156  1  0.82767538  0.33605583  0.00060164  1
  Te  Te157  1  0.83280620  0.34228010  0.33297666  1
  Te  Te158  1  0.83340200  0.33605916  0.66860715  1
  Te  Te159  1  0.83339343  0.66552663  -0.00068170  1
  Te  Te160  1  0.83669286  0.66896834  0.33572769  1
  Te  Te161  1  0.83496308  0.67302492  0.66509443  1
  Te  Te162  1  0.00448996  0.16836782  0.00266829  1
  Te  Te163  1  -0.00235240  0.16456728  0.33389124  1
  Te  Te164  1  0.00298049  0.16169528  0.66368267  1
  Te  Te165  1  -0.00004501  0.50100289  0.00115543  1
  Te  Te166  1  -0.00323617  0.49996082  0.33535984  1
  Te  Te167  1  -0.00090020  0.50252520  0.66140334  1
  Te  Te168  1  -0.00390948  0.82949137  -0.00060125  1
  Te  Te169  1  -0.00009011  0.83434306  0.33082122  1
  Te  Te170  1  -0.00325521  0.83483835  0.66818402  1
  Te  Te171  1  0.32949723  0.16393196  0.00013655  1
  Te  Te172  1  0.33794346  0.15986500  0.33602955  1
  Te  Te173  1  0.33269162  0.16116604  0.66590853  1
  Te  Te174  1  0.32694874  0.49707345  0.00067709  1
  Te  Te175  1  0.33717889  0.50139588  0.33347245  1
  Te  Te176  1  0.33278162  0.49719704  0.66529831  1
  Te  Te177  1  0.33357494  0.83837660  -0.00457421  1
  Te  Te178  1  0.33955187  0.84043416  0.33274431  1
  Te  Te179  1  0.33308100  0.84164729  0.67301811  1
  Te  Te180  1  0.66992632  0.16552832  -0.00318873  1
  Te  Te181  1  0.66008336  0.16828024  0.33333467  1
  Te  Te182  1  0.66562102  0.16192256  0.67231226  1
  Te  Te183  1  0.66681334  0.50299890  0.00296379  1
  Te  Te184  1  0.66831723  0.50201906  0.32746426  1
  Te  Te185  1  0.66825651  0.50798738  0.66593400  1
  Te  Te186  1  0.66988768  0.83238297  0.00061067  1
  Te  Te187  1  0.66247271  0.83271002  0.33768065  1
  Te  Te188  1  0.66983656  0.83260150  0.66395878  1
  Te  Te189  1  0.00190258  -0.00135713  0.16666102  1
  Te  Te190  1  0.00411695  -0.00327420  0.49993125  1
  Te  Te191  1  0.00726879  0.00008727  0.82923513  1
  Te  Te192  1  0.00385237  0.33165390  0.16121991  1
  Te  Te193  1  0.00050719  0.33507751  0.50051059  1
  Te  Te194  1  0.00017191  0.33285673  0.84116064  1
  Te  Te195  1  0.00367976  0.66859578  0.16386079  1
  Te  Te196  1  0.00088526  0.67237398  0.49846914  1
  Te  Te197  1  0.00538131  0.66606278  0.83997010  1
  Te  Te198  1  0.33153242  0.00214597  0.16582003  1
  Te  Te199  1  0.33545105  0.00248652  0.50048163  1
  Te  Te200  1  0.33231924  0.00351849  0.83607115  1
  Te  Te201  1  0.33376282  0.32711479  0.16204479  1
  Te  Te202  1  0.33204599  0.32462141  0.50074193  1
  Te  Te203  1  0.33970506  0.32750312  0.84092510  1
  Te  Te204  1  0.32516117  0.66683412  0.16732425  1
  Te  Te205  1  0.33895718  0.66457741  0.50158778  1
  Te  Te206  1  0.33288317  0.66422500  0.83223569  1
  Te  Te207  1  0.66592629  -0.00030151  0.16043657  1
  Te  Te208  1  0.65598132  -0.00418980  0.50281746  1
  Te  Te209  1  0.66713897  0.00141661  0.83422121  1
  Te  Te210  1  0.66239409  0.33595065  0.16029985  1
  Te  Te211  1  0.66718194  0.33325683  0.50214876  1
  Te  Te212  1  0.65993044  0.32972067  0.83894829  1
  Te  Te213  1  0.66422077  0.66372308  0.15925188  1
  Te  Te214  1  0.66522968  0.67212425  0.50102298  1
  Te  Te215  1  0.66348994  0.66748153  0.83363043  1
