# generated using pymatgen
data_AgSbTe2
_symmetry_space_group_name_H-M   'P 1'
_cell_length_a   18.33846668
_cell_length_b   18.34830119
_cell_length_c   18.34233649
_cell_angle_alpha   89.99722721
_cell_angle_beta   89.99486050
_cell_angle_gamma   90.00063558
_symmetry_Int_Tables_number   1
_chemical_formula_structural   AgSbTe2
_chemical_formula_sum   'Ag54 Sb54 Te108'
_cell_volume   6171.82402773
_cell_formula_units_Z   54
loop_
 _symmetry_equiv_pos_site_id
 _symmetry_equiv_pos_as_xyz
  1  'x, y, z'
loop_
 _atom_site_type_symbol
 _atom_site_label
 _atom_site_symmetry_multiplicity
 _atom_site_fract_x
 _atom_site_fract_y
 _atom_site_fract_z
 _atom_site_occupancy
  Ag  Ag0  1  0.33685796  -0.00024395  -0.00929739  1
  Ag  Ag1  1  0.00046806  0.66365943  0.33499229  1
  Ag  Ag2  1  0.00987611  0.17474187  0.18102396  1
  Ag  Ag3  1  0.33556609  0.16217293  0.82331411  1
  Ag  Ag4  1  0.49791821  0.82269593  0.66873542  1
  Ag  Ag5  1  0.00450368  0.48891457  0.49524800  1
  Ag  Ag6  1  0.65999010  0.33381866  0.66451683  1
  Ag  Ag7  1  0.67228628  0.33276388  0.33421281  1
  Ag  Ag8  1  0.49813247  0.66295982  0.16446200  1
  Ag  Ag9  1  0.49571039  -0.00407585  0.82309813  1
  Ag  Ag10  1  0.83815675  0.32923841  0.49505471  1
  Ag  Ag11  1  0.17841852  0.49234897  0.66338440  1
  Ag  Ag12  1  -0.00409929  0.32827124  0.33423345  1
  Ag  Ag13  1  0.65330306  0.00173259  0.66353056  1
  Ag  Ag14  1  0.66222010  0.82922164  0.17687425  1
  Ag  Ag15  1  0.16284020  0.32988441  0.49644141  1
  Ag  Ag16  1  0.66483103  0.83213914  0.49939068  1
  Ag  Ag17  1  0.00387985  0.17262330  0.83003261  1
  Ag  Ag18  1  0.50143808  0.50590042  -0.00644781  1
  Ag  Ag19  1  0.49702502  0.67001198  0.82344948  1
  Ag  Ag20  1  0.66545485  0.33616194  0.00109556  1
  Ag  Ag21  1  0.49715788  0.82364963  -0.01068501  1
  Ag  Ag22  1  0.33656462  0.00869723  0.67014941  1
  Ag  Ag23  1  0.33037830  0.49117737  0.50710948  1
  Ag  Ag24  1  0.33787967  0.84113257  0.83166103  1
  Ag  Ag25  1  0.50130719  0.66987264  0.51144810  1
  Ag  Ag26  1  -0.00313104  0.49461744  0.83158168  1
  Ag  Ag27  1  0.34002645  0.66830797  -0.00497995  1
  Ag  Ag28  1  0.34087828  0.66137344  0.66818272  1
  Ag  Ag29  1  0.00291993  0.01565629  0.33652894  1
  Ag  Ag30  1  0.00260558  0.49172754  0.17723329  1
  Ag  Ag31  1  0.66496475  0.66472481  0.33673911  1
  Ag  Ag32  1  0.16253388  0.83973107  0.33318181  1
  Ag  Ag33  1  0.83511568  0.33293141  0.17495051  1
  Ag  Ag34  1  0.00798186  0.16980402  0.49222371  1
  Ag  Ag35  1  -0.00223647  0.83580783  0.49540349  1
  Ag  Ag36  1  0.33744943  0.33123693  0.66385314  1
  Ag  Ag37  1  0.32780536  0.16868912  0.17299530  1
  Ag  Ag38  1  0.17198163  0.66438288  0.17130128  1
  Ag  Ag39  1  0.16898367  0.01228902  0.17155503  1
  Ag  Ag40  1  0.15983609  0.16659114  0.33605684  1
  Ag  Ag41  1  0.49650091  0.50820618  0.66852580  1
  Ag  Ag42  1  0.82441337  0.49702612  0.00058168  1
  Ag  Ag43  1  0.83235425  0.00797420  0.49913184  1
  Ag  Ag44  1  0.65631701  0.17489269  0.82861574  1
  Ag  Ag45  1  0.50170801  0.33567668  0.16836474  1
  Ag  Ag46  1  0.32821402  0.17016287  0.50430740  1
  Ag  Ag47  1  0.66188335  0.49475907  0.83121605  1
  Ag  Ag48  1  0.49831605  0.16758110  0.33377452  1
  Ag  Ag49  1  0.65408875  0.66545781  0.66089199  1
  Ag  Ag50  1  0.15986354  0.32862704  0.17484002  1
  Ag  Ag51  1  0.84604180  0.17087256  0.33584307  1
  Ag  Ag52  1  0.50230246  -0.00332786  0.50815237  1
  Ag  Ag53  1  0.17184188  0.17310148  0.65619006  1
  Sb  Sb54  1  0.33754053  0.49767058  0.82773287  1
  Sb  Sb55  1  0.17438752  0.83446274  0.65883991  1
  Sb  Sb56  1  0.83074221  0.66317535  0.49786617  1
  Sb  Sb57  1  0.16988243  0.49926766  -0.00224584  1
  Sb  Sb58  1  0.16850158  0.16802229  0.00482336  1
  Sb  Sb59  1  0.16618127  0.33245922  0.82990411  1
  Sb  Sb60  1  0.33821487  0.33281383  -0.00234094  1
  Sb  Sb61  1  0.49867247  0.83535528  0.33702234  1
  Sb  Sb62  1  0.00243876  0.33347927  0.65879962  1
  Sb  Sb63  1  0.66774706  0.49888586  0.16327322  1
  Sb  Sb64  1  0.49798555  0.16820498  0.00139361  1
  Sb  Sb65  1  0.83262998  0.65954185  0.16915402  1
  Sb  Sb66  1  0.33682323  0.83581789  0.16295337  1
  Sb  Sb67  1  0.82266819  0.82769313  0.00278434  1
  Sb  Sb68  1  0.32951073  0.00354172  0.33651710  1
  Sb  Sb69  1  0.00598870  0.00224555  0.00511747  1
  Sb  Sb70  1  0.65738150  0.66124083  -0.00031136  1
  Sb  Sb71  1  0.17425763  0.66381769  0.83479992  1
  Sb  Sb72  1  0.49428550  0.16610958  0.66228892  1
  Sb  Sb73  1  0.82384488  0.66399881  0.83253755  1
  Sb  Sb74  1  0.17435192  0.00404231  0.83580327  1
  Sb  Sb75  1  0.82547903  0.00358894  0.82571984  1
  Sb  Sb76  1  0.00910614  0.83346299  0.82556354  1
  Sb  Sb77  1  0.65730945  0.83153282  0.82915051  1
  Sb  Sb78  1  0.65906284  0.00354545  -0.00505629  1
  Sb  Sb79  1  0.66582125  0.16503500  0.50308267  1
  Sb  Sb80  1  0.66504045  0.16787575  0.16733270  1
  Sb  Sb81  1  0.82247922  0.83425359  0.66345881  1
  Sb  Sb82  1  0.16362939  0.49506123  0.33715369  1
  Sb  Sb83  1  0.83092482  0.49756311  0.66803700  1
  Sb  Sb84  1  0.49896402  0.33252539  0.49827118  1
  Sb  Sb85  1  0.33094863  0.32987695  0.33720951  1
  Sb  Sb86  1  0.50132903  0.49864556  0.33551972  1
  Sb  Sb87  1  0.83769129  0.00691308  0.17324870  1
  Sb  Sb88  1  0.83643675  0.16872608  0.65995530  1
  Sb  Sb89  1  0.83651689  0.83794767  0.33521438  1
  Sb  Sb90  1  -0.00476945  0.33468510  0.00814118  1
  Sb  Sb91  1  -0.00060560  0.83339440  0.17365384  1
  Sb  Sb92  1  0.33558579  0.83615718  0.50434653  1
  Sb  Sb93  1  0.17384433  0.83312850  0.00613301  1
  Sb  Sb94  1  0.49580217  0.00108991  0.16790173  1
  Sb  Sb95  1  0.16807872  0.00681064  0.49643552  1
  Sb  Sb96  1  0.17133721  0.66151380  0.49620147  1
  Sb  Sb97  1  0.83522745  0.49175201  0.33094395  1
  Sb  Sb98  1  0.33101123  0.49645115  0.17039956  1
  Sb  Sb99  1  0.00378410  0.66274058  0.66059588  1
  Sb  Sb100  1  0.00448770  0.00322832  0.65940643  1
  Sb  Sb101  1  0.66537060  0.50099732  0.50513950  1
  Sb  Sb102  1  0.83241278  0.17155211  0.00446704  1
  Sb  Sb103  1  0.66972270  0.00253424  0.33892552  1
  Sb  Sb104  1  0.50204188  0.33326005  0.83305547  1
  Sb  Sb105  1  0.83197928  0.33325821  0.83215732  1
  Sb  Sb106  1  0.33610698  0.66745181  0.33461261  1
  Sb  Sb107  1  0.00647128  0.66386083  0.00578866  1
  Te  Te108  1  0.16667929  0.16957673  0.16787307  1
  Te  Te109  1  0.16755032  0.16816240  0.49766943  1
  Te  Te110  1  0.16947645  0.16726961  0.83231201  1
  Te  Te111  1  0.16333025  0.50117213  0.16567316  1
  Te  Te112  1  0.16584913  0.49589589  0.50351588  1
  Te  Te113  1  0.16056879  0.49952151  0.82735694  1
  Te  Te114  1  0.16596350  0.82592219  0.17227608  1
  Te  Te115  1  0.16288628  0.83247354  0.49443134  1
  Te  Te116  1  0.17563238  0.83304261  0.83292368  1
  Te  Te117  1  0.49693910  0.16906885  0.16952515  1
  Te  Te118  1  0.49639878  0.16463498  0.49524222  1
  Te  Te119  1  0.49878500  0.16379365  0.83519927  1
  Te  Te120  1  0.49917880  0.49856932  0.16656798  1
  Te  Te121  1  0.49784329  0.50425578  0.50330285  1
  Te  Te122  1  0.50187775  0.49946544  0.83270414  1
  Te  Te123  1  0.50256338  0.83296415  0.16916689  1
  Te  Te124  1  0.50183588  0.83301133  0.50203832  1
  Te  Te125  1  0.49723254  0.83308616  0.83090812  1
  Te  Te126  1  0.83626985  0.17204390  0.17127445  1
  Te  Te127  1  0.83289382  0.16787551  0.49606261  1
  Te  Te128  1  0.83809525  0.16587611  0.83462535  1
  Te  Te129  1  0.83881568  0.49325716  0.16190316  1
  Te  Te130  1  0.84073813  0.49484745  0.50020377  1
  Te  Te131  1  0.83479508  0.50011551  0.83835692  1
  Te  Te132  1  0.82524349  0.83363188  0.16636045  1
  Te  Te133  1  0.83204098  0.83609252  0.50023783  1
  Te  Te134  1  0.83666576  0.83353332  0.83394247  1
  Te  Te135  1  0.17433179  -0.00170904  0.00894833  1
  Te  Te136  1  0.16347399  0.00253411  0.33124378  1
  Te  Te137  1  0.17340915  0.00324245  0.66750717  1
  Te  Te138  1  0.16797143  0.33526294  0.00968247  1
  Te  Te139  1  0.16479485  0.32934190  0.33443544  1
  Te  Te140  1  0.16826300  0.33302842  0.66402801  1
  Te  Te141  1  0.17551220  0.66694048  0.00636569  1
  Te  Te142  1  0.16612415  0.66513706  0.33099386  1
  Te  Te143  1  0.17280716  0.66455702  0.66609644  1
  Te  Te144  1  0.49547213  -0.00285205  -0.00009045  1
  Te  Te145  1  0.50068527  0.00359359  0.33674756  1
  Te  Te146  1  0.49691372  0.00609390  0.66609986  1
  Te  Te147  1  0.50421687  0.33783078  0.00329577  1
  Te  Te148  1  0.50311233  0.33172867  0.33037069  1
  Te  Te149  1  0.50003111  0.33756474  0.66532528  1
  Te  Te150  1  0.49773139  0.66584053  0.00685374  1
  Te  Te151  1  0.50319143  0.66770592  0.32557569  1
  Te  Te152  1  0.49854106  0.66588959  0.66768663  1
  Te  Te153  1  0.83302447  -0.00231607  0.00069366  1
  Te  Te154  1  0.83886506  0.00659553  0.33878376  1
  Te  Te155  1  0.83032284  0.00039943  0.65820936  1
  Te  Te156  1  0.82708488  0.33767271  0.00251316  1
  Te  Te157  1  0.83363270  0.33082634  0.33412862  1
  Te  Te158  1  0.82476200  0.33307073  0.66106035  1
  Te  Te159  1  0.83367159  0.65897493  0.00058540  1
  Te  Te160  1  0.82933380  0.66790724  0.33304302  1
  Te  Te161  1  0.82439681  0.66657490  0.66608920  1
  Te  Te162  1  -0.00015907  0.16654001  -0.00967769  1
  Te  Te163  1  0.00174220  0.17144049  0.33608896  1
  Te  Te164  1  0.00606729  0.16715883  0.67023378  1
  Te  Te165  1  0.00182785  0.50084123  -0.00620471  1
  Te  Te166  1  -0.00057107  0.50259169  0.33485262  1
  Te  Te167  1  0.00013419  0.50016490  0.66704628  1
  Te  Te168  1  -0.00192471  0.83304462  -0.00320284  1
  Te  Te169  1  0.00213624  0.82470202  0.33701442  1
  Te  Te170  1  0.00101199  0.83305066  0.65863273  1
  Te  Te171  1  0.33370421  0.16410744  -0.00025766  1
  Te  Te172  1  0.33622004  0.16704010  0.33176711  1
  Te  Te173  1  0.33183616  0.16890687  0.66456575  1
  Te  Te174  1  0.33856566  0.50218955  0.00003721  1
  Te  Te175  1  0.33306556  0.50027148  0.34461991  1
  Te  Te176  1  0.33534170  0.49894777  0.66663003  1
  Te  Te177  1  0.33813818  0.83227073  -0.00312698  1
  Te  Te178  1  0.32477783  0.83462418  0.33282062  1
  Te  Te179  1  0.33760982  0.83181443  0.66924339  1
  Te  Te180  1  0.66669717  0.17279774  -0.00674159  1
  Te  Te181  1  0.66057012  0.16999832  0.33281703  1
  Te  Te182  1  0.66926030  0.16840642  0.66970596  1
  Te  Te183  1  0.66345807  0.49675161  -0.00317356  1
  Te  Te184  1  0.66785788  0.49972291  0.33388003  1
  Te  Te185  1  0.66444379  0.49833748  0.66960233  1
  Te  Te186  1  0.65862910  0.83375512  0.00031171  1
  Te  Te187  1  0.66664396  0.83282816  0.33710591  1
  Te  Te188  1  0.65900274  0.83411648  0.66295901  1
  Te  Te189  1  0.00531728  0.00236579  0.17210489  1
  Te  Te190  1  -0.00009231  0.00320736  0.49668089  1
  Te  Te191  1  -0.00015836  0.00056790  0.83357214  1
  Te  Te192  1  -0.00015930  0.33359890  0.16945297  1
  Te  Te193  1  0.00049659  0.33108286  0.49822572  1
  Te  Te194  1  -0.00032284  0.33410586  0.83377456  1
  Te  Te195  1  0.00096703  0.66476562  0.17150449  1
  Te  Te196  1  -0.00084255  0.66884459  0.49627271  1
  Te  Te197  1  0.00001144  0.66593826  0.83201298  1
  Te  Te198  1  0.32964341  0.00396044  0.16702171  1
  Te  Te199  1  0.33748795  0.00348908  0.50442944  1
  Te  Te200  1  0.33612026  0.00172338  0.83235880  1
  Te  Te201  1  0.33760798  0.33025878  0.16592369  1
  Te  Te202  1  0.33229506  0.33191454  0.50327100  1
  Te  Te203  1  0.33327774  0.32602902  0.82872585  1
  Te  Te204  1  0.33442555  0.66504352  0.16710487  1
  Te  Te205  1  0.33927633  0.66841232  0.50245388  1
  Te  Te206  1  0.33806119  0.66329624  0.83344401  1
  Te  Te207  1  0.66778172  -0.00390990  0.16584154  1
  Te  Te208  1  0.66478858  -0.00186991  0.50303674  1
  Te  Te209  1  0.66052053  0.00201985  0.82705222  1
  Te  Te210  1  0.66445315  0.33230788  0.17030602  1
  Te  Te211  1  0.66779404  0.33338509  0.49860122  1
  Te  Te212  1  0.66724649  0.33387851  0.83092777  1
  Te  Te213  1  0.66486137  0.66701537  0.16902175  1
  Te  Te214  1  0.66400190  0.66749248  0.49911248  1
  Te  Te215  1  0.65893596  0.66344077  0.82913975  1
