# generated using pymatgen
data_AgSbTe2
_symmetry_space_group_name_H-M   'P 1'
_cell_length_a   18.32948587
_cell_length_b   18.33308136
_cell_length_c   18.33348750
_cell_angle_alpha   89.99761872
_cell_angle_beta   90.00177149
_cell_angle_gamma   90.00300271
_symmetry_Int_Tables_number   1
_chemical_formula_structural   AgSbTe2
_chemical_formula_sum   'Ag54 Sb54 Te108'
_cell_volume   6160.71097627
_cell_formula_units_Z   54
loop_
 _symmetry_equiv_pos_site_id
 _symmetry_equiv_pos_as_xyz
  1  'x, y, z'
loop_
 _atom_site_type_symbol
 _atom_site_label
 _atom_site_symmetry_multiplicity
 _atom_site_fract_x
 _atom_site_fract_y
 _atom_site_fract_z
 _atom_site_occupancy
  Ag  Ag0  1  0.32873462  0.82634116  0.83651036  1
  Ag  Ag1  1  0.33182359  0.49329148  0.50402135  1
  Ag  Ag2  1  0.84021966  0.17355271  0.66198033  1
  Ag  Ag3  1  0.00226290  0.83187298  0.15817539  1
  Ag  Ag4  1  0.67422652  0.00759532  -0.00386830  1
  Ag  Ag5  1  0.49645513  0.82958376  -0.00334899  1
  Ag  Ag6  1  0.83718606  0.33628722  0.17672953  1
  Ag  Ag7  1  -0.00639351  0.49530660  0.50377045  1
  Ag  Ag8  1  -0.00222970  0.32990245  0.00013961  1
  Ag  Ag9  1  0.33654088  0.65506270  -0.00034082  1
  Ag  Ag10  1  0.49768527  0.50025300  0.66794202  1
  Ag  Ag11  1  0.83987657  0.01082043  0.50025576  1
  Ag  Ag12  1  0.16170125  0.01390681  0.50080263  1
  Ag  Ag13  1  0.82955067  0.66013485  0.17184563  1
  Ag  Ag14  1  0.67045397  0.65969813  0.33308540  1
  Ag  Ag15  1  0.66712377  0.00196040  0.66854325  1
  Ag  Ag16  1  0.16928883  0.66283174  0.83083569  1
  Ag  Ag17  1  0.50170248  0.66496152  0.50030098  1
  Ag  Ag18  1  0.83428306  0.16867904  -0.00037401  1
  Ag  Ag19  1  0.16836185  0.83760714  0.66889047  1
  Ag  Ag20  1  -0.00180992  0.01097487  0.33566780  1
  Ag  Ag21  1  -0.00295098  0.16900804  0.83427973  1
  Ag  Ag22  1  0.67786171  0.16879213  0.83458436  1
  Ag  Ag23  1  0.49415786  0.49497897  -0.00142673  1
  Ag  Ag24  1  0.32539402  0.33533203  0.67127635  1
  Ag  Ag25  1  0.16962570  0.33380626  0.82588771  1
  Ag  Ag26  1  0.32614865  0.17516533  0.49910810  1
  Ag  Ag27  1  -0.00642724  0.32900529  0.33975001  1
  Ag  Ag28  1  0.00479921  0.33392330  0.66191354  1
  Ag  Ag29  1  0.00642376  0.83811591  0.83604778  1
  Ag  Ag30  1  0.16132723  0.17072384  0.66211401  1
  Ag  Ag31  1  0.66706343  0.32846979  0.00290082  1
  Ag  Ag32  1  0.49302025  0.82712403  0.67201996  1
  Ag  Ag33  1  0.83106913  0.65527561  0.49552418  1
  Ag  Ag34  1  0.33628660  0.49555200  0.15563006  1
  Ag  Ag35  1  0.83513459  0.84254803  0.00142610  1
  Ag  Ag36  1  0.49076855  0.33513312  0.84015146  1
  Ag  Ag37  1  0.16837358  0.33175326  0.16508805  1
  Ag  Ag38  1  0.33441369  0.49508114  0.83652309  1
  Ag  Ag39  1  0.49988086  -0.00260016  0.50338614  1
  Ag  Ag40  1  0.48965146  0.34121120  0.16041034  1
  Ag  Ag41  1  0.33094806  0.17931459  0.16693535  1
  Ag  Ag42  1  0.83434405  0.48890343  0.34237492  1
  Ag  Ag43  1  0.83761421  0.48981306  0.65955468  1
  Ag  Ag44  1  0.84267079  0.33578299  0.49041716  1
  Ag  Ag45  1  0.33725719  0.33662324  -0.00006923  1
  Ag  Ag46  1  0.67828204  0.33456013  0.32809303  1
  Ag  Ag47  1  -0.00533649  0.00579535  0.00169439  1
  Ag  Ag48  1  0.49831644  0.66180356  0.16539620  1
  Ag  Ag49  1  0.33120554  0.82822734  0.15684209  1
  Ag  Ag50  1  0.15839028  0.17089991  0.34384193  1
  Ag  Ag51  1  0.16044736  0.33094208  0.50358898  1
  Ag  Ag52  1  0.84037676  0.17774292  0.33997132  1
  Ag  Ag53  1  0.00024379  0.65797331  0.66708096  1
  Sb  Sb54  1  0.32981301  0.17256776  0.83321364  1
  Sb  Sb55  1  0.84012306  0.66585628  0.83222972  1
  Sb  Sb56  1  0.50288666  0.49831665  0.33378679  1
  Sb  Sb57  1  0.00233673  0.16907335  0.16502734  1
  Sb  Sb58  1  0.66626381  0.83389574  0.50127232  1
  Sb  Sb59  1  0.16433856  0.00526338  0.17091741  1
  Sb  Sb60  1  0.32978293  0.00291250  0.33571526  1
  Sb  Sb61  1  0.66823613  0.83221315  0.16369303  1
  Sb  Sb62  1  0.83435648  0.00301367  0.83172781  1
  Sb  Sb63  1  0.16134653  0.49188568  0.33525766  1
  Sb  Sb64  1  0.33796829  0.66377001  0.32846450  1
  Sb  Sb65  1  0.66882983  0.33000949  0.66852056  1
  Sb  Sb66  1  -0.00569186  0.66324681  0.33719678  1
  Sb  Sb67  1  0.83560513  0.83555635  0.67044914  1
  Sb  Sb68  1  0.32966116  0.33347186  0.33133402  1
  Sb  Sb69  1  0.16784330  0.49367405  0.66651868  1
  Sb  Sb70  1  0.16124700  0.17031404  -0.00212142  1
  Sb  Sb71  1  0.82863646  0.49466685  0.00051467  1
  Sb  Sb72  1  0.50035786  0.00307353  0.83106754  1
  Sb  Sb73  1  0.83603676  0.00387008  0.16663622  1
  Sb  Sb74  1  0.50158011  0.16960932  0.33407901  1
  Sb  Sb75  1  0.00369963  0.17394830  0.50375572  1
  Sb  Sb76  1  0.33244357  0.00288571  0.00007171  1
  Sb  Sb77  1  0.49913270  0.17004440  0.66578641  1
  Sb  Sb78  1  0.83850312  0.33172922  0.83241931  1
  Sb  Sb79  1  0.32968417  0.66039139  0.67128329  1
  Sb  Sb80  1  0.16474333  0.00358782  0.82792707  1
  Sb  Sb81  1  0.67390284  0.00439724  0.33422131  1
  Sb  Sb82  1  0.00170966  0.49841157  0.16902075  1
  Sb  Sb83  1  0.16624061  0.66242404  0.50620494  1
  Sb  Sb84  1  0.66149776  0.49691848  0.16740016  1
  Sb  Sb85  1  0.33476059  0.00454270  0.66565691  1
  Sb  Sb86  1  0.00224418  0.66484846  -0.00350173  1
  Sb  Sb87  1  -0.00266634  0.00490181  0.66457332  1
  Sb  Sb88  1  0.66215124  0.66459959  0.00403185  1
  Sb  Sb89  1  0.83574072  0.83315183  0.32867809  1
  Sb  Sb90  1  0.49918944  0.83171159  0.33160418  1
  Sb  Sb91  1  0.49928134  -0.00095105  0.16791288  1
  Sb  Sb92  1  -0.00097936  0.83110814  0.50341884  1
  Sb  Sb93  1  0.16682563  0.83435322  -0.00551543  1
  Sb  Sb94  1  0.66845451  0.67003618  0.66315188  1
  Sb  Sb95  1  0.16441429  0.83952949  0.33742637  1
  Sb  Sb96  1  0.17244018  0.49520592  -0.00123196  1
  Sb  Sb97  1  0.66037814  0.49148150  0.83314320  1
  Sb  Sb98  1  0.66916415  0.49865765  0.49988830  1
  Sb  Sb99  1  0.00570720  0.49502025  0.82840746  1
  Sb  Sb100  1  0.50361406  0.17116960  -0.00025393  1
  Sb  Sb101  1  0.66637629  0.17174817  0.16248119  1
  Sb  Sb102  1  0.16934097  0.66322014  0.16228777  1
  Sb  Sb103  1  0.49851682  0.33580716  0.49937821  1
  Sb  Sb104  1  0.33392267  0.83137316  0.50344610  1
  Sb  Sb105  1  0.49460207  0.66249586  0.83496172  1
  Sb  Sb106  1  0.66570379  0.83773272  0.83489727  1
  Sb  Sb107  1  0.66917600  0.16739766  0.50442995  1
  Te  Te108  1  0.17107569  0.17174862  0.16835068  1
  Te  Te109  1  0.16671413  0.16967815  0.50129984  1
  Te  Te110  1  0.16233794  0.17126066  0.82756462  1
  Te  Te111  1  0.17386413  0.49472002  0.16816675  1
  Te  Te112  1  0.17022652  0.49462430  0.49982289  1
  Te  Te113  1  0.17332826  0.49875924  0.83282992  1
  Te  Te114  1  0.16691953  0.83242946  0.16729883  1
  Te  Te115  1  0.16731502  0.83382096  0.50682818  1
  Te  Te116  1  0.16625653  0.83740632  0.82919598  1
  Te  Te117  1  0.49256854  0.16831668  0.16794457  1
  Te  Te118  1  0.49293812  0.16351861  0.49998681  1
  Te  Te119  1  0.49892716  0.17302957  0.83240562  1
  Te  Te120  1  0.49551259  0.50114169  0.16714905  1
  Te  Te121  1  0.49700856  0.50325574  0.50224843  1
  Te  Te122  1  0.49507990  0.49658789  0.83216144  1
  Te  Te123  1  0.49695929  0.83081768  0.16338279  1
  Te  Te124  1  0.49875487  0.83107741  0.50362968  1
  Te  Te125  1  0.49832146  0.83298720  0.83356716  1
  Te  Te126  1  0.83332237  0.17208704  0.16312318  1
  Te  Te127  1  0.83411595  0.16953000  0.50125266  1
  Te  Te128  1  0.83621477  0.16709658  0.83449255  1
  Te  Te129  1  0.83453996  0.49969287  0.16723342  1
  Te  Te130  1  0.83320606  0.49826377  0.50220152  1
  Te  Te131  1  0.83170488  0.50043691  0.82542063  1
  Te  Te132  1  0.83646584  0.83135675  0.16114831  1
  Te  Te133  1  0.83412798  0.83079865  0.50076293  1
  Te  Te134  1  0.83854570  0.83284426  0.84017854  1
  Te  Te135  1  0.15784509  0.00228796  0.00162764  1
  Te  Te136  1  0.16033996  0.00669908  0.33972484  1
  Te  Te137  1  0.16670731  0.00292122  0.66086967  1
  Te  Te138  1  0.16489630  0.33247682  0.00275818  1
  Te  Te139  1  0.16229565  0.32892834  0.33497884  1
  Te  Te140  1  0.16626846  0.33199894  0.66517780  1
  Te  Te141  1  0.17345648  0.66681637  -0.00624470  1
  Te  Te142  1  0.16517631  0.66743612  0.33394642  1
  Te  Te143  1  0.16245024  0.67211165  0.67037764  1
  Te  Te144  1  0.50192251  -0.00518644  -0.00018977  1
  Te  Te145  1  0.50431892  0.00024802  0.34165460  1
  Te  Te146  1  0.50253499  -0.00093785  0.66351687  1
  Te  Te147  1  0.49793021  0.33315469  0.00113656  1
  Te  Te148  1  0.50906944  0.33332141  0.32652715  1
  Te  Te149  1  0.50003147  0.33831796  0.66668307  1
  Te  Te150  1  0.49746589  0.66806230  0.00205866  1
  Te  Te151  1  0.50610398  0.66640688  0.33335337  1
  Te  Te152  1  0.50058211  0.66629833  0.66479110  1
  Te  Te153  1  0.83449954  0.00195387  0.00043648  1
  Te  Te154  1  0.83718311  0.00263438  0.33780078  1
  Te  Te155  1  0.82969634  0.00252043  0.66090981  1
  Te  Te156  1  0.83331171  0.33147680  -0.00142250  1
  Te  Te157  1  0.83582986  0.33285290  0.33338265  1
  Te  Te158  1  0.83413625  0.33237005  0.66675362  1
  Te  Te159  1  0.83187894  0.66348049  0.00507363  1
  Te  Te160  1  0.83061543  0.66692155  0.33370314  1
  Te  Te161  1  0.83687937  0.66734112  0.66265124  1
  Te  Te162  1  -0.00393569  0.16791274  -0.00114426  1
  Te  Te163  1  -0.00108753  0.16807784  0.32964322  1
  Te  Te164  1  -0.00064224  0.16926331  0.67089517  1
  Te  Te165  1  -0.00146823  0.49351717  -0.00111992  1
  Te  Te166  1  -0.00540753  0.49504377  0.33764270  1
  Te  Te167  1  -0.00168718  0.49737156  0.66433723  1
  Te  Te168  1  -0.00101010  0.82936368  -0.00247255  1
  Te  Te169  1  0.00118139  0.83511367  0.32914113  1
  Te  Te170  1  0.00285642  0.83618100  0.67159421  1
  Te  Te171  1  0.33213333  0.17123422  0.00382187  1
  Te  Te172  1  0.33131309  0.16627690  0.33346221  1
  Te  Te173  1  0.33024735  0.17279279  0.66430790  1
  Te  Te174  1  0.33641002  0.49719029  -0.00183872  1
  Te  Te175  1  0.33260029  0.50063871  0.34087300  1
  Te  Te176  1  0.33524607  0.49628099  0.66636244  1
  Te  Te177  1  0.33443965  0.83791265  -0.00232803  1
  Te  Te178  1  0.33205016  0.83341972  0.32519709  1
  Te  Te179  1  0.33329738  0.83230413  0.66991210  1
  Te  Te180  1  0.66997865  0.16777049  -0.00319837  1
  Te  Te181  1  0.67462918  0.17054658  0.33310932  1
  Te  Te182  1  0.66885183  0.16276419  0.67173289  1
  Te  Te183  1  0.65685326  0.49325599  -0.00091732  1
  Te  Te184  1  0.67374956  0.49855475  0.33344105  1
  Te  Te185  1  0.66272079  0.50116443  0.66761021  1
  Te  Te186  1  0.66855872  0.83489152  -0.00131886  1
  Te  Te187  1  0.66699124  0.83054285  0.33201861  1
  Te  Te188  1  0.66164827  0.83976443  0.66905284  1
  Te  Te189  1  -0.00004054  -0.00684598  0.16381481  1
  Te  Te190  1  -0.00092658  -0.00302920  0.49738284  1
  Te  Te191  1  0.00033188  0.00085510  0.83789380  1
  Te  Te192  1  0.00025659  0.33555056  0.16282271  1
  Te  Te193  1  0.00036712  0.33530171  0.50171400  1
  Te  Te194  1  0.00533411  0.33077710  0.83449877  1
  Te  Te195  1  -0.00058960  0.66920519  0.16632144  1
  Te  Te196  1  -0.00238376  0.66119555  0.50502431  1
  Te  Te197  1  0.00714955  0.66701386  0.82842743  1
  Te  Te198  1  0.33272421  -0.00652626  0.16722473  1
  Te  Te199  1  0.33359406  -0.00010125  0.49990977  1
  Te  Te200  1  0.33293849  -0.00846193  0.83410968  1
  Te  Te201  1  0.33291117  0.33614602  0.16812805  1
  Te  Te202  1  0.33468402  0.33315834  0.49817809  1
  Te  Te203  1  0.33076096  0.33305755  0.83375692  1
  Te  Te204  1  0.33583696  0.66660588  0.16207741  1
  Te  Te205  1  0.33705194  0.66337217  0.49921567  1
  Te  Te206  1  0.33008493  0.66649509  0.83719532  1
  Te  Te207  1  0.66681176  0.00135704  0.16005611  1
  Te  Te208  1  0.66600915  0.00057262  0.50223233  1
  Te  Te209  1  0.66642865  0.00626795  0.83469124  1
  Te  Te210  1  0.67247401  0.33238867  0.16396483  1
  Te  Te211  1  0.66914367  0.33128979  0.49641286  1
  Te  Te212  1  0.66174804  0.32735453  0.83658821  1
  Te  Te213  1  0.66683853  0.66581369  0.17087071  1
  Te  Te214  1  0.66655981  0.66741504  0.49563062  1
  Te  Te215  1  0.66830514  0.66687452  0.83361129  1
