# generated using pymatgen
data_AgSbTe2
_symmetry_space_group_name_H-M   'P 1'
_cell_length_a   18.36276340
_cell_length_b   18.36662987
_cell_length_c   18.36053928
_cell_angle_alpha   90.00231371
_cell_angle_beta   90.01078031
_cell_angle_gamma   90.00184714
_symmetry_Int_Tables_number   1
_chemical_formula_structural   AgSbTe2
_chemical_formula_sum   'Ag54 Sb54 Te108'
_cell_volume   6192.31352546
_cell_formula_units_Z   54
loop_
 _symmetry_equiv_pos_site_id
 _symmetry_equiv_pos_as_xyz
  1  'x, y, z'
loop_
 _atom_site_type_symbol
 _atom_site_label
 _atom_site_symmetry_multiplicity
 _atom_site_fract_x
 _atom_site_fract_y
 _atom_site_fract_z
 _atom_site_occupancy
  Ag  Ag0  1  0.33410308  0.01650483  0.33229043  1
  Ag  Ag1  1  0.66613358  0.17809446  0.83520745  1
  Ag  Ag2  1  0.66428352  0.49218718  0.16991296  1
  Ag  Ag3  1  0.33778249  0.33524260  0.66389343  1
  Ag  Ag4  1  0.82768923  0.65603437  0.50713859  1
  Ag  Ag5  1  0.16817773  0.01584714  0.16909868  1
  Ag  Ag6  1  0.82936807  0.82729023  0.66997544  1
  Ag  Ag7  1  -0.00200268  0.01282038  0.33380665  1
  Ag  Ag8  1  0.50308534  0.83000079  0.33338167  1
  Ag  Ag9  1  0.34208924  0.49144834  0.82278340  1
  Ag  Ag10  1  0.82607473  0.66297897  0.82522065  1
  Ag  Ag11  1  0.66572079  0.17365521  0.16425708  1
  Ag  Ag12  1  0.18026811  0.49456421  0.66647613  1
  Ag  Ag13  1  0.50533107  0.17307714  -0.00217997  1
  Ag  Ag14  1  0.50305468  0.48938379  -0.01362510  1
  Ag  Ag15  1  0.83306677  0.17730554  0.33959745  1
  Ag  Ag16  1  0.34271685  0.49157307  0.16791521  1
  Ag  Ag17  1  0.83023156  0.33446688  0.50305506  1
  Ag  Ag18  1  0.82763144  0.65705035  0.17193607  1
  Ag  Ag19  1  0.82914609  0.01443748  0.49853627  1
  Ag  Ag20  1  0.34742958  0.65164521  0.66824494  1
  Ag  Ag21  1  0.50640052  0.33626899  0.82686580  1
  Ag  Ag22  1  0.66625512  0.01242157  -0.00089718  1
  Ag  Ag23  1  0.66909261  0.83592030  0.50801383  1
  Ag  Ag24  1  0.66865305  0.83239618  0.83167066  1
  Ag  Ag25  1  -0.00761578  0.49286125  0.50336104  1
  Ag  Ag26  1  0.50278064  0.49532417  0.67051055  1
  Ag  Ag27  1  0.33065036  0.33262257  0.33594699  1
  Ag  Ag28  1  0.15637325  0.33323147  0.49588015  1
  Ag  Ag29  1  0.82222748  0.83208750  -0.01308100  1
  Ag  Ag30  1  0.51220381  0.01083930  0.49694759  1
  Ag  Ag31  1  0.17525669  0.16921883  0.01144847  1
  Ag  Ag32  1  -0.01668129  0.16905922  0.83237798  1
  Ag  Ag33  1  0.82941441  0.49359564  0.34369820  1
  Ag  Ag34  1  0.33982761  0.17381067  0.83734071  1
  Ag  Ag35  1  0.16124175  0.17222373  0.32974881  1
  Ag  Ag36  1  0.50691704  0.83483719  -0.00149573  1
  Ag  Ag37  1  0.50892130  0.65244711  0.83149397  1
  Ag  Ag38  1  0.32945171  0.17314327  0.16809020  1
  Ag  Ag39  1  0.50702351  0.33361772  0.50583757  1
  Ag  Ag40  1  0.82909888  0.33534221  0.17297152  1
  Ag  Ag41  1  0.67051348  0.16775732  0.50013526  1
  Ag  Ag42  1  0.82377033  0.33469438  0.81770768  1
  Ag  Ag43  1  0.66638569  0.32960448  -0.01224816  1
  Ag  Ag44  1  0.17462512  0.33124765  0.17551822  1
  Ag  Ag45  1  0.66906934  0.65470266  0.66515710  1
  Ag  Ag46  1  0.82988293  0.17994497  0.65995639  1
  Ag  Ag47  1  0.82794581  0.49419670  0.66218729  1
  Ag  Ag48  1  -0.00854939  0.33092356  0.33908745  1
  Ag  Ag49  1  -0.01568793  0.83731052  0.83219594  1
  Ag  Ag50  1  0.50993347  0.49763035  0.33501357  1
  Ag  Ag51  1  0.66855108  0.33619443  0.66958607  1
  Ag  Ag52  1  -0.01676619  0.33421255  0.65907889  1
  Ag  Ag53  1  0.66767625  0.66472989  0.34088080  1
  Sb  Sb54  1  0.16385714  0.01142890  0.49479647  1
  Sb  Sb55  1  0.33407780  0.49561393  0.50261625  1
  Sb  Sb56  1  0.16510253  0.49071057  0.33820987  1
  Sb  Sb57  1  0.16715106  0.84171694  -0.00055769  1
  Sb  Sb58  1  0.66907164  0.33725654  0.33637193  1
  Sb  Sb59  1  -0.00067810  0.49544756  0.82759555  1
  Sb  Sb60  1  0.66777361  0.83265099  0.16318484  1
  Sb  Sb61  1  0.16428278  0.65589353  0.16960549  1
  Sb  Sb62  1  0.34128770  0.83195973  0.83062146  1
  Sb  Sb63  1  0.83044952  0.00239972  0.82800465  1
  Sb  Sb64  1  -0.00888271  0.17386061  0.49909981  1
  Sb  Sb65  1  0.17277518  0.84471104  0.33510471  1
  Sb  Sb66  1  0.16149223  0.65705243  0.50078465  1
  Sb  Sb67  1  -0.00662748  0.33143825  -0.00075926  1
  Sb  Sb68  1  0.34523909  0.83407746  0.50128868  1
  Sb  Sb69  1  0.16249173  0.17571543  0.66343341  1
  Sb  Sb70  1  -0.00411457  0.00676586  0.66194122  1
  Sb  Sb71  1  0.16544938  0.00671359  0.83848008  1
  Sb  Sb72  1  0.66565590  0.66298411  -0.00522965  1
  Sb  Sb73  1  0.50904301  0.82718466  0.66768443  1
  Sb  Sb74  1  0.15901878  0.82376934  0.66558527  1
  Sb  Sb75  1  0.34202403  0.65758357  0.33913916  1
  Sb  Sb76  1  0.16834864  0.33133853  0.83184449  1
  Sb  Sb77  1  0.17632303  0.48979042  -0.00293758  1
  Sb  Sb78  1  0.82720100  0.16592904  -0.00060826  1
  Sb  Sb79  1  0.50376085  0.17162725  0.33054436  1
  Sb  Sb80  1  0.16601063  0.66453631  0.83221462  1
  Sb  Sb81  1  0.50930764  0.66047100  0.50438072  1
  Sb  Sb82  1  -0.00337304  0.83440297  0.16544321  1
  Sb  Sb83  1  0.82797019  0.83151847  0.33679915  1
  Sb  Sb84  1  0.50330046  0.00497203  0.83020146  1
  Sb  Sb85  1  0.66791982  0.00385142  0.66659859  1
  Sb  Sb86  1  0.34219175  0.33114483  0.00000479  1
  Sb  Sb87  1  0.33519914  0.00952251  0.66143560  1
  Sb  Sb88  1  0.33600808  0.83441811  0.16732306  1
  Sb  Sb89  1  0.33759932  0.66334445  -0.00508813  1
  Sb  Sb90  1  0.83422513  0.00403027  0.17147122  1
  Sb  Sb91  1  -0.01081017  0.65815906  0.66766914  1
  Sb  Sb92  1  0.50510093  0.66162983  0.16226050  1
  Sb  Sb93  1  0.34042576  0.00527082  0.00486288  1
  Sb  Sb94  1  0.50223192  0.33506944  0.16757202  1
  Sb  Sb95  1  -0.00656071  0.49458149  0.17272395  1
  Sb  Sb96  1  0.66234175  0.49888587  0.83230931  1
  Sb  Sb97  1  -0.00606777  0.66764757  -0.00341893  1
  Sb  Sb98  1  0.00111944  0.16941000  0.16695852  1
  Sb  Sb99  1  0.66584547  -0.00100912  0.33303857  1
  Sb  Sb100  1  -0.01046825  0.66185924  0.33555485  1
  Sb  Sb101  1  -0.00627691  0.00403591  0.00289927  1
  Sb  Sb102  1  -0.01107429  0.83089436  0.50396523  1
  Sb  Sb103  1  0.82576502  0.50060592  -0.00202500  1
  Sb  Sb104  1  0.50774421  0.17582771  0.66990231  1
  Sb  Sb105  1  0.67062280  0.49547560  0.49919234  1
  Sb  Sb106  1  0.34039722  0.17224885  0.49682624  1
  Sb  Sb107  1  0.49872851  0.00273158  0.17028020  1
  Te  Te108  1  0.16537795  0.17283782  0.16952220  1
  Te  Te109  1  0.16856958  0.17513376  0.49447687  1
  Te  Te110  1  0.17867339  0.16673862  0.83324049  1
  Te  Te111  1  0.16932470  0.49203511  0.16630545  1
  Te  Te112  1  0.15972671  0.49285031  0.50542265  1
  Te  Te113  1  0.17470856  0.49953463  0.82877985  1
  Te  Te114  1  0.16616002  0.83060984  0.16617615  1
  Te  Te115  1  0.16503794  0.83295484  0.50031627  1
  Te  Te116  1  0.16620826  0.83475549  0.83347969  1
  Te  Te117  1  0.50150377  0.16628574  0.16119759  1
  Te  Te118  1  0.50701486  0.16885056  0.50014752  1
  Te  Te119  1  0.50313670  0.16965661  0.83609066  1
  Te  Te120  1  0.50187306  0.50064079  0.17601275  1
  Te  Te121  1  0.49952121  0.49519138  0.49630159  1
  Te  Te122  1  0.49846290  0.49711100  0.83164077  1
  Te  Te123  1  0.49999387  0.83197578  0.16624095  1
  Te  Te124  1  0.50805210  0.83038117  0.49754763  1
  Te  Te125  1  0.50521547  0.83621839  0.83527767  1
  Te  Te126  1  0.83115971  0.16826734  0.16836279  1
  Te  Te127  1  0.83040983  0.17094406  0.49996245  1
  Te  Te128  1  0.82629326  0.16892187  0.83409871  1
  Te  Te129  1  0.82979270  0.49905488  0.16427181  1
  Te  Te130  1  0.83204844  0.49719837  0.50153663  1
  Te  Te131  1  0.83552340  0.49825257  0.83167992  1
  Te  Te132  1  0.83419339  0.83184769  0.16489719  1
  Te  Te133  1  0.82723424  0.82620282  0.50237792  1
  Te  Te134  1  0.82785328  0.83906642  0.83075462  1
  Te  Te135  1  0.16648898  0.00745722  0.00676204  1
  Te  Te136  1  0.16955161  0.00778172  0.32969207  1
  Te  Te137  1  0.16576847  -0.00132870  0.66428705  1
  Te  Te138  1  0.16200586  0.32757070  0.00516633  1
  Te  Te139  1  0.16915071  0.33160012  0.33481991  1
  Te  Te140  1  0.17671982  0.33653167  0.66518687  1
  Te  Te141  1  0.16689079  0.66779820  0.00201752  1
  Te  Te142  1  0.16594639  0.66802626  0.33409485  1
  Te  Te143  1  0.16755030  0.65599253  0.66633771  1
  Te  Te144  1  0.50557555  -0.00184590  0.00031062  1
  Te  Te145  1  0.49759641  -0.00102706  0.33772721  1
  Te  Te146  1  0.49864537  -0.00242625  0.65612435  1
  Te  Te147  1  0.50682816  0.33274853  -0.00161679  1
  Te  Te148  1  0.49581249  0.33578652  0.33701378  1
  Te  Te149  1  0.50073796  0.33499323  0.66720797  1
  Te  Te150  1  0.49952772  0.67052828  -0.00702867  1
  Te  Te151  1  0.50555206  0.66344491  0.33347765  1
  Te  Te152  1  0.50504981  0.66293203  0.67064738  1
  Te  Te153  1  0.82798808  -0.00605959  0.00300468  1
  Te  Te154  1  0.83572916  -0.00089812  0.33799743  1
  Te  Te155  1  0.83403666  -0.00510218  0.65834050  1
  Te  Te156  1  0.82735757  0.33347826  0.00864988  1
  Te  Te157  1  0.83203287  0.33409193  0.33307882  1
  Te  Te158  1  0.82832560  0.33467096  0.66398276  1
  Te  Te159  1  0.83233888  0.67083430  -0.00367215  1
  Te  Te160  1  0.82746189  0.66471634  0.33154656  1
  Te  Te161  1  0.82892352  0.66593985  0.66770577  1
  Te  Te162  1  0.00373412  0.16590979  -0.00801114  1
  Te  Te163  1  -0.00292551  0.17065015  0.33326913  1
  Te  Te164  1  -0.00498644  0.17258897  0.67197305  1
  Te  Te165  1  0.00506270  0.49998121  -0.00141911  1
  Te  Te166  1  -0.00493509  0.49494660  0.33898307  1
  Te  Te167  1  -0.00924678  0.49336212  0.66442645  1
  Te  Te168  1  -0.00109429  0.83572523  -0.00644673  1
  Te  Te169  1  0.00269227  0.83346406  0.33448398  1
  Te  Te170  1  -0.00569029  0.83405503  0.67193521  1
  Te  Te171  1  0.33521569  0.16564290  0.00306328  1
  Te  Te172  1  0.33732016  0.17273009  0.33101659  1
  Te  Te173  1  0.33224865  0.17294451  0.66993977  1
  Te  Te174  1  0.34261179  0.49947251  0.00614494  1
  Te  Te175  1  0.33254052  0.49476341  0.33066558  1
  Te  Te176  1  0.33944085  0.49570112  0.66511527  1
  Te  Te177  1  0.33986248  0.83502317  -0.00085444  1
  Te  Te178  1  0.34179482  0.82896611  0.33419078  1
  Te  Te179  1  0.33012792  0.83447666  0.66673692  1
  Te  Te180  1  0.66564297  0.16960656  -0.00042802  1
  Te  Te181  1  0.67127003  0.16346034  0.33090506  1
  Te  Te182  1  0.67060700  0.16945549  0.66869229  1
  Te  Te183  1  0.66117094  0.49640238  0.00812193  1
  Te  Te184  1  0.66962795  0.50383814  0.33162530  1
  Te  Te185  1  0.66545990  0.49781108  0.66682071  1
  Te  Te186  1  0.66519568  0.82836789  -0.00201114  1
  Te  Te187  1  0.66197616  0.83026633  0.33275534  1
  Te  Te188  1  0.67043155  0.83784078  0.66775199  1
  Te  Te189  1  0.00512523  0.00020877  0.17304718  1
  Te  Te190  1  -0.00424261  -0.00123092  0.49312089  1
  Te  Te191  1  -0.00090501  0.00321661  0.83247586  1
  Te  Te192  1  -0.00659228  0.33329915  0.17035888  1
  Te  Te193  1  -0.00230659  0.33298701  0.49952590  1
  Te  Te194  1  -0.00284789  0.32960531  0.83116240  1
  Te  Te195  1  -0.00833038  0.66547989  0.16651562  1
  Te  Te196  1  -0.00829512  0.66120605  0.50056309  1
  Te  Te197  1  -0.00496149  0.67224474  0.83222229  1
  Te  Te198  1  0.32967326  0.00207653  0.17255981  1
  Te  Te199  1  0.33261224  0.00131729  0.49237826  1
  Te  Te200  1  0.33390032  0.00615249  0.83156095  1
  Te  Te201  1  0.33457785  0.33087659  0.16572460  1
  Te  Te202  1  0.33879579  0.33366963  0.49914502  1
  Te  Te203  1  0.33413496  0.33357222  0.83472203  1
  Te  Te204  1  0.33156126  0.66169651  0.16838408  1
  Te  Te205  1  0.33110957  0.66673160  0.50860302  1
  Te  Te206  1  0.33471683  0.66426258  0.82712175  1
  Te  Te207  1  0.66651221  0.00447075  0.16153643  1
  Te  Te208  1  0.66934312  0.00171453  0.49905448  1
  Te  Te209  1  0.66558920  -0.00461171  0.83867886  1
  Te  Te210  1  0.66761801  0.33238615  0.17119714  1
  Te  Te211  1  0.66716678  0.32980250  0.50284588  1
  Te  Te212  1  0.66734887  0.33539180  0.83148927  1
  Te  Te213  1  0.66966995  0.66567839  0.16987417  1
  Te  Te214  1  0.66977580  0.67025861  0.50304764  1
  Te  Te215  1  0.66821070  0.66714774  0.82954845  1
