# generated using pymatgen
data_AgSbTe2
_symmetry_space_group_name_H-M   'P 1'
_cell_length_a   18.34092837
_cell_length_b   18.34626204
_cell_length_c   18.34414736
_cell_angle_alpha   89.99867382
_cell_angle_beta   89.99906098
_cell_angle_gamma   90.00332479
_symmetry_Int_Tables_number   1
_chemical_formula_structural   AgSbTe2
_chemical_formula_sum   'Ag54 Sb54 Te108'
_cell_volume   6172.57587080
_cell_formula_units_Z   54
loop_
 _symmetry_equiv_pos_site_id
 _symmetry_equiv_pos_as_xyz
  1  'x, y, z'
loop_
 _atom_site_type_symbol
 _atom_site_label
 _atom_site_symmetry_multiplicity
 _atom_site_fract_x
 _atom_site_fract_y
 _atom_site_fract_z
 _atom_site_occupancy
  Ag  Ag0  1  0.50357152  0.49394224  -0.00287353  1
  Ag  Ag1  1  -0.00510595  0.32366312  0.34354752  1
  Ag  Ag2  1  0.67755948  0.84447778  0.83627342  1
  Ag  Ag3  1  0.83588031  0.84573138  0.67283768  1
  Ag  Ag4  1  -0.00421559  0.00632639  -0.00638063  1
  Ag  Ag5  1  0.33354166  0.33185648  0.34214739  1
  Ag  Ag6  1  0.00055808  0.48938040  0.82513742  1
  Ag  Ag7  1  0.66924844  0.32774006  -0.00136841  1
  Ag  Ag8  1  0.83467934  0.66851195  0.16798988  1
  Ag  Ag9  1  0.66858425  0.67428680  -0.00048945  1
  Ag  Ag10  1  0.16320802  0.66873892  0.82510476  1
  Ag  Ag11  1  0.32053992  0.16750473  0.82117255  1
  Ag  Ag12  1  -0.00395150  0.16516588  0.18752130  1
  Ag  Ag13  1  -0.00434347  0.84452828  0.83441162  1
  Ag  Ag14  1  0.32847039  0.84654419  0.49827155  1
  Ag  Ag15  1  0.16363318  0.48953926  0.66378140  1
  Ag  Ag16  1  0.84375785  0.00567887  0.50594412  1
  Ag  Ag17  1  0.00382785  0.66605523  0.33511293  1
  Ag  Ag18  1  0.83845156  0.32399106  0.49743327  1
  Ag  Ag19  1  0.16508301  0.67380057  0.50004311  1
  Ag  Ag20  1  0.16134484  0.00145595  0.17865036  1
  Ag  Ag21  1  0.67290220  0.16626939  0.83610773  1
  Ag  Ag22  1  0.50347338  0.32949397  0.16859002  1
  Ag  Ag23  1  0.67533449  0.00401335  -0.00186892  1
  Ag  Ag24  1  0.49480879  0.49350211  0.66377976  1
  Ag  Ag25  1  0.66624508  0.33128852  0.66901345  1
  Ag  Ag26  1  0.84445832  0.16433183  0.66048517  1
  Ag  Ag27  1  -0.00092138  0.32269600  0.66306684  1
  Ag  Ag28  1  0.32462458  0.66576110  0.33660915  1
  Ag  Ag29  1  0.16714215  0.84344938  0.33622243  1
  Ag  Ag30  1  0.16360799  0.00291997  0.49787836  1
  Ag  Ag31  1  0.00346941  0.01048744  0.34113850  1
  Ag  Ag32  1  0.15807225  0.83560458  -0.00081300  1
  Ag  Ag33  1  0.50172858  0.49410505  0.33607883  1
  Ag  Ag34  1  0.66976562  0.33090064  0.33398333  1
  Ag  Ag35  1  0.49860557  0.00638019  0.17226482  1
  Ag  Ag36  1  0.15914717  0.16764507  0.66225950  1
  Ag  Ag37  1  0.32203626  0.01250419  0.66110901  1
  Ag  Ag38  1  0.32196821  0.16402816  0.50504498  1
  Ag  Ag39  1  0.67356640  0.16815491  0.16330911  1
  Ag  Ag40  1  -0.00238147  0.16443257  0.81605143  1
  Ag  Ag41  1  0.49346130  0.83992018  0.33454813  1
  Ag  Ag42  1  0.00137145  0.16684925  0.50182823  1
  Ag  Ag43  1  0.83753453  0.48596810  0.33497458  1
  Ag  Ag44  1  0.50359997  0.33240321  0.83172199  1
  Ag  Ag45  1  0.84372364  0.16941253  0.34072077  1
  Ag  Ag46  1  0.32882856  0.32665010  0.66210374  1
  Ag  Ag47  1  0.49044848  0.00135988  0.49700027  1
  Ag  Ag48  1  0.83691948  0.00053366  0.82805427  1
  Ag  Ag49  1  0.15734573  0.16094930  0.34407729  1
  Ag  Ag50  1  0.83724351  0.83811724  -0.00716000  1
  Ag  Ag51  1  0.00168251  0.48598345  0.50281436  1
  Ag  Ag52  1  -0.00561302  0.32355441  -0.00449785  1
  Ag  Ag53  1  -0.00075252  0.00959982  0.66252706  1
  Sb  Sb54  1  0.33562413  0.66835796  0.00474713  1
  Sb  Sb55  1  0.83266803  0.32533720  0.82814909  1
  Sb  Sb56  1  0.16591053  0.50464030  -0.00753313  1
  Sb  Sb57  1  0.32672028  0.00299044  0.34150816  1
  Sb  Sb58  1  0.16059463  0.67328434  0.17224998  1
  Sb  Sb59  1  0.66931704  0.66225992  0.32840232  1
  Sb  Sb60  1  0.00371561  0.84031823  0.50251810  1
  Sb  Sb61  1  0.67164290  0.49582990  0.83438444  1
  Sb  Sb62  1  0.49938233  0.16744387  0.33383501  1
  Sb  Sb63  1  0.00146188  0.66679859  0.66440968  1
  Sb  Sb64  1  0.50309354  0.83328825  0.00405588  1
  Sb  Sb65  1  0.83417759  0.16300835  -0.00208334  1
  Sb  Sb66  1  0.16111474  0.83900405  0.66349431  1
  Sb  Sb67  1  0.83689076  0.00132053  0.16616740  1
  Sb  Sb68  1  0.33002351  0.66570610  0.66151195  1
  Sb  Sb69  1  -0.00145561  0.49197899  0.17045513  1
  Sb  Sb70  1  0.15962582  0.32686294  0.50115174  1
  Sb  Sb71  1  0.50305129  0.83325484  0.66333955  1
  Sb  Sb72  1  0.83918020  0.67404659  0.83654654  1
  Sb  Sb73  1  0.84246468  0.66829794  0.49588889  1
  Sb  Sb74  1  0.83743875  0.83905958  0.33531681  1
  Sb  Sb75  1  0.33125321  0.16498844  0.17001333  1
  Sb  Sb76  1  0.49275363  0.66824049  0.49687073  1
  Sb  Sb77  1  0.66667315  0.49180527  0.16634578  1
  Sb  Sb78  1  0.83127065  0.50155389  0.00261041  1
  Sb  Sb79  1  0.50531305  0.00615956  0.83159316  1
  Sb  Sb80  1  0.33457733  0.49764550  0.17046276  1
  Sb  Sb81  1  0.66829802  0.83990027  0.16267410  1
  Sb  Sb82  1  0.49845998  0.17097131  0.66723779  1
  Sb  Sb83  1  0.16467661  0.33279447  0.83023541  1
  Sb  Sb84  1  0.50452613  0.66458920  0.16895703  1
  Sb  Sb85  1  0.67156614  0.16772098  0.50172393  1
  Sb  Sb86  1  0.67094588  0.49782535  0.49948484  1
  Sb  Sb87  1  0.83808600  0.49372476  0.66274844  1
  Sb  Sb88  1  0.50264900  0.32892796  0.50007380  1
  Sb  Sb89  1  0.33459104  0.33173000  -0.00307175  1
  Sb  Sb90  1  0.15666298  -0.00143434  0.82993056  1
  Sb  Sb91  1  0.33058477  0.00130753  -0.00618938  1
  Sb  Sb92  1  -0.00365786  0.66920086  0.00243502  1
  Sb  Sb93  1  0.15943753  0.16147783  -0.00190099  1
  Sb  Sb94  1  0.66810119  0.66271440  0.67301069  1
  Sb  Sb95  1  0.67245694  0.00771049  0.67069286  1
  Sb  Sb96  1  0.16200342  0.49795426  0.34023942  1
  Sb  Sb97  1  0.83014764  0.33128451  0.17239924  1
  Sb  Sb98  1  0.49658608  0.66081698  0.83417244  1
  Sb  Sb99  1  0.66500221  0.83714788  0.50331744  1
  Sb  Sb100  1  0.67001002  0.00652306  0.33032193  1
  Sb  Sb101  1  -0.00002238  0.84295913  0.16388411  1
  Sb  Sb102  1  0.33283251  0.83603431  0.17588262  1
  Sb  Sb103  1  0.50383910  0.17060199  0.00050647  1
  Sb  Sb104  1  0.33045609  0.49409755  0.82970131  1
  Sb  Sb105  1  0.32923907  0.84027058  0.82610735  1
  Sb  Sb106  1  0.32728716  0.49477387  0.50004867  1
  Sb  Sb107  1  0.16729219  0.32562896  0.16965390  1
  Te  Te108  1  0.16313391  0.16002379  0.16704089  1
  Te  Te109  1  0.16559936  0.16564049  0.50204686  1
  Te  Te110  1  0.16306536  0.16591545  0.82816680  1
  Te  Te111  1  0.16670704  0.50136865  0.16329250  1
  Te  Te112  1  0.16125364  0.50526063  0.50500053  1
  Te  Te113  1  0.16213009  0.50466298  0.82735101  1
  Te  Te114  1  0.16650080  0.84059576  0.17048643  1
  Te  Te115  1  0.16827230  0.83556580  0.49740545  1
  Te  Te116  1  0.16351569  0.83067275  0.83420117  1
  Te  Te117  1  0.50059638  0.16703413  0.16695921  1
  Te  Te118  1  0.49797889  0.16043749  0.49995835  1
  Te  Te119  1  0.51121531  0.17228812  0.83422985  1
  Te  Te120  1  0.50075863  0.49529979  0.17199735  1
  Te  Te121  1  0.49954029  0.50000527  0.49868961  1
  Te  Te122  1  0.49971796  0.49418212  0.83144222  1
  Te  Te123  1  0.50054215  0.83634724  0.17329985  1
  Te  Te124  1  0.49580397  0.83643344  0.49539898  1
  Te  Te125  1  0.50127293  0.83120335  0.83386294  1
  Te  Te126  1  0.83456374  0.16567209  0.17208297  1
  Te  Te127  1  0.83224611  0.16489529  0.50073037  1
  Te  Te128  1  0.83465011  0.16243687  0.83121950  1
  Te  Te129  1  0.83309481  0.50620607  0.17329976  1
  Te  Te130  1  0.84030032  0.50091559  0.49482800  1
  Te  Te131  1  0.84107013  0.50166677  0.83285822  1
  Te  Te132  1  0.83314524  0.83099609  0.16319667  1
  Te  Te133  1  0.83300635  0.83957557  0.50437956  1
  Te  Te134  1  0.83502670  0.83616276  0.83414159  1
  Te  Te135  1  0.16257319  -0.00520038  -0.00056263  1
  Te  Te136  1  0.16542209  0.00102063  0.33565055  1
  Te  Te137  1  0.16411629  0.00327281  0.66410522  1
  Te  Te138  1  0.16204429  0.33507864  0.00056362  1
  Te  Te139  1  0.16746081  0.33024057  0.33209267  1
  Te  Te140  1  0.16570685  0.33117818  0.66703360  1
  Te  Te141  1  0.16714091  0.67309111  0.00201980  1
  Te  Te142  1  0.16586778  0.66488596  0.33598147  1
  Te  Te143  1  0.16755791  0.66718474  0.66411732  1
  Te  Te144  1  0.50242629  -0.00121909  0.00183749  1
  Te  Te145  1  0.50201654  -0.00063273  0.33301255  1
  Te  Te146  1  0.50119081  -0.00270000  0.66264401  1
  Te  Te147  1  0.50117958  0.33568086  0.00084083  1
  Te  Te148  1  0.50191049  0.33371136  0.33383463  1
  Te  Te149  1  0.50358742  0.33575415  0.66634742  1
  Te  Te150  1  0.50521017  0.66029846  0.00132302  1
  Te  Te151  1  0.50003305  0.66133069  0.33236325  1
  Te  Te152  1  0.49914313  0.65645825  0.66595667  1
  Te  Te153  1  0.83454339  -0.00279831  0.00024022  1
  Te  Te154  1  0.83858325  0.00370131  0.33698247  1
  Te  Te155  1  0.83401797  0.00346295  0.66676450  1
  Te  Te156  1  0.83336405  0.33508796  0.00031307  1
  Te  Te157  1  0.83478952  0.32985095  0.33375523  1
  Te  Te158  1  0.83643929  0.33048076  0.66207248  1
  Te  Te159  1  0.82864236  0.66989035  0.00364214  1
  Te  Te160  1  0.83663359  0.67086973  0.32978255  1
  Te  Te161  1  0.83246779  0.66967938  0.66548959  1
  Te  Te162  1  -0.00082330  0.16505116  -0.00706539  1
  Te  Te163  1  0.00109616  0.16674797  0.34184077  1
  Te  Te164  1  -0.00020039  0.16557709  0.66108166  1
  Te  Te165  1  -0.00023620  0.49678432  -0.00254914  1
  Te  Te166  1  -0.00265476  0.49907766  0.33575932  1
  Te  Te167  1  0.00225890  0.50035699  0.66503163  1
  Te  Te168  1  -0.00191033  0.83465225  -0.00224055  1
  Te  Te169  1  0.00407689  0.82950287  0.33154358  1
  Te  Te170  1  -0.00425596  0.83418008  0.67237769  1
  Te  Te171  1  0.33090838  0.16681607  -0.00881792  1
  Te  Te172  1  0.32967290  0.17148789  0.33630966  1
  Te  Te173  1  0.33625506  0.16861929  0.66513794  1
  Te  Te174  1  0.34121348  0.50072403  -0.00094592  1
  Te  Te175  1  0.33550160  0.49534628  0.33477823  1
  Te  Te176  1  0.33162784  0.49431945  0.66628753  1
  Te  Te177  1  0.32909921  0.83307373  -0.00159730  1
  Te  Te178  1  0.33184037  0.83439352  0.33885416  1
  Te  Te179  1  0.33362713  0.83469854  0.65931186  1
  Te  Te180  1  0.66860651  0.16692395  0.00046167  1
  Te  Te181  1  0.66835826  0.17158562  0.32988039  1
  Te  Te182  1  0.66873682  0.17271192  0.67011620  1
  Te  Te183  1  0.66363495  0.49129552  0.00003522  1
  Te  Te184  1  0.66747036  0.49428166  0.33296931  1
  Te  Te185  1  0.66515179  0.49380730  0.66707001  1
  Te  Te186  1  0.66782137  0.83713452  -0.00352346  1
  Te  Te187  1  0.66279593  0.83236621  0.33366396  1
  Te  Te188  1  0.67149388  0.83117002  0.67455521  1
  Te  Te189  1  0.00188925  0.00634900  0.16648563  1
  Te  Te190  1  0.00229357  0.00050280  0.50120059  1
  Te  Te191  1  -0.00334353  0.00251093  0.83281804  1
  Te  Te192  1  -0.00062449  0.32540024  0.16252724  1
  Te  Te193  1  -0.00239204  0.33064550  0.50087978  1
  Te  Te194  1  -0.00098895  0.33038302  0.83140626  1
  Te  Te195  1  -0.00390539  0.66367181  0.17079309  1
  Te  Te196  1  0.00561723  0.66876537  0.49572609  1
  Te  Te197  1  0.00471129  0.66654400  0.83472499  1
  Te  Te198  1  0.33814837  0.00133300  0.16253378  1
  Te  Te199  1  0.33136398  0.00373002  0.50246110  1
  Te  Te200  1  0.33672800  0.00668989  0.82476449  1
  Te  Te201  1  0.33975104  0.33087391  0.16890855  1
  Te  Te202  1  0.33577535  0.32900660  0.50167812  1
  Te  Te203  1  0.33749519  0.32738325  0.82891615  1
  Te  Te204  1  0.33371579  0.66663754  0.17646463  1
  Te  Te205  1  0.32645669  0.66547583  0.49471866  1
  Te  Te206  1  0.32658466  0.66786066  0.83431081  1
  Te  Te207  1  0.66408323  0.00655236  0.16276988  1
  Te  Te208  1  0.66347377  0.00023052  0.49927427  1
  Te  Te209  1  0.66999529  0.00263052  0.83702873  1
  Te  Te210  1  0.66426837  0.32755577  0.16497795  1
  Te  Te211  1  0.67359567  0.33366816  0.49901764  1
  Te  Te212  1  0.66683397  0.33096116  0.83465352  1
  Te  Te213  1  0.67126399  0.66803022  0.15980845  1
  Te  Te214  1  0.66697016  0.66739726  0.50100770  1
  Te  Te215  1  0.66598418  0.66647581  0.84006649  1
