# generated using pymatgen
data_AgSbTe2
_symmetry_space_group_name_H-M   'P 1'
_cell_length_a   18.36315548
_cell_length_b   18.34921380
_cell_length_c   18.35266909
_cell_angle_alpha   90.00095334
_cell_angle_beta   90.00192738
_cell_angle_gamma   90.00070215
_symmetry_Int_Tables_number   1
_chemical_formula_structural   AgSbTe2
_chemical_formula_sum   'Ag54 Sb54 Te108'
_cell_volume   6183.92204137
_cell_formula_units_Z   54
loop_
 _symmetry_equiv_pos_site_id
 _symmetry_equiv_pos_as_xyz
  1  'x, y, z'
loop_
 _atom_site_type_symbol
 _atom_site_label
 _atom_site_symmetry_multiplicity
 _atom_site_fract_x
 _atom_site_fract_y
 _atom_site_fract_z
 _atom_site_occupancy
  Ag  Ag0  1  0.00029829  0.66682866  -0.01048982  1
  Ag  Ag1  1  0.51075927  0.82137560  0.66218607  1
  Ag  Ag2  1  -0.01096213  0.82371054  0.50232545  1
  Ag  Ag3  1  0.51225280  0.33704230  0.49953474  1
  Ag  Ag4  1  0.82854702  0.50368804  0.66569656  1
  Ag  Ag5  1  0.33525685  0.82832865  0.50103487  1
  Ag  Ag6  1  0.82940773  0.33537645  0.49760955  1
  Ag  Ag7  1  -0.00377866  0.50296003  0.50218928  1
  Ag  Ag8  1  0.16489683  0.66607517  0.16638384  1
  Ag  Ag9  1  0.83580101  0.67772101  0.50975059  1
  Ag  Ag10  1  0.34427996  0.50184931  0.16067293  1
  Ag  Ag11  1  0.83465406  0.16803749  0.33425612  1
  Ag  Ag12  1  0.67106601  0.01050891  0.33741381  1
  Ag  Ag13  1  -0.01129177  0.66937962  0.66402822  1
  Ag  Ag14  1  0.33749158  0.33865185  0.00099756  1
  Ag  Ag15  1  0.67394055  0.65676026  0.66451313  1
  Ag  Ag16  1  0.82940852  0.33371929  0.17721047  1
  Ag  Ag17  1  0.83366361  0.17083227  0.01085959  1
  Ag  Ag18  1  0.67216581  0.32997830  0.32960669  1
  Ag  Ag19  1  0.51278078  0.00061457  0.83003800  1
  Ag  Ag20  1  0.50445148  0.65784731  0.17038347  1
  Ag  Ag21  1  0.66369588  0.49262296  0.16130410  1
  Ag  Ag22  1  0.67166493  0.17492835  0.49882847  1
  Ag  Ag23  1  0.51468042  0.33924498  0.17506411  1
  Ag  Ag24  1  0.33597985  0.16793948  0.49871346  1
  Ag  Ag25  1  -0.00583115  0.16929183  0.16690891  1
  Ag  Ag26  1  0.16394837  0.33188294  0.50263251  1
  Ag  Ag27  1  0.83785518  0.66111766  0.82233470  1
  Ag  Ag28  1  -0.00350829  0.17032404  0.83322101  1
  Ag  Ag29  1  0.83269955  0.33374846  0.82941992  1
  Ag  Ag30  1  0.15643351  0.66349824  0.50626217  1
  Ag  Ag31  1  0.15778517  0.33759372  0.82748037  1
  Ag  Ag32  1  0.33785325  0.50076375  0.83453485  1
  Ag  Ag33  1  0.83269641  0.00544460  0.82329985  1
  Ag  Ag34  1  0.83233677  -0.00882877  0.50360291  1
  Ag  Ag35  1  -0.00956074  0.32948804  0.33702316  1
  Ag  Ag36  1  0.66745859  0.49636666  0.82605215  1
  Ag  Ag37  1  0.67007039  0.33389060  0.01389501  1
  Ag  Ag38  1  0.33419613  0.66564887  0.66407399  1
  Ag  Ag39  1  0.16523731  0.00524662  0.17157637  1
  Ag  Ag40  1  0.83222766  0.83731494  0.34521885  1
  Ag  Ag41  1  0.67612723  0.17859777  0.18082637  1
  Ag  Ag42  1  0.15882212  0.66066515  0.82371162  1
  Ag  Ag43  1  0.15897556  0.16887408  0.33670998  1
  Ag  Ag44  1  0.16495706  0.17047722  0.65596072  1
  Ag  Ag45  1  0.83019058  0.81978621  0.65898443  1
  Ag  Ag46  1  0.67577084  0.83171131  0.50209599  1
  Ag  Ag47  1  0.83310181  0.65791552  0.16784799  1
  Ag  Ag48  1  -0.00395612  -0.00392358  0.66552585  1
  Ag  Ag49  1  0.50916695  0.50512330  0.66515312  1
  Ag  Ag50  1  0.67043029  0.33784649  0.66183915  1
  Ag  Ag51  1  0.32860237  0.66143175  -0.00615854  1
  Ag  Ag52  1  0.33656376  0.00240682  0.33768457  1
  Ag  Ag53  1  0.50337916  0.66422499  0.50843709  1
  Sb  Sb54  1  0.50448281  0.33220012  0.83041917  1
  Sb  Sb55  1  -0.00312457  0.66391833  0.33976646  1
  Sb  Sb56  1  0.50444595  0.83133067  0.34118441  1
  Sb  Sb57  1  0.32824450  0.17211777  0.82963838  1
  Sb  Sb58  1  -0.00236351  0.83236953  0.82685132  1
  Sb  Sb59  1  0.49902740  0.00163596  0.16633798  1
  Sb  Sb60  1  0.16280966  0.83604588  0.33666703  1
  Sb  Sb61  1  0.16253254  0.83107482  0.66321041  1
  Sb  Sb62  1  0.49705909  0.16837575  0.66458327  1
  Sb  Sb63  1  0.33524082  0.33809617  0.66806094  1
  Sb  Sb64  1  0.67046034  0.00859358  0.00314770  1
  Sb  Sb65  1  0.83156250  0.49544003  -0.00359015  1
  Sb  Sb66  1  0.83273289  0.83315620  -0.00392334  1
  Sb  Sb67  1  0.66929939  0.83107472  0.17596616  1
  Sb  Sb68  1  0.16885845  0.50055956  -0.00129541  1
  Sb  Sb69  1  0.67217972  0.00099321  0.66215540  1
  Sb  Sb70  1  -0.00453561  0.33561865  0.66122888  1
  Sb  Sb71  1  0.67165446  0.49748456  0.50326215  1
  Sb  Sb72  1  0.50542332  0.16753354  0.33457688  1
  Sb  Sb73  1  0.16575035  0.82872157  0.00044947  1
  Sb  Sb74  1  -0.00322930  0.33522207  0.00136561  1
  Sb  Sb75  1  -0.00243156  0.16865584  0.49991728  1
  Sb  Sb76  1  0.33422540  0.32944280  0.33304609  1
  Sb  Sb77  1  0.33328488  0.66909956  0.33680713  1
  Sb  Sb78  1  0.49899154  0.49939165  -0.00155179  1
  Sb  Sb79  1  0.66794263  0.82872778  0.82550546  1
  Sb  Sb80  1  0.66714687  0.66129143  -0.00263354  1
  Sb  Sb81  1  0.67394555  0.17179873  0.83023444  1
  Sb  Sb82  1  -0.00388756  0.00553327  0.33875348  1
  Sb  Sb83  1  0.16248778  0.16839881  0.00230273  1
  Sb  Sb84  1  0.33338143  0.82675187  0.17126840  1
  Sb  Sb85  1  -0.00156512  0.83480823  0.17257610  1
  Sb  Sb86  1  -0.00284346  0.49913840  0.82942670  1
  Sb  Sb87  1  0.16508042  0.49977121  0.66657188  1
  Sb  Sb88  1  0.33339081  0.00126084  0.00339414  1
  Sb  Sb89  1  0.50629865  0.17057501  0.00042022  1
  Sb  Sb90  1  0.49989998  0.82942983  -0.00621980  1
  Sb  Sb91  1  0.16342324  0.00140383  0.49720513  1
  Sb  Sb92  1  0.16514470  0.33473625  0.16745578  1
  Sb  Sb93  1  0.66971247  0.66288392  0.33849998  1
  Sb  Sb94  1  0.83611820  0.00551223  0.17187025  1
  Sb  Sb95  1  0.33078586  -0.00307420  0.66260258  1
  Sb  Sb96  1  0.33428801  0.82545677  0.82680502  1
  Sb  Sb97  1  0.83840526  0.16850661  0.66169829  1
  Sb  Sb98  1  0.50186957  0.66518003  0.82681776  1
  Sb  Sb99  1  0.33324437  0.17113237  0.17193457  1
  Sb  Sb100  1  0.16134226  0.00153094  0.83343888  1
  Sb  Sb101  1  0.83159831  0.49666544  0.33932743  1
  Sb  Sb102  1  -0.00458445  0.49870712  0.17010527  1
  Sb  Sb103  1  0.33225560  0.50011106  0.50211051  1
  Sb  Sb104  1  0.50261576  0.49943462  0.33501948  1
  Sb  Sb105  1  -0.00205651  -0.00140506  -0.00266953  1
  Sb  Sb106  1  0.16672501  0.49675039  0.33435609  1
  Sb  Sb107  1  0.50498810  -0.00081382  0.50306458  1
  Te  Te108  1  0.16526733  0.16559581  0.17061782  1
  Te  Te109  1  0.16348443  0.16671303  0.49770754  1
  Te  Te110  1  0.16082253  0.16954596  0.83420876  1
  Te  Te111  1  0.16365093  0.50678748  0.16714617  1
  Te  Te112  1  0.16377719  0.50176634  0.50021630  1
  Te  Te113  1  0.16909129  0.49966548  0.83247076  1
  Te  Te114  1  0.16593837  0.82850190  0.16820144  1
  Te  Te115  1  0.17441273  0.82798406  0.49942740  1
  Te  Te116  1  0.16656111  0.82522519  0.83306537  1
  Te  Te117  1  0.50356232  0.17079159  0.16599722  1
  Te  Te118  1  0.49548039  0.17062598  0.50017032  1
  Te  Te119  1  0.49724710  0.16053612  0.83244463  1
  Te  Te120  1  0.50118354  0.49805477  0.16677383  1
  Te  Te121  1  0.49739258  0.50041860  0.50426249  1
  Te  Te122  1  0.50171499  0.49873370  0.82702298  1
  Te  Te123  1  0.50027452  0.83099331  0.16621344  1
  Te  Te124  1  0.49511696  0.83220964  0.50473457  1
  Te  Te125  1  0.50051232  0.83923916  0.82507578  1
  Te  Te126  1  0.83364478  0.16611841  0.16866955  1
  Te  Te127  1  0.83231625  0.17599714  0.49606282  1
  Te  Te128  1  0.83595578  0.16830408  0.82793890  1
  Te  Te129  1  0.83035921  0.49641646  0.16588433  1
  Te  Te130  1  0.83651934  0.49251250  0.50348088  1
  Te  Te131  1  0.83186021  0.50056956  0.82993968  1
  Te  Te132  1  0.83322463  0.83316958  0.16535984  1
  Te  Te133  1  0.83232173  0.83341103  0.50078117  1
  Te  Te134  1  0.83262296  0.83057534  0.82959470  1
  Te  Te135  1  0.16746265  -0.00078845  0.00842924  1
  Te  Te136  1  0.16647270  0.00345442  0.33071561  1
  Te  Te137  1  0.16040571  0.00368931  0.66887082  1
  Te  Te138  1  0.16824331  0.33251647  -0.00550155  1
  Te  Te139  1  0.16813035  0.32925563  0.33658115  1
  Te  Te140  1  0.16742317  0.33167157  0.66795584  1
  Te  Te141  1  0.16763442  0.66710496  0.00137707  1
  Te  Te142  1  0.16559480  0.66700974  0.33611518  1
  Te  Te143  1  0.17261374  0.66687897  0.66588505  1
  Te  Te144  1  0.49986098  -0.00092199  -0.00715462  1
  Te  Te145  1  0.49762918  -0.00178774  0.33303750  1
  Te  Te146  1  0.49842224  -0.00062884  0.67076620  1
  Te  Te147  1  0.50016256  0.33265796  0.00296326  1
  Te  Te148  1  0.50263218  0.33379175  0.33605211  1
  Te  Te149  1  0.50256379  0.33619873  0.66186771  1
  Te  Te150  1  0.49629681  0.66734693  0.00755367  1
  Te  Te151  1  0.50112558  0.66651827  0.33050877  1
  Te  Te152  1  0.49740521  0.66586617  0.66685685  1
  Te  Te153  1  0.83432614  0.00514081  -0.00630260  1
  Te  Te154  1  0.83036447  0.00214509  0.33643494  1
  Te  Te155  1  0.83576207  0.00248216  0.66432064  1
  Te  Te156  1  0.83297375  0.33018438  -0.00483515  1
  Te  Te157  1  0.83258245  0.33394763  0.33465524  1
  Te  Te158  1  0.83248145  0.33422308  0.66811860  1
  Te  Te159  1  0.83576860  0.66719733  0.00723595  1
  Te  Te160  1  0.83192796  0.66806097  0.32790002  1
  Te  Te161  1  0.83294327  0.66432257  0.66539580  1
  Te  Te162  1  -0.00499188  0.16590346  0.00001025  1
  Te  Te163  1  -0.00094897  0.16902054  0.33107447  1
  Te  Te164  1  0.00519514  0.16810792  0.67035323  1
  Te  Te165  1  -0.00104808  0.50893448  0.00096491  1
  Te  Te166  1  0.00074559  0.48986472  0.33970640  1
  Te  Te167  1  -0.00417537  0.50564604  0.66365084  1
  Te  Te168  1  -0.00103150  0.82500838  0.00190715  1
  Te  Te169  1  -0.00695775  0.83485405  0.33997120  1
  Te  Te170  1  -0.00379903  0.83161894  0.66244494  1
  Te  Te171  1  0.33343709  0.17124674  -0.00066555  1
  Te  Te172  1  0.33005725  0.16290398  0.33632146  1
  Te  Te173  1  0.32564089  0.16620193  0.66165752  1
  Te  Te174  1  0.33366872  0.50138463  -0.00130055  1
  Te  Te175  1  0.33343830  0.50001253  0.32429813  1
  Te  Te176  1  0.33375527  0.50437911  0.66965625  1
  Te  Te177  1  0.33372146  0.82867775  0.00051235  1
  Te  Te178  1  0.33314206  0.84035074  0.33855366  1
  Te  Te179  1  0.33250189  0.83029769  0.66152618  1
  Te  Te180  1  0.67274969  0.17479599  -0.00093003  1
  Te  Te181  1  0.66763888  0.16791775  0.33635832  1
  Te  Te182  1  0.66402175  0.17034076  0.66025160  1
  Te  Te183  1  0.66559204  0.49436353  -0.00111761  1
  Te  Te184  1  0.66670292  0.49271499  0.32090662  1
  Te  Te185  1  0.66694146  0.49946864  0.66504930  1
  Te  Te186  1  0.66576595  0.83607646  -0.00026050  1
  Te  Te187  1  0.67168121  0.83469828  0.34114813  1
  Te  Te188  1  0.66870010  0.83513942  0.66121536  1
  Te  Te189  1  0.00460142  0.00308758  0.16609990  1
  Te  Te190  1  -0.00401165  -0.00064813  0.50475474  1
  Te  Te191  1  -0.00473539  0.00206168  0.82988625  1
  Te  Te192  1  -0.00410421  0.32967510  0.16879969  1
  Te  Te193  1  0.00483112  0.33357104  0.49814292  1
  Te  Te194  1  -0.00077878  0.33274661  0.83413255  1
  Te  Te195  1  -0.00126226  0.66669551  0.17141003  1
  Te  Te196  1  -0.00318009  0.66571187  0.50176577  1
  Te  Te197  1  -0.00066229  0.66615400  0.83041990  1
  Te  Te198  1  0.33059167  -0.00047086  0.17101442  1
  Te  Te199  1  0.33269286  0.00551413  0.49759133  1
  Te  Te200  1  0.33069230  -0.00059475  0.83458466  1
  Te  Te201  1  0.33089069  0.33885042  0.16224485  1
  Te  Te202  1  0.32405755  0.32973028  0.49981347  1
  Te  Te203  1  0.33592557  0.33758510  0.83743920  1
  Te  Te204  1  0.33161358  0.66327248  0.16876469  1
  Te  Te205  1  0.33849914  0.66561669  0.50244021  1
  Te  Te206  1  0.33524777  0.66241630  0.83542659  1
  Te  Te207  1  0.66513285  0.00123048  0.17280495  1
  Te  Te208  1  0.66921481  0.00273027  0.49771715  1
  Te  Te209  1  0.67184034  0.00045720  0.83467629  1
  Te  Te210  1  0.66933279  0.33185486  0.16768203  1
  Te  Te211  1  0.66776357  0.33572995  0.50117119  1
  Te  Te212  1  0.66967086  0.33565286  0.82390127  1
  Te  Te213  1  0.66677282  0.66373553  0.16605301  1
  Te  Te214  1  0.66700780  0.66619732  0.50283553  1
  Te  Te215  1  0.67180944  0.66119987  0.83010140  1
