# generated using pymatgen
data_AgSbTe2
_symmetry_space_group_name_H-M   'P 1'
_cell_length_a   18.31761809
_cell_length_b   18.32594987
_cell_length_c   18.32076383
_cell_angle_alpha   89.99768713
_cell_angle_beta   90.00292056
_cell_angle_gamma   90.00267200
_symmetry_Int_Tables_number   1
_chemical_formula_structural   AgSbTe2
_chemical_formula_sum   'Ag54 Sb54 Te108'
_cell_volume   6150.05598537
_cell_formula_units_Z   54
loop_
 _symmetry_equiv_pos_site_id
 _symmetry_equiv_pos_as_xyz
  1  'x, y, z'
loop_
 _atom_site_type_symbol
 _atom_site_label
 _atom_site_symmetry_multiplicity
 _atom_site_fract_x
 _atom_site_fract_y
 _atom_site_fract_z
 _atom_site_occupancy
  Ag  Ag0  1  0.84209357  0.16642665  0.00254908  1
  Ag  Ag1  1  0.82851491  0.49834468  0.32849462  1
  Ag  Ag2  1  0.33496635  0.32140284  0.00133592  1
  Ag  Ag3  1  0.34124697  0.66342793  0.32521959  1
  Ag  Ag4  1  0.82159127  0.33738674  0.49655444  1
  Ag  Ag5  1  0.50885530  0.33251518  0.49581422  1
  Ag  Ag6  1  0.66736153  0.17538578  0.50035928  1
  Ag  Ag7  1  0.66790375  0.66589119  0.66320718  1
  Ag  Ag8  1  -0.00008865  0.32986078  0.66721100  1
  Ag  Ag9  1  0.84143411  0.82996253  0.66571260  1
  Ag  Ag10  1  0.66596044  0.33658893  0.65757453  1
  Ag  Ag11  1  0.00200987  0.00564931  -0.00003457  1
  Ag  Ag12  1  -0.00190871  0.83972347  0.50885206  1
  Ag  Ag13  1  0.82569420  0.66206978  0.50046340  1
  Ag  Ag14  1  -0.00367464  0.16203412  0.50541261  1
  Ag  Ag15  1  0.49665525  -0.00144637  0.50003607  1
  Ag  Ag16  1  -0.00065572  0.49601313  0.83609063  1
  Ag  Ag17  1  0.16938311  -0.00007753  0.50399525  1
  Ag  Ag18  1  0.33242642  0.00143769  0.67110199  1
  Ag  Ag19  1  0.16171106  0.83628114  0.66620477  1
  Ag  Ag20  1  0.83698084  0.83340944  0.00144670  1
  Ag  Ag21  1  0.33441972  0.32598626  0.66689629  1
  Ag  Ag22  1  0.00670254  0.16847919  0.83702194  1
  Ag  Ag23  1  0.00256543  0.16299365  0.15849770  1
  Ag  Ag24  1  0.65930501  0.00158527  0.00049482  1
  Ag  Ag25  1  0.65921928  0.33500714  0.34428629  1
  Ag  Ag26  1  0.00625381  -0.00334192  0.66630104  1
  Ag  Ag27  1  -0.00772183  0.49858429  0.16120034  1
  Ag  Ag28  1  0.49832382  0.17257149  0.33559202  1
  Ag  Ag29  1  0.49750179  0.82769983  0.33613464  1
  Ag  Ag30  1  0.33402450  0.84088722  0.16567479  1
  Ag  Ag31  1  0.16488823  0.16446169  -0.00024235  1
  Ag  Ag32  1  0.16697980  0.33189783  0.83240942  1
  Ag  Ag33  1  0.34168238  0.33465330  0.33357723  1
  Ag  Ag34  1  0.16996579  0.66350312  0.83315371  1
  Ag  Ag35  1  0.50422254  0.50013174  0.33235153  1
  Ag  Ag36  1  0.32915270  0.16645409  0.84123950  1
  Ag  Ag37  1  0.83260080  0.66034301  0.16723208  1
  Ag  Ag38  1  0.49433643  0.66970377  0.83384969  1
  Ag  Ag39  1  0.83276378  0.50007214  0.00895349  1
  Ag  Ag40  1  0.50133163  0.50447036  0.00551169  1
  Ag  Ag41  1  0.66628334  0.48900111  0.49920503  1
  Ag  Ag42  1  0.17178267  0.00102300  0.16182164  1
  Ag  Ag43  1  0.00111244  0.83706830  0.16687446  1
  Ag  Ag44  1  -0.00630903  0.67749431  0.66671227  1
  Ag  Ag45  1  0.49442220  -0.00185468  0.83615748  1
  Ag  Ag46  1  0.49902134  0.83364096  0.66125568  1
  Ag  Ag47  1  0.83625358  0.34231852  0.16911229  1
  Ag  Ag48  1  0.50505877  0.66865967  0.49696211  1
  Ag  Ag49  1  0.33064008  0.16172686  0.16019977  1
  Ag  Ag50  1  0.33814757  0.66856357  0.00305415  1
  Ag  Ag51  1  0.33345653  0.00348361  0.00314971  1
  Ag  Ag52  1  0.49177238  -0.00503475  0.16300768  1
  Ag  Ag53  1  0.49802587  0.67046368  0.17292587  1
  Sb  Sb54  1  0.16465605  0.50308948  0.66773872  1
  Sb  Sb55  1  0.33245699  0.49911931  0.16504753  1
  Sb  Sb56  1  0.00076200  0.00026864  0.33285316  1
  Sb  Sb57  1  0.49630167  0.16661017  0.00472454  1
  Sb  Sb58  1  0.33146812  0.49620677  0.83514910  1
  Sb  Sb59  1  0.66496517  0.16657557  0.83034595  1
  Sb  Sb60  1  0.66403525  0.66913580  -0.00314476  1
  Sb  Sb61  1  -0.00774784  0.49923260  0.50176159  1
  Sb  Sb62  1  0.33341577  0.83817364  0.83625160  1
  Sb  Sb63  1  0.00135999  0.83620926  0.83123874  1
  Sb  Sb64  1  0.66067031  0.66057424  0.33916556  1
  Sb  Sb65  1  0.33587691  0.67104358  0.66878175  1
  Sb  Sb66  1  0.83722531  0.16500966  0.66810689  1
  Sb  Sb67  1  0.16404111  0.32769416  0.16202916  1
  Sb  Sb68  1  0.66460085  0.83316604  0.16615091  1
  Sb  Sb69  1  0.16867386  0.67235838  0.16187937  1
  Sb  Sb70  1  0.16679921  0.32617180  0.50593481  1
  Sb  Sb71  1  0.66929122  0.50055066  0.82976528  1
  Sb  Sb72  1  0.34116952  0.49916544  0.49885341  1
  Sb  Sb73  1  0.16683098  0.67335031  0.50483561  1
  Sb  Sb74  1  0.17132228  0.83382995  0.33523364  1
  Sb  Sb75  1  0.33738291  0.00134997  0.32779161  1
  Sb  Sb76  1  0.66724035  0.83383729  0.50131894  1
  Sb  Sb77  1  0.16796951  0.49948897  0.33115984  1
  Sb  Sb78  1  0.00173997  0.32797798  -0.00316826  1
  Sb  Sb79  1  0.49855016  0.16341146  0.66105962  1
  Sb  Sb80  1  0.33480700  0.83545803  0.49713705  1
  Sb  Sb81  1  0.66554032  0.16706479  0.16879927  1
  Sb  Sb82  1  0.16566537  0.16174966  0.67146112  1
  Sb  Sb83  1  0.83018075  0.17360557  0.33051748  1
  Sb  Sb84  1  0.50050420  0.83293982  0.00131765  1
  Sb  Sb85  1  0.67019125  0.49957659  0.17199226  1
  Sb  Sb86  1  0.00136126  0.66637986  0.33567314  1
  Sb  Sb87  1  0.00148448  0.66911318  -0.00338599  1
  Sb  Sb88  1  0.83921203  0.33380913  0.83139179  1
  Sb  Sb89  1  0.16986598  0.00260559  0.83346324  1
  Sb  Sb90  1  0.83590986  -0.00142229  0.16259481  1
  Sb  Sb91  1  0.83475578  0.66600452  0.83231206  1
  Sb  Sb92  1  0.50079716  0.50370866  0.66489294  1
  Sb  Sb93  1  0.83444129  0.50256977  0.66456540  1
  Sb  Sb94  1  0.16613480  0.49585673  -0.00055740  1
  Sb  Sb95  1  0.33387801  0.16464455  0.49909026  1
  Sb  Sb96  1  0.66093992  0.00591764  0.33097075  1
  Sb  Sb97  1  0.83287850  0.00083692  0.83560638  1
  Sb  Sb98  1  0.82977348  0.82549055  0.33329194  1
  Sb  Sb99  1  0.49351320  0.33276554  0.82912651  1
  Sb  Sb100  1  0.66504525  0.33043689  -0.00078335  1
  Sb  Sb101  1  0.66505543  0.83280044  0.83314702  1
  Sb  Sb102  1  0.83269401  0.00041728  0.50205900  1
  Sb  Sb103  1  0.17075314  0.16614550  0.32882540  1
  Sb  Sb104  1  -0.00020699  0.33326174  0.33602773  1
  Sb  Sb105  1  0.66394935  -0.00157081  0.66900885  1
  Sb  Sb106  1  0.16446341  0.83854773  -0.00307359  1
  Sb  Sb107  1  0.50117260  0.33425247  0.17276319  1
  Te  Te108  1  0.16584524  0.16236932  0.16263491  1
  Te  Te109  1  0.16043206  0.15896433  0.49804106  1
  Te  Te110  1  0.16773015  0.16842859  0.83746786  1
  Te  Te111  1  0.15440256  0.50030698  0.16629894  1
  Te  Te112  1  0.16557092  0.50113281  0.49854800  1
  Te  Te113  1  0.16014564  0.50002824  0.83399005  1
  Te  Te114  1  0.16572493  0.83947647  0.16664190  1
  Te  Te115  1  0.16097128  0.83903706  0.50332129  1
  Te  Te116  1  0.16757922  0.82605946  0.82744908  1
  Te  Te117  1  0.49697672  0.16480199  0.17194886  1
  Te  Te118  1  0.49972533  0.16747084  0.49595872  1
  Te  Te119  1  0.49584287  0.16309460  0.83308096  1
  Te  Te120  1  0.49987742  0.50383752  0.16653567  1
  Te  Te121  1  0.50499504  0.50171105  0.49787483  1
  Te  Te122  1  0.50058136  0.50400884  0.83743141  1
  Te  Te123  1  0.49747007  0.83183343  0.16741716  1
  Te  Te124  1  0.50027294  0.83306975  0.49964468  1
  Te  Te125  1  0.49873576  0.83264824  0.82994858  1
  Te  Te126  1  0.83619591  0.16630909  0.16323747  1
  Te  Te127  1  0.83505414  0.17019505  0.49924422  1
  Te  Te128  1  0.83740115  0.16741760  0.84012732  1
  Te  Te129  1  0.83395949  0.50202853  0.16669911  1
  Te  Te130  1  0.82867866  0.50128370  0.49810537  1
  Te  Te131  1  0.83845677  0.50015184  0.84168174  1
  Te  Te132  1  0.83663099  0.83007363  0.16536650  1
  Te  Te133  1  0.83753386  0.82919878  0.50140673  1
  Te  Te134  1  0.83328114  0.83264240  0.83415636  1
  Te  Te135  1  0.16707014  0.00321077  0.00024647  1
  Te  Te136  1  0.16897764  -0.00032084  0.33739582  1
  Te  Te137  1  0.16676322  -0.00353335  0.66724683  1
  Te  Te138  1  0.17346214  0.32872428  -0.00455351  1
  Te  Te139  1  0.17716310  0.33403424  0.33441459  1
  Te  Te140  1  0.16638166  0.33367813  0.67119911  1
  Te  Te141  1  0.17226729  0.66706916  -0.00597572  1
  Te  Te142  1  0.17794044  0.66580165  0.33379020  1
  Te  Te143  1  0.16608774  0.67216735  0.67078696  1
  Te  Te144  1  0.49630002  -0.00039160  0.00093320  1
  Te  Te145  1  0.49916606  -0.00150098  0.33704075  1
  Te  Te146  1  0.49989744  -0.00322007  0.66465336  1
  Te  Te147  1  0.49645196  0.33823751  0.00030849  1
  Te  Te148  1  0.49967176  0.33627313  0.33393216  1
  Te  Te149  1  0.49927789  0.33345020  0.66123943  1
  Te  Te150  1  0.49976266  0.66678547  0.00008808  1
  Te  Te151  1  0.50000709  0.66461215  0.33346402  1
  Te  Te152  1  0.50007939  0.66992934  0.66434021  1
  Te  Te153  1  0.84033287  -0.00050356  0.00000149  1
  Te  Te154  1  0.82960108  -0.00187945  0.33223411  1
  Te  Te155  1  0.83605746  -0.00747387  0.66802695  1
  Te  Te156  1  0.83147768  0.33434400  0.00253015  1
  Te  Te157  1  0.83383915  0.33791892  0.33504559  1
  Te  Te158  1  0.83438014  0.33333255  0.66282765  1
  Te  Te159  1  0.83224876  0.66687552  0.00235486  1
  Te  Te160  1  0.83330348  0.66035806  0.33296918  1
  Te  Te161  1  0.83389304  0.66885617  0.66549670  1
  Te  Te162  1  0.00172542  0.16669207  -0.00091857  1
  Te  Te163  1  -0.00046347  0.16740140  0.33295660  1
  Te  Te164  1  -0.00009823  0.16536691  0.66632078  1
  Te  Te165  1  -0.00218392  0.49990736  -0.00001695  1
  Te  Te166  1  -0.00451373  0.50035057  0.32858627  1
  Te  Te167  1  -0.00054449  0.49512159  0.67087634  1
  Te  Te168  1  -0.00241881  0.83750076  0.00202305  1
  Te  Te169  1  -0.00038485  0.83222380  0.32895422  1
  Te  Te170  1  0.00003735  0.83558194  0.66813416  1
  Te  Te171  1  0.33465659  0.16483732  0.00083694  1
  Te  Te172  1  0.33778823  0.17092140  0.32928685  1
  Te  Te173  1  0.33245932  0.16527853  0.66944509  1
  Te  Te174  1  0.33694505  0.50519494  -0.00005182  1
  Te  Te175  1  0.33799929  0.49878510  0.33212154  1
  Te  Te176  1  0.33221353  0.48964392  0.66682442  1
  Te  Te177  1  0.33296499  0.83489149  0.00490304  1
  Te  Te178  1  0.33820630  0.82928972  0.32788648  1
  Te  Te179  1  0.33636363  0.83887935  0.66667115  1
  Te  Te180  1  0.67146553  0.16208067  -0.00089825  1
  Te  Te181  1  0.66215167  0.17288375  0.33794356  1
  Te  Te182  1  0.66891605  0.16984029  0.66215319  1
  Te  Te183  1  0.66541730  0.49970990  -0.00153635  1
  Te  Te184  1  0.66582180  0.49545270  0.33753245  1
  Te  Te185  1  0.66779324  0.50036052  0.66199505  1
  Te  Te186  1  0.67525597  0.84011347  -0.00034102  1
  Te  Te187  1  0.65786212  0.83374444  0.33361625  1
  Te  Te188  1  0.66412813  0.83004329  0.66673195  1
  Te  Te189  1  0.00228619  0.00078370  0.16581425  1
  Te  Te190  1  -0.00143666  -0.00016858  0.50137811  1
  Te  Te191  1  0.00134495  0.00486921  0.83317847  1
  Te  Te192  1  -0.00309773  0.33021746  0.16746051  1
  Te  Te193  1  0.00081373  0.33002690  0.50448514  1
  Te  Te194  1  0.00385262  0.33090575  0.83006747  1
  Te  Te195  1  -0.00040363  0.67088386  0.16637789  1
  Te  Te196  1  -0.00127996  0.66850703  0.50458732  1
  Te  Te197  1  0.00164328  0.66479415  0.82839423  1
  Te  Te198  1  0.33303349  0.00046355  0.16590369  1
  Te  Te199  1  0.33488082  -0.00017404  0.50606295  1
  Te  Te200  1  0.33515139  0.00367316  0.83204499  1
  Te  Te201  1  0.33251749  0.33067025  0.16443616  1
  Te  Te202  1  0.33486826  0.33162712  0.50144592  1
  Te  Te203  1  0.32931109  0.32952798  0.83366740  1
  Te  Te204  1  0.33443449  0.66577986  0.16467925  1
  Te  Te205  1  0.33848777  0.66716452  0.49864024  1
  Te  Te206  1  0.33474525  0.66584456  0.83617361  1
  Te  Te207  1  0.65808094  0.00043755  0.16112162  1
  Te  Te208  1  0.66110840  0.00548593  0.50023968  1
  Te  Te209  1  0.65728596  0.00171292  0.83888454  1
  Te  Te210  1  0.67551393  0.33227130  0.16796717  1
  Te  Te211  1  0.66546017  0.33276693  0.50065767  1
  Te  Te212  1  0.66513843  0.33270531  0.82514752  1
  Te  Te213  1  0.66677324  0.66697711  0.16587110  1
  Te  Te214  1  0.66645525  0.66840534  0.50394041  1
  Te  Te215  1  0.65906835  0.66577667  0.82576578  1
