# generated using pymatgen
data_AgSbTe2
_symmetry_space_group_name_H-M   'P 1'
_cell_length_a   18.32389890
_cell_length_b   18.32487366
_cell_length_c   18.32514447
_cell_angle_alpha   90.00071610
_cell_angle_beta   89.99638006
_cell_angle_gamma   90.00033118
_symmetry_Int_Tables_number   1
_chemical_formula_structural   AgSbTe2
_chemical_formula_sum   'Ag54 Sb54 Te108'
_cell_volume   6153.27439642
_cell_formula_units_Z   54
loop_
 _symmetry_equiv_pos_site_id
 _symmetry_equiv_pos_as_xyz
  1  'x, y, z'
loop_
 _atom_site_type_symbol
 _atom_site_label
 _atom_site_symmetry_multiplicity
 _atom_site_fract_x
 _atom_site_fract_y
 _atom_site_fract_z
 _atom_site_occupancy
  Ag  Ag0  1  0.33419212  0.83289388  0.51325863  1
  Ag  Ag1  1  0.16679582  0.16471365  0.66692221  1
  Ag  Ag2  1  0.17707911  0.83751352  0.67245663  1
  Ag  Ag3  1  0.16637875  0.00489804  0.16614170  1
  Ag  Ag4  1  0.00178477  0.66551871  0.67277207  1
  Ag  Ag5  1  0.82325659  0.49214674  0.67197778  1
  Ag  Ag6  1  0.15913008  0.16439690  0.33225372  1
  Ag  Ag7  1  0.49420419  0.83174326  0.67120904  1
  Ag  Ag8  1  0.50539213  -0.00763298  0.82708280  1
  Ag  Ag9  1  0.34430574  0.50377183  0.82758091  1
  Ag  Ag10  1  0.83078145  0.00912308  0.50321304  1
  Ag  Ag11  1  -0.00500292  0.16945259  0.50045455  1
  Ag  Ag12  1  0.00134545  0.83072589  0.83280385  1
  Ag  Ag13  1  0.16915292  0.84109877  -0.01008589  1
  Ag  Ag14  1  0.83561491  0.00593181  0.16578528  1
  Ag  Ag15  1  0.83323319  0.17334312  0.66370551  1
  Ag  Ag16  1  0.33607592  0.83010990  0.82931464  1
  Ag  Ag17  1  0.66694467  0.66004689  0.33027306  1
  Ag  Ag18  1  0.33944039  0.50010131  0.51082063  1
  Ag  Ag19  1  0.66668729  0.49429785  0.51058371  1
  Ag  Ag20  1  -0.00344181  0.33590037  -0.00265976  1
  Ag  Ag21  1  0.33358531  0.66348655  0.66944920  1
  Ag  Ag22  1  0.66967232  0.00583665  0.33648593  1
  Ag  Ag23  1  0.82750778  0.65982006  0.83455356  1
  Ag  Ag24  1  0.50530209  0.66463112  0.83250137  1
  Ag  Ag25  1  0.82919872  0.32928100  0.50833428  1
  Ag  Ag26  1  0.33173193  -0.00249305  0.00025282  1
  Ag  Ag27  1  0.50034508  0.17313787  0.66706863  1
  Ag  Ag28  1  0.67062675  0.16999876  0.82947567  1
  Ag  Ag29  1  0.50259809  0.49693545  0.66842875  1
  Ag  Ag30  1  0.83230209  0.33854343  0.82672392  1
  Ag  Ag31  1  0.32484747  0.16121961  0.16448188  1
  Ag  Ag32  1  -0.00245238  0.66187543  -0.00854440  1
  Ag  Ag33  1  -0.00973813  0.49185757  0.50466595  1
  Ag  Ag34  1  0.66554367  0.33602368  0.66486746  1
  Ag  Ag35  1  0.16824437  0.00341227  0.49969614  1
  Ag  Ag36  1  0.66920276  0.50207034  0.16557565  1
  Ag  Ag37  1  0.34289182  0.33978266  0.66732846  1
  Ag  Ag38  1  0.82921876  0.49873565  -0.01000591  1
  Ag  Ag39  1  0.66472839  0.49977322  0.82891945  1
  Ag  Ag40  1  0.67120360  0.33256617  0.34552768  1
  Ag  Ag41  1  0.33345259  0.83845697  0.15806004  1
  Ag  Ag42  1  0.83122592  0.33086247  0.16452585  1
  Ag  Ag43  1  0.82836460  0.65915150  0.15903076  1
  Ag  Ag44  1  0.50797808  0.50109872  -0.01545114  1
  Ag  Ag45  1  0.66257640  0.83161272  0.83118318  1
  Ag  Ag46  1  0.82637914  0.00307525  0.83168289  1
  Ag  Ag47  1  0.50067803  0.00438122  0.50990793  1
  Ag  Ag48  1  0.50606088  0.66561387  0.15847412  1
  Ag  Ag49  1  0.00127122  0.16550133  0.16911977  1
  Ag  Ag50  1  0.50945241  0.33164629  0.50808957  1
  Ag  Ag51  1  0.16206272  0.33150740  0.83061849  1
  Ag  Ag52  1  0.83419109  0.16722940  0.34280421  1
  Ag  Ag53  1  0.16649179  0.16105553  0.00060994  1
  Sb  Sb54  1  0.83936850  0.17208765  -0.00268212  1
  Sb  Sb55  1  0.50484811  0.16562701  0.34005138  1
  Sb  Sb56  1  -0.00528642  0.00278427  0.33357502  1
  Sb  Sb57  1  0.33571885  -0.00244978  0.66990327  1
  Sb  Sb58  1  0.32900426  0.33161094  -0.00688481  1
  Sb  Sb59  1  0.33856865  0.33050940  0.34003784  1
  Sb  Sb60  1  0.16972889  0.49769891  0.66809370  1
  Sb  Sb61  1  -0.00702391  0.32932398  0.33175512  1
  Sb  Sb62  1  0.16825392  0.84211843  0.33525656  1
  Sb  Sb63  1  0.50662117  0.33718936  0.17090128  1
  Sb  Sb64  1  0.16608340  0.66596296  0.83127902  1
  Sb  Sb65  1  0.16476506  0.32678694  0.50661176  1
  Sb  Sb66  1  0.00340854  0.00216723  -0.00127739  1
  Sb  Sb67  1  0.33545783  0.16565155  0.83193109  1
  Sb  Sb68  1  0.66327230  0.83246148  0.50658142  1
  Sb  Sb69  1  0.49923531  -0.00332391  0.16495017  1
  Sb  Sb70  1  0.33043118  0.67044339  -0.00689749  1
  Sb  Sb71  1  0.67085002  0.66378769  -0.00101912  1
  Sb  Sb72  1  0.49425267  0.82835519  -0.00885929  1
  Sb  Sb73  1  0.67019971  0.16976455  0.16455451  1
  Sb  Sb74  1  0.50079335  0.83303040  0.33909431  1
  Sb  Sb75  1  0.50046201  0.66471200  0.50796112  1
  Sb  Sb76  1  -0.00816534  0.66389650  0.33386245  1
  Sb  Sb77  1  -0.00331972  0.16524403  0.83142401  1
  Sb  Sb78  1  0.82842359  0.49295174  0.33596711  1
  Sb  Sb79  1  0.66362651  0.82956779  0.16181637  1
  Sb  Sb80  1  0.50513824  0.50086738  0.34120487  1
  Sb  Sb81  1  0.83055423  0.83303690  0.67067789  1
  Sb  Sb82  1  0.83112157  0.66263495  0.50364193  1
  Sb  Sb83  1  -0.00571407  0.50353242  0.82874782  1
  Sb  Sb84  1  0.16712597  0.67059730  0.50230799  1
  Sb  Sb85  1  0.34159484  0.50112784  0.16321986  1
  Sb  Sb86  1  0.67173258  0.33645965  -0.00538906  1
  Sb  Sb87  1  -0.00447639  0.33663273  0.66970364  1
  Sb  Sb88  1  0.16672245  0.49119803  0.33591961  1
  Sb  Sb89  1  0.50443798  0.33687413  0.82643704  1
  Sb  Sb90  1  0.33673268  0.00149362  0.33129884  1
  Sb  Sb91  1  0.16635899  0.67373574  0.16413169  1
  Sb  Sb92  1  -0.00040152  -0.00091503  0.66781467  1
  Sb  Sb93  1  0.00363651  0.83673442  0.50925362  1
  Sb  Sb94  1  0.67306897  0.17253556  0.50638411  1
  Sb  Sb95  1  0.83032710  0.84018821  0.33301316  1
  Sb  Sb96  1  0.33052031  0.16446434  0.50093328  1
  Sb  Sb97  1  0.16059411  0.32431571  0.16096207  1
  Sb  Sb98  1  0.16846552  0.00060560  0.83311196  1
  Sb  Sb99  1  0.00313003  0.83669216  0.15927307  1
  Sb  Sb100  1  0.49521419  0.17119736  -0.00713350  1
  Sb  Sb101  1  0.33894303  0.66757682  0.33713420  1
  Sb  Sb102  1  0.66534653  0.65948892  0.66822731  1
  Sb  Sb103  1  0.66552166  0.00706051  0.66573362  1
  Sb  Sb104  1  0.83890675  0.82914701  -0.00403703  1
  Sb  Sb105  1  0.16353526  0.49868909  -0.00292875  1
  Sb  Sb106  1  0.66431308  0.00066444  -0.00247579  1
  Sb  Sb107  1  -0.00772275  0.49588416  0.16735106  1
  Te  Te108  1  0.16502447  0.16391492  0.16456286  1
  Te  Te109  1  0.16348874  0.16265566  0.50344377  1
  Te  Te110  1  0.16565221  0.16809888  0.83035849  1
  Te  Te111  1  0.16802797  0.49943512  0.16751206  1
  Te  Te112  1  0.16972981  0.49858505  0.49923092  1
  Te  Te113  1  0.17189810  0.49391919  0.83460582  1
  Te  Te114  1  0.17118380  0.84173993  0.16696696  1
  Te  Te115  1  0.17110905  0.84102415  0.50318328  1
  Te  Te116  1  0.16859580  0.83348463  0.83180984  1
  Te  Te117  1  0.49686337  0.16684661  0.16567479  1
  Te  Te118  1  0.49847427  0.16521356  0.50546161  1
  Te  Te119  1  0.50396487  0.16315045  0.82836027  1
  Te  Te120  1  0.50483323  0.50479247  0.16746004  1
  Te  Te121  1  0.50111986  0.49801870  0.50661499  1
  Te  Te122  1  0.50204733  0.50028388  0.82950819  1
  Te  Te123  1  0.49527522  0.82815040  0.16549987  1
  Te  Te124  1  0.49591105  0.83547488  0.50656254  1
  Te  Te125  1  0.49847901  0.83179248  0.83165469  1
  Te  Te126  1  0.83443630  0.16663466  0.16377192  1
  Te  Te127  1  0.83396438  0.16720014  0.50259974  1
  Te  Te128  1  0.83174890  0.16609634  0.83148271  1
  Te  Te129  1  0.83006441  0.50023327  0.16856023  1
  Te  Te130  1  0.83026251  0.49760801  0.50272415  1
  Te  Te131  1  0.83359009  0.50014560  0.83158548  1
  Te  Te132  1  0.83331211  0.83784449  0.16450462  1
  Te  Te133  1  0.83355550  0.84187181  0.50185659  1
  Te  Te134  1  0.83198402  0.83327789  0.83284198  1
  Te  Te135  1  0.16915739  0.00051617  0.00052752  1
  Te  Te136  1  0.16762411  0.00716081  0.33289502  1
  Te  Te137  1  0.16660937  0.00197296  0.66449567  1
  Te  Te138  1  0.16113934  0.33019771  -0.00578301  1
  Te  Te139  1  0.16723276  0.32327752  0.33294789  1
  Te  Te140  1  0.16622061  0.32847945  0.67131539  1
  Te  Te141  1  0.15861960  0.67012272  0.00097163  1
  Te  Te142  1  0.16591304  0.66604482  0.33270918  1
  Te  Te143  1  0.16766854  0.67223431  0.66574413  1
  Te  Te144  1  0.49462567  0.00101521  -0.00414182  1
  Te  Te145  1  0.50834862  0.00041328  0.33755943  1
  Te  Te146  1  0.50043749  0.00182488  0.66745275  1
  Te  Te147  1  0.49839107  0.34063248  0.00167051  1
  Te  Te148  1  0.50806535  0.33216121  0.34239483  1
  Te  Te149  1  0.50090081  0.33395084  0.66575262  1
  Te  Te150  1  0.49756688  0.66158703  -0.00319034  1
  Te  Te151  1  0.50580239  0.66738037  0.32667361  1
  Te  Te152  1  0.49782255  0.66462513  0.67159339  1
  Te  Te153  1  0.83329184  0.00011699  -0.00037416  1
  Te  Te154  1  0.82953832  0.00590723  0.33251490  1
  Te  Te155  1  0.83274157  0.00355674  0.66760443  1
  Te  Te156  1  0.83603355  0.33785865  0.00088514  1
  Te  Te157  1  0.82947651  0.32720126  0.33215119  1
  Te  Te158  1  0.83375885  0.33365579  0.66725220  1
  Te  Te159  1  0.83719030  0.66334118  -0.00172814  1
  Te  Te160  1  0.82732424  0.66839674  0.33071082  1
  Te  Te161  1  0.83611007  0.66490122  0.67097765  1
  Te  Te162  1  0.00624595  0.17044939  0.00220167  1
  Te  Te163  1  -0.00202000  0.16615056  0.33315984  1
  Te  Te164  1  -0.00070691  0.16682708  0.66292891  1
  Te  Te165  1  -0.00449826  0.49968310  0.00063429  1
  Te  Te166  1  0.00009875  0.49836652  0.34391337  1
  Te  Te167  1  0.00124379  0.50501884  0.66260421  1
  Te  Te168  1  0.00710833  0.82953932  -0.00517932  1
  Te  Te169  1  -0.00001203  0.83113311  0.33413635  1
  Te  Te170  1  0.00210798  0.82805075  0.67216913  1
  Te  Te171  1  0.32800795  0.16404429  0.00321888  1
  Te  Te172  1  0.33252701  0.16680980  0.32654155  1
  Te  Te173  1  0.33368391  0.17121850  0.66614983  1
  Te  Te174  1  0.33583403  0.50055682  -0.00530867  1
  Te  Te175  1  0.33420838  0.49973685  0.33981902  1
  Te  Te176  1  0.33146873  0.50057436  0.66786306  1
  Te  Te177  1  0.32872597  0.83551784  -0.00041617  1
  Te  Te178  1  0.33328130  0.83301512  0.33134736  1
  Te  Te179  1  0.33370080  0.83435470  0.66873109  1
  Te  Te180  1  0.66470500  0.16831817  -0.00893666  1
  Te  Te181  1  0.67163567  0.16784497  0.33090611  1
  Te  Te182  1  0.66789514  0.17296276  0.67104828  1
  Te  Te183  1  0.66814766  0.50009020  -0.00024139  1
  Te  Te184  1  0.66626083  0.49772125  0.32916988  1
  Te  Te185  1  0.66610579  0.49866479  0.66778143  1
  Te  Te186  1  0.66598979  0.83359571  -0.00905433  1
  Te  Te187  1  0.66592574  0.83362671  0.33321652  1
  Te  Te188  1  0.66033447  0.83017563  0.67246476  1
  Te  Te189  1  -0.00098556  0.00429030  0.16626086  1
  Te  Te190  1  -0.00071494  0.00457157  0.50055227  1
  Te  Te191  1  -0.00820974  -0.00674734  0.83408970  1
  Te  Te192  1  -0.00649564  0.32872577  0.16268205  1
  Te  Te193  1  -0.00413608  0.33211202  0.49955716  1
  Te  Te194  1  -0.00294277  0.33379900  0.83628393  1
  Te  Te195  1  -0.00624448  0.66648226  0.16457732  1
  Te  Te196  1  -0.00098709  0.66483991  0.50378451  1
  Te  Te197  1  -0.00032977  0.66856267  0.83246846  1
  Te  Te198  1  0.33347896  0.00027222  0.16432568  1
  Te  Te199  1  0.33501466  -0.00340453  0.49908872  1
  Te  Te200  1  0.33638139  -0.00326838  0.83811582  1
  Te  Te201  1  0.33485947  0.33157805  0.16810769  1
  Te  Te202  1  0.33454561  0.33599076  0.50528067  1
  Te  Te203  1  0.33187993  0.33517219  0.82834335  1
  Te  Te204  1  0.33691337  0.66885203  0.16763710  1
  Te  Te205  1  0.33395074  0.66760564  0.50454341  1
  Te  Te206  1  0.33298818  0.66716046  0.82935223  1
  Te  Te207  1  0.66970402  -0.00091767  0.17000504  1
  Te  Te208  1  0.66672214  -0.00215753  0.49745904  1
  Te  Te209  1  0.66643158  -0.00140650  0.83234583  1
  Te  Te210  1  0.67141178  0.33773216  0.16689607  1
  Te  Te211  1  0.66851996  0.33479918  0.50276139  1
  Te  Te212  1  0.67105844  0.33603848  0.82912499  1
  Te  Te213  1  0.66843288  0.66539167  0.16766716  1
  Te  Te214  1  0.66689563  0.66205391  0.49247536  1
  Te  Te215  1  0.66724197  0.66353677  0.83255173  1
