# generated using pymatgen
data_AgSbTe2
_symmetry_space_group_name_H-M   'P 1'
_cell_length_a   18.34520341
_cell_length_b   18.34481790
_cell_length_c   18.33752006
_cell_angle_alpha   89.99969890
_cell_angle_beta   89.99937048
_cell_angle_gamma   90.00118545
_symmetry_Int_Tables_number   1
_chemical_formula_structural   AgSbTe2
_chemical_formula_sum   'Ag54 Sb54 Te108'
_cell_volume   6171.29828874
_cell_formula_units_Z   54
loop_
 _symmetry_equiv_pos_site_id
 _symmetry_equiv_pos_as_xyz
  1  'x, y, z'
loop_
 _atom_site_type_symbol
 _atom_site_label
 _atom_site_symmetry_multiplicity
 _atom_site_fract_x
 _atom_site_fract_y
 _atom_site_fract_z
 _atom_site_occupancy
  Ag  Ag0  1  0.50048816  0.50242447  0.33914528  1
  Ag  Ag1  1  0.82172438  0.50060362  0.34470888  1
  Ag  Ag2  1  0.00201145  0.16655795  0.16003969  1
  Ag  Ag3  1  0.17338913  0.49336681  0.00326525  1
  Ag  Ag4  1  0.32814805  0.82668257  0.15893212  1
  Ag  Ag5  1  0.49196035  0.17146254  0.00065745  1
  Ag  Ag6  1  0.16696473  0.83081119  0.65283053  1
  Ag  Ag7  1  0.33191966  0.82538533  0.84711652  1
  Ag  Ag8  1  0.66569989  0.65668104  0.33805799  1
  Ag  Ag9  1  0.00829448  0.83737206  0.16703586  1
  Ag  Ag10  1  0.32626523  0.33838746  0.65815867  1
  Ag  Ag11  1  0.00890455  0.83368784  0.49820746  1
  Ag  Ag12  1  0.83772923  0.66324383  0.50133638  1
  Ag  Ag13  1  0.49788337  0.82797105  0.33208942  1
  Ag  Ag14  1  0.49132713  0.49911917  0.00102608  1
  Ag  Ag15  1  0.66171592  0.00857356  0.00643243  1
  Ag  Ag16  1  0.00851118  0.17306971  0.49865503  1
  Ag  Ag17  1  0.48818264  0.33833498  0.50160985  1
  Ag  Ag18  1  0.65737720  0.49699007  0.17302855  1
  Ag  Ag19  1  0.66062529  -0.00185185  0.33124709  1
  Ag  Ag20  1  0.82169051  0.50029154  0.66189560  1
  Ag  Ag21  1  0.32654468  0.18092791  0.49771412  1
  Ag  Ag22  1  0.17319904  0.33656564  0.50238236  1
  Ag  Ag23  1  0.00500379  0.33372821  0.66725391  1
  Ag  Ag24  1  0.00237584  0.17312458  0.84420074  1
  Ag  Ag25  1  0.66875614  0.17573129  0.16356594  1
  Ag  Ag26  1  0.32703350  0.83163671  0.49757074  1
  Ag  Ag27  1  0.16669757  0.17319324  0.00159416  1
  Ag  Ag28  1  0.33028542  -0.01042802  0.00564336  1
  Ag  Ag29  1  0.16614014  -0.00816717  0.50048668  1
  Ag  Ag30  1  0.48904082  0.83330829  0.00449992  1
  Ag  Ag31  1  0.84417391  -0.00782110  0.49966774  1
  Ag  Ag32  1  0.66753403  0.65639689  0.65658094  1
  Ag  Ag33  1  0.33273992  0.34095024  0.34286424  1
  Ag  Ag34  1  0.33492790  0.49520914  0.49837867  1
  Ag  Ag35  1  0.33408896  0.50156333  0.84409452  1
  Ag  Ag36  1  0.33491669  0.50238710  0.16111497  1
  Ag  Ag37  1  0.16482567  0.33424805  0.83849506  1
  Ag  Ag38  1  0.33638263  -0.00436983  0.33472741  1
  Ag  Ag39  1  0.66809387  0.33924537  0.66765790  1
  Ag  Ag40  1  0.84292658  0.33457042  0.83123870  1
  Ag  Ag41  1  0.49612290  0.66264141  0.83565439  1
  Ag  Ag42  1  0.17561911  0.83434051  0.00147163  1
  Ag  Ag43  1  0.66567160  0.49954134  0.49917118  1
  Ag  Ag44  1  0.16727393  0.33753208  0.15495727  1
  Ag  Ag45  1  0.33284215  0.67437344  0.00092858  1
  Ag  Ag46  1  0.50218117  0.49816892  0.65664256  1
  Ag  Ag47  1  0.01168775  0.32953419  -0.00624487  1
  Ag  Ag48  1  0.84063499  0.82533565  0.66132665  1
  Ag  Ag49  1  0.17021925  0.66575499  0.16717796  1
  Ag  Ag50  1  0.00466715  0.49677766  0.50079239  1
  Ag  Ag51  1  0.01204386  0.01060350  0.00236877  1
  Ag  Ag52  1  0.66527741  0.33198092  -0.00100893  1
  Ag  Ag53  1  0.16705392  0.66659133  0.49759350  1
  Sb  Sb54  1  0.66971503  0.00070076  0.66225984  1
  Sb  Sb55  1  0.16706800  0.00300012  0.83451404  1
  Sb  Sb56  1  0.33205595  0.33531345  -0.00006613  1
  Sb  Sb57  1  0.17018137  0.50028199  0.66471435  1
  Sb  Sb58  1  0.49488682  0.00339309  0.49806506  1
  Sb  Sb59  1  0.00587512  0.33464857  0.33537951  1
  Sb  Sb60  1  0.00434242  0.49869754  0.17086100  1
  Sb  Sb61  1  0.83528523  0.17328736  0.66428644  1
  Sb  Sb62  1  0.65902574  0.49873055  0.83011411  1
  Sb  Sb63  1  0.66596910  0.17292939  0.49465194  1
  Sb  Sb64  1  -0.00256866  0.66171371  0.66399410  1
  Sb  Sb65  1  0.83532544  0.00322814  0.82959927  1
  Sb  Sb66  1  0.83378267  -0.00134628  0.17174198  1
  Sb  Sb67  1  0.33615523  0.66046555  0.66752268  1
  Sb  Sb68  1  0.49541089  0.33978427  0.83205844  1
  Sb  Sb69  1  0.00216151  -0.00132569  0.33292065  1
  Sb  Sb70  1  0.49871440  0.17671300  0.66962068  1
  Sb  Sb71  1  0.17354439  0.49931969  0.33276382  1
  Sb  Sb72  1  0.82678553  0.66125677  0.82606558  1
  Sb  Sb73  1  0.49824323  0.16908298  0.32901886  1
  Sb  Sb74  1  0.66060430  0.83256957  0.83432561  1
  Sb  Sb75  1  0.49456385  0.33715865  0.16801051  1
  Sb  Sb76  1  0.49775742  0.65956303  0.50141095  1
  Sb  Sb77  1  0.33198105  0.00078540  0.66390241  1
  Sb  Sb78  1  0.00127644  0.00366160  0.66561769  1
  Sb  Sb79  1  0.17168027  0.66358989  0.83329340  1
  Sb  Sb80  1  0.82823065  0.83035782  0.33892763  1
  Sb  Sb81  1  0.49524683  0.82506753  0.66543147  1
  Sb  Sb82  1  0.00582271  0.49316015  0.82903074  1
  Sb  Sb83  1  0.16570163  0.16897320  0.66586085  1
  Sb  Sb84  1  0.83737835  0.66527564  0.17209489  1
  Sb  Sb85  1  0.66100108  0.33686899  0.33261228  1
  Sb  Sb86  1  -0.00221163  0.66660528  0.33691731  1
  Sb  Sb87  1  0.66468717  0.82659065  0.49893193  1
  Sb  Sb88  1  0.01019302  0.66500059  0.00181650  1
  Sb  Sb89  1  0.83320451  0.49801451  -0.00384396  1
  Sb  Sb90  1  0.66954636  0.17107949  0.84126973  1
  Sb  Sb91  1  0.83652507  0.83490144  -0.00519246  1
  Sb  Sb92  1  0.83237066  0.17181230  0.33603781  1
  Sb  Sb93  1  0.49818907  0.00001421  0.16569097  1
  Sb  Sb94  1  0.49380813  0.66468071  0.16422558  1
  Sb  Sb95  1  0.49758957  -0.00478577  0.83864701  1
  Sb  Sb96  1  0.17420857  0.83301066  0.33243128  1
  Sb  Sb97  1  0.16722262  -0.00063914  0.16657564  1
  Sb  Sb98  1  0.16821292  0.16754094  0.33263382  1
  Sb  Sb99  1  0.32951855  0.16973891  0.83284080  1
  Sb  Sb100  1  0.66310045  0.83009752  0.16740336  1
  Sb  Sb101  1  0.33122468  0.16799658  0.16795994  1
  Sb  Sb102  1  0.83688730  0.34125500  0.50465758  1
  Sb  Sb103  1  0.83880117  0.16716550  0.00019691  1
  Sb  Sb104  1  0.00809642  0.83870667  0.83148732  1
  Sb  Sb105  1  0.65719383  0.66175021  0.00309697  1
  Sb  Sb106  1  0.33862414  0.66659417  0.33094000  1
  Sb  Sb107  1  0.83687851  0.33510152  0.16243524  1
  Te  Te108  1  0.16423327  0.16980567  0.16279737  1
  Te  Te109  1  0.16751467  0.17139609  0.50008654  1
  Te  Te110  1  0.16318037  0.17089129  0.83554559  1
  Te  Te111  1  0.16866126  0.49941429  0.16578321  1
  Te  Te112  1  0.16649394  0.50106177  0.49907400  1
  Te  Te113  1  0.17240170  0.49670397  0.83616379  1
  Te  Te114  1  0.16802389  0.83375358  0.16576241  1
  Te  Te115  1  0.16554999  0.83053856  0.49548512  1
  Te  Te116  1  0.17247312  0.83310384  0.83909086  1
  Te  Te117  1  0.50426239  0.16952288  0.15918716  1
  Te  Te118  1  0.49646415  0.17415715  0.50082506  1
  Te  Te119  1  0.49886340  0.16756568  0.84159812  1
  Te  Te120  1  0.49802075  0.49981928  0.16337699  1
  Te  Te121  1  0.49905086  0.49874718  0.49871100  1
  Te  Te122  1  0.49378691  0.50242894  0.84143751  1
  Te  Te123  1  0.49461247  0.83161787  0.16658931  1
  Te  Te124  1  0.49702911  0.83442665  0.49678697  1
  Te  Te125  1  0.49296788  0.82815259  0.83581907  1
  Te  Te126  1  0.83522622  0.16661791  0.16859746  1
  Te  Te127  1  0.83539576  0.15957938  0.49988433  1
  Te  Te128  1  0.84099711  0.17217224  0.83121025  1
  Te  Te129  1  0.83257535  0.50151940  0.16783790  1
  Te  Te130  1  0.83125502  0.50188848  0.50236087  1
  Te  Te131  1  0.83486297  0.49556347  0.82701904  1
  Te  Te132  1  0.84286464  0.83148020  0.16626874  1
  Te  Te133  1  0.83036746  0.83024016  0.50325716  1
  Te  Te134  1  0.83465728  0.83316818  0.82416702  1
  Te  Te135  1  0.16903233  -0.00193642  0.00025487  1
  Te  Te136  1  0.17195536  0.00081986  0.34081192  1
  Te  Te137  1  0.16684567  -0.00721175  0.66182757  1
  Te  Te138  1  0.16842853  0.33300324  -0.00131064  1
  Te  Te139  1  0.17283998  0.33330719  0.34190471  1
  Te  Te140  1  0.16524029  0.33417428  0.66319038  1
  Te  Te141  1  0.17279617  0.66769916  0.00086255  1
  Te  Te142  1  0.16578339  0.66569044  0.33456910  1
  Te  Te143  1  0.16619467  0.67079075  0.66308875  1
  Te  Te144  1  0.49878256  -0.00322170  0.00020279  1
  Te  Te145  1  0.49840182  -0.00064309  0.33266872  1
  Te  Te146  1  0.50260306  0.00125166  0.66842029  1
  Te  Te147  1  0.50310803  0.33423682  -0.00008865  1
  Te  Te148  1  0.49407213  0.33690279  0.33696934  1
  Te  Te149  1  0.50248955  0.33858661  0.66536456  1
  Te  Te150  1  0.49421986  0.66497332  -0.00216665  1
  Te  Te151  1  0.50577046  0.66559113  0.33285279  1
  Te  Te152  1  0.50528721  0.66030798  0.67092201  1
  Te  Te153  1  0.82687913  -0.00102470  -0.00073366  1
  Te  Te154  1  0.83017207  -0.00021963  0.33934622  1
  Te  Te155  1  0.83321322  -0.00630323  0.66069462  1
  Te  Te156  1  0.82725829  0.33392957  -0.00551711  1
  Te  Te157  1  0.83323771  0.33970873  0.33196569  1
  Te  Te158  1  0.83281994  0.33784251  0.66952434  1
  Te  Te159  1  0.83225640  0.66717097  -0.00242610  1
  Te  Te160  1  0.82683789  0.66257339  0.33904625  1
  Te  Te161  1  0.82955959  0.66380594  0.66192213  1
  Te  Te162  1  0.00301455  0.16893521  0.00293662  1
  Te  Te163  1  -0.00046810  0.16647658  0.33764251  1
  Te  Te164  1  0.00044650  0.17192784  0.65772740  1
  Te  Te165  1  0.00260969  0.49478591  0.00104011  1
  Te  Te166  1  -0.00590121  0.49993214  0.33980548  1
  Te  Te167  1  0.00126135  0.49472636  0.66162788  1
  Te  Te168  1  0.00322164  0.83384792  0.00120921  1
  Te  Te169  1  -0.00341514  0.83394337  0.33514755  1
  Te  Te170  1  0.00270479  0.83455867  0.66364032  1
  Te  Te171  1  0.33157106  0.16471706  0.00015191  1
  Te  Te172  1  0.33493036  0.16027793  0.33619339  1
  Te  Te173  1  0.33367927  0.17202522  0.66146067  1
  Te  Te174  1  0.33117329  0.49573341  0.00225490  1
  Te  Te175  1  0.33799482  0.50058987  0.33581123  1
  Te  Te176  1  0.33614346  0.49787928  0.65886987  1
  Te  Te177  1  0.33328267  0.83344180  0.00303031  1
  Te  Te178  1  0.33914584  0.83299806  0.33632020  1
  Te  Te179  1  0.32942497  0.83253639  0.65914179  1
  Te  Te180  1  0.66782097  0.16776331  0.00453545  1
  Te  Te181  1  0.66567847  0.16172198  0.32530765  1
  Te  Te182  1  0.66644132  0.17260679  0.66700180  1
  Te  Te183  1  0.66524544  0.49695049  0.00229530  1
  Te  Te184  1  0.66264340  0.49782002  0.33377992  1
  Te  Te185  1  0.66352948  0.49756351  0.66746985  1
  Te  Te186  1  0.66386590  0.83421432  0.00100628  1
  Te  Te187  1  0.66030916  0.83818380  0.33184946  1
  Te  Te188  1  0.66669983  0.83181469  0.66737611  1
  Te  Te189  1  0.00014570  0.00118430  0.16348156  1
  Te  Te190  1  0.00330580  -0.00403754  0.49961971  1
  Te  Te191  1  -0.00062739  0.00795390  0.84143598  1
  Te  Te192  1  0.00517070  0.32997151  0.16549574  1
  Te  Te193  1  0.00088646  0.33445492  0.50124848  1
  Te  Te194  1  0.00334328  0.33248144  0.83331992  1
  Te  Te195  1  0.00795007  0.67059460  0.16810853  1
  Te  Te196  1  0.00094113  0.66784801  0.50119683  1
  Te  Te197  1  -0.00242688  0.66729605  0.83340008  1
  Te  Te198  1  0.33213286  -0.00144564  0.16831842  1
  Te  Te199  1  0.33009520  -0.00682976  0.49906814  1
  Te  Te200  1  0.33241596  -0.00248409  0.83599458  1
  Te  Te201  1  0.32722846  0.33576711  0.17069264  1
  Te  Te202  1  0.33317601  0.33587231  0.50064134  1
  Te  Te203  1  0.32812219  0.33633621  0.82767819  1
  Te  Te204  1  0.32825068  0.66480521  0.16497018  1
  Te  Te205  1  0.33034189  0.66855902  0.49990348  1
  Te  Te206  1  0.33529527  0.66439854  0.83463485  1
  Te  Te207  1  0.66737449  -0.00174830  0.16640886  1
  Te  Te208  1  0.66601443  0.00300740  0.49581025  1
  Te  Te209  1  0.66826180  0.00168254  0.83970372  1
  Te  Te210  1  0.66776845  0.33583799  0.16473347  1
  Te  Te211  1  0.66847888  0.33772739  0.50188545  1
  Te  Te212  1  0.66681387  0.33336079  0.83344019  1
  Te  Te213  1  0.66925751  0.66087006  0.17169254  1
  Te  Te214  1  0.66485598  0.66110104  0.49872607  1
  Te  Te215  1  0.65962628  0.66684098  0.83106480  1
