# generated using pymatgen
data_AgSbTe2
_symmetry_space_group_name_H-M   'P 1'
_cell_length_a   18.34892375
_cell_length_b   18.35000897
_cell_length_c   18.35104429
_cell_angle_alpha   89.99677229
_cell_angle_beta   89.99768013
_cell_angle_gamma   89.99974129
_symmetry_Int_Tables_number   1
_chemical_formula_structural   AgSbTe2
_chemical_formula_sum   'Ag54 Sb54 Te108'
_cell_volume   6178.85010006
_cell_formula_units_Z   54
loop_
 _symmetry_equiv_pos_site_id
 _symmetry_equiv_pos_as_xyz
  1  'x, y, z'
loop_
 _atom_site_type_symbol
 _atom_site_label
 _atom_site_symmetry_multiplicity
 _atom_site_fract_x
 _atom_site_fract_y
 _atom_site_fract_z
 _atom_site_occupancy
  Ag  Ag0  1  0.32686967  0.66359003  0.67940902  1
  Ag  Ag1  1  0.66830760  0.16223883  0.84247887  1
  Ag  Ag2  1  0.32841757  0.33038452  0.32991796  1
  Ag  Ag3  1  -0.00144809  0.33568444  0.34234045  1
  Ag  Ag4  1  0.00116745  0.67173031  -0.00527103  1
  Ag  Ag5  1  0.66658931  0.66928988  0.00165841  1
  Ag  Ag6  1  0.00222072  0.66772234  0.67351765  1
  Ag  Ag7  1  0.32681168  0.48679490  0.50120571  1
  Ag  Ag8  1  0.16204230  0.67313363  0.83755736  1
  Ag  Ag9  1  -0.00328060  0.82885450  0.16434526  1
  Ag  Ag10  1  0.00056860  0.83390000  0.50074027  1
  Ag  Ag11  1  0.84063063  0.32731679  0.83503817  1
  Ag  Ag12  1  0.00374799  0.48688413  0.49523722  1
  Ag  Ag13  1  0.66423982  0.33033288  0.00879287  1
  Ag  Ag14  1  0.16202349  0.32725694  0.83313107  1
  Ag  Ag15  1  0.15952453  0.01055343  0.50541414  1
  Ag  Ag16  1  0.66901181  0.32794625  0.32091774  1
  Ag  Ag17  1  0.83861857  0.83280170  0.67050791  1
  Ag  Ag18  1  0.33257963  0.83677419  0.16278593  1
  Ag  Ag19  1  0.67241630  0.83729693  0.16112363  1
  Ag  Ag20  1  0.51616608  0.00079988  0.83541360  1
  Ag  Ag21  1  -0.00005228  0.16382576  0.83007880  1
  Ag  Ag22  1  -0.00415688  -0.00371770  -0.00695467  1
  Ag  Ag23  1  -0.00040160  0.00431025  0.67632859  1
  Ag  Ag24  1  0.33445332  0.33441521  0.00503819  1
  Ag  Ag25  1  0.15683366  0.00301342  0.83425369  1
  Ag  Ag26  1  0.16686085  0.33206309  0.16798562  1
  Ag  Ag27  1  0.16191803  0.32911649  0.49821505  1
  Ag  Ag28  1  0.67083581  0.66663136  0.32105369  1
  Ag  Ag29  1  0.66803295  0.01332613  0.31717933  1
  Ag  Ag30  1  0.49902188  0.67045825  0.83844483  1
  Ag  Ag31  1  0.16393896  0.83225642  -0.00125326  1
  Ag  Ag32  1  0.50077482  0.49941470  0.00131518  1
  Ag  Ag33  1  -0.00487013  0.49548954  0.16966216  1
  Ag  Ag34  1  0.32585805  0.33399980  0.65806477  1
  Ag  Ag35  1  0.83624053  0.00367877  0.83828206  1
  Ag  Ag36  1  0.82919879  0.00236891  0.15979920  1
  Ag  Ag37  1  -0.00370133  0.66028181  0.33043774  1
  Ag  Ag38  1  0.00449744  0.33233038  0.65547806  1
  Ag  Ag39  1  0.32374653  0.17173049  0.50004541  1
  Ag  Ag40  1  0.84771567  0.33065422  0.49125234  1
  Ag  Ag41  1  0.33861363  0.17621686  0.16636951  1
  Ag  Ag42  1  0.67016627  0.84299180  0.84362442  1
  Ag  Ag43  1  0.00239888  0.17371157  0.50530585  1
  Ag  Ag44  1  0.83691392  0.67636709  0.83484100  1
  Ag  Ag45  1  0.33015523  0.17022495  0.83446413  1
  Ag  Ag46  1  0.51101532  0.33098832  0.16580714  1
  Ag  Ag47  1  0.67241712  0.00111586  0.00158483  1
  Ag  Ag48  1  0.67214141  0.48476525  0.16359918  1
  Ag  Ag49  1  0.66789108  0.16861553  0.48684446  1
  Ag  Ag50  1  0.66359464  0.17214412  0.16799130  1
  Ag  Ag51  1  0.33387513  0.66310443  -0.00368563  1
  Ag  Ag52  1  0.82420084  0.32867918  0.16651550  1
  Ag  Ag53  1  0.50333759  0.17063118  0.33157526  1
  Sb  Sb54  1  0.50395316  0.66154210  0.16060608  1
  Sb  Sb55  1  0.32598385  0.00174872  0.67010167  1
  Sb  Sb56  1  0.83115241  0.16594626  -0.00137352  1
  Sb  Sb57  1  0.16536927  0.49739303  0.66658470  1
  Sb  Sb58  1  0.83539323  0.49761683  0.33123123  1
  Sb  Sb59  1  0.82998288  0.49995230  0.00050335  1
  Sb  Sb60  1  0.83561645  0.83463183  -0.00379847  1
  Sb  Sb61  1  0.33812776  0.00928106  0.33168850  1
  Sb  Sb62  1  0.15989742  0.83281587  0.67345655  1
  Sb  Sb63  1  0.16253458  0.00303346  0.16412135  1
  Sb  Sb64  1  0.50237939  0.83815831  0.33033371  1
  Sb  Sb65  1  -0.00041392  0.33392032  0.00071548  1
  Sb  Sb66  1  0.16267676  0.66351411  0.16052212  1
  Sb  Sb67  1  0.50147978  0.17128398  0.00356564  1
  Sb  Sb68  1  0.83741043  0.66217400  0.50287687  1
  Sb  Sb69  1  0.66627673  0.49725400  0.84211435  1
  Sb  Sb70  1  0.67148493  0.33112865  0.66811800  1
  Sb  Sb71  1  -0.00018663  0.49931046  0.83493175  1
  Sb  Sb72  1  0.16875343  0.50160764  0.00015172  1
  Sb  Sb73  1  0.83861755  0.00632700  0.50277930  1
  Sb  Sb74  1  0.33242224  0.49636655  0.83221874  1
  Sb  Sb75  1  0.67027091  0.66784553  0.67600819  1
  Sb  Sb76  1  0.82786182  0.16893807  0.33370387  1
  Sb  Sb77  1  0.50304874  0.83347332  0.67033642  1
  Sb  Sb78  1  0.33257942  0.66094765  0.32924302  1
  Sb  Sb79  1  0.33500789  0.83404197  0.83782668  1
  Sb  Sb80  1  0.33435191  0.00144887  -0.00176388  1
  Sb  Sb81  1  0.83322244  0.66766314  0.16149248  1
  Sb  Sb82  1  0.49861144  0.16818473  0.66632208  1
  Sb  Sb83  1  0.16342240  0.83419154  0.32727091  1
  Sb  Sb84  1  0.83433290  0.83370916  0.33424276  1
  Sb  Sb85  1  0.17047772  0.16949034  0.33460214  1
  Sb  Sb86  1  0.67503268  0.00131831  0.67263548  1
  Sb  Sb87  1  0.83674120  0.16519259  0.66929049  1
  Sb  Sb88  1  -0.00523819  0.00410304  0.33313890  1
  Sb  Sb89  1  0.32263419  0.83653463  0.49644425  1
  Sb  Sb90  1  0.50058781  0.82930460  0.00018526  1
  Sb  Sb91  1  0.50765525  0.00556949  0.16053848  1
  Sb  Sb92  1  0.16767800  0.16539912  -0.00285657  1
  Sb  Sb93  1  0.67441310  0.83784956  0.49672238  1
  Sb  Sb94  1  0.49396551  0.33117989  0.49315278  1
  Sb  Sb95  1  -0.00577130  0.83757941  0.83557859  1
  Sb  Sb96  1  0.16475376  0.16868947  0.66787241  1
  Sb  Sb97  1  0.66997000  0.49161276  0.48861867  1
  Sb  Sb98  1  0.49872873  0.00398124  0.50330777  1
  Sb  Sb99  1  0.83621270  0.50092819  0.66751880  1
  Sb  Sb100  1  0.16442551  0.49728117  0.33290781  1
  Sb  Sb101  1  0.49993708  0.66425916  0.50432052  1
  Sb  Sb102  1  0.50153164  0.49297358  0.32769024  1
  Sb  Sb103  1  0.16215644  0.66350668  0.50655046  1
  Sb  Sb104  1  -0.00250472  0.17025697  0.16641298  1
  Sb  Sb105  1  0.49831440  0.32938128  0.84007669  1
  Sb  Sb106  1  0.49740401  0.49855071  0.67375407  1
  Sb  Sb107  1  0.33297274  0.49435994  0.16771610  1
  Te  Te108  1  0.17175747  0.17081785  0.16573849  1
  Te  Te109  1  0.16529034  0.16873889  0.50019012  1
  Te  Te110  1  0.16661984  0.16582663  0.83343389  1
  Te  Te111  1  0.16049483  0.49359871  0.16627791  1
  Te  Te112  1  0.16529276  0.49483206  0.49986145  1
  Te  Te113  1  0.16622165  0.49642463  0.83443300  1
  Te  Te114  1  0.16399207  0.83445476  0.16036732  1
  Te  Te115  1  0.15980821  0.83522686  0.49957293  1
  Te  Te116  1  0.16931774  0.83331911  0.83883080  1
  Te  Te117  1  0.49838277  0.17006509  0.16932086  1
  Te  Te118  1  0.50453744  0.16526609  0.49542491  1
  Te  Te119  1  0.50154664  0.16244286  0.83331057  1
  Te  Te120  1  0.50300677  0.49445886  0.16159416  1
  Te  Te121  1  0.49604602  0.49982151  0.50075148  1
  Te  Te122  1  0.49956898  0.50865496  0.83999567  1
  Te  Te123  1  0.49671124  0.83404358  0.16701808  1
  Te  Te124  1  0.49862029  0.83429091  0.50049530  1
  Te  Te125  1  0.50655916  0.83362825  0.83375103  1
  Te  Te126  1  0.82982477  0.16728277  0.16672817  1
  Te  Te127  1  0.83464475  0.17286300  0.50226299  1
  Te  Te128  1  0.83295408  0.16566977  0.83313935  1
  Te  Te129  1  0.83333319  0.49479618  0.16568421  1
  Te  Te130  1  0.83934569  0.49094515  0.50115496  1
  Te  Te131  1  0.83257928  0.49127106  0.83326743  1
  Te  Te132  1  0.83457824  0.83647949  0.16811004  1
  Te  Te133  1  0.84010627  0.83429720  0.50644719  1
  Te  Te134  1  0.82874664  0.83379176  0.83072127  1
  Te  Te135  1  0.16427384  -0.00512634  -0.00256503  1
  Te  Te136  1  0.16765552  0.00013782  0.33901129  1
  Te  Te137  1  0.15903908  -0.00214247  0.66761043  1
  Te  Te138  1  0.17002818  0.33404045  -0.00502077  1
  Te  Te139  1  0.16644528  0.33273896  0.33556560  1
  Te  Te140  1  0.16624207  0.33334006  0.67076899  1
  Te  Te141  1  0.16627825  0.66874666  -0.00370349  1
  Te  Te142  1  0.16043768  0.66704405  0.33357719  1
  Te  Te143  1  0.16579533  0.66670011  0.67412342  1
  Te  Te144  1  0.50420103  -0.00102468  -0.00615674  1
  Te  Te145  1  0.50789769  0.00550175  0.33443855  1
  Te  Te146  1  0.49776667  -0.00009622  0.67583799  1
  Te  Te147  1  0.50019032  0.33737277  0.00413613  1
  Te  Te148  1  0.50399191  0.33011384  0.32738978  1
  Te  Te149  1  0.48979515  0.33397064  0.66910312  1
  Te  Te150  1  0.49961800  0.66359886  -0.00326302  1
  Te  Te151  1  0.50314977  0.66636913  0.33412370  1
  Te  Te152  1  0.49550974  0.66636952  0.67399472  1
  Te  Te153  1  0.83281839  -0.00006252  -0.00001916  1
  Te  Te154  1  0.82615217  -0.00033184  0.32926284  1
  Te  Te155  1  0.84172269  -0.00570263  0.66998906  1
  Te  Te156  1  0.82999996  0.33383627  0.00056103  1
  Te  Te157  1  0.83300693  0.33330451  0.33147033  1
  Te  Te158  1  0.83902945  0.33448690  0.67427094  1
  Te  Te159  1  0.83387793  0.66604637  -0.00557727  1
  Te  Te160  1  0.83532913  0.66698021  0.33430052  1
  Te  Te161  1  0.83796461  0.66957104  0.67212032  1
  Te  Te162  1  0.00094009  0.15998384  -0.00448544  1
  Te  Te163  1  0.00055109  0.17264649  0.33631194  1
  Te  Te164  1  -0.00016627  0.16872290  0.66816292  1
  Te  Te165  1  0.00086006  0.50679014  0.00582152  1
  Te  Te166  1  -0.00001227  0.49926432  0.33303920  1
  Te  Te167  1  -0.00052490  0.50076292  0.66140083  1
  Te  Te168  1  0.00165025  0.83276515  0.00136022  1
  Te  Te169  1  -0.00022362  0.83327964  0.32872018  1
  Te  Te170  1  -0.00131234  0.82888904  0.66683565  1
  Te  Te171  1  0.33415835  0.16951114  -0.00025949  1
  Te  Te172  1  0.33858213  0.17207260  0.33255366  1
  Te  Te173  1  0.33340021  0.16998829  0.66632907  1
  Te  Te174  1  0.33722720  0.50076731  0.00097644  1
  Te  Te175  1  0.33485707  0.49349869  0.33936982  1
  Te  Te176  1  0.33338931  0.50173682  0.66110094  1
  Te  Te177  1  0.33013543  0.83072064  0.00344841  1
  Te  Te178  1  0.33342395  0.83255320  0.32617979  1
  Te  Te179  1  0.33366050  0.82635755  0.66440839  1
  Te  Te180  1  0.66557470  0.16721764  0.00147063  1
  Te  Te181  1  0.66488454  0.16910477  0.33011799  1
  Te  Te182  1  0.66595834  0.16719917  0.66731940  1
  Te  Te183  1  0.66340769  0.50066859  0.00535917  1
  Te  Te184  1  0.66655107  0.50492381  0.32474924  1
  Te  Te185  1  0.66516684  0.50009581  0.66094197  1
  Te  Te186  1  0.66590341  0.83162673  0.00063481  1
  Te  Te187  1  0.66739603  0.82633063  0.33038446  1
  Te  Te188  1  0.67315710  0.83327647  0.66634167  1
  Te  Te189  1  -0.00445769  0.00082555  0.16529163  1
  Te  Te190  1  0.00137582  0.00023414  0.49801827  1
  Te  Te191  1  -0.00187804  0.00098820  0.83374175  1
  Te  Te192  1  0.00410259  0.33384273  0.16503477  1
  Te  Te193  1  0.00304260  0.33077428  0.49956902  1
  Te  Te194  1  0.00134081  0.33170155  0.83741934  1
  Te  Te195  1  -0.00198449  0.66882368  0.16780805  1
  Te  Te196  1  -0.00065030  0.67296588  0.49902736  1
  Te  Te197  1  0.00010554  0.66495078  0.83403209  1
  Te  Te198  1  0.33287285  -0.00130165  0.16587534  1
  Te  Te199  1  0.32724601  0.00656065  0.50097703  1
  Te  Te200  1  0.32343663  0.00537019  0.83268720  1
  Te  Te201  1  0.32655754  0.33449098  0.16644042  1
  Te  Te202  1  0.33248129  0.32909087  0.50060035  1
  Te  Te203  1  0.33422832  0.33041870  0.83845677  1
  Te  Te204  1  0.33244292  0.66639235  0.16318177  1
  Te  Te205  1  0.33134842  0.66700518  0.49803578  1
  Te  Te206  1  0.33147143  0.66706643  0.83667630  1
  Te  Te207  1  0.66788343  -0.00321481  0.16193206  1
  Te  Te208  1  0.66837754  0.00525734  0.50099930  1
  Te  Te209  1  0.67273758  0.00153612  0.83507315  1
  Te  Te210  1  0.66810230  0.32958903  0.16561838  1
  Te  Te211  1  0.66528106  0.32925918  0.49957682  1
  Te  Te212  1  0.66653925  0.32838891  0.83445037  1
  Te  Te213  1  0.66823830  0.67728360  0.16270774  1
  Te  Te214  1  0.66823913  0.66562259  0.49832531  1
  Te  Te215  1  0.67042827  0.66498947  0.83849985  1
