# generated using pymatgen
data_AgSbTe2
_symmetry_space_group_name_H-M   'P 1'
_cell_length_a   18.34191706
_cell_length_b   18.34167427
_cell_length_c   18.33963514
_cell_angle_alpha   90.00035389
_cell_angle_beta   89.99782159
_cell_angle_gamma   89.99935091
_symmetry_Int_Tables_number   1
_chemical_formula_structural   AgSbTe2
_chemical_formula_sum   'Ag54 Sb54 Te108'
_cell_volume   6169.84697279
_cell_formula_units_Z   54
loop_
 _symmetry_equiv_pos_site_id
 _symmetry_equiv_pos_as_xyz
  1  'x, y, z'
loop_
 _atom_site_type_symbol
 _atom_site_label
 _atom_site_symmetry_multiplicity
 _atom_site_fract_x
 _atom_site_fract_y
 _atom_site_fract_z
 _atom_site_occupancy
  Ag  Ag0  1  0.50413038  0.66836507  0.16645736  1
  Ag  Ag1  1  0.34099882  0.66779221  0.00186273  1
  Ag  Ag2  1  0.66806264  0.50556431  0.17734270  1
  Ag  Ag3  1  0.66706234  0.49978466  0.49654845  1
  Ag  Ag4  1  0.83126406  0.33002277  0.82550310  1
  Ag  Ag5  1  0.82885693  0.17359261  0.33955237  1
  Ag  Ag6  1  0.50812735  0.51033004  0.66386224  1
  Ag  Ag7  1  0.50617520  0.67270951  0.82120649  1
  Ag  Ag8  1  0.81944815  0.82701965  0.66680336  1
  Ag  Ag9  1  0.50613055  0.33269060  0.50145713  1
  Ag  Ag10  1  0.16521829  -0.00142931  0.49599089  1
  Ag  Ag11  1  0.67052820  0.01282628  0.33139410  1
  Ag  Ag12  1  0.17365449  0.66843033  0.17207100  1
  Ag  Ag13  1  0.16823186  0.00026753  0.17246554  1
  Ag  Ag14  1  0.50166402  0.82512670  0.67079018  1
  Ag  Ag15  1  0.34510213  0.66571125  0.66975351  1
  Ag  Ag16  1  0.66018508  0.66794885  -0.00230178  1
  Ag  Ag17  1  -0.01200920  0.66940752  0.33281980  1
  Ag  Ag18  1  0.66841586  0.17168863  0.49441874  1
  Ag  Ag19  1  0.17312685  0.83379085  0.66473273  1
  Ag  Ag20  1  0.82584610  0.33073573  0.17538236  1
  Ag  Ag21  1  -0.01003535  0.00024515  0.33219331  1
  Ag  Ag22  1  0.82545111  0.16936566  0.66064660  1
  Ag  Ag23  1  0.16592153  0.32877426  0.83187971  1
  Ag  Ag24  1  0.17026145  0.33209923  0.16726978  1
  Ag  Ag25  1  0.33786747  0.33343736  0.66559221  1
  Ag  Ag26  1  0.34145263  0.83245254  0.16399117  1
  Ag  Ag27  1  0.66722824  0.16461765  0.82334356  1
  Ag  Ag28  1  0.82377003  0.66211979  0.82680892  1
  Ag  Ag29  1  0.16959125  0.16604106  0.66415980  1
  Ag  Ag30  1  0.51183906  0.16933377  0.33955956  1
  Ag  Ag31  1  0.66462306  0.16607428  0.17729872  1
  Ag  Ag32  1  0.17247812  0.67117426  0.49795106  1
  Ag  Ag33  1  0.50382630  0.66383449  0.50583692  1
  Ag  Ag34  1  0.66195206  0.67278123  0.66470968  1
  Ag  Ag35  1  0.66659459  0.32930442  0.33444743  1
  Ag  Ag36  1  -0.01096948  0.49976793  0.17109204  1
  Ag  Ag37  1  -0.01129400  0.16747828  0.50275718  1
  Ag  Ag38  1  0.66374397  0.82795985  0.82366135  1
  Ag  Ag39  1  0.33418653  0.33049340  0.00607283  1
  Ag  Ag40  1  0.50763104  0.16684106  0.66297599  1
  Ag  Ag41  1  0.50110367  0.82902567  -0.00610304  1
  Ag  Ag42  1  0.33581210  -0.00096581  0.00433951  1
  Ag  Ag43  1  0.82534659  0.33038142  0.49765236  1
  Ag  Ag44  1  -0.01361253  0.16706315  0.82200947  1
  Ag  Ag45  1  0.66536687  0.82565243  0.50478436  1
  Ag  Ag46  1  0.82788755  0.49188343  0.33500423  1
  Ag  Ag47  1  0.50330144  -0.00794112  0.83135462  1
  Ag  Ag48  1  0.34237763  0.33106029  0.32963760  1
  Ag  Ag49  1  0.66672254  0.66352790  0.33596096  1
  Ag  Ag50  1  0.33967339  0.16806055  0.16845519  1
  Ag  Ag51  1  0.82710006  0.49532524  0.66123758  1
  Ag  Ag52  1  0.66341506  0.82715169  0.17061558  1
  Ag  Ag53  1  0.82511947  0.00874012  0.17147645  1
  Sb  Sb54  1  0.16954268  0.16775442  -0.00071573  1
  Sb  Sb55  1  0.33793367  0.16818475  0.83364289  1
  Sb  Sb56  1  0.50176906  0.33432016  0.82657316  1
  Sb  Sb57  1  -0.00391784  0.49711150  0.83541928  1
  Sb  Sb58  1  0.33399090  0.49915380  0.83158686  1
  Sb  Sb59  1  0.82719802  0.83505599  0.33707358  1
  Sb  Sb60  1  -0.00446370  0.83484912  0.50040531  1
  Sb  Sb61  1  0.17619491  0.83316286  -0.00010573  1
  Sb  Sb62  1  0.66476019  0.33465534  0.65848281  1
  Sb  Sb63  1  -0.00334339  0.66688235  0.66198271  1
  Sb  Sb64  1  0.83320652  0.00643533  0.49547652  1
  Sb  Sb65  1  0.50946319  0.49665875  0.33739193  1
  Sb  Sb66  1  0.33776843  0.49927527  0.16783032  1
  Sb  Sb67  1  0.50134216  0.00056007  0.50277178  1
  Sb  Sb68  1  -0.00722723  0.33205338  0.33215269  1
  Sb  Sb69  1  0.33636827  0.83136763  0.49872393  1
  Sb  Sb70  1  -0.00331889  0.16921798  0.17019083  1
  Sb  Sb71  1  0.00440803  0.00196520  0.00581498  1
  Sb  Sb72  1  0.82503385  0.66307036  0.50237313  1
  Sb  Sb73  1  0.66761417  0.50200865  0.82673787  1
  Sb  Sb74  1  0.82565989  0.00296329  0.83479849  1
  Sb  Sb75  1  0.16923214  0.00365460  0.83230165  1
  Sb  Sb76  1  0.16342753  0.16618787  0.33607038  1
  Sb  Sb77  1  0.16853956  0.49904943  0.66469364  1
  Sb  Sb78  1  0.50359075  0.83464268  0.33522114  1
  Sb  Sb79  1  -0.00179387  0.66628457  0.00608827  1
  Sb  Sb80  1  -0.00243937  0.33077589  0.66737577  1
  Sb  Sb81  1  0.33629435  0.00430907  0.32888263  1
  Sb  Sb82  1  0.50121077  -0.00239308  0.16513213  1
  Sb  Sb83  1  0.00047481  0.00446593  0.66146682  1
  Sb  Sb84  1  0.66296327  -0.00389907  0.00526752  1
  Sb  Sb85  1  0.49985739  0.16421563  -0.00060102  1
  Sb  Sb86  1  0.33947946  0.66176371  0.33273989  1
  Sb  Sb87  1  0.82660573  0.66503526  0.16711210  1
  Sb  Sb88  1  0.16683594  0.83278635  0.33442752  1
  Sb  Sb89  1  0.33495480  -0.00076815  0.66947838  1
  Sb  Sb90  1  0.83046550  0.16693892  0.00136290  1
  Sb  Sb91  1  -0.00767224  0.83657822  0.82938601  1
  Sb  Sb92  1  0.17005081  0.66512133  0.83214045  1
  Sb  Sb93  1  0.16809152  0.49953406  0.00269304  1
  Sb  Sb94  1  0.82926598  0.49986598  0.00262467  1
  Sb  Sb95  1  0.66712994  -0.00148720  0.66028063  1
  Sb  Sb96  1  0.66367318  0.33686314  0.00541167  1
  Sb  Sb97  1  0.34224873  0.83224111  0.83569775  1
  Sb  Sb98  1  0.50135963  0.33495643  0.17209346  1
  Sb  Sb99  1  0.16790021  0.33322525  0.49863797  1
  Sb  Sb100  1  -0.00197072  0.83112764  0.16861766  1
  Sb  Sb101  1  0.33697588  0.16755158  0.49767362  1
  Sb  Sb102  1  0.34167143  0.49988792  0.50096781  1
  Sb  Sb103  1  -0.00762810  0.49880010  0.49689945  1
  Sb  Sb104  1  0.50164606  0.50747615  -0.00378204  1
  Sb  Sb105  1  0.16030677  0.50070195  0.33106919  1
  Sb  Sb106  1  0.82311078  0.83113103  -0.00226659  1
  Sb  Sb107  1  0.00148449  0.33276035  0.00115760  1
  Te  Te108  1  0.16537333  0.16837246  0.16662950  1
  Te  Te109  1  0.16813139  0.16543142  0.50403483  1
  Te  Te110  1  0.17012008  0.16989710  0.82904664  1
  Te  Te111  1  0.16861572  0.49903973  0.16694708  1
  Te  Te112  1  0.16370986  0.50593403  0.49999912  1
  Te  Te113  1  0.16343972  0.49045294  0.83311038  1
  Te  Te114  1  0.16584731  0.83228038  0.16508150  1
  Te  Te115  1  0.16812072  0.83263085  0.50324697  1
  Te  Te116  1  0.16412290  0.83407345  0.82721426  1
  Te  Te117  1  0.50098610  0.16793124  0.16792281  1
  Te  Te118  1  0.50336028  0.16669501  0.49912843  1
  Te  Te119  1  0.50614319  0.16660288  0.83141050  1
  Te  Te120  1  0.50629477  0.50398770  0.16687570  1
  Te  Te121  1  0.50551157  0.49975653  0.50416012  1
  Te  Te122  1  0.50055691  0.50497259  0.82483933  1
  Te  Te123  1  0.50001756  0.83150381  0.16934059  1
  Te  Te124  1  0.50440245  0.83125729  0.50449705  1
  Te  Te125  1  0.50322132  0.83256118  0.83180526  1
  Te  Te126  1  0.83220579  0.16926353  0.16830919  1
  Te  Te127  1  0.83153745  0.16751837  0.49977317  1
  Te  Te128  1  0.83013740  0.16862904  0.83348672  1
  Te  Te129  1  0.83046566  0.49917648  0.16920846  1
  Te  Te130  1  0.82885442  0.49548310  0.49934000  1
  Te  Te131  1  0.83425809  0.49674196  0.82934404  1
  Te  Te132  1  0.82909834  0.83495527  0.16614056  1
  Te  Te133  1  0.82719163  0.83458812  0.50707836  1
  Te  Te134  1  0.82585662  0.83330535  0.82886895  1
  Te  Te135  1  0.17346631  -0.00007240  0.00586345  1
  Te  Te136  1  0.16804519  -0.00056916  0.33358753  1
  Te  Te137  1  0.16722340  0.00124842  0.66452742  1
  Te  Te138  1  0.17188010  0.33384994  0.00301479  1
  Te  Te139  1  0.16885769  0.33401760  0.32834608  1
  Te  Te140  1  0.17122757  0.33151479  0.66775533  1
  Te  Te141  1  0.17037584  0.66686832  0.00300237  1
  Te  Te142  1  0.17257100  0.66651917  0.33306952  1
  Te  Te143  1  0.16528186  0.66830184  0.66355166  1
  Te  Te144  1  0.49573761  -0.00338267  -0.00428549  1
  Te  Te145  1  0.50550241  0.00750654  0.33396445  1
  Te  Te146  1  0.49986537  0.00715722  0.67083647  1
  Te  Te147  1  0.49361837  0.33598996  -0.00390577  1
  Te  Te148  1  0.50308459  0.33038212  0.33772309  1
  Te  Te149  1  0.49692183  0.32599940  0.66315714  1
  Te  Te150  1  0.50080685  0.66752603  0.00655333  1
  Te  Te151  1  0.50397995  0.66639719  0.33197121  1
  Te  Te152  1  0.50065202  0.66781457  0.66448875  1
  Te  Te153  1  0.83637665  -0.00140061  0.01087394  1
  Te  Te154  1  0.83191555  -0.00139537  0.32950882  1
  Te  Te155  1  0.83528094  0.00448055  0.66863969  1
  Te  Te156  1  0.83290856  0.33416887  0.00046958  1
  Te  Te157  1  0.83154105  0.33276201  0.33341804  1
  Te  Te158  1  0.83306642  0.33054764  0.66552955  1
  Te  Te159  1  0.83059986  0.66618563  -0.00870172  1
  Te  Te160  1  0.83203940  0.66730983  0.33370369  1
  Te  Te161  1  0.83229065  0.66942267  0.66861646  1
  Te  Te162  1  0.00060984  0.16604114  -0.00920489  1
  Te  Te163  1  -0.00512271  0.16201088  0.33792611  1
  Te  Te164  1  0.00074763  0.16713013  0.66407648  1
  Te  Te165  1  -0.00038544  0.50061228  0.00953900  1
  Te  Te166  1  -0.00756094  0.50346799  0.32949693  1
  Te  Te167  1  -0.00974511  0.50062394  0.66772728  1
  Te  Te168  1  0.00090707  0.83360503  -0.00171862  1
  Te  Te169  1  -0.00003998  0.83162191  0.33422771  1
  Te  Te170  1  0.00664211  0.83490448  0.66649372  1
  Te  Te171  1  0.33384927  0.16927128  0.00619446  1
  Te  Te172  1  0.33178136  0.17242106  0.32842630  1
  Te  Te173  1  0.33136177  0.16738165  0.66631599  1
  Te  Te174  1  0.33438133  0.50187192  -0.00106910  1
  Te  Te175  1  0.33192824  0.48988950  0.33434766  1
  Te  Te176  1  0.33640544  0.50145815  0.66599821  1
  Te  Te177  1  0.33932476  0.83028530  0.00332242  1
  Te  Te178  1  0.33494899  0.83284914  0.32500282  1
  Te  Te179  1  0.33472853  0.83052080  0.66543241  1
  Te  Te180  1  0.66506435  0.16737233  -0.00088049  1
  Te  Te181  1  0.66863168  0.16959611  0.33429832  1
  Te  Te182  1  0.66750723  0.16504299  0.66616665  1
  Te  Te183  1  0.66634680  0.50644264  0.01087541  1
  Te  Te184  1  0.66916715  0.50269311  0.33575374  1
  Te  Te185  1  0.66788806  0.50107299  0.66289377  1
  Te  Te186  1  0.66051703  0.82860401  0.00413344  1
  Te  Te187  1  0.66536909  0.82316985  0.33089847  1
  Te  Te188  1  0.66330285  0.83601894  0.66573286  1
  Te  Te189  1  0.00555013  -0.00025777  0.17275809  1
  Te  Te190  1  0.00395718  0.00196613  0.49375940  1
  Te  Te191  1  -0.00086854  0.00740056  0.83580143  1
  Te  Te192  1  0.00337120  0.33731988  0.16622250  1
  Te  Te193  1  -0.00211486  0.32907886  0.49904760  1
  Te  Te194  1  -0.00080710  0.32871510  0.83470643  1
  Te  Te195  1  0.00225649  0.66322723  0.17076826  1
  Te  Te196  1  0.00442148  0.66658776  0.49245283  1
  Te  Te197  1  -0.00173986  0.66742190  0.83525999  1
  Te  Te198  1  0.33194574  0.00188910  0.16463187  1
  Te  Te199  1  0.32544061  -0.00053868  0.49924160  1
  Te  Te200  1  0.33767278  0.00003491  0.84010217  1
  Te  Te201  1  0.33392741  0.33136669  0.16717250  1
  Te  Te202  1  0.33648216  0.33380540  0.50391949  1
  Te  Te203  1  0.33207545  0.33380230  0.82922223  1
  Te  Te204  1  0.33318712  0.66753807  0.16616707  1
  Te  Te205  1  0.33486617  0.66582904  0.50406233  1
  Te  Te206  1  0.33442471  0.66603172  0.83200152  1
  Te  Te207  1  0.66756439  0.00468422  0.16983600  1
  Te  Te208  1  0.66616102  0.00173326  0.49094784  1
  Te  Te209  1  0.66291077  0.00134993  0.83701405  1
  Te  Te210  1  0.66866460  0.32801139  0.17025790  1
  Te  Te211  1  0.66538602  0.33279525  0.49780260  1
  Te  Te212  1  0.67179861  0.33222426  0.83832240  1
  Te  Te213  1  0.66699009  0.66742803  0.16914608  1
  Te  Te214  1  0.66537134  0.66642050  0.50329035  1
  Te  Te215  1  0.66657124  0.66433626  0.82984407  1
