# generated using pymatgen
data_AgSbTe2
_symmetry_space_group_name_H-M   'P 1'
_cell_length_a   18.32793187
_cell_length_b   18.32235076
_cell_length_c   18.32064866
_cell_angle_alpha   90.00097171
_cell_angle_beta   89.99826949
_cell_angle_gamma   89.99762496
_symmetry_Int_Tables_number   1
_chemical_formula_structural   AgSbTe2
_chemical_formula_sum   'Ag54 Sb54 Te108'
_cell_volume   6152.27161035
_cell_formula_units_Z   54
loop_
 _symmetry_equiv_pos_site_id
 _symmetry_equiv_pos_as_xyz
  1  'x, y, z'
loop_
 _atom_site_type_symbol
 _atom_site_label
 _atom_site_symmetry_multiplicity
 _atom_site_fract_x
 _atom_site_fract_y
 _atom_site_fract_z
 _atom_site_occupancy
  Ag  Ag0  1  0.82499163  0.16595323  0.00436661  1
  Ag  Ag1  1  0.66182380  0.48740651  0.16484238  1
  Ag  Ag2  1  0.00040354  0.48891599  0.50088834  1
  Ag  Ag3  1  0.50049580  0.32158949  0.83129725  1
  Ag  Ag4  1  0.66860056  0.17040525  0.16041672  1
  Ag  Ag5  1  0.84055788  0.32592739  0.50058756  1
  Ag  Ag6  1  0.50280727  0.16437326  0.67329160  1
  Ag  Ag7  1  0.00484412  0.83511673  0.83024845  1
  Ag  Ag8  1  -0.00399138  0.16296565  0.49926753  1
  Ag  Ag9  1  0.50136371  0.16531769  -0.01347437  1
  Ag  Ag10  1  0.49995483  0.67038258  0.50540107  1
  Ag  Ag11  1  0.17217677  0.49364422  0.33400381  1
  Ag  Ag12  1  0.66304610  0.49374403  0.83160941  1
  Ag  Ag13  1  0.50019134  0.00803919  0.82840649  1
  Ag  Ag14  1  0.00127250  0.00141806  0.34500230  1
  Ag  Ag15  1  0.34245018  0.66699487  0.66494826  1
  Ag  Ag16  1  0.16055708  0.32944973  0.49655796  1
  Ag  Ag17  1  0.66072368  0.33144956  0.32922018  1
  Ag  Ag18  1  0.49987886  0.83465719  0.66318538  1
  Ag  Ag19  1  0.00279698  0.84184370  0.16842783  1
  Ag  Ag20  1  0.49974465  0.33117792  0.16753686  1
  Ag  Ag21  1  0.33517419  0.17082396  0.16140037  1
  Ag  Ag22  1  0.66069228  0.66712129  0.66882277  1
  Ag  Ag23  1  0.66233834  0.00595330  -0.00830208  1
  Ag  Ag24  1  0.16678399  0.83313441  0.33556912  1
  Ag  Ag25  1  0.34002343  0.48804483  0.17025641  1
  Ag  Ag26  1  0.49605024  0.83195273  0.34476030  1
  Ag  Ag27  1  0.34277648  0.00443136  0.66876246  1
  Ag  Ag28  1  0.00327232  0.84714835  0.50009859  1
  Ag  Ag29  1  0.33677324  0.32869928  0.66040877  1
  Ag  Ag30  1  0.16670207  0.66837018  0.83376389  1
  Ag  Ag31  1  0.34437959  0.16573335  0.83712917  1
  Ag  Ag32  1  0.82581046  0.49111934  0.66404364  1
  Ag  Ag33  1  -0.00209427  0.00412986  0.65861357  1
  Ag  Ag34  1  0.15839955  0.00185462  0.50061076  1
  Ag  Ag35  1  0.65683954  0.16864791  0.83764503  1
  Ag  Ag36  1  0.33583291  0.00569276  -0.00767091  1
  Ag  Ag37  1  0.65587401  0.83540498  0.50274891  1
  Ag  Ag38  1  0.17453724  0.16143240  0.00394577  1
  Ag  Ag39  1  0.83089544  0.16883159  0.66167070  1
  Ag  Ag40  1  0.66037629  0.00274132  0.66898276  1
  Ag  Ag41  1  0.33867622  0.83595496  0.50226148  1
  Ag  Ag42  1  0.50306398  0.49959669  0.66377670  1
  Ag  Ag43  1  0.84397594  0.00862741  0.50296700  1
  Ag  Ag44  1  0.83489505  0.16911423  0.33501485  1
  Ag  Ag45  1  0.49625384  0.49575328  0.33588337  1
  Ag  Ag46  1  0.16311859  0.83904409  0.00318824  1
  Ag  Ag47  1  0.66699090  0.67036299  -0.00610641  1
  Ag  Ag48  1  0.17429067  0.32990970  0.17532421  1
  Ag  Ag49  1  -0.00444156  0.16710153  0.16918893  1
  Ag  Ag50  1  0.82561014  0.32786006  0.17445931  1
  Ag  Ag51  1  0.33548459  0.33376472  0.33222406  1
  Ag  Ag52  1  -0.00072044  0.32528093  0.66038237  1
  Ag  Ag53  1  -0.00093047  0.67134734  -0.00084190  1
  Sb  Sb54  1  0.66807407  0.50030211  0.50226772  1
  Sb  Sb55  1  0.83365045  0.66617740  0.83158171  1
  Sb  Sb56  1  0.16944241  0.66901648  0.50352216  1
  Sb  Sb57  1  0.50278275  0.49387756  0.00045242  1
  Sb  Sb58  1  0.66494443  0.33064625  0.66321140  1
  Sb  Sb59  1  0.49982935  -0.00427912  0.50730677  1
  Sb  Sb60  1  0.50005129  0.00820813  0.16278304  1
  Sb  Sb61  1  0.33148493  0.50043907  0.49761241  1
  Sb  Sb62  1  0.17280376  0.33351717  0.83158761  1
  Sb  Sb63  1  0.50319650  0.16933188  0.33515171  1
  Sb  Sb64  1  0.82976697  0.83844913  0.66391176  1
  Sb  Sb65  1  0.17034153  0.83508042  0.66240559  1
  Sb  Sb66  1  0.32955710  0.83668654  0.17099444  1
  Sb  Sb67  1  0.83129470  0.49004242  0.33858428  1
  Sb  Sb68  1  0.83307989  0.65970245  0.16416297  1
  Sb  Sb69  1  0.00207987  0.67315350  0.33167473  1
  Sb  Sb70  1  0.66898665  0.83543179  0.17014614  1
  Sb  Sb71  1  0.33405917  0.66295758  0.33856042  1
  Sb  Sb72  1  0.33002918  0.00352167  0.33681383  1
  Sb  Sb73  1  0.49708764  0.83987992  -0.00199752  1
  Sb  Sb74  1  0.16904485  0.49883782  0.66158869  1
  Sb  Sb75  1  0.00159012  0.32715296  0.34013722  1
  Sb  Sb76  1  0.00064961  -0.00098779  -0.00149654  1
  Sb  Sb77  1  0.66796885  0.83610923  0.82804599  1
  Sb  Sb78  1  0.16548699  0.00605503  0.16944737  1
  Sb  Sb79  1  0.33942382  0.49388813  0.83383534  1
  Sb  Sb80  1  0.49828991  0.66732151  0.82612651  1
  Sb  Sb81  1  0.83609054  0.84161765  0.33626373  1
  Sb  Sb82  1  -0.00034534  0.49321682  0.17289637  1
  Sb  Sb83  1  0.66921458  0.00432075  0.33726427  1
  Sb  Sb84  1  0.83078661  0.66643871  0.50237820  1
  Sb  Sb85  1  0.66569887  0.32621809  0.00598400  1
  Sb  Sb86  1  0.16724802  0.16619313  0.66781493  1
  Sb  Sb87  1  0.33427630  0.67225836  -0.00561703  1
  Sb  Sb88  1  0.82738348  0.33047419  0.82944485  1
  Sb  Sb89  1  0.00043560  0.33283976  -0.00221297  1
  Sb  Sb90  1  0.16643089  0.66433233  0.16362113  1
  Sb  Sb91  1  0.33422134  0.32452825  0.00545238  1
  Sb  Sb92  1  0.32922355  0.16437573  0.50220936  1
  Sb  Sb93  1  0.82855617  0.00360186  0.82712747  1
  Sb  Sb94  1  0.16268750  0.16838441  0.33070581  1
  Sb  Sb95  1  0.66394613  0.66267390  0.33634422  1
  Sb  Sb96  1  0.67315506  0.16319472  0.50346148  1
  Sb  Sb97  1  0.83429696  0.00982355  0.17043944  1
  Sb  Sb98  1  0.33081784  0.83895369  0.82625970  1
  Sb  Sb99  1  0.49983251  0.33629311  0.50051061  1
  Sb  Sb100  1  0.17009871  -0.00131651  0.82976526  1
  Sb  Sb101  1  -0.00338781  0.50219070  0.82750400  1
  Sb  Sb102  1  -0.00147426  0.66907454  0.66803119  1
  Sb  Sb103  1  -0.00038831  0.16319294  0.83195547  1
  Sb  Sb104  1  0.50083661  0.65974393  0.16986022  1
  Sb  Sb105  1  0.16723436  0.49871574  0.00571322  1
  Sb  Sb106  1  0.82962566  0.49433205  -0.00288423  1
  Sb  Sb107  1  0.83737933  0.83937289  0.00084152  1
  Te  Te108  1  0.16618217  0.17040141  0.16474606  1
  Te  Te109  1  0.16115967  0.16720262  0.49962448  1
  Te  Te110  1  0.16893611  0.16743859  0.84235425  1
  Te  Te111  1  0.16824387  0.49427885  0.17325025  1
  Te  Te112  1  0.16348672  0.49832718  0.49474798  1
  Te  Te113  1  0.16676708  0.50398007  0.83588305  1
  Te  Te114  1  0.16320410  0.83266788  0.16814489  1
  Te  Te115  1  0.16334832  0.83367531  0.49691974  1
  Te  Te116  1  0.16422433  0.83147854  0.83673915  1
  Te  Te117  1  0.50106805  0.17211167  0.17079730  1
  Te  Te118  1  0.49992397  0.16658770  0.50585248  1
  Te  Te119  1  0.50033709  0.16535572  0.83042802  1
  Te  Te120  1  0.50151449  0.49467330  0.16810680  1
  Te  Te121  1  0.49984602  0.50432930  0.50006743  1
  Te  Te122  1  0.50472354  0.49841599  0.83064449  1
  Te  Te123  1  0.50000768  0.83250464  0.17022926  1
  Te  Te124  1  0.49868787  0.83291571  0.50243320  1
  Te  Te125  1  0.49960191  0.83937612  0.82844335  1
  Te  Te126  1  0.83366988  0.16950517  0.16652093  1
  Te  Te127  1  0.83446557  0.16775846  0.50216444  1
  Te  Te128  1  0.83110729  0.16734348  0.83446821  1
  Te  Te129  1  0.82809860  0.49079293  0.16683371  1
  Te  Te130  1  0.83680382  0.49703571  0.50515325  1
  Te  Te131  1  0.82567894  0.49836867  0.82645910  1
  Te  Te132  1  0.83974716  0.83239734  0.16836095  1
  Te  Te133  1  0.84149140  0.83501559  0.49931200  1
  Te  Te134  1  0.84321589  0.83414837  0.83273364  1
  Te  Te135  1  0.16890361  -0.00036149  0.00015073  1
  Te  Te136  1  0.16386654  -0.00426162  0.33780191  1
  Te  Te137  1  0.16239866  -0.00015789  0.66198515  1
  Te  Te138  1  0.16613296  0.33000631  0.00353097  1
  Te  Te139  1  0.16790829  0.33390256  0.33464319  1
  Te  Te140  1  0.16790395  0.33392534  0.66252102  1
  Te  Te141  1  0.16540333  0.67040314  -0.00367989  1
  Te  Te142  1  0.16773032  0.67013159  0.33316817  1
  Te  Te143  1  0.16993243  0.66667029  0.67213150  1
  Te  Te144  1  0.49996236  0.00464917  -0.00363304  1
  Te  Te145  1  0.49983516  -0.00659760  0.33345614  1
  Te  Te146  1  0.50045577  0.00177257  0.66742047  1
  Te  Te147  1  0.49959505  0.32670802  -0.00115624  1
  Te  Te148  1  0.49833361  0.33571763  0.33305339  1
  Te  Te149  1  0.49826011  0.33308860  0.66583706  1
  Te  Te150  1  0.50459861  0.66901527  -0.00022356  1
  Te  Te151  1  0.50012361  0.66713594  0.33921394  1
  Te  Te152  1  0.50075149  0.66556117  0.66561495  1
  Te  Te153  1  0.82766124  0.00654475  -0.00100015  1
  Te  Te154  1  0.83735080  0.00752449  0.33995779  1
  Te  Te155  1  0.83374457  0.00436208  0.66281498  1
  Te  Te156  1  0.83485497  0.32630625  0.00314962  1
  Te  Te157  1  0.83404751  0.32820162  0.33455589  1
  Te  Te158  1  0.83360490  0.33080363  0.66406821  1
  Te  Te159  1  0.83154395  0.66693082  -0.00103535  1
  Te  Te160  1  0.83243220  0.66547693  0.33271884  1
  Te  Te161  1  0.82635695  0.66033349  0.66654083  1
  Te  Te162  1  0.00028441  0.16683360  0.00163823  1
  Te  Te163  1  -0.00264047  0.16251460  0.33218737  1
  Te  Te164  1  -0.00005622  0.16605787  0.66635100  1
  Te  Te165  1  -0.00203926  0.50738510  -0.00064905  1
  Te  Te166  1  0.00193825  0.50351603  0.33868237  1
  Te  Te167  1  -0.00130943  0.50021159  0.66200257  1
  Te  Te168  1  0.00286863  0.83229133  0.00233625  1
  Te  Te169  1  0.00234280  0.83862343  0.33362783  1
  Te  Te170  1  -0.00113342  0.83606470  0.66482936  1
  Te  Te171  1  0.33513924  0.16392575  0.00065364  1
  Te  Te172  1  0.33389814  0.17183636  0.32993203  1
  Te  Te173  1  0.33384389  0.16583528  0.66726996  1
  Te  Te174  1  0.33399560  0.50309514  0.00675202  1
  Te  Te175  1  0.33471237  0.49678241  0.33112023  1
  Te  Te176  1  0.33805961  0.49788912  0.66707730  1
  Te  Te177  1  0.32774461  0.84059059  0.00093054  1
  Te  Te178  1  0.33342924  0.83404001  0.33751017  1
  Te  Te179  1  0.33727803  0.83634565  0.66318164  1
  Te  Te180  1  0.66397550  0.16498008  -0.00081537  1
  Te  Te181  1  0.67083816  0.16996881  0.32851718  1
  Te  Te182  1  0.66686677  0.16472938  0.66942916  1
  Te  Te183  1  0.66732976  0.50665032  -0.00131645  1
  Te  Te184  1  0.66307740  0.49559028  0.33018578  1
  Te  Te185  1  0.66400419  0.49835517  0.66702481  1
  Te  Te186  1  0.66742696  0.83438212  0.00039366  1
  Te  Te187  1  0.66381027  0.83357320  0.33921252  1
  Te  Te188  1  0.66355656  0.83463771  0.66407203  1
  Te  Te189  1  -0.00012591  0.00155146  0.16651523  1
  Te  Te190  1  0.00094489  0.00402052  0.50124170  1
  Te  Te191  1  0.00042490  -0.00527122  0.82875115  1
  Te  Te192  1  0.00125182  0.32889002  0.16592310  1
  Te  Te193  1  0.00038688  0.33075669  0.50168017  1
  Te  Te194  1  0.00103679  0.33431220  0.82396919  1
  Te  Te195  1  -0.00085698  0.66791073  0.16141145  1
  Te  Te196  1  -0.00004308  0.66622408  0.50031436  1
  Te  Te197  1  0.00342475  0.66991827  0.83638848  1
  Te  Te198  1  0.33289362  0.00635074  0.16441300  1
  Te  Te199  1  0.32828746  -0.00337996  0.50397426  1
  Te  Te200  1  0.33586832  0.00454674  0.83064479  1
  Te  Te201  1  0.33425330  0.33149534  0.16804346  1
  Te  Te202  1  0.32885094  0.33257715  0.49925855  1
  Te  Te203  1  0.33834725  0.32798170  0.82619984  1
  Te  Te204  1  0.33404769  0.66297992  0.16503025  1
  Te  Te205  1  0.33702275  0.67136483  0.50581055  1
  Te  Te206  1  0.32900412  0.66572207  0.82767683  1
  Te  Te207  1  0.66732053  0.00456336  0.16378263  1
  Te  Te208  1  0.66987271  -0.00439937  0.50395582  1
  Te  Te209  1  0.66324689  0.00221789  0.83137429  1
  Te  Te210  1  0.66485784  0.33098816  0.16806410  1
  Te  Te211  1  0.67157219  0.33238773  0.49172970  1
  Te  Te212  1  0.66137688  0.33225278  0.83210900  1
  Te  Te213  1  0.66768270  0.66566705  0.16240957  1
  Te  Te214  1  0.66318916  0.67149189  0.50411652  1
  Te  Te215  1  0.66611317  0.66697173  0.83148374  1
