# generated using pymatgen
data_AgSbTe2
_symmetry_space_group_name_H-M   'P 1'
_cell_length_a   18.35027218
_cell_length_b   18.33792692
_cell_length_c   18.33813467
_cell_angle_alpha   90.00135163
_cell_angle_beta   90.00114586
_cell_angle_gamma   89.99688805
_symmetry_Int_Tables_number   1
_chemical_formula_structural   AgSbTe2
_chemical_formula_sum   'Ag54 Sb54 Te108'
_cell_volume   6170.89142063
_cell_formula_units_Z   54
loop_
 _symmetry_equiv_pos_site_id
 _symmetry_equiv_pos_as_xyz
  1  'x, y, z'
loop_
 _atom_site_type_symbol
 _atom_site_label
 _atom_site_symmetry_multiplicity
 _atom_site_fract_x
 _atom_site_fract_y
 _atom_site_fract_z
 _atom_site_occupancy
  Ag  Ag0  1  0.49790513  0.16476906  0.01035636  1
  Ag  Ag1  1  0.33442213  0.33116001  0.33990657  1
  Ag  Ag2  1  0.33683347  0.16385090  0.16368341  1
  Ag  Ag3  1  0.65330144  0.83498274  0.16430289  1
  Ag  Ag4  1  0.49254569  0.83558376  0.00780411  1
  Ag  Ag5  1  0.49426954  0.17053476  0.32940884  1
  Ag  Ag6  1  0.49498106  0.33409904  0.82518548  1
  Ag  Ag7  1  0.33216019  0.17631596  0.84072691  1
  Ag  Ag8  1  0.00913344  0.00028910  0.00587605  1
  Ag  Ag9  1  0.83830672  -0.00156666  0.16531309  1
  Ag  Ag10  1  0.65484354  0.33097227  0.33818072  1
  Ag  Ag11  1  0.49025082  0.00653350  0.49661684  1
  Ag  Ag12  1  0.83156009  0.33202935  0.82868029  1
  Ag  Ag13  1  0.82959100  0.49335693  0.66553167  1
  Ag  Ag14  1  0.65711688  0.67049524  0.00336299  1
  Ag  Ag15  1  0.49914597  0.32176253  0.17210804  1
  Ag  Ag16  1  0.82769311  0.67246736  0.16558610  1
  Ag  Ag17  1  0.17748732  0.49548748  0.66250712  1
  Ag  Ag18  1  0.33030976  -0.00503886  0.00269708  1
  Ag  Ag19  1  0.00611063  0.16690430  0.83623054  1
  Ag  Ag20  1  0.49669351  0.67555583  0.16684210  1
  Ag  Ag21  1  0.33465948  0.83645225  0.16985178  1
  Ag  Ag22  1  0.33517928  0.49260980  0.82695478  1
  Ag  Ag23  1  0.83126320  0.17454718  0.67491344  1
  Ag  Ag24  1  0.16806786  0.49313618  0.33577550  1
  Ag  Ag25  1  0.00193548  0.84016787  0.83635869  1
  Ag  Ag26  1  0.33897542  0.33677604  0.66110207  1
  Ag  Ag27  1  0.65604394  0.16417872  0.17003550  1
  Ag  Ag28  1  0.82607749  0.16562875  -0.00078071  1
  Ag  Ag29  1  0.66165983  0.17081503  0.48976342  1
  Ag  Ag30  1  0.49415607  0.49483427  0.66608963  1
  Ag  Ag31  1  0.33214996  0.82810617  0.48959125  1
  Ag  Ag32  1  0.17442688  0.33624041  0.49336214  1
  Ag  Ag33  1  0.01423318  0.32900603  0.33431373  1
  Ag  Ag34  1  0.33613039  0.67182391  0.00357534  1
  Ag  Ag35  1  0.01525721  0.83609227  0.49395641  1
  Ag  Ag36  1  0.49077985  0.83798623  0.32687355  1
  Ag  Ag37  1  0.65670794  0.33433287  0.66567465  1
  Ag  Ag38  1  0.66470335  0.82897480  0.84517176  1
  Ag  Ag39  1  0.17804828  0.67480738  0.17020030  1
  Ag  Ag40  1  0.16688715  -0.00558609  0.17183251  1
  Ag  Ag41  1  0.17257015  0.83882579  0.32932973  1
  Ag  Ag42  1  0.17615457  0.66745495  0.48972698  1
  Ag  Ag43  1  0.17569877  0.83217883  0.01196817  1
  Ag  Ag44  1  0.17233753  0.16747994  0.33363257  1
  Ag  Ag45  1  0.49324324  0.66610488  0.49096481  1
  Ag  Ag46  1  0.17164481  -0.00712201  0.49060484  1
  Ag  Ag47  1  0.33221426  0.49634837  0.50301578  1
  Ag  Ag48  1  0.83725454  0.49618707  0.33640490  1
  Ag  Ag49  1  0.49372260  0.33295500  0.49535579  1
  Ag  Ag50  1  0.17011826  0.50489310  0.00333885  1
  Ag  Ag51  1  0.65775539  0.49457597  0.83134486  1
  Ag  Ag52  1  0.00753899  0.00287088  0.32880084  1
  Ag  Ag53  1  0.17945378  0.33544270  0.82797849  1
  Sb  Sb54  1  0.83502224  0.49680925  0.00013049  1
  Sb  Sb55  1  0.17198755  0.16480067  0.00360125  1
  Sb  Sb56  1  0.83398941  0.00648858  0.83939404  1
  Sb  Sb57  1  0.66473451  0.65855286  0.67129170  1
  Sb  Sb58  1  -0.00005941  0.16512482  0.50106707  1
  Sb  Sb59  1  0.66390204  0.66131188  0.32813694  1
  Sb  Sb60  1  0.00205331  0.32770905  0.00177037  1
  Sb  Sb61  1  0.49451731  0.50038404  -0.00287437  1
  Sb  Sb62  1  0.32752613  0.00332181  0.32816193  1
  Sb  Sb63  1  0.00188926  0.33321722  0.66333341  1
  Sb  Sb64  1  0.00148746  0.00143875  0.66611446  1
  Sb  Sb65  1  0.49950365  0.00530516  0.83240388  1
  Sb  Sb66  1  0.49944772  0.66197342  0.83706039  1
  Sb  Sb67  1  0.16833701  0.66225094  0.83576777  1
  Sb  Sb68  1  0.00491609  0.66767917  0.33305379  1
  Sb  Sb69  1  0.66319262  0.33520230  -0.00127017  1
  Sb  Sb70  1  0.33404877  0.33374299  -0.00074297  1
  Sb  Sb71  1  0.33600316  0.16948102  0.49642694  1
  Sb  Sb72  1  0.33349106  0.83223997  0.83786235  1
  Sb  Sb73  1  0.33316580  0.66585688  0.33070482  1
  Sb  Sb74  1  0.83546573  0.83099970  0.32965373  1
  Sb  Sb75  1  0.66221283  -0.00240604  0.00327060  1
  Sb  Sb76  1  0.00143166  0.66607861  0.66587187  1
  Sb  Sb77  1  0.65817801  0.83777946  0.49470669  1
  Sb  Sb78  1  0.50122162  0.17509462  0.66405782  1
  Sb  Sb79  1  0.00423861  0.67383090  0.00189419  1
  Sb  Sb80  1  0.17385699  0.33193294  0.16998376  1
  Sb  Sb81  1  0.83227739  0.33342093  0.50212278  1
  Sb  Sb82  1  0.33328169  0.65908513  0.66544180  1
  Sb  Sb83  1  0.66702962  0.00503653  0.33000072  1
  Sb  Sb84  1  0.33310192  0.50039071  0.16785905  1
  Sb  Sb85  1  0.83306044  0.83799902  0.00257022  1
  Sb  Sb86  1  0.49929792  0.82615931  0.66578342  1
  Sb  Sb87  1  0.01143524  0.50193259  0.49940071  1
  Sb  Sb88  1  0.00402026  0.49440969  0.83246341  1
  Sb  Sb89  1  0.65827414  0.49412662  0.50369499  1
  Sb  Sb90  1  0.83336013  0.17086620  0.33035433  1
  Sb  Sb91  1  0.00284657  0.16363631  0.16478618  1
  Sb  Sb92  1  0.83608628  0.00135409  0.49375256  1
  Sb  Sb93  1  0.66569666  0.00763291  0.66605847  1
  Sb  Sb94  1  0.66385388  0.17152232  0.83653623  1
  Sb  Sb95  1  0.83191215  0.83299600  0.66878759  1
  Sb  Sb96  1  0.16653043  0.00353969  0.83537690  1
  Sb  Sb97  1  0.66421652  0.49992310  0.16451229  1
  Sb  Sb98  1  0.16783456  0.82677941  0.66224213  1
  Sb  Sb99  1  0.49576670  0.49492433  0.33594089  1
  Sb  Sb100  1  0.00156536  0.50013033  0.16763849  1
  Sb  Sb101  1  0.83198095  0.66205621  0.83902725  1
  Sb  Sb102  1  0.00735556  0.83576053  0.16729607  1
  Sb  Sb103  1  0.33326939  0.00761324  0.66753967  1
  Sb  Sb104  1  0.16616495  0.17349324  0.66344075  1
  Sb  Sb105  1  0.49504570  -0.00038206  0.17188116  1
  Sb  Sb106  1  0.83294541  0.66321732  0.49478831  1
  Sb  Sb107  1  0.82664446  0.33083063  0.16628220  1
  Te  Te108  1  0.17134407  0.16371812  0.17133841  1
  Te  Te109  1  0.16609304  0.17008000  0.49575033  1
  Te  Te110  1  0.16705242  0.17137453  0.83332989  1
  Te  Te111  1  0.16741005  0.50363431  0.16838463  1
  Te  Te112  1  0.17109990  0.49851329  0.49789233  1
  Te  Te113  1  0.16815400  0.49669092  0.83001613  1
  Te  Te114  1  0.17014235  0.83331898  0.16840418  1
  Te  Te115  1  0.17162784  0.83097458  0.50011915  1
  Te  Te116  1  0.16400974  0.83335100  0.83109541  1
  Te  Te117  1  0.49837093  0.16261907  0.16840900  1
  Te  Te118  1  0.50129324  0.16979221  0.49762449  1
  Te  Te119  1  0.49666085  0.17155823  0.83464977  1
  Te  Te120  1  0.49972622  0.50493100  0.16649512  1
  Te  Te121  1  0.49431431  0.49740416  0.50171727  1
  Te  Te122  1  0.49852265  0.49567506  0.83158267  1
  Te  Te123  1  0.49612931  0.83590078  0.16646194  1
  Te  Te124  1  0.49603328  0.82887921  0.49840966  1
  Te  Te125  1  0.50322562  0.83357721  0.83494517  1
  Te  Te126  1  0.83321197  0.16343645  0.16217259  1
  Te  Te127  1  0.82879603  0.16548667  0.50256605  1
  Te  Te128  1  0.83008631  0.17006455  0.83624786  1
  Te  Te129  1  0.83314312  0.50125231  0.16931251  1
  Te  Te130  1  0.83453941  0.50129267  0.49848394  1
  Te  Te131  1  0.83446215  0.49506155  0.83182196  1
  Te  Te132  1  0.82982685  0.83315458  0.16736584  1
  Te  Te133  1  0.83270692  0.83236617  0.49987794  1
  Te  Te134  1  0.83339807  0.83325221  0.83417235  1
  Te  Te135  1  0.16882085  -0.00220156  0.00035070  1
  Te  Te136  1  0.16631209  -0.00133452  0.33325208  1
  Te  Te137  1  0.16752373  0.00089559  0.65783521  1
  Te  Te138  1  0.16552653  0.33779096  -0.00208545  1
  Te  Te139  1  0.17160079  0.33226009  0.33193048  1
  Te  Te140  1  0.16782552  0.33661259  0.66850748  1
  Te  Te141  1  0.16901790  0.66960841  0.00314480  1
  Te  Te142  1  0.16695411  0.66806785  0.33090932  1
  Te  Te143  1  0.16659615  0.65682838  0.66054140  1
  Te  Te144  1  0.49509358  -0.00011631  -0.00209553  1
  Te  Te145  1  0.50123164  0.00060968  0.33897356  1
  Te  Te146  1  0.50003339  -0.00111364  0.65711553  1
  Te  Te147  1  0.50054327  0.33011752  0.00764264  1
  Te  Te148  1  0.49686129  0.33253373  0.33397731  1
  Te  Te149  1  0.49943467  0.33608449  0.66701811  1
  Te  Te150  1  0.49788481  0.66867450  0.00239653  1
  Te  Te151  1  0.50009014  0.66998230  0.33138671  1
  Te  Te152  1  0.50020517  0.65771840  0.66107326  1
  Te  Te153  1  0.83561613  0.00537213  0.00548158  1
  Te  Te154  1  0.84047422  0.00065531  0.32727287  1
  Te  Te155  1  0.83307480  0.00533162  0.66576139  1
  Te  Te156  1  0.83329979  0.32769230  -0.00421751  1
  Te  Te157  1  0.83144706  0.33656288  0.33375520  1
  Te  Te158  1  0.83575658  0.33320899  0.66775393  1
  Te  Te159  1  0.83284815  0.66567085  0.00622646  1
  Te  Te160  1  0.83376112  0.65977391  0.32681418  1
  Te  Te161  1  0.83264080  0.65950276  0.66664200  1
  Te  Te162  1  0.00157336  0.16177089  -0.00276580  1
  Te  Te163  1  0.00247207  0.16599941  0.33396633  1
  Te  Te164  1  -0.00603856  0.16624800  0.67280238  1
  Te  Te165  1  0.00804037  0.50026869  -0.00060641  1
  Te  Te166  1  0.00236253  0.49539397  0.33448375  1
  Te  Te167  1  -0.00868248  0.50030466  0.66634960  1
  Te  Te168  1  0.00278527  0.84038659  -0.00180115  1
  Te  Te169  1  0.00316681  0.83758558  0.33615687  1
  Te  Te170  1  -0.00161517  0.83420690  0.67048280  1
  Te  Te171  1  0.33558459  0.16626803  0.00227829  1
  Te  Te172  1  0.33406197  0.16938496  0.33062174  1
  Te  Te173  1  0.33340395  0.17408029  0.67655060  1
  Te  Te174  1  0.32936296  0.50457087  -0.00163092  1
  Te  Te175  1  0.32904549  0.49395709  0.33763129  1
  Te  Te176  1  0.33361807  0.49629460  0.66636043  1
  Te  Te177  1  0.33363040  0.83314682  -0.00041897  1
  Te  Te178  1  0.33319380  0.83370086  0.33239112  1
  Te  Te179  1  0.33439669  0.83452682  0.66604674  1
  Te  Te180  1  0.66286144  0.16578671  0.00420183  1
  Te  Te181  1  0.66622777  0.17088718  0.33064785  1
  Te  Te182  1  0.67056808  0.17282797  0.66873852  1
  Te  Te183  1  0.66810068  0.50585949  -0.00655650  1
  Te  Te184  1  0.66876733  0.49308145  0.33373038  1
  Te  Te185  1  0.66899009  0.49404728  0.67029090  1
  Te  Te186  1  0.66607657  0.83155806  0.00439461  1
  Te  Te187  1  0.66403365  0.83314491  0.32735331  1
  Te  Te188  1  0.66710817  0.83301675  0.66839653  1
  Te  Te189  1  0.00333142  -0.00048355  0.16683893  1
  Te  Te190  1  0.00412768  -0.00314667  0.49637963  1
  Te  Te191  1  0.00015145  0.00272532  0.83615241  1
  Te  Te192  1  -0.00110533  0.33229719  0.17389800  1
  Te  Te193  1  0.00575686  0.33305179  0.49402219  1
  Te  Te194  1  -0.00532695  0.32783300  0.83437396  1
  Te  Te195  1  -0.00538217  0.66777535  0.16643300  1
  Te  Te196  1  0.00255077  0.67593971  0.49953133  1
  Te  Te197  1  -0.00027603  0.67528495  0.83394430  1
  Te  Te198  1  0.32877946  -0.00101868  0.16274286  1
  Te  Te199  1  0.33195098  -0.00048144  0.50210004  1
  Te  Te200  1  0.33386710  0.00395525  0.83792821  1
  Te  Te201  1  0.33852819  0.33010519  0.16963980  1
  Te  Te202  1  0.33319198  0.33091552  0.50146541  1
  Te  Te203  1  0.33494824  0.33564241  0.83678101  1
  Te  Te204  1  0.33510399  0.66715549  0.16422293  1
  Te  Te205  1  0.33379677  0.66615849  0.50072794  1
  Te  Te206  1  0.33342858  0.66262291  0.83912090  1
  Te  Te207  1  0.67250655  0.00040322  0.16638575  1
  Te  Te208  1  0.66479027  0.00696350  0.49871171  1
  Te  Te209  1  0.66652253  -0.00909262  0.83307880  1
  Te  Te210  1  0.66086899  0.32977911  0.16925117  1
  Te  Te211  1  0.66524532  0.33014535  0.50096225  1
  Te  Te212  1  0.66536663  0.33540109  0.83138351  1
  Te  Te213  1  0.66157506  0.66784686  0.16356997  1
  Te  Te214  1  0.66162062  0.66742977  0.50069346  1
  Te  Te215  1  0.66680428  0.66801225  0.83915277  1
