# generated using pymatgen
data_AgSbTe2
_symmetry_space_group_name_H-M   'P 1'
_cell_length_a   18.31047820
_cell_length_b   18.31462176
_cell_length_c   18.31400155
_cell_angle_alpha   89.99937893
_cell_angle_beta   90.00154174
_cell_angle_gamma   90.00174181
_symmetry_Int_Tables_number   1
_chemical_formula_structural   AgSbTe2
_chemical_formula_sum   'Ag54 Sb54 Te108'
_cell_volume   6141.59093482
_cell_formula_units_Z   54
loop_
 _symmetry_equiv_pos_site_id
 _symmetry_equiv_pos_as_xyz
  1  'x, y, z'
loop_
 _atom_site_type_symbol
 _atom_site_label
 _atom_site_symmetry_multiplicity
 _atom_site_fract_x
 _atom_site_fract_y
 _atom_site_fract_z
 _atom_site_occupancy
  Ag  Ag0  1  0.49735233  0.50522780  0.33599208  1
  Ag  Ag1  1  0.83376054  0.83567801  -0.00435043  1
  Ag  Ag2  1  0.49185428  0.50013974  0.66591965  1
  Ag  Ag3  1  -0.00329842  0.00238739  0.66104611  1
  Ag  Ag4  1  0.33515461  0.66243918  0.66429518  1
  Ag  Ag5  1  0.33659349  0.83207706  0.82949549  1
  Ag  Ag6  1  0.66578817  0.83553507  0.82389462  1
  Ag  Ag7  1  0.16849818  0.66025887  0.82234463  1
  Ag  Ag8  1  0.66997900  0.16871533  0.16410743  1
  Ag  Ag9  1  -0.00200782  0.66452048  0.00612172  1
  Ag  Ag10  1  0.33756410  0.17013796  0.16490803  1
  Ag  Ag11  1  0.17646668  0.33766534  0.83007842  1
  Ag  Ag12  1  0.50213619  0.00358894  0.82934384  1
  Ag  Ag13  1  -0.00206095  0.16031519  0.49499291  1
  Ag  Ag14  1  0.33266072  0.17338610  0.83244132  1
  Ag  Ag15  1  0.17282861  0.50257844  0.66938800  1
  Ag  Ag16  1  0.83830935  0.83186056  0.33998681  1
  Ag  Ag17  1  0.83677430  0.15678445  0.66839692  1
  Ag  Ag18  1  0.49536364  0.33246854  0.83570113  1
  Ag  Ag19  1  0.33299118  -0.00122548  0.66936258  1
  Ag  Ag20  1  0.84202993  0.16631784  0.33406278  1
  Ag  Ag21  1  0.82908849  0.83797358  0.66424037  1
  Ag  Ag22  1  -0.00121419  0.50328034  0.49745842  1
  Ag  Ag23  1  0.66321128  0.67458071  0.66566198  1
  Ag  Ag24  1  0.49891926  0.33703281  0.16196943  1
  Ag  Ag25  1  0.33656024  0.33960367  0.66951722  1
  Ag  Ag26  1  0.83899094  0.50271801  0.33398229  1
  Ag  Ag27  1  0.83385277  0.66659676  0.17126677  1
  Ag  Ag28  1  0.00026483  0.16773217  0.83057814  1
  Ag  Ag29  1  0.49420012  0.66109206  0.49588848  1
  Ag  Ag30  1  0.15906403  0.83154889  0.33901002  1
  Ag  Ag31  1  0.33048675  0.49548237  0.82698097  1
  Ag  Ag32  1  0.33751710  0.33851567  0.33853542  1
  Ag  Ag33  1  -0.00379595  0.17082820  0.17775172  1
  Ag  Ag34  1  0.66226232  0.32950564  -0.00107262  1
  Ag  Ag35  1  0.83176708  0.00016250  0.82815574  1
  Ag  Ag36  1  0.50035071  0.49353392  -0.00191358  1
  Ag  Ag37  1  0.50056100  0.34008881  0.49964346  1
  Ag  Ag38  1  0.33727663  0.66322222  0.33934347  1
  Ag  Ag39  1  0.00106060  0.66913560  0.33455386  1
  Ag  Ag40  1  0.83345967  0.33107543  0.49835201  1
  Ag  Ag41  1  -0.00047235  -0.00042459  0.34230077  1
  Ag  Ag42  1  0.16161011  -0.00662118  0.50068548  1
  Ag  Ag43  1  0.00655595  0.49893180  0.82990460  1
  Ag  Ag44  1  0.67614752  -0.00612415  0.66876357  1
  Ag  Ag45  1  0.50454349  0.17538182  -0.00097704  1
  Ag  Ag46  1  0.83124451  0.16456777  0.00141235  1
  Ag  Ag47  1  0.67503525  0.83201451  0.50616690  1
  Ag  Ag48  1  -0.00217080  0.50124086  0.17500263  1
  Ag  Ag49  1  -0.00341754  0.83603787  0.49665404  1
  Ag  Ag50  1  0.15907856  0.16423501  0.33535168  1
  Ag  Ag51  1  0.16748555  0.66884617  0.50106951  1
  Ag  Ag52  1  0.49722489  0.82413946  0.33636422  1
  Ag  Ag53  1  0.50257348  0.65742599  0.17656881  1
  Sb  Sb54  1  -0.00080879  0.83427049  0.82654963  1
  Sb  Sb55  1  0.33150665  0.82952214  0.50381798  1
  Sb  Sb56  1  0.82944857  0.33288411  0.17223987  1
  Sb  Sb57  1  0.49932257  0.00359497  0.16431012  1
  Sb  Sb58  1  0.17197755  0.33262438  0.16506464  1
  Sb  Sb59  1  0.66815162  0.00352537  -0.00651011  1
  Sb  Sb60  1  0.00298774  0.33349443  0.33493402  1
  Sb  Sb61  1  0.66945787  0.66466516  -0.00324824  1
  Sb  Sb62  1  0.16450542  0.00231521  0.17619747  1
  Sb  Sb63  1  0.33119703  0.66569199  -0.00242754  1
  Sb  Sb64  1  0.67362469  0.16275638  0.49811211  1
  Sb  Sb65  1  0.66591312  0.49750938  0.16796984  1
  Sb  Sb66  1  0.32905704  0.16846431  0.50199841  1
  Sb  Sb67  1  0.49581834  -0.00114163  0.50535165  1
  Sb  Sb68  1  0.16706769  0.50138371  0.34069383  1
  Sb  Sb69  1  0.16473279  0.82982442  0.66116485  1
  Sb  Sb70  1  0.66867883  0.83568866  0.16850648  1
  Sb  Sb71  1  0.83414298  0.00063481  0.16556819  1
  Sb  Sb72  1  0.84161748  0.00070645  0.50711966  1
  Sb  Sb73  1  0.49895069  0.16949158  0.32930048  1
  Sb  Sb74  1  0.50067720  0.16954167  0.67121074  1
  Sb  Sb75  1  0.16846962  0.50013685  -0.00882050  1
  Sb  Sb76  1  0.49444189  0.66400039  0.82983175  1
  Sb  Sb77  1  0.16437377  0.16692851  0.00071400  1
  Sb  Sb78  1  0.66176670  0.33244789  0.33197667  1
  Sb  Sb79  1  0.66149752  0.33170044  0.66882102  1
  Sb  Sb80  1  0.33267230  0.50126069  0.50682143  1
  Sb  Sb81  1  0.34087966  0.33308978  -0.00576381  1
  Sb  Sb82  1  0.83489067  0.50147171  0.66272175  1
  Sb  Sb83  1  0.33535563  0.00231544  -0.00918757  1
  Sb  Sb84  1  0.83799347  0.67090628  0.83477469  1
  Sb  Sb85  1  0.66660141  0.50511437  0.50061983  1
  Sb  Sb86  1  0.16711860  0.33615200  0.50299390  1
  Sb  Sb87  1  0.00177712  0.66930240  0.66195835  1
  Sb  Sb88  1  0.50516661  0.83184298  -0.00088784  1
  Sb  Sb89  1  0.67394281  -0.00142233  0.34131447  1
  Sb  Sb90  1  0.16535998  0.66492554  0.17342161  1
  Sb  Sb91  1  0.16282415  0.16905562  0.66429042  1
  Sb  Sb92  1  -0.00276220  -0.00150351  -0.00190876  1
  Sb  Sb93  1  -0.00250245  0.83124851  0.17551804  1
  Sb  Sb94  1  0.83219156  0.32787306  0.82896715  1
  Sb  Sb95  1  0.33519333  0.83499423  0.16630856  1
  Sb  Sb96  1  0.83597161  0.66727482  0.49550338  1
  Sb  Sb97  1  0.00316497  0.32998229  0.66611024  1
  Sb  Sb98  1  0.50415588  0.82771978  0.66327422  1
  Sb  Sb99  1  -0.00526205  0.33568579  -0.00097593  1
  Sb  Sb100  1  0.66444527  0.50351028  0.83140929  1
  Sb  Sb101  1  0.33373066  0.49683283  0.16483608  1
  Sb  Sb102  1  0.66539903  0.66818240  0.33862041  1
  Sb  Sb103  1  0.83216842  0.49836968  0.00340654  1
  Sb  Sb104  1  0.32915066  -0.00115561  0.33927723  1
  Sb  Sb105  1  0.15984369  0.82956737  0.00078437  1
  Sb  Sb106  1  0.66614628  0.16249754  0.83588067  1
  Sb  Sb107  1  0.16679162  0.00023717  0.82475711  1
  Te  Te108  1  0.16327826  0.16823945  0.17057589  1
  Te  Te109  1  0.16087134  0.16874133  0.49617339  1
  Te  Te110  1  0.16631253  0.16843014  0.83331790  1
  Te  Te111  1  0.15882752  0.49873829  0.16418547  1
  Te  Te112  1  0.15937557  0.50382361  0.50679937  1
  Te  Te113  1  0.16648213  0.50011688  0.83034107  1
  Te  Te114  1  0.16788390  0.83409784  0.17507553  1
  Te  Te115  1  0.16461002  0.82980944  0.49659922  1
  Te  Te116  1  0.17035236  0.83009757  0.83336943  1
  Te  Te117  1  0.49839781  0.16914959  0.16262037  1
  Te  Te118  1  0.50186157  0.17111232  0.49914412  1
  Te  Te119  1  0.49853892  0.16764176  0.83616221  1
  Te  Te120  1  0.49903593  0.49864355  0.17074068  1
  Te  Te121  1  0.50052839  0.50024681  0.49795503  1
  Te  Te122  1  0.49924817  0.49823620  0.83158899  1
  Te  Te123  1  0.50103222  0.83046721  0.17080845  1
  Te  Te124  1  0.50069877  0.83123549  0.49535076  1
  Te  Te125  1  0.50001848  0.83537683  0.83425042  1
  Te  Te126  1  0.83532026  0.16733809  0.16589553  1
  Te  Te127  1  0.83701531  0.16920742  0.49721318  1
  Te  Te128  1  0.83497028  0.16448859  0.83257865  1
  Te  Te129  1  0.83725759  0.50243821  0.17095028  1
  Te  Te130  1  0.83718741  0.49671303  0.49546442  1
  Te  Te131  1  0.83995331  0.49863542  0.83328710  1
  Te  Te132  1  0.83229541  0.82974278  0.16691196  1
  Te  Te133  1  0.83447313  0.83283886  0.50004501  1
  Te  Te134  1  0.83328436  0.83618212  0.83149333  1
  Te  Te135  1  0.16628622  -0.00267043  0.00079052  1
  Te  Te136  1  0.16201794  0.00013864  0.34100403  1
  Te  Te137  1  0.16509931  -0.00047343  0.66009355  1
  Te  Te138  1  0.16559860  0.33227078  -0.00904132  1
  Te  Te139  1  0.17692602  0.33018640  0.33403157  1
  Te  Te140  1  0.17223276  0.33798387  0.67072838  1
  Te  Te141  1  0.15926578  0.66674386  -0.00139766  1
  Te  Te142  1  0.16535713  0.66733485  0.33810818  1
  Te  Te143  1  0.16853490  0.66419161  0.66374676  1
  Te  Te144  1  0.50120738  0.00309243  -0.00676313  1
  Te  Te145  1  0.50017503  -0.00468926  0.33439918  1
  Te  Te146  1  0.49418110  0.00059055  0.67083329  1
  Te  Te147  1  0.50139754  0.33303431  -0.00021292  1
  Te  Te148  1  0.49637939  0.33449232  0.33569922  1
  Te  Te149  1  0.49727825  0.33674744  0.66630565  1
  Te  Te150  1  0.50053403  0.66298961  0.00493250  1
  Te  Te151  1  0.50082757  0.66562135  0.33484078  1
  Te  Te152  1  0.49589687  0.66247311  0.66434991  1
  Te  Te153  1  0.83390113  0.00148193  -0.00663535  1
  Te  Te154  1  0.83931736  -0.00068649  0.33191062  1
  Te  Te155  1  0.83557332  -0.00074793  0.66874387  1
  Te  Te156  1  0.82585657  0.32853982  0.00008175  1
  Te  Te157  1  0.83193286  0.33382444  0.33790159  1
  Te  Te158  1  0.83060697  0.33219784  0.66009037  1
  Te  Te159  1  0.83670235  0.66698986  0.00466234  1
  Te  Te160  1  0.83377876  0.66569546  0.33110442  1
  Te  Te161  1  0.82908992  0.67026785  0.66556863  1
  Te  Te162  1  -0.00422308  0.16704162  -0.00554609  1
  Te  Te163  1  -0.00013714  0.16980429  0.33501788  1
  Te  Te164  1  -0.00325920  0.16454463  0.66834507  1
  Te  Te165  1  -0.00058193  0.50390253  -0.00334943  1
  Te  Te166  1  0.00036667  0.49969343  0.33485147  1
  Te  Te167  1  0.00083225  0.49994743  0.66746287  1
  Te  Te168  1  -0.00693399  0.82857864  0.00143503  1
  Te  Te169  1  -0.00084335  0.83156568  0.33607551  1
  Te  Te170  1  -0.00448781  0.83781097  0.65953714  1
  Te  Te171  1  0.33465262  0.16671910  -0.00075498  1
  Te  Te172  1  0.33080128  0.16602020  0.33292259  1
  Te  Te173  1  0.33216681  0.16712117  0.67066771  1
  Te  Te174  1  0.34029636  0.50091711  -0.00572038  1
  Te  Te175  1  0.33515018  0.50183909  0.33182422  1
  Te  Te176  1  0.33378619  0.50152958  0.66874954  1
  Te  Te177  1  0.33327906  0.83409066  -0.00715512  1
  Te  Te178  1  0.33539992  0.82964895  0.33272242  1
  Te  Te179  1  0.33400744  0.83053304  0.67074291  1
  Te  Te180  1  0.66787624  0.16827733  0.00230119  1
  Te  Te181  1  0.67279929  0.16477609  0.32814569  1
  Te  Te182  1  0.67407871  0.16226603  0.66695892  1
  Te  Te183  1  0.66076892  0.49573234  -0.00029402  1
  Te  Te184  1  0.66865528  0.50011898  0.33361920  1
  Te  Te185  1  0.66315751  0.50451990  0.66627917  1
  Te  Te186  1  0.67452960  0.83316788  -0.00297633  1
  Te  Te187  1  0.67237111  0.83505990  0.33686307  1
  Te  Te188  1  0.66716213  0.83341479  0.66624490  1
  Te  Te189  1  -0.00068040  0.00791169  0.17003085  1
  Te  Te190  1  0.00257792  0.00055591  0.49978618  1
  Te  Te191  1  -0.00189178  0.00334479  0.82954570  1
  Te  Te192  1  0.00097002  0.33249558  0.16607965  1
  Te  Te193  1  -0.00221556  0.33471915  0.50075238  1
  Te  Te194  1  0.00022953  0.33212094  0.83280750  1
  Te  Te195  1  -0.00087748  0.66500601  0.17104750  1
  Te  Te196  1  0.00172427  0.66669522  0.49556136  1
  Te  Te197  1  0.00537286  0.66564076  0.83204396  1
  Te  Te198  1  0.33272676  0.00798813  0.16643207  1
  Te  Te199  1  0.32635142  0.00011004  0.50814699  1
  Te  Te200  1  0.33438176  0.00191913  0.82710901  1
  Te  Te201  1  0.33855045  0.32969281  0.17102391  1
  Te  Te202  1  0.33781491  0.33421301  0.50153786  1
  Te  Te203  1  0.33519628  0.33323131  0.83068198  1
  Te  Te204  1  0.33690676  0.66651540  0.17035188  1
  Te  Te205  1  0.33325509  0.66650587  0.49952918  1
  Te  Te206  1  0.32871866  0.66555351  0.83199975  1
  Te  Te207  1  0.66572619  0.00743061  0.16736934  1
  Te  Te208  1  0.66340512  -0.00615326  0.50866560  1
  Te  Te209  1  0.66618637  -0.00378857  0.82800046  1
  Te  Te210  1  0.66069350  0.32927039  0.16332921  1
  Te  Te211  1  0.66374097  0.33241832  0.50047168  1
  Te  Te212  1  0.66012198  0.33443383  0.83698855  1
  Te  Te213  1  0.66649684  0.66718577  0.16529035  1
  Te  Te214  1  0.66185512  0.67188287  0.50537078  1
  Te  Te215  1  0.66687967  0.67283898  0.82830850  1
