# generated using pymatgen
data_AgSbTe2
_symmetry_space_group_name_H-M   'P 1'
_cell_length_a   18.32106369
_cell_length_b   18.32530119
_cell_length_c   18.33033302
_cell_angle_alpha   90.00106524
_cell_angle_beta   90.00119198
_cell_angle_gamma   89.99938814
_symmetry_Int_Tables_number   1
_chemical_formula_structural   AgSbTe2
_chemical_formula_sum   'Ag54 Sb54 Te108'
_cell_volume   6154.20786545
_cell_formula_units_Z   54
loop_
 _symmetry_equiv_pos_site_id
 _symmetry_equiv_pos_as_xyz
  1  'x, y, z'
loop_
 _atom_site_type_symbol
 _atom_site_label
 _atom_site_symmetry_multiplicity
 _atom_site_fract_x
 _atom_site_fract_y
 _atom_site_fract_z
 _atom_site_occupancy
  Ag  Ag0  1  0.50579446  0.50031783  0.33943307  1
  Ag  Ag1  1  -0.00186205  0.84118925  0.16311556  1
  Ag  Ag2  1  0.66789636  0.33644532  0.33343017  1
  Ag  Ag3  1  0.66343446  0.49320159  0.83279483  1
  Ag  Ag4  1  0.33524332  0.66797288  0.34052539  1
  Ag  Ag5  1  0.17599703  0.00437798  0.50705586  1
  Ag  Ag6  1  0.16479829  0.33010105  0.15902658  1
  Ag  Ag7  1  0.01220510  0.16597089  0.83889874  1
  Ag  Ag8  1  0.81995276  0.50369747  0.65995676  1
  Ag  Ag9  1  0.66349238  0.82987998  0.50137628  1
  Ag  Ag10  1  0.33676998  0.67146968  0.65910354  1
  Ag  Ag11  1  0.50261470  0.66175501  0.50110162  1
  Ag  Ag12  1  0.65716612  0.16441134  0.83507035  1
  Ag  Ag13  1  -0.00401680  0.49249096  0.83506019  1
  Ag  Ag14  1  0.50038002  0.49938286  -0.00148969  1
  Ag  Ag15  1  0.65388920  0.00113622  -0.00729171  1
  Ag  Ag16  1  0.66387712  0.66634642  0.00051074  1
  Ag  Ag17  1  0.17498874  0.84656041  -0.00070644  1
  Ag  Ag18  1  0.66283904  0.50171887  0.49780135  1
  Ag  Ag19  1  0.65865146  0.00384483  0.67292375  1
  Ag  Ag20  1  0.49841773  0.15724725  -0.00871459  1
  Ag  Ag21  1  0.33843971  -0.00089983  0.67063319  1
  Ag  Ag22  1  0.34667981  0.50105918  0.16797740  1
  Ag  Ag23  1  0.17288853  0.32290387  0.83958759  1
  Ag  Ag24  1  0.49816120  0.00533226  0.83887267  1
  Ag  Ag25  1  0.82639038  0.34256092  0.49408491  1
  Ag  Ag26  1  0.82310088  0.66155979  0.49603027  1
  Ag  Ag27  1  0.82236417  0.00259890  0.83320837  1
  Ag  Ag28  1  0.83047955  0.66037220  0.17523981  1
  Ag  Ag29  1  0.33806159  -0.00132898  -0.00782430  1
  Ag  Ag30  1  0.16892050  0.16555070  0.33028678  1
  Ag  Ag31  1  0.33399806  -0.00176772  0.34083425  1
  Ag  Ag32  1  0.00185166  0.16408948  0.15741370  1
  Ag  Ag33  1  0.49639706  0.84651402  -0.00136442  1
  Ag  Ag34  1  0.49948024  0.00264291  0.15408578  1
  Ag  Ag35  1  0.00853254  0.00112320  -0.00199310  1
  Ag  Ag36  1  0.49883875  0.16476190  0.67336464  1
  Ag  Ag37  1  0.82771490  0.33757326  0.17170823  1
  Ag  Ag38  1  0.17402712  0.49469897  -0.00124444  1
  Ag  Ag39  1  0.17156904  0.16309886  -0.00399881  1
  Ag  Ag40  1  0.49881778  0.32350747  0.83473610  1
  Ag  Ag41  1  0.83021616  0.82745120  0.33756318  1
  Ag  Ag42  1  0.33693786  0.15727359  0.50053542  1
  Ag  Ag43  1  0.82415057  0.50307447  0.33889926  1
  Ag  Ag44  1  0.82903524  0.83089429  0.66114562  1
  Ag  Ag45  1  0.33507140  0.83938592  0.83024521  1
  Ag  Ag46  1  0.17466502  0.00450804  0.83660918  1
  Ag  Ag47  1  0.17555415  0.16245963  0.67666035  1
  Ag  Ag48  1  0.33911786  0.83796929  0.50360783  1
  Ag  Ag49  1  0.34526342  0.50635354  0.49691397  1
  Ag  Ag50  1  0.66635952  0.17054307  0.16234631  1
  Ag  Ag51  1  0.66401558  0.49468691  0.17007690  1
  Ag  Ag52  1  0.50302298  0.49723759  0.66429481  1
  Ag  Ag53  1  0.66128131  0.16675961  0.50421095  1
  Sb  Sb54  1  0.16457275  0.66288496  0.16521560  1
  Sb  Sb55  1  -0.00072608  0.33270831  0.66899902  1
  Sb  Sb56  1  0.33918068  0.66994119  0.00023360  1
  Sb  Sb57  1  -0.00536473  0.33235258  0.33064508  1
  Sb  Sb58  1  0.33833884  0.33409535  0.33298087  1
  Sb  Sb59  1  0.66238872  0.66696886  0.66670462  1
  Sb  Sb60  1  0.16637275  0.32799839  0.50018599  1
  Sb  Sb61  1  0.66597648  0.33140571  0.66257627  1
  Sb  Sb62  1  0.83432220  0.16762528  0.33240646  1
  Sb  Sb63  1  0.33515498  0.15822218  0.82814856  1
  Sb  Sb64  1  0.17228228  0.00623967  0.15981222  1
  Sb  Sb65  1  0.17475472  0.67067594  0.50006860  1
  Sb  Sb66  1  0.00272401  0.83967400  0.83816703  1
  Sb  Sb67  1  0.16836036  0.66732712  0.83474967  1
  Sb  Sb68  1  0.82936083  0.83595478  0.00016391  1
  Sb  Sb69  1  0.17138823  0.49402710  0.32898507  1
  Sb  Sb70  1  0.82926604  0.00096366  0.16233589  1
  Sb  Sb71  1  0.33421194  0.16797629  0.16962109  1
  Sb  Sb72  1  0.00369213  0.32647740  -0.00011181  1
  Sb  Sb73  1  0.16673098  0.83933606  0.32979550  1
  Sb  Sb74  1  0.50399072  0.66518685  0.16860110  1
  Sb  Sb75  1  0.83005471  0.66896725  0.83106081  1
  Sb  Sb76  1  0.33580974  0.32810553  0.66684796  1
  Sb  Sb77  1  0.83071662  0.16511536  -0.00067908  1
  Sb  Sb78  1  0.50127438  0.66766324  0.83046722  1
  Sb  Sb79  1  0.00096540  0.00169178  0.67432869  1
  Sb  Sb80  1  0.66243339  0.00375557  0.33437415  1
  Sb  Sb81  1  0.33963445  0.50445405  0.83403664  1
  Sb  Sb82  1  0.49818256  0.16933047  0.33395199  1
  Sb  Sb83  1  0.66923034  0.83300599  0.16871768  1
  Sb  Sb84  1  0.00459668  0.00155085  0.32678629  1
  Sb  Sb85  1  -0.00529116  0.49591044  0.16050359  1
  Sb  Sb86  1  -0.00075335  0.66699573  0.33158379  1
  Sb  Sb87  1  0.83158754  -0.00129541  0.50533953  1
  Sb  Sb88  1  0.66440473  0.32963099  0.00301824  1
  Sb  Sb89  1  0.17301460  0.49398966  0.67180012  1
  Sb  Sb90  1  0.66350483  0.83998902  0.83102376  1
  Sb  Sb91  1  0.00106166  0.16486490  0.50229176  1
  Sb  Sb92  1  -0.00665834  0.49947643  0.50381589  1
  Sb  Sb93  1  0.50250709  0.83024082  0.33215249  1
  Sb  Sb94  1  0.83040453  0.33088900  0.83358369  1
  Sb  Sb95  1  0.16871943  0.84065595  0.67086419  1
  Sb  Sb96  1  -0.00159988  0.83489295  0.49682770  1
  Sb  Sb97  1  0.49528481  -0.00110334  0.50286958  1
  Sb  Sb98  1  0.00127529  0.66583691  0.66723775  1
  Sb  Sb99  1  0.50445257  0.33785306  0.50402652  1
  Sb  Sb100  1  0.50127318  0.33238428  0.16129062  1
  Sb  Sb101  1  -0.00387762  0.66957259  0.00101022  1
  Sb  Sb102  1  0.82804507  0.16639325  0.66828802  1
  Sb  Sb103  1  0.33114827  0.83255051  0.16660344  1
  Sb  Sb104  1  0.66502813  0.65981943  0.33361307  1
  Sb  Sb105  1  0.82715535  0.50132646  0.00020470  1
  Sb  Sb106  1  0.33332335  0.32701608  -0.00024621  1
  Sb  Sb107  1  0.50069672  0.83632012  0.66908619  1
  Te  Te108  1  0.16687062  0.16976266  0.16340476  1
  Te  Te109  1  0.16745780  0.16433828  0.49863163  1
  Te  Te110  1  0.17016085  0.16576905  0.83551744  1
  Te  Te111  1  0.16271282  0.49476837  0.16192276  1
  Te  Te112  1  0.16546609  0.49877297  0.50025554  1
  Te  Te113  1  0.16639994  0.49904142  0.83688737  1
  Te  Te114  1  0.16138333  0.83220542  0.16119274  1
  Te  Te115  1  0.17032403  0.83874396  0.49946666  1
  Te  Te116  1  0.17001566  0.83755075  0.83867525  1
  Te  Te117  1  0.50379615  0.16558084  0.16601063  1
  Te  Te118  1  0.50061125  0.16917275  0.50208113  1
  Te  Te119  1  0.49932428  0.16631476  0.83380547  1
  Te  Te120  1  0.50368489  0.49961550  0.16496970  1
  Te  Te121  1  0.50202472  0.49914409  0.50102440  1
  Te  Te122  1  0.50362529  0.50149609  0.83251875  1
  Te  Te123  1  0.50036028  0.83600136  0.16147094  1
  Te  Te124  1  0.50100789  0.82781158  0.50014169  1
  Te  Te125  1  0.49644810  0.83647318  0.83711087  1
  Te  Te126  1  0.83003384  0.16988510  0.16717176  1
  Te  Te127  1  0.82833953  0.16818185  0.50071387  1
  Te  Te128  1  0.83043448  0.16305061  0.83207624  1
  Te  Te129  1  0.83017017  0.49957143  0.16787447  1
  Te  Te130  1  0.83155660  0.50157522  0.49987853  1
  Te  Te131  1  0.82960662  0.49882384  0.82956312  1
  Te  Te132  1  0.83622249  0.83266031  0.16888572  1
  Te  Te133  1  0.83201173  0.83252264  0.49999968  1
  Te  Te134  1  0.83393126  0.83821710  0.82792259  1
  Te  Te135  1  0.16976163  0.00260475  -0.00084019  1
  Te  Te136  1  0.17190684  0.00442343  0.33311678  1
  Te  Te137  1  0.16856710  0.00375486  0.66927468  1
  Te  Te138  1  0.16854756  0.33249106  -0.00114868  1
  Te  Te139  1  0.16644319  0.32659262  0.33117625  1
  Te  Te140  1  0.16719759  0.32488662  0.67099782  1
  Te  Te141  1  0.16698199  0.66249219  0.00073145  1
  Te  Te142  1  0.17314430  0.66647490  0.33287060  1
  Te  Te143  1  0.17477312  0.66759301  0.66641836  1
  Te  Te144  1  0.49834448  0.00212046  -0.00163974  1
  Te  Te145  1  0.49412795  -0.00046980  0.33107994  1
  Te  Te146  1  0.49950260  0.00248059  0.66836626  1
  Te  Te147  1  0.49867070  0.33963906  -0.00622955  1
  Te  Te148  1  0.50612276  0.33950503  0.33137973  1
  Te  Te149  1  0.49997223  0.33249657  0.67448060  1
  Te  Te150  1  0.50508763  0.65868555  0.00036578  1
  Te  Te151  1  0.49526186  0.66281917  0.33696502  1
  Te  Te152  1  0.49609637  0.66415025  0.66239292  1
  Te  Te153  1  0.83378159  -0.00116799  -0.00608981  1
  Te  Te154  1  0.83440756  -0.00577988  0.33379853  1
  Te  Te155  1  0.83044017  -0.00180849  0.67168039  1
  Te  Te156  1  0.83469068  0.33417399  0.00878804  1
  Te  Te157  1  0.82897528  0.33473197  0.33247846  1
  Te  Te158  1  0.83306198  0.34123564  0.66400248  1
  Te  Te159  1  0.82624794  0.66979771  0.00323064  1
  Te  Te160  1  0.83321960  0.66561135  0.33500815  1
  Te  Te161  1  0.83329023  0.66524595  0.66243051  1
  Te  Te162  1  0.00000953  0.16170090  -0.00167376  1
  Te  Te163  1  0.00626807  0.16584345  0.32944735  1
  Te  Te164  1  0.00369205  0.16637134  0.67251524  1
  Te  Te165  1  0.00363074  0.50150620  -0.00586152  1
  Te  Te166  1  -0.00415779  0.50057690  0.33322148  1
  Te  Te167  1  0.00163065  0.50066764  0.67437439  1
  Te  Te168  1  0.00250955  0.83680723  0.00279874  1
  Te  Te169  1  -0.00480401  0.83439331  0.32611000  1
  Te  Te170  1  -0.00709099  0.83291236  0.66729861  1
  Te  Te171  1  0.33606748  0.16067456  0.00440422  1
  Te  Te172  1  0.33108072  0.16394311  0.33880164  1
  Te  Te173  1  0.33583986  0.16272652  0.66027941  1
  Te  Te174  1  0.33361950  0.50245113  0.00169974  1
  Te  Te175  1  0.33491956  0.50139317  0.33484478  1
  Te  Te176  1  0.33794730  0.50117036  0.66347429  1
  Te  Te177  1  0.33464646  0.83523482  0.00068305  1
  Te  Te178  1  0.33368453  0.83386207  0.33691205  1
  Te  Te179  1  0.33365743  0.83710886  0.66424202  1
  Te  Te180  1  0.66305547  0.16319540  -0.00082983  1
  Te  Te181  1  0.66646673  0.17110945  0.33353208  1
  Te  Te182  1  0.66328344  0.16401034  0.66735628  1
  Te  Te183  1  0.66428892  0.49846798  0.00042111  1
  Te  Te184  1  0.66684954  0.49982143  0.33382260  1
  Te  Te185  1  0.66371799  0.50096636  0.66466103  1
  Te  Te186  1  0.66134030  0.83654469  0.00004843  1
  Te  Te187  1  0.67047588  0.83478663  0.33911792  1
  Te  Te188  1  0.66836442  0.83578609  0.66302436  1
  Te  Te189  1  -0.00116419  0.00345510  0.16012361  1
  Te  Te190  1  0.00841007  0.00033079  0.49929312  1
  Te  Te191  1  0.00468856  0.00409372  0.83853814  1
  Te  Te192  1  0.00186472  0.32679182  0.16617174  1
  Te  Te193  1  -0.00967448  0.33150268  0.49931876  1
  Te  Te194  1  0.00079798  0.33083423  0.83379629  1
  Te  Te195  1  -0.00764785  0.66948557  0.16624727  1
  Te  Te196  1  -0.00581022  0.66812816  0.49981531  1
  Te  Te197  1  -0.00087225  0.65946685  0.83393274  1
  Te  Te198  1  0.33904226  -0.00075339  0.16763822  1
  Te  Te199  1  0.33400762  -0.00088413  0.50091470  1
  Te  Te200  1  0.33517142  -0.00258152  0.83226540  1
  Te  Te201  1  0.32838082  0.34177439  0.16694101  1
  Te  Te202  1  0.33223372  0.33633012  0.49907283  1
  Te  Te203  1  0.33232879  0.33786796  0.83365633  1
  Te  Te204  1  0.33299959  0.66023911  0.17039152  1
  Te  Te205  1  0.33520645  0.66532323  0.50027291  1
  Te  Te206  1  0.33361515  0.67640560  0.82870785  1
  Te  Te207  1  0.66235705  0.00335308  0.16581110  1
  Te  Te208  1  0.66562161  0.00256992  0.50225536  1
  Te  Te209  1  0.66357210  0.00137413  0.83303855  1
  Te  Te210  1  0.66687834  0.33286496  0.16923755  1
  Te  Te211  1  0.66863872  0.33385280  0.49636588  1
  Te  Te212  1  0.66411845  0.33121405  0.83382238  1
  Te  Te213  1  0.67110799  0.66494143  0.16339628  1
  Te  Te214  1  0.66462106  0.66649459  0.50091011  1
  Te  Te215  1  0.66738973  0.65970261  0.83838491  1
