# generated using pymatgen
data_AgSbTe2
_symmetry_space_group_name_H-M   'P 1'
_cell_length_a   18.31420376
_cell_length_b   18.31374202
_cell_length_c   18.30990383
_cell_angle_alpha   90.00082542
_cell_angle_beta   90.00191908
_cell_angle_gamma   90.00128484
_symmetry_Int_Tables_number   1
_chemical_formula_structural   AgSbTe2
_chemical_formula_sum   'Ag54 Sb54 Te108'
_cell_volume   6141.17108844
_cell_formula_units_Z   54
loop_
 _symmetry_equiv_pos_site_id
 _symmetry_equiv_pos_as_xyz
  1  'x, y, z'
loop_
 _atom_site_type_symbol
 _atom_site_label
 _atom_site_symmetry_multiplicity
 _atom_site_fract_x
 _atom_site_fract_y
 _atom_site_fract_z
 _atom_site_occupancy
  Ag  Ag0  1  0.01069977  0.00217686  0.33067210  1
  Ag  Ag1  1  0.17105792  -0.00271231  0.17523952  1
  Ag  Ag2  1  -0.00463916  0.83530084  0.16927758  1
  Ag  Ag3  1  0.33015906  0.83472363  0.83965418  1
  Ag  Ag4  1  0.83002978  0.83479085  0.00860030  1
  Ag  Ag5  1  0.49580264  0.66654109  0.83849511  1
  Ag  Ag6  1  0.16709301  0.00010755  0.48687754  1
  Ag  Ag7  1  0.67046043  0.33175624  0.33692155  1
  Ag  Ag8  1  0.82976213  0.67765193  0.16788006  1
  Ag  Ag9  1  0.50458396  0.16948955  0.67012749  1
  Ag  Ag10  1  0.83573295  0.33059001  0.83519041  1
  Ag  Ag11  1  0.66307803  0.67365490  0.33138603  1
  Ag  Ag12  1  -0.00076506  0.50238786  0.16472952  1
  Ag  Ag13  1  -0.00315458  0.32777111  0.33375322  1
  Ag  Ag14  1  0.66848934  0.16514722  0.16927578  1
  Ag  Ag15  1  0.66758946  -0.00098270  0.33137686  1
  Ag  Ag16  1  0.49306468  0.83556082  0.32510060  1
  Ag  Ag17  1  0.49511572  0.16007915  -0.00236721  1
  Ag  Ag18  1  0.00527866  0.16928432  0.49803537  1
  Ag  Ag19  1  0.16356759  0.00095690  0.83532121  1
  Ag  Ag20  1  0.50033589  0.67701200  0.16653088  1
  Ag  Ag21  1  0.32773751  0.50708728  0.16626963  1
  Ag  Ag22  1  0.00144538  0.17035160  0.83043697  1
  Ag  Ag23  1  0.16945380  0.16248314  -0.00087588  1
  Ag  Ag24  1  0.83466231  0.83804603  0.32380019  1
  Ag  Ag25  1  0.33156022  -0.00159444  0.00809001  1
  Ag  Ag26  1  0.49754271  0.83892206  0.00902367  1
  Ag  Ag27  1  0.16101633  0.33057797  0.83325625  1
  Ag  Ag28  1  0.83686401  0.84137117  0.67040958  1
  Ag  Ag29  1  0.16381298  0.15618493  0.33134995  1
  Ag  Ag30  1  0.17044476  0.67131468  0.83257966  1
  Ag  Ag31  1  0.83735471  0.00229890  0.83521475  1
  Ag  Ag32  1  0.50169456  0.33291150  0.82730748  1
  Ag  Ag33  1  0.83406176  -0.00680029  0.16785039  1
  Ag  Ag34  1  0.16659069  0.67304659  0.49911336  1
  Ag  Ag35  1  -0.00093541  0.49309030  0.84163292  1
  Ag  Ag36  1  0.32761382  0.16641765  0.49981019  1
  Ag  Ag37  1  0.82880121  0.16263369  0.67040435  1
  Ag  Ag38  1  0.16111271  0.49671547  -0.00146988  1
  Ag  Ag39  1  0.49370549  -0.00560891  0.16789295  1
  Ag  Ag40  1  0.83369280  0.33279396  0.16498390  1
  Ag  Ag41  1  0.33521475  0.67846490  0.33015993  1
  Ag  Ag42  1  0.50299520  0.33103364  0.50641981  1
  Ag  Ag43  1  0.32194780  -0.00441798  0.32577203  1
  Ag  Ag44  1  0.16533944  0.83649928  0.66499489  1
  Ag  Ag45  1  0.33737599  0.83599366  0.16810199  1
  Ag  Ag46  1  0.16973227  0.84218580  0.33003688  1
  Ag  Ag47  1  0.67004522  0.00745216  0.66371685  1
  Ag  Ag48  1  0.66319716  0.32808257  0.66587376  1
  Ag  Ag49  1  0.67117557  0.49625750  0.83098043  1
  Ag  Ag50  1  -0.00201030  0.49386313  0.49536024  1
  Ag  Ag51  1  0.83900782  0.50203019  0.00145752  1
  Ag  Ag52  1  0.67173369  0.49569470  0.50018613  1
  Ag  Ag53  1  0.34108088  0.32970515  0.66888599  1
  Sb  Sb54  1  0.00123025  0.66532874  0.00083195  1
  Sb  Sb55  1  0.83432321  0.50193326  0.32621775  1
  Sb  Sb56  1  0.67131556  0.49650688  0.16674581  1
  Sb  Sb57  1  0.16902978  0.83714644  0.00314464  1
  Sb  Sb58  1  0.66761566  0.83190060  0.49651471  1
  Sb  Sb59  1  0.32936170  0.16412016  0.83084886  1
  Sb  Sb60  1  -0.00046538  0.33407570  0.00145717  1
  Sb  Sb61  1  0.50421759  0.33068035  0.16584786  1
  Sb  Sb62  1  0.33159491  0.49650166  0.49477616  1
  Sb  Sb63  1  0.49824242  0.16081831  0.33215042  1
  Sb  Sb64  1  0.83287434  0.49763741  0.67291948  1
  Sb  Sb65  1  0.66623994  0.66689940  0.00653492  1
  Sb  Sb66  1  0.16627161  0.16217632  0.66714686  1
  Sb  Sb67  1  0.83722209  0.00063227  0.49742505  1
  Sb  Sb68  1  0.50015778  0.00112800  0.83884319  1
  Sb  Sb69  1  0.16763228  0.33035544  0.50358162  1
  Sb  Sb70  1  0.00450584  0.00021331  0.00544083  1
  Sb  Sb71  1  0.83465698  0.16445709  -0.00221739  1
  Sb  Sb72  1  0.49904108  0.50077699  -0.00015959  1
  Sb  Sb73  1  0.49836388  0.83978636  0.66873889  1
  Sb  Sb74  1  0.33001212  0.50261613  0.83903888  1
  Sb  Sb75  1  0.33434029  0.67287769  0.00538343  1
  Sb  Sb76  1  0.33401755  0.00252076  0.66610673  1
  Sb  Sb77  1  0.33247759  0.32779415  -0.00290247  1
  Sb  Sb78  1  0.16784959  0.67182086  0.16625500  1
  Sb  Sb79  1  0.83713799  0.66682538  0.49390635  1
  Sb  Sb80  1  0.66549377  0.84005252  0.17039963  1
  Sb  Sb81  1  0.83015128  0.33309095  0.50023628  1
  Sb  Sb82  1  -0.00284549  0.00095777  0.66404371  1
  Sb  Sb83  1  0.32979121  0.83865153  0.49357748  1
  Sb  Sb84  1  0.00312216  0.83602116  0.49324076  1
  Sb  Sb85  1  0.66967970  0.16969391  0.83320894  1
  Sb  Sb86  1  0.66647631  0.66495437  0.66300463  1
  Sb  Sb87  1  0.00327402  0.83464354  0.83901961  1
  Sb  Sb88  1  0.66736817  0.33322150  -0.00301622  1
  Sb  Sb89  1  0.50104099  0.49201685  0.66847924  1
  Sb  Sb90  1  0.49685803  0.66300974  0.49631324  1
  Sb  Sb91  1  0.33443536  0.16050604  0.16943684  1
  Sb  Sb92  1  0.66670227  0.16985443  0.49872198  1
  Sb  Sb93  1  -0.00250992  0.33112247  0.66659196  1
  Sb  Sb94  1  0.16484359  0.50158370  0.67185637  1
  Sb  Sb95  1  0.50198533  0.50396243  0.33108597  1
  Sb  Sb96  1  0.83417733  0.66723045  0.83919141  1
  Sb  Sb97  1  0.00008596  0.66769501  0.66591028  1
  Sb  Sb98  1  -0.00206207  0.16483257  0.16794411  1
  Sb  Sb99  1  0.16284002  0.33014666  0.16395521  1
  Sb  Sb100  1  0.49603860  0.00477187  0.49337119  1
  Sb  Sb101  1  0.33319105  0.32945318  0.33524796  1
  Sb  Sb102  1  0.66458985  0.00072157  0.00383069  1
  Sb  Sb103  1  0.83707006  0.16205144  0.33437147  1
  Sb  Sb104  1  0.16454593  0.50170544  0.32884227  1
  Sb  Sb105  1  0.00124081  0.67061693  0.33124355  1
  Sb  Sb106  1  0.33197789  0.66555338  0.66433031  1
  Sb  Sb107  1  0.66563480  0.83172489  0.83220209  1
  Te  Te108  1  0.16637588  0.16165551  0.16487911  1
  Te  Te109  1  0.16535979  0.16436303  0.50013883  1
  Te  Te110  1  0.16364581  0.16622753  0.83364089  1
  Te  Te111  1  0.16239222  0.49983700  0.16136654  1
  Te  Te112  1  0.16231001  0.50146100  0.50057199  1
  Te  Te113  1  0.16358504  0.49795638  0.83715787  1
  Te  Te114  1  0.16656077  0.83708729  0.16888991  1
  Te  Te115  1  0.16637798  0.83479028  0.49987770  1
  Te  Te116  1  0.16746789  0.83341073  0.83589048  1
  Te  Te117  1  0.50283964  0.16362996  0.16253577  1
  Te  Te118  1  0.49708842  0.17104157  0.50255459  1
  Te  Te119  1  0.49955800  0.16941454  0.83492373  1
  Te  Te120  1  0.49722011  0.50344203  0.16429179  1
  Te  Te121  1  0.50197789  0.49382646  0.49968306  1
  Te  Te122  1  0.50155794  0.50040746  0.83530280  1
  Te  Te123  1  0.50113039  0.83344679  0.16719938  1
  Te  Te124  1  0.49846567  0.83190838  0.49559185  1
  Te  Te125  1  0.49603604  0.83155118  0.83546639  1
  Te  Te126  1  0.83073519  0.16882340  0.16553316  1
  Te  Te127  1  0.84056906  0.16710260  0.50700425  1
  Te  Te128  1  0.83610545  0.16583271  0.83261559  1
  Te  Te129  1  0.83689697  0.49410246  0.16144812  1
  Te  Te130  1  0.83566729  0.50106821  0.50157648  1
  Te  Te131  1  0.83598743  0.49926486  0.83811584  1
  Te  Te132  1  0.83099813  0.83479651  0.16673285  1
  Te  Te133  1  0.83586453  0.83202017  0.50459072  1
  Te  Te134  1  0.83462585  0.83620221  0.83171909  1
  Te  Te135  1  0.17000522  0.00207426  -0.00559863  1
  Te  Te136  1  0.16634278  -0.00018490  0.33144148  1
  Te  Te137  1  0.16667144  -0.00496909  0.67561840  1
  Te  Te138  1  0.16713391  0.33072987  -0.00528896  1
  Te  Te139  1  0.16353948  0.32928800  0.33352531  1
  Te  Te140  1  0.16913178  0.33255075  0.67290881  1
  Te  Te141  1  0.16862364  0.66207586  -0.00596613  1
  Te  Te142  1  0.17008329  0.66919098  0.33481755  1
  Te  Te143  1  0.16748894  0.67262622  0.66824070  1
  Te  Te144  1  0.49782634  -0.00059099  0.00448833  1
  Te  Te145  1  0.50696391  -0.00436426  0.32850918  1
  Te  Te146  1  0.50553672  0.00667692  0.66546926  1
  Te  Te147  1  0.49969899  0.32791214  -0.00422859  1
  Te  Te148  1  0.50325680  0.33187859  0.33535995  1
  Te  Te149  1  0.50203534  0.33025271  0.66817450  1
  Te  Te150  1  0.50032335  0.67134237  -0.00072491  1
  Te  Te151  1  0.50001299  0.67128632  0.33182740  1
  Te  Te152  1  0.49996546  0.66907600  0.67180468  1
  Te  Te153  1  0.83359164  -0.00251928  0.00044637  1
  Te  Te154  1  0.82700832  -0.00251021  0.33105189  1
  Te  Te155  1  0.83161255  0.00049514  0.66600025  1
  Te  Te156  1  0.83275796  0.33461732  -0.00131155  1
  Te  Te157  1  0.83282502  0.33221675  0.33152379  1
  Te  Te158  1  0.82862879  0.33047264  0.67219251  1
  Te  Te159  1  0.83264416  0.66860299  0.00690591  1
  Te  Te160  1  0.83042131  0.67203772  0.32791310  1
  Te  Te161  1  0.83198807  0.67527426  0.66645873  1
  Te  Te162  1  0.00660139  0.16697530  -0.00685823  1
  Te  Te163  1  0.00273497  0.16599583  0.33462659  1
  Te  Te164  1  -0.00525615  0.16656250  0.66789565  1
  Te  Te165  1  0.00020740  0.49985776  0.00139483  1
  Te  Te166  1  -0.00054378  0.49591946  0.33155510  1
  Te  Te167  1  -0.00151509  0.49918726  0.66347432  1
  Te  Te168  1  -0.00741284  0.83287972  0.00780786  1
  Te  Te169  1  -0.00025958  0.83754045  0.32909105  1
  Te  Te170  1  0.00205798  0.83420455  0.66652575  1
  Te  Te171  1  0.33217205  0.16030825  -0.00012611  1
  Te  Te172  1  0.32838718  0.16228212  0.33741309  1
  Te  Te173  1  0.33753858  0.16983792  0.66307996  1
  Te  Te174  1  0.32985989  0.50018710  0.00702227  1
  Te  Te175  1  0.33293960  0.50131355  0.32626875  1
  Te  Te176  1  0.33269906  0.49257718  0.66571585  1
  Te  Te177  1  0.33595439  0.83760521  0.00192865  1
  Te  Te178  1  0.33223559  0.83574294  0.33184959  1
  Te  Te179  1  0.32909582  0.83364478  0.67163738  1
  Te  Te180  1  0.66168081  0.16733703  0.00512636  1
  Te  Te181  1  0.66678851  0.16669863  0.33197180  1
  Te  Te182  1  0.66684159  0.16741410  0.66623554  1
  Te  Te183  1  0.67110280  0.50033298  -0.00636883  1
  Te  Te184  1  0.66841690  0.49409404  0.33614895  1
  Te  Te185  1  0.66786234  0.49595832  0.66633490  1
  Te  Te186  1  0.66815978  0.83308073  -0.00202060  1
  Te  Te187  1  0.67006089  0.83328867  0.33519735  1
  Te  Te188  1  0.66885024  0.83817793  0.66422014  1
  Te  Te189  1  -0.00318021  -0.00127984  0.17075747  1
  Te  Te190  1  0.00574347  0.00377564  0.49397738  1
  Te  Te191  1  -0.00248656  0.00157835  0.83410660  1
  Te  Te192  1  -0.00422535  0.33452330  0.17237496  1
  Te  Te193  1  0.00002360  0.33244332  0.49585669  1
  Te  Te194  1  -0.00122971  0.33332150  0.83229960  1
  Te  Te195  1  -0.00380700  0.66585841  0.16762593  1
  Te  Te196  1  0.00667044  0.66063241  0.49884605  1
  Te  Te197  1  0.00457795  0.66117782  0.83292366  1
  Te  Te198  1  0.33307786  -0.00131471  0.16736330  1
  Te  Te199  1  0.32822163  0.00508220  0.49757549  1
  Te  Te200  1  0.33215330  -0.00419366  0.83411171  1
  Te  Te201  1  0.33388904  0.33938385  0.16661063  1
  Te  Te202  1  0.33778260  0.32917665  0.50308726  1
  Te  Te203  1  0.33595179  0.33433869  0.83007107  1
  Te  Te204  1  0.33487634  0.67079228  0.17030244  1
  Te  Te205  1  0.32801770  0.66476934  0.49396814  1
  Te  Te206  1  0.33329638  0.66992980  0.83235180  1
  Te  Te207  1  0.67053571  0.00502791  0.16874712  1
  Te  Te208  1  0.66536766  0.00121071  0.49875718  1
  Te  Te209  1  0.67286357  0.00028789  0.82907612  1
  Te  Te210  1  0.67043166  0.32908893  0.17113789  1
  Te  Te211  1  0.66439576  0.33560904  0.49909948  1
  Te  Te212  1  0.66768621  0.33546173  0.83051496  1
  Te  Te213  1  0.66552836  0.66236226  0.17278208  1
  Te  Te214  1  0.66602352  0.65771388  0.49320414  1
  Te  Te215  1  0.66416266  0.66027692  0.83214172  1
