# generated using pymatgen
data_AgSbTe2
_symmetry_space_group_name_H-M   'P 1'
_cell_length_a   18.35405600
_cell_length_b   18.34277123
_cell_length_c   18.34784669
_cell_angle_alpha   90.00148617
_cell_angle_beta   90.00035422
_cell_angle_gamma   90.00124900
_symmetry_Int_Tables_number   1
_chemical_formula_structural   AgSbTe2
_chemical_formula_sum   'Ag54 Sb54 Te108'
_cell_volume   6177.06404883
_cell_formula_units_Z   54
loop_
 _symmetry_equiv_pos_site_id
 _symmetry_equiv_pos_as_xyz
  1  'x, y, z'
loop_
 _atom_site_type_symbol
 _atom_site_label
 _atom_site_symmetry_multiplicity
 _atom_site_fract_x
 _atom_site_fract_y
 _atom_site_fract_z
 _atom_site_occupancy
  Ag  Ag0  1  0.50467161  0.65772684  0.83143115  1
  Ag  Ag1  1  0.16774831  0.49698424  0.67009181  1
  Ag  Ag2  1  -0.00478450  0.17771377  0.83211106  1
  Ag  Ag3  1  0.34761105  0.17743404  0.83041843  1
  Ag  Ag4  1  0.16867740  0.17653234  0.66765335  1
  Ag  Ag5  1  0.83300604  -0.00811986  0.50083046  1
  Ag  Ag6  1  0.00174304  0.66002990  0.66595776  1
  Ag  Ag7  1  0.66777316  0.82224509  0.50843369  1
  Ag  Ag8  1  0.00290917  0.49883353  0.50580246  1
  Ag  Ag9  1  -0.00003808  0.17178232  0.15714558  1
  Ag  Ag10  1  0.65895015  0.49666950  0.83005826  1
  Ag  Ag11  1  0.16058161  0.82878297  0.32482148  1
  Ag  Ag12  1  0.33668295  0.33505814  0.66656599  1
  Ag  Ag13  1  0.32944659  0.18018819  0.51144595  1
  Ag  Ag14  1  0.00111347  0.17852224  0.51116544  1
  Ag  Ag15  1  0.50420468  0.65735060  0.50316812  1
  Ag  Ag16  1  0.33167035  0.65389211  0.66715950  1
  Ag  Ag17  1  0.83351650  0.66338769  0.83218955  1
  Ag  Ag18  1  0.16748557  0.82566124  0.00485195  1
  Ag  Ag19  1  0.82890614  0.17422148  -0.00818922  1
  Ag  Ag20  1  0.49464125  0.66508443  0.16059383  1
  Ag  Ag21  1  0.00149443  0.33491212  -0.00277822  1
  Ag  Ag22  1  0.83177233  0.66508982  0.50392331  1
  Ag  Ag23  1  0.83737402  0.82735557  0.33390772  1
  Ag  Ag24  1  0.65968966  0.33269739  -0.00787881  1
  Ag  Ag25  1  0.84151348  0.49572729  -0.00316401  1
  Ag  Ag26  1  0.66335834  0.17875430  0.83413856  1
  Ag  Ag27  1  0.49385253  0.17362712  0.67639883  1
  Ag  Ag28  1  0.17718623  0.33799028  0.50210123  1
  Ag  Ag29  1  0.50740289  0.17105827  -0.00438364  1
  Ag  Ag30  1  0.32558592  0.81956842  0.16393791  1
  Ag  Ag31  1  0.16115499  0.66631298  0.16682253  1
  Ag  Ag32  1  0.65586711  0.33272694  0.67223890  1
  Ag  Ag33  1  0.49219731  0.33771024  0.51221072  1
  Ag  Ag34  1  0.66805525  0.82701554  0.83257812  1
  Ag  Ag35  1  -0.00186610  0.66514789  0.32707886  1
  Ag  Ag36  1  0.16273310  0.50082331  -0.00453002  1
  Ag  Ag37  1  0.00635204  0.82234388  0.15909036  1
  Ag  Ag38  1  0.33380677  0.33764009  0.34985368  1
  Ag  Ag39  1  0.33822096  0.49776483  0.82704277  1
  Ag  Ag40  1  0.49908421  0.83527412  0.00060179  1
  Ag  Ag41  1  0.65420948  0.50196883  0.51050392  1
  Ag  Ag42  1  0.84065738  0.17011962  0.67589723  1
  Ag  Ag43  1  0.84369766  0.66697194  0.16461754  1
  Ag  Ag44  1  0.66494507  0.00758757  -0.00302633  1
  Ag  Ag45  1  0.49885364  -0.00868676  0.16159380  1
  Ag  Ag46  1  0.33011215  0.50115207  0.16393079  1
  Ag  Ag47  1  0.33524532  0.33472278  -0.00891027  1
  Ag  Ag48  1  0.49690456  0.50083704  0.34199561  1
  Ag  Ag49  1  0.00677654  0.50404979  0.15813893  1
  Ag  Ag50  1  0.33683740  0.49623932  0.50781756  1
  Ag  Ag51  1  0.49974777  0.33705461  0.83117847  1
  Ag  Ag52  1  0.00019386  0.49857465  0.83879771  1
  Ag  Ag53  1  -0.00509890  0.81796149  0.84055118  1
  Sb  Sb54  1  0.17443613  0.33561451  0.82909859  1
  Sb  Sb55  1  -0.00098048  -0.00617438  0.33410313  1
  Sb  Sb56  1  0.67092238  0.66597189  0.33623717  1
  Sb  Sb57  1  0.33211424  0.66012439  0.33215390  1
  Sb  Sb58  1  0.66043362  0.33587351  0.33673443  1
  Sb  Sb59  1  0.50241053  0.00499488  0.83839821  1
  Sb  Sb60  1  0.16866624  -0.00674564  0.16561204  1
  Sb  Sb61  1  0.66489999  0.65924014  0.66720367  1
  Sb  Sb62  1  0.66588253  0.66275975  -0.00362441  1
  Sb  Sb63  1  0.49806530  0.17277954  0.33182632  1
  Sb  Sb64  1  0.66674351  -0.00137871  0.33139290  1
  Sb  Sb65  1  0.49307611  0.49544876  0.66595343  1
  Sb  Sb66  1  0.83175338  -0.00405725  0.16650115  1
  Sb  Sb67  1  -0.00215300  0.00123957  0.66604482  1
  Sb  Sb68  1  0.83619030  0.33832969  0.16029774  1
  Sb  Sb69  1  0.33438789  0.82558397  0.83930860  1
  Sb  Sb70  1  0.16497907  0.82610733  0.66966136  1
  Sb  Sb71  1  0.16481478  0.17196564  -0.00527433  1
  Sb  Sb72  1  0.16545609  0.66041275  0.83675542  1
  Sb  Sb73  1  0.49800540  0.49850146  -0.00288096  1
  Sb  Sb74  1  0.82793498  0.33795712  0.83443037  1
  Sb  Sb75  1  0.16608257  0.66116147  0.49781503  1
  Sb  Sb76  1  0.16597248  0.00152070  0.83386251  1
  Sb  Sb77  1  0.83598134  0.16240056  0.33363902  1
  Sb  Sb78  1  0.50137922  0.82557554  0.32789442  1
  Sb  Sb79  1  0.66992287  0.16615269  0.15621468  1
  Sb  Sb80  1  0.50423637  0.00247107  0.49694546  1
  Sb  Sb81  1  0.33404662  0.00881460  0.66665318  1
  Sb  Sb82  1  -0.00130990  0.65970833  -0.00043051  1
  Sb  Sb83  1  0.16956297  0.50321954  0.33330386  1
  Sb  Sb84  1  -0.00383639  0.82703459  0.50007978  1
  Sb  Sb85  1  0.49803549  0.33771477  0.16227600  1
  Sb  Sb86  1  0.66873971  0.00447863  0.67174910  1
  Sb  Sb87  1  0.16727205  0.33959303  0.16743280  1
  Sb  Sb88  1  0.33114989  0.17212319  0.16316349  1
  Sb  Sb89  1  0.33358865  0.65892449  0.00002089  1
  Sb  Sb90  1  0.83216948  0.50593199  0.33165568  1
  Sb  Sb91  1  0.00280791  0.33565920  0.67131903  1
  Sb  Sb92  1  0.83348255  0.83053566  0.00098104  1
  Sb  Sb93  1  0.33762080  0.00359533  0.00030245  1
  Sb  Sb94  1  0.83180111  0.33874852  0.50290491  1
  Sb  Sb95  1  0.83884266  0.49814027  0.67109028  1
  Sb  Sb96  1  -0.00329810  0.00427651  -0.00061890  1
  Sb  Sb97  1  0.49963609  0.83377180  0.67157104  1
  Sb  Sb98  1  0.66796758  0.17134133  0.51000843  1
  Sb  Sb99  1  0.66729021  0.50101073  0.16233793  1
  Sb  Sb100  1  0.83194286  0.00118632  0.83219945  1
  Sb  Sb101  1  0.00291534  0.33881714  0.33296893  1
  Sb  Sb102  1  0.66703579  0.83125470  0.16301064  1
  Sb  Sb103  1  0.33414332  0.00200973  0.33160838  1
  Sb  Sb104  1  0.83281214  0.83196832  0.66508679  1
  Sb  Sb105  1  0.16177238  0.00558937  0.50059714  1
  Sb  Sb106  1  0.33726774  0.82595752  0.49685868  1
  Sb  Sb107  1  0.16472773  0.16557123  0.33562214  1
  Te  Te108  1  0.16095412  0.16502917  0.16590220  1
  Te  Te109  1  0.16554174  0.16989640  0.50236328  1
  Te  Te110  1  0.15584213  0.16738623  0.82880854  1
  Te  Te111  1  0.16628771  0.50388194  0.16724313  1
  Te  Te112  1  0.16487587  0.49759522  0.49952191  1
  Te  Te113  1  0.16434358  0.50020176  0.83499650  1
  Te  Te114  1  0.16667367  0.82991441  0.16502626  1
  Te  Te115  1  0.16893698  0.83532495  0.49916410  1
  Te  Te116  1  0.16422461  0.83284808  0.83727196  1
  Te  Te117  1  0.50001646  0.16688447  0.16120025  1
  Te  Te118  1  0.49798300  0.16944389  0.49816986  1
  Te  Te119  1  0.50323198  0.16747262  0.83592690  1
  Te  Te120  1  0.49891074  0.50451760  0.16588768  1
  Te  Te121  1  0.49762369  0.49915085  0.50333606  1
  Te  Te122  1  0.49942402  0.49938014  0.83287816  1
  Te  Te123  1  0.50111012  0.82846648  0.16337879  1
  Te  Te124  1  0.50589291  0.83287316  0.50057536  1
  Te  Te125  1  0.50024020  0.83268365  0.83907949  1
  Te  Te126  1  0.84008764  0.16510354  0.16459881  1
  Te  Te127  1  0.83696330  0.16999121  0.49936289  1
  Te  Te128  1  0.83437015  0.16462086  0.83390399  1
  Te  Te129  1  0.83455192  0.50648617  0.16235529  1
  Te  Te130  1  0.84128518  0.50640963  0.49972599  1
  Te  Te131  1  0.83903089  0.50372710  0.83538102  1
  Te  Te132  1  0.83578117  0.82895900  0.16949904  1
  Te  Te133  1  0.83074023  0.82831953  0.49971448  1
  Te  Te134  1  0.83511153  0.82925767  0.83309171  1
  Te  Te135  1  0.16574709  -0.00735835  0.00022279  1
  Te  Te136  1  0.16716788  -0.01004704  0.33364351  1
  Te  Te137  1  0.16580422  0.00669773  0.66598248  1
  Te  Te138  1  0.16544303  0.33958296  0.00153768  1
  Te  Te139  1  0.17237910  0.33246507  0.33840940  1
  Te  Te140  1  0.16646942  0.33542262  0.66326624  1
  Te  Te141  1  0.16842609  0.66549503  0.00415238  1
  Te  Te142  1  0.16284564  0.67035369  0.33031293  1
  Te  Te143  1  0.16762882  0.66114965  0.66783001  1
  Te  Te144  1  0.50300059  -0.00079436  0.00332438  1
  Te  Te145  1  0.50034153  -0.00016097  0.32362890  1
  Te  Te146  1  0.50119438  0.00850503  0.66376154  1
  Te  Te147  1  0.49925318  0.33157559  -0.00379833  1
  Te  Te148  1  0.49443624  0.34017053  0.33271722  1
  Te  Te149  1  0.49907996  0.33149162  0.66855605  1
  Te  Te150  1  0.49940362  0.66964858  -0.00333098  1
  Te  Te151  1  0.50033662  0.66104597  0.33977856  1
  Te  Te152  1  0.49669250  0.67123669  0.66761973  1
  Te  Te153  1  0.82716398  0.00662078  0.00099718  1
  Te  Te154  1  0.83295123  -0.00852559  0.33815665  1
  Te  Te155  1  0.83346134  0.00687420  0.66036252  1
  Te  Te156  1  0.83821094  0.33404300  -0.00002860  1
  Te  Te157  1  0.83125447  0.33176749  0.33040273  1
  Te  Te158  1  0.82973751  0.32681964  0.66619626  1
  Te  Te159  1  0.83130933  0.66252928  -0.00171353  1
  Te  Te160  1  0.83740348  0.66915292  0.33347299  1
  Te  Te161  1  0.83658574  0.66595319  0.66839730  1
  Te  Te162  1  -0.00051181  0.17063520  -0.00248548  1
  Te  Te163  1  -0.00004447  0.16841947  0.33311668  1
  Te  Te164  1  0.00005848  0.16711338  0.66778873  1
  Te  Te165  1  0.00106540  0.49733321  0.00091694  1
  Te  Te166  1  -0.00102713  0.50475717  0.33235298  1
  Te  Te167  1  0.00439081  0.50081368  0.66640406  1
  Te  Te168  1  0.00084967  0.83726688  0.00017663  1
  Te  Te169  1  -0.00072163  0.82800738  0.33347837  1
  Te  Te170  1  0.00113710  0.82977308  0.67197122  1
  Te  Te171  1  0.33270337  0.17193659  -0.00430654  1
  Te  Te172  1  0.33262630  0.17381188  0.33325441  1
  Te  Te173  1  0.33206677  0.17082576  0.66836424  1
  Te  Te174  1  0.33201821  0.49544506  0.00082974  1
  Te  Te175  1  0.33557719  0.49785810  0.33076640  1
  Te  Te176  1  0.32998485  0.49703993  0.66703360  1
  Te  Te177  1  0.33428265  0.83605500  0.00419854  1
  Te  Te178  1  0.33253434  0.83355673  0.32728140  1
  Te  Te179  1  0.33185350  0.83592474  0.66789772  1
  Te  Te180  1  0.66805324  0.16922161  -0.00469041  1
  Te  Te181  1  0.66684857  0.16699075  0.33104805  1
  Te  Te182  1  0.66521712  0.17078584  0.67294949  1
  Te  Te183  1  0.66886456  0.49435904  -0.00605305  1
  Te  Te184  1  0.66085277  0.49836481  0.33846952  1
  Te  Te185  1  0.67221812  0.49545391  0.66866914  1
  Te  Te186  1  0.66466325  0.83214937  -0.00464654  1
  Te  Te187  1  0.67031688  0.83428264  0.33804840  1
  Te  Te188  1  0.66589159  0.83509850  0.66753979  1
  Te  Te189  1  0.00009380  0.00443482  0.16730656  1
  Te  Te190  1  -0.00674606  0.00413950  0.49909745  1
  Te  Te191  1  -0.00078917  0.00033864  0.83331418  1
  Te  Te192  1  0.00154487  0.33339776  0.16468577  1
  Te  Te193  1  0.00063465  0.33626749  0.49988916  1
  Te  Te194  1  -0.00001795  0.33803333  0.83643728  1
  Te  Te195  1  0.00111427  0.66577239  0.16515744  1
  Te  Te196  1  -0.00086596  0.66352189  0.50596837  1
  Te  Te197  1  -0.00189330  0.66225041  0.83145068  1
  Te  Te198  1  0.33905309  0.00140297  0.16656178  1
  Te  Te199  1  0.33428221  0.00173655  0.49812003  1
  Te  Te200  1  0.33322765  0.00819920  0.83327075  1
  Te  Te201  1  0.33229615  0.33904570  0.15827208  1
  Te  Te202  1  0.33374651  0.33470140  0.50475373  1
  Te  Te203  1  0.33555191  0.33558277  0.83071302  1
  Te  Te204  1  0.33593707  0.66397656  0.16615040  1
  Te  Te205  1  0.33668241  0.66158844  0.50388587  1
  Te  Te206  1  0.33635032  0.66018284  0.82834307  1
  Te  Te207  1  0.66159787  -0.00113503  0.16009279  1
  Te  Te208  1  0.67277450  0.00019433  0.49940261  1
  Te  Te209  1  0.66719767  -0.01068590  0.83825904  1
  Te  Te210  1  0.66734442  0.33426982  0.16098774  1
  Te  Te211  1  0.66279612  0.34087711  0.50415659  1
  Te  Te212  1  0.66552222  0.33701453  0.83434649  1
  Te  Te213  1  0.66116085  0.66555048  0.16774539  1
  Te  Te214  1  0.66580160  0.66402289  0.50223858  1
  Te  Te215  1  0.66583468  0.66561673  0.83075675  1
