# generated using pymatgen
data_AgSbTe2
_symmetry_space_group_name_H-M   'P 1'
_cell_length_a   18.32542299
_cell_length_b   18.32399748
_cell_length_c   18.31779620
_cell_angle_alpha   90.00082531
_cell_angle_beta   90.00510398
_cell_angle_gamma   90.00135516
_symmetry_Int_Tables_number   1
_chemical_formula_structural   AgSbTe2
_chemical_formula_sum   'Ag54 Sb54 Te108'
_cell_volume   6151.02443222
_cell_formula_units_Z   54
loop_
 _symmetry_equiv_pos_site_id
 _symmetry_equiv_pos_as_xyz
  1  'x, y, z'
loop_
 _atom_site_type_symbol
 _atom_site_label
 _atom_site_symmetry_multiplicity
 _atom_site_fract_x
 _atom_site_fract_y
 _atom_site_fract_z
 _atom_site_occupancy
  Ag  Ag0  1  0.49833553  -0.00232285  0.84135032  1
  Ag  Ag1  1  -0.00490302  0.66221596  -0.00278622  1
  Ag  Ag2  1  0.15569406  0.32613268  0.16224225  1
  Ag  Ag3  1  0.83846573  0.16312515  0.32918814  1
  Ag  Ag4  1  0.17037099  0.00511494  0.83638074  1
  Ag  Ag5  1  0.17083010  0.66465108  0.50459249  1
  Ag  Ag6  1  0.49871673  0.00883464  0.16175669  1
  Ag  Ag7  1  0.83630555  0.84395521  0.32867708  1
  Ag  Ag8  1  0.67030014  0.00326990  0.67096349  1
  Ag  Ag9  1  0.17179142  0.16886943  0.00721777  1
  Ag  Ag10  1  0.32806235  0.32592143  0.00596592  1
  Ag  Ag11  1  0.66838565  0.33495289  0.66713788  1
  Ag  Ag12  1  0.16671286  0.32715586  0.83979647  1
  Ag  Ag13  1  0.82676688  0.67155263  0.83658216  1
  Ag  Ag14  1  0.84355653  0.33190809  0.16724117  1
  Ag  Ag15  1  0.66868455  0.66618169  -0.00420583  1
  Ag  Ag16  1  0.66753795  0.66362332  0.67209746  1
  Ag  Ag17  1  0.16481997  0.84465657  0.33268642  1
  Ag  Ag18  1  0.16937188  0.50141108  0.66589071  1
  Ag  Ag19  1  0.49948865  0.84157953  -0.00136819  1
  Ag  Ag20  1  0.49984257  0.49648492  0.34455077  1
  Ag  Ag21  1  0.32599622  0.00806150  0.32593939  1
  Ag  Ag22  1  0.49863467  0.65519220  0.50864905  1
  Ag  Ag23  1  0.00343721  0.17094741  0.16901975  1
  Ag  Ag24  1  0.83120384  0.66086652  0.16169204  1
  Ag  Ag25  1  0.49461065  0.16331410  0.00347626  1
  Ag  Ag26  1  0.33648254  0.00759025  0.00272333  1
  Ag  Ag27  1  0.33091407  0.32755424  0.32843375  1
  Ag  Ag28  1  0.34415704  0.49564043  0.50358023  1
  Ag  Ag29  1  -0.00197488  0.00459367  0.66793086  1
  Ag  Ag30  1  0.66664040  0.16290892  0.83681171  1
  Ag  Ag31  1  0.16445003  0.83113273  0.66578193  1
  Ag  Ag32  1  0.50091709  0.32887389  0.16868316  1
  Ag  Ag33  1  0.33395561  0.50043545  0.82765130  1
  Ag  Ag34  1  -0.00247421  0.48622053  0.16735623  1
  Ag  Ag35  1  0.65701800  0.49987001  0.49957403  1
  Ag  Ag36  1  0.33472267  0.83512893  0.83469787  1
  Ag  Ag37  1  0.82752326  -0.00112090  0.82991354  1
  Ag  Ag38  1  0.49812798  0.34207141  0.49348350  1
  Ag  Ag39  1  0.49936136  0.50066218  0.65790510  1
  Ag  Ag40  1  0.00804750  0.33373465  0.01148129  1
  Ag  Ag41  1  0.83211141  0.16492043  0.66549118  1
  Ag  Ag42  1  0.00363328  0.00679425  0.33009650  1
  Ag  Ag43  1  -0.00126739  0.33181299  0.66779963  1
  Ag  Ag44  1  0.00728705  0.32575698  0.32269625  1
  Ag  Ag45  1  -0.00119917  0.66361791  0.67181203  1
  Ag  Ag46  1  0.17025865  0.00905693  0.17171306  1
  Ag  Ag47  1  0.66751289  0.00239671  0.32741941  1
  Ag  Ag48  1  0.50456226  0.66832551  0.83110881  1
  Ag  Ag49  1  0.66803120  0.16809913  0.16511546  1
  Ag  Ag50  1  0.33376230  0.17501791  0.49554550  1
  Ag  Ag51  1  0.66624983  0.84027706  0.16767451  1
  Ag  Ag52  1  0.66765051  0.49478692  0.17032015  1
  Ag  Ag53  1  0.16296658  0.16287746  0.32495992  1
  Sb  Sb54  1  0.66508100  0.32956680  0.33156084  1
  Sb  Sb55  1  0.16733555  0.49184269  -0.00359372  1
  Sb  Sb56  1  0.82939342  0.33258316  0.49590675  1
  Sb  Sb57  1  0.33262527  0.00057718  0.66978420  1
  Sb  Sb58  1  0.17091756  0.83949687  0.00038699  1
  Sb  Sb59  1  0.49929489  0.00257216  0.49851099  1
  Sb  Sb60  1  0.33461594  0.49405019  0.16795292  1
  Sb  Sb61  1  0.83179287  0.00368795  0.16581326  1
  Sb  Sb62  1  0.49791846  0.82926798  0.67219580  1
  Sb  Sb63  1  0.65989859  -0.00089048  0.00087175  1
  Sb  Sb64  1  0.32919027  0.16776913  0.16879700  1
  Sb  Sb65  1  0.66535086  0.33553862  0.00087686  1
  Sb  Sb66  1  0.83439056  0.50155653  0.00173447  1
  Sb  Sb67  1  -0.00423550  0.83691848  0.16785457  1
  Sb  Sb68  1  0.16760096  0.66674439  0.82889141  1
  Sb  Sb69  1  0.50564535  0.16996528  0.67019261  1
  Sb  Sb70  1  0.49590763  0.33287080  0.83491510  1
  Sb  Sb71  1  0.50854110  0.66477118  0.16342682  1
  Sb  Sb72  1  0.33436399  0.66395204  0.66684536  1
  Sb  Sb73  1  0.33779853  0.83816921  0.16323451  1
  Sb  Sb74  1  0.82763268  0.83204545  0.00351052  1
  Sb  Sb75  1  -0.00296634  0.16670091  0.83708913  1
  Sb  Sb76  1  0.00037167  0.49853466  0.49760783  1
  Sb  Sb77  1  0.33203446  0.83234634  0.50236045  1
  Sb  Sb78  1  0.00606632  0.00311345  0.00106499  1
  Sb  Sb79  1  0.33581711  0.16666844  0.83385826  1
  Sb  Sb80  1  0.17046456  0.49518949  0.33668027  1
  Sb  Sb81  1  0.83166629  0.66603610  0.50149579  1
  Sb  Sb82  1  0.17218111  0.33616730  0.49889119  1
  Sb  Sb83  1  0.33305375  0.66539213  0.33470208  1
  Sb  Sb84  1  0.49899582  0.49752723  -0.00029908  1
  Sb  Sb85  1  0.00447497  0.16822316  0.49370739  1
  Sb  Sb86  1  0.66139391  0.50002311  0.83179618  1
  Sb  Sb87  1  0.33371700  0.33506029  0.66625900  1
  Sb  Sb88  1  0.00474797  0.83358003  0.83311978  1
  Sb  Sb89  1  0.66732291  0.66810014  0.33207245  1
  Sb  Sb90  1  0.33403718  0.66624463  -0.00289925  1
  Sb  Sb91  1  -0.00078032  0.66643155  0.33270245  1
  Sb  Sb92  1  0.66231544  0.83583660  0.83765018  1
  Sb  Sb93  1  0.16787651  -0.00118548  0.49698544  1
  Sb  Sb94  1  0.83602892  0.83682604  0.66505812  1
  Sb  Sb95  1  0.83231421  0.49666720  0.66692405  1
  Sb  Sb96  1  0.82975615  0.49607196  0.32908395  1
  Sb  Sb97  1  0.00473688  0.49955048  0.83549720  1
  Sb  Sb98  1  0.00228730  0.83300273  0.49989158  1
  Sb  Sb99  1  0.49780969  0.16975511  0.32624064  1
  Sb  Sb100  1  0.66210492  0.17091241  0.49875842  1
  Sb  Sb101  1  0.66444810  0.82991361  0.49699217  1
  Sb  Sb102  1  0.83294069  0.16627855  0.00271305  1
  Sb  Sb103  1  0.49846907  0.83329238  0.32878802  1
  Sb  Sb104  1  0.15872207  0.66605951  0.16920268  1
  Sb  Sb105  1  0.83235319  0.00159170  0.49976339  1
  Sb  Sb106  1  0.83678629  0.33238300  0.83646425  1
  Sb  Sb107  1  0.16144377  0.16707672  0.66654495  1
  Te  Te108  1  0.16588103  0.16641463  0.16688530  1
  Te  Te109  1  0.17293195  0.16752606  0.49580935  1
  Te  Te110  1  0.16610928  0.16592940  0.83441288  1
  Te  Te111  1  0.16288870  0.49651310  0.16805046  1
  Te  Te112  1  0.16760609  0.50394162  0.50444652  1
  Te  Te113  1  0.17150011  0.49832236  0.82697518  1
  Te  Te114  1  0.16714773  0.83562795  0.17084565  1
  Te  Te115  1  0.16810482  0.82697934  0.50127078  1
  Te  Te116  1  0.17184792  0.83748684  0.83212747  1
  Te  Te117  1  0.50498788  0.16611961  0.16446697  1
  Te  Te118  1  0.49450836  0.17149772  0.50114092  1
  Te  Te119  1  0.50458931  0.16376137  0.83753414  1
  Te  Te120  1  0.50279836  0.49687183  0.16785467  1
  Te  Te121  1  0.50049463  0.49912806  0.50122240  1
  Te  Te122  1  0.49546172  0.50217856  0.83091529  1
  Te  Te123  1  0.50541367  0.83459442  0.16163521  1
  Te  Te124  1  0.49800889  0.82459804  0.50001709  1
  Te  Te125  1  0.49639291  0.83512931  0.83688990  1
  Te  Te126  1  0.82934011  0.16872008  0.16841970  1
  Te  Te127  1  0.83268928  0.16754167  0.50099289  1
  Te  Te128  1  0.82834670  0.16480293  0.83083194  1
  Te  Te129  1  0.83208202  0.49787944  0.16751499  1
  Te  Te130  1  0.82377012  0.50061435  0.49764599  1
  Te  Te131  1  0.83225457  0.50729883  0.83294786  1
  Te  Te132  1  0.82792377  0.83334819  0.17029601  1
  Te  Te133  1  0.83295102  0.83242530  0.48789460  1
  Te  Te134  1  0.83330108  0.83370427  0.83315446  1
  Te  Te135  1  0.17127727  0.00431265  -0.00124037  1
  Te  Te136  1  0.16609697  0.00198627  0.33371748  1
  Te  Te137  1  0.16465588  -0.00208438  0.66817557  1
  Te  Te138  1  0.16714931  0.33047052  0.00122489  1
  Te  Te139  1  0.16795033  0.33081788  0.33140684  1
  Te  Te140  1  0.16463635  0.33549603  0.66852981  1
  Te  Te141  1  0.16149461  0.66672837  -0.00058529  1
  Te  Te142  1  0.16523007  0.67023713  0.33896677  1
  Te  Te143  1  0.16359862  0.66640752  0.66611772  1
  Te  Te144  1  0.49848835  0.00173601  0.00086151  1
  Te  Te145  1  0.50268749  -0.00074194  0.32966861  1
  Te  Te146  1  0.50341802  -0.00086484  0.66924739  1
  Te  Te147  1  0.49746561  0.32863686  0.00301269  1
  Te  Te148  1  0.49840908  0.33458673  0.33237604  1
  Te  Te149  1  0.50422456  0.33753777  0.66728169  1
  Te  Te150  1  0.50206290  0.66812451  -0.00440251  1
  Te  Te151  1  0.49928808  0.66184187  0.33444688  1
  Te  Te152  1  0.50339944  0.66436237  0.66892690  1
  Te  Te153  1  0.83678926  -0.00076006  -0.00996109  1
  Te  Te154  1  0.83320264  0.00248474  0.33269460  1
  Te  Te155  1  0.83283191  0.00147104  0.66928840  1
  Te  Te156  1  0.83974776  0.33262335  0.00514319  1
  Te  Te157  1  0.83645248  0.32833409  0.32878155  1
  Te  Te158  1  0.83133895  0.32929263  0.66768239  1
  Te  Te159  1  0.83326727  0.66778200  -0.00024705  1
  Te  Te160  1  0.83472364  0.66969278  0.32873536  1
  Te  Te161  1  0.83335755  0.66845605  0.66907038  1
  Te  Te162  1  0.00369039  0.17080784  0.00499868  1
  Te  Te163  1  0.00028798  0.16684332  0.33224916  1
  Te  Te164  1  -0.00488724  0.16485875  0.66601503  1
  Te  Te165  1  0.00106770  0.49926628  0.00466891  1
  Te  Te166  1  0.00054002  0.49435134  0.32945552  1
  Te  Te167  1  0.00165359  0.50082109  0.66622629  1
  Te  Te168  1  0.00090653  0.82628093  0.00080155  1
  Te  Te169  1  0.00211299  0.83796227  0.33365868  1
  Te  Te170  1  0.00390705  0.83412962  0.66648340  1
  Te  Te171  1  0.33282446  0.16670424  -0.00193767  1
  Te  Te172  1  0.33241106  0.16728208  0.33450711  1
  Te  Te173  1  0.33288005  0.16699752  0.65936328  1
  Te  Te174  1  0.33319126  0.49518915  -0.00536217  1
  Te  Te175  1  0.33788780  0.49604212  0.33726165  1
  Te  Te176  1  0.33366850  0.49885300  0.66610573  1
  Te  Te177  1  0.33809043  0.83690448  -0.00460908  1
  Te  Te178  1  0.32820525  0.83819003  0.33352213  1
  Te  Te179  1  0.32624054  0.83368619  0.67217098  1
  Te  Te180  1  0.66449771  0.16805087  0.00046756  1
  Te  Te181  1  0.66974564  0.16273469  0.33130281  1
  Te  Te182  1  0.67059983  0.16454498  0.66563663  1
  Te  Te183  1  0.66565039  0.50541221  0.00509627  1
  Te  Te184  1  0.66266754  0.49919049  0.33159803  1
  Te  Te185  1  0.66521690  0.50050667  0.66682493  1
  Te  Te186  1  0.66111428  0.82755429  0.00552309  1
  Te  Te187  1  0.66762323  0.83847267  0.32906570  1
  Te  Te188  1  0.66714340  0.83354627  0.66557312  1
  Te  Te189  1  0.00261694  0.00478919  0.16927922  1
  Te  Te190  1  0.00011053  0.00059022  0.50432844  1
  Te  Te191  1  0.00373166  0.00023805  0.83104442  1
  Te  Te192  1  -0.00019707  0.33046543  0.16747565  1
  Te  Te193  1  -0.00131691  0.33481486  0.50890616  1
  Te  Te194  1  0.00468518  0.33380011  0.82676569  1
  Te  Te195  1  -0.00724278  0.66664558  0.16415705  1
  Te  Te196  1  0.00239708  0.66493740  0.50649253  1
  Te  Te197  1  -0.00289466  0.66659951  0.83298223  1
  Te  Te198  1  0.33359101  0.00099571  0.16608849  1
  Te  Te199  1  0.33546355  0.00148957  0.49396395  1
  Te  Te200  1  0.33411185  0.00041727  0.83539971  1
  Te  Te201  1  0.33987812  0.33365598  0.16727455  1
  Te  Te202  1  0.33709972  0.33569551  0.49852516  1
  Te  Te203  1  0.32828644  0.33491231  0.83701630  1
  Te  Te204  1  0.33146792  0.66549683  0.16575842  1
  Te  Te205  1  0.33479307  0.66150747  0.49967511  1
  Te  Te206  1  0.33845487  0.66646718  0.83414522  1
  Te  Te207  1  0.66569527  0.00232457  0.16655850  1
  Te  Te208  1  0.66429180  -0.00093341  0.50252610  1
  Te  Te209  1  0.66516341  0.00094957  0.83338363  1
  Te  Te210  1  0.66078829  0.33253160  0.16558471  1
  Te  Te211  1  0.66205328  0.33774280  0.50365459  1
  Te  Te212  1  0.66782941  0.32906925  0.82963996  1
  Te  Te213  1  0.67159062  0.66272600  0.16545243  1
  Te  Te214  1  0.66362679  0.66266065  0.50402311  1
  Te  Te215  1  0.66591184  0.66718462  0.83318191  1
