# generated using pymatgen
data_AgSbTe2
_symmetry_space_group_name_H-M   'P 1'
_cell_length_a   18.33892797
_cell_length_b   18.34434003
_cell_length_c   18.34849405
_cell_angle_alpha   89.99892312
_cell_angle_beta   90.00551023
_cell_angle_gamma   90.00042059
_symmetry_Int_Tables_number   1
_chemical_formula_structural   AgSbTe2
_chemical_formula_sum   'Ag54 Sb54 Te108'
_cell_volume   6172.71833028
_cell_formula_units_Z   54
loop_
 _symmetry_equiv_pos_site_id
 _symmetry_equiv_pos_as_xyz
  1  'x, y, z'
loop_
 _atom_site_type_symbol
 _atom_site_label
 _atom_site_symmetry_multiplicity
 _atom_site_fract_x
 _atom_site_fract_y
 _atom_site_fract_z
 _atom_site_occupancy
  Ag  Ag0  1  -0.00018995  0.83859978  0.84530455  1
  Ag  Ag1  1  0.16537467  0.33280473  0.83282710  1
  Ag  Ag2  1  0.67224281  0.83503715  0.49093001  1
  Ag  Ag3  1  0.16790102  -0.00141684  0.16741792  1
  Ag  Ag4  1  0.33705079  0.66777865  0.01154387  1
  Ag  Ag5  1  -0.00197113  0.16216711  0.84257992  1
  Ag  Ag6  1  0.66595804  0.33537375  0.00836968  1
  Ag  Ag7  1  0.48615496  0.66265511  0.17009239  1
  Ag  Ag8  1  0.49516296  0.33723649  0.17252630  1
  Ag  Ag9  1  0.00098112  0.50363944  0.16877719  1
  Ag  Ag10  1  -0.00520252  0.82832877  0.49296138  1
  Ag  Ag11  1  0.17054888  0.16566254  0.32914579  1
  Ag  Ag12  1  0.00140228  0.00177248  0.32406130  1
  Ag  Ag13  1  0.34402598  0.33170886  0.32497232  1
  Ag  Ag14  1  0.83688323  0.83436931  0.00850193  1
  Ag  Ag15  1  0.67060530  0.00969210  0.66442479  1
  Ag  Ag16  1  0.00102544  0.00020062  0.00706588  1
  Ag  Ag17  1  0.33681112  0.66543839  0.32169950  1
  Ag  Ag18  1  0.15706495  0.17139606  0.66400398  1
  Ag  Ag19  1  0.66765584  0.16862766  0.48817736  1
  Ag  Ag20  1  0.83780806  0.50322669  0.00747933  1
  Ag  Ag21  1  0.83543483  0.67026321  0.16573161  1
  Ag  Ag22  1  0.83331467  0.49932021  0.32596917  1
  Ag  Ag23  1  0.49759234  0.66808366  0.84770961  1
  Ag  Ag24  1  0.67046032  0.32778401  0.65900627  1
  Ag  Ag25  1  0.83543593  0.83389044  0.32596722  1
  Ag  Ag26  1  0.83664676  0.16676757  0.66744364  1
  Ag  Ag27  1  0.66480120  0.66445458  0.00709790  1
  Ag  Ag28  1  0.67899109  0.83278545  0.16917761  1
  Ag  Ag29  1  0.00055872  0.33206366  0.66684230  1
  Ag  Ag30  1  0.83588370  0.16531374  0.00689972  1
  Ag  Ag31  1  0.00217081  0.50538954  0.49065636  1
  Ag  Ag32  1  0.83702091  0.00278017  0.83687373  1
  Ag  Ag33  1  0.32576406  -0.00725182  0.00993175  1
  Ag  Ag34  1  0.50334697  0.33735707  0.48291000  1
  Ag  Ag35  1  0.50250047  0.17463441  0.32895470  1
  Ag  Ag36  1  0.32879614  0.50992423  0.16784485  1
  Ag  Ag37  1  0.65686731  0.32728936  0.32916318  1
  Ag  Ag38  1  -0.00350868  0.83571124  0.16713123  1
  Ag  Ag39  1  0.83265708  0.16664959  0.32511803  1
  Ag  Ag40  1  0.49720804  0.66385860  0.48802676  1
  Ag  Ag41  1  0.16420797  0.49881018  0.00714571  1
  Ag  Ag42  1  0.16270716  0.49645706  0.66850736  1
  Ag  Ag43  1  0.33079452  0.16655881  0.16957903  1
  Ag  Ag44  1  0.16509872  0.66470314  0.49205211  1
  Ag  Ag45  1  0.32566904  0.83207070  0.84724640  1
  Ag  Ag46  1  0.33209829  0.82301565  0.16546916  1
  Ag  Ag47  1  0.32748083  0.00662684  0.32492732  1
  Ag  Ag48  1  -0.00126859  0.15988405  0.16700083  1
  Ag  Ag49  1  0.33589070  0.33547526  0.00916607  1
  Ag  Ag50  1  0.17338093  0.66880769  0.16937083  1
  Ag  Ag51  1  0.67119245  0.16632712  0.17075320  1
  Ag  Ag52  1  0.50151225  0.48741600  0.32987875  1
  Ag  Ag53  1  0.00105697  0.66331122  0.66334568  1
  Sb  Sb54  1  0.66831943  0.49928840  0.16767496  1
  Sb  Sb55  1  0.16259654  0.17032354  0.00666755  1
  Sb  Sb56  1  0.67153402  0.66460113  0.66683951  1
  Sb  Sb57  1  0.67307640  0.16691891  0.83550675  1
  Sb  Sb58  1  0.82902959  0.33223446  0.49783914  1
  Sb  Sb59  1  0.66962550  0.49863747  0.49656018  1
  Sb  Sb60  1  0.83307468  0.00037840  0.50033809  1
  Sb  Sb61  1  0.32815792  0.66570878  0.66756303  1
  Sb  Sb62  1  0.33672411  0.16796091  0.48950463  1
  Sb  Sb63  1  0.50388619  0.83413810  0.32962120  1
  Sb  Sb64  1  0.00051662  0.33044461  0.33356141  1
  Sb  Sb65  1  -0.00001694  0.33044454  0.00007221  1
  Sb  Sb66  1  0.00087895  0.50038564  0.83676056  1
  Sb  Sb67  1  0.50111273  0.83100870  0.00393572  1
  Sb  Sb68  1  0.50455852  0.16984841  0.65920211  1
  Sb  Sb69  1  0.67223110  -0.00005676  0.00223835  1
  Sb  Sb70  1  0.16197431  0.83629718  0.32910265  1
  Sb  Sb71  1  0.33274451  0.83021385  0.49184601  1
  Sb  Sb72  1  -0.00306554  0.00294232  0.66707783  1
  Sb  Sb73  1  0.00420731  0.67013537  0.33223385  1
  Sb  Sb74  1  0.66307726  0.66425753  0.32604045  1
  Sb  Sb75  1  0.49492180  0.49957431  0.65768890  1
  Sb  Sb76  1  0.66990751  0.00501587  0.33171372  1
  Sb  Sb77  1  0.16388354  -0.00302119  0.49371008  1
  Sb  Sb78  1  0.83466450  0.66760261  0.49250052  1
  Sb  Sb79  1  0.83792649  0.32810236  0.83464039  1
  Sb  Sb80  1  0.67007404  0.83305993  0.83747084  1
  Sb  Sb81  1  0.17398898  0.33390130  0.16405279  1
  Sb  Sb82  1  0.66663338  0.49934704  0.83641845  1
  Sb  Sb83  1  0.49114273  0.00132226  0.16847027  1
  Sb  Sb84  1  -0.00395609  0.16712478  0.49593905  1
  Sb  Sb85  1  0.49594023  0.33770618  0.83719313  1
  Sb  Sb86  1  0.16229573  0.83326346  0.66616634  1
  Sb  Sb87  1  0.16045111  0.00346069  0.84012940  1
  Sb  Sb88  1  0.82822949  0.33428677  0.16622804  1
  Sb  Sb89  1  0.00087201  0.67029168  0.00256940  1
  Sb  Sb90  1  0.32566345  0.16358275  0.84327874  1
  Sb  Sb91  1  0.33442938  0.00196909  0.66950215  1
  Sb  Sb92  1  0.84012898  0.49498293  0.66580746  1
  Sb  Sb93  1  0.49939197  0.50241371  0.00970627  1
  Sb  Sb94  1  0.50214989  -0.00368769  0.83575296  1
  Sb  Sb95  1  0.50132688  0.83070176  0.66535802  1
  Sb  Sb96  1  0.32849705  0.50091944  0.49021766  1
  Sb  Sb97  1  0.83514052  0.83742762  0.66727933  1
  Sb  Sb98  1  0.16808977  0.66471418  0.83685134  1
  Sb  Sb99  1  0.16912624  0.33649784  0.50127314  1
  Sb  Sb100  1  0.16642893  0.49749297  0.32891247  1
  Sb  Sb101  1  0.33086308  0.33250987  0.66650421  1
  Sb  Sb102  1  0.83270683  0.67144186  0.84160547  1
  Sb  Sb103  1  0.16469455  0.82916986  0.00376701  1
  Sb  Sb104  1  0.84172399  -0.00172330  0.16388589  1
  Sb  Sb105  1  0.33109425  0.50520880  0.84490405  1
  Sb  Sb106  1  0.50419760  0.16859052  0.00816181  1
  Sb  Sb107  1  0.50267544  0.00032191  0.49598854  1
  Te  Te108  1  0.16238256  0.16609299  0.16894571  1
  Te  Te109  1  0.16596197  0.16629225  0.49993110  1
  Te  Te110  1  0.15959662  0.17013184  0.83048242  1
  Te  Te111  1  0.16500246  0.50166482  0.16600410  1
  Te  Te112  1  0.16158717  0.50412375  0.50250014  1
  Te  Te113  1  0.16623266  0.49656002  0.83137528  1
  Te  Te114  1  0.16721653  0.83118472  0.16659438  1
  Te  Te115  1  0.16207251  0.82582313  0.49872594  1
  Te  Te116  1  0.16306569  0.83376458  0.83364563  1
  Te  Te117  1  0.50200377  0.16884892  0.16982316  1
  Te  Te118  1  0.50647819  0.17081979  0.49358887  1
  Te  Te119  1  0.49719204  0.16650331  0.83226562  1
  Te  Te120  1  0.49814108  0.50084121  0.17164053  1
  Te  Te121  1  0.49987222  0.50140511  0.49191642  1
  Te  Te122  1  0.49852364  0.50785802  0.82966023  1
  Te  Te123  1  0.49483235  0.82605631  0.16666992  1
  Te  Te124  1  0.50453886  0.82781417  0.49827734  1
  Te  Te125  1  0.49792638  0.82778463  0.83301630  1
  Te  Te126  1  0.83408029  0.16695265  0.16671327  1
  Te  Te127  1  0.82769938  0.16646567  0.50426480  1
  Te  Te128  1  0.83899916  0.16358688  0.83116286  1
  Te  Te129  1  0.83490909  0.49996741  0.16622199  1
  Te  Te130  1  0.84102462  0.50029884  0.49630226  1
  Te  Te131  1  0.83414564  0.50137090  0.84147749  1
  Te  Te132  1  0.83527645  0.83490044  0.16594750  1
  Te  Te133  1  0.83284735  0.83325918  0.49718011  1
  Te  Te134  1  0.83857236  0.83834435  0.83705358  1
  Te  Te135  1  0.16531185  0.00191525  0.00583084  1
  Te  Te136  1  0.16588456  0.00413190  0.32902017  1
  Te  Te137  1  0.16695593  0.00758705  0.66631210  1
  Te  Te138  1  0.16909743  0.33793892  -0.00415737  1
  Te  Te139  1  0.16983491  0.32736199  0.33564107  1
  Te  Te140  1  0.16513183  0.33239405  0.66799314  1
  Te  Te141  1  0.17097292  0.65983095  0.00335965  1
  Te  Te142  1  0.17229356  0.66482466  0.33221515  1
  Te  Te143  1  0.16144533  0.66437777  0.66599406  1
  Te  Te144  1  0.48958141  0.00065999  -0.00069393  1
  Te  Te145  1  0.49246952  0.00701529  0.33389842  1
  Te  Te146  1  0.50838688  0.00060075  0.66670835  1
  Te  Te147  1  0.50140290  0.33512367  0.00291687  1
  Te  Te148  1  0.50037410  0.33146915  0.32781491  1
  Te  Te149  1  0.50583771  0.33508108  0.66811371  1
  Te  Te150  1  0.50093083  0.66604000  0.00567010  1
  Te  Te151  1  0.49827058  0.66796258  0.33006794  1
  Te  Te152  1  0.50077711  0.66443494  0.65998526  1
  Te  Te153  1  0.83604253  0.00135561  -0.00304823  1
  Te  Te154  1  0.83655348  0.00069191  0.33428443  1
  Te  Te155  1  0.82986032  0.00443755  0.67133520  1
  Te  Te156  1  0.82949509  0.33105877  -0.00112830  1
  Te  Te157  1  0.83219137  0.33213235  0.33330578  1
  Te  Te158  1  0.83287186  0.32905275  0.66775108  1
  Te  Te159  1  0.83263592  0.66736342  0.00396764  1
  Te  Te160  1  0.83205408  0.66621962  0.32780880  1
  Te  Te161  1  0.83928724  0.66455467  0.66834246  1
  Te  Te162  1  -0.00332935  0.16423272  0.00193878  1
  Te  Te163  1  -0.00567678  0.16369130  0.33138549  1
  Te  Te164  1  -0.00194059  0.16789481  0.66235689  1
  Te  Te165  1  -0.00029746  0.49981023  0.00396754  1
  Te  Te166  1  -0.00273016  0.49882933  0.33069271  1
  Te  Te167  1  0.00270505  0.49847443  0.67000161  1
  Te  Te168  1  -0.00154246  0.83646700  0.00343574  1
  Te  Te169  1  -0.00400674  0.83582412  0.32970449  1
  Te  Te170  1  -0.00039205  0.83114522  0.65976328  1
  Te  Te171  1  0.33322537  0.17146744  0.00648883  1
  Te  Te172  1  0.33162340  0.16788548  0.33072671  1
  Te  Te173  1  0.33018948  0.16584637  0.66855806  1
  Te  Te174  1  0.33239285  0.49963987  0.00765658  1
  Te  Te175  1  0.33399443  0.49937882  0.32767668  1
  Te  Te176  1  0.32421295  0.49883035  0.66705182  1
  Te  Te177  1  0.33277205  0.83133578  0.00447672  1
  Te  Te178  1  0.33341115  0.83157036  0.32807154  1
  Te  Te179  1  0.33220371  0.83528984  0.66915995  1
  Te  Te180  1  0.67212527  0.16856062  0.00454971  1
  Te  Te181  1  0.67069464  0.16569605  0.33087069  1
  Te  Te182  1  0.66934317  0.16927730  0.66920090  1
  Te  Te183  1  0.67177188  0.49987475  0.00040525  1
  Te  Te184  1  0.66926476  0.49337781  0.33449292  1
  Te  Te185  1  0.66883260  0.49280660  0.66586375  1
  Te  Te186  1  0.67201317  0.83146123  0.00484412  1
  Te  Te187  1  0.67168820  0.83529789  0.33077446  1
  Te  Te188  1  0.66840947  0.83360932  0.66409712  1
  Te  Te189  1  0.00309760  -0.00006193  0.16629378  1
  Te  Te190  1  0.00008558  -0.00720635  0.49665924  1
  Te  Te191  1  -0.00254725  0.00025642  0.83385815  1
  Te  Te192  1  0.00229397  0.33494614  0.16650695  1
  Te  Te193  1  0.00042488  0.33725844  0.50539060  1
  Te  Te194  1  0.00464287  0.32931499  0.82969850  1
  Te  Te195  1  -0.00328997  0.66623819  0.16591737  1
  Te  Te196  1  0.00116629  0.66634848  0.49898025  1
  Te  Te197  1  0.00022215  0.67314916  0.83046929  1
  Te  Te198  1  0.32984924  0.00644668  0.16709075  1
  Te  Te199  1  0.33335809  -0.00126333  0.49577178  1
  Te  Te200  1  0.33271565  -0.00664319  0.83784029  1
  Te  Te201  1  0.33412074  0.32712993  0.16641430  1
  Te  Te202  1  0.34211763  0.33389964  0.49801062  1
  Te  Te203  1  0.32834312  0.33354130  0.83702314  1
  Te  Te204  1  0.32995588  0.66569503  0.16626499  1
  Te  Te205  1  0.33310316  0.66694331  0.49939537  1
  Te  Te206  1  0.33618533  0.67256185  0.83524616  1
  Te  Te207  1  0.65968058  -0.00099908  0.16513881  1
  Te  Te208  1  0.66648734  -0.00165387  0.50265940  1
  Te  Te209  1  0.67071350  -0.00116669  0.82963642  1
  Te  Te210  1  0.66242042  0.33170635  0.16806861  1
  Te  Te211  1  0.66347706  0.33180790  0.49872135  1
  Te  Te212  1  0.66520284  0.33284594  0.83767160  1
  Te  Te213  1  0.67614319  0.66909621  0.16474918  1
  Te  Te214  1  0.66382767  0.67025654  0.50025340  1
  Te  Te215  1  0.66050686  0.66712932  0.83776649  1
