# generated using pymatgen
data_AgSbTe2
_symmetry_space_group_name_H-M   'P 1'
_cell_length_a   18.31720229
_cell_length_b   18.32508472
_cell_length_c   18.32506692
_cell_angle_alpha   89.99810149
_cell_angle_beta   89.99943827
_cell_angle_gamma   90.00480302
_symmetry_Int_Tables_number   1
_chemical_formula_structural   AgSbTe2
_chemical_formula_sum   'Ag54 Sb54 Te108'
_cell_volume   6151.07043598
_cell_formula_units_Z   54
loop_
 _symmetry_equiv_pos_site_id
 _symmetry_equiv_pos_as_xyz
  1  'x, y, z'
loop_
 _atom_site_type_symbol
 _atom_site_label
 _atom_site_symmetry_multiplicity
 _atom_site_fract_x
 _atom_site_fract_y
 _atom_site_fract_z
 _atom_site_occupancy
  Ag  Ag0  1  0.00251760  0.66861074  0.66785248  1
  Ag  Ag1  1  0.83479624  0.33710270  0.49917134  1
  Ag  Ag2  1  0.82530088  0.16963487  0.66982482  1
  Ag  Ag3  1  0.67022484  0.83421595  0.50991756  1
  Ag  Ag4  1  0.33403139  0.00289973  0.33291294  1
  Ag  Ag5  1  0.49944092  0.32505628  0.83353455  1
  Ag  Ag6  1  0.17265082  0.49705555  0.32955892  1
  Ag  Ag7  1  0.17285041  0.66197389  0.15994198  1
  Ag  Ag8  1  0.83005093  0.00830630  0.16549435  1
  Ag  Ag9  1  0.33946843  0.16844624  0.83544228  1
  Ag  Ag10  1  0.66897730  0.32457708  0.66601426  1
  Ag  Ag11  1  0.83484681  0.67006653  0.16429246  1
  Ag  Ag12  1  0.66162849  0.00471328  0.66701633  1
  Ag  Ag13  1  -0.00351383  0.83118585  0.50436666  1
  Ag  Ag14  1  0.17510175  0.83924150  0.66828358  1
  Ag  Ag15  1  0.49563217  0.66676900  0.83570882  1
  Ag  Ag16  1  0.66384331  0.83447362  0.82953984  1
  Ag  Ag17  1  0.49272601  0.16385312  -0.00631601  1
  Ag  Ag18  1  0.65972052  0.16560718  0.83002310  1
  Ag  Ag19  1  0.83394675  0.66270718  0.50452958  1
  Ag  Ag20  1  0.49723296  0.83759015  0.67447137  1
  Ag  Ag21  1  0.17456835  0.17255151  -0.00471416  1
  Ag  Ag22  1  0.17212973  -0.00107424  0.82608101  1
  Ag  Ag23  1  0.33151080  0.66135210  0.32921054  1
  Ag  Ag24  1  0.33017685  -0.00157213  0.67221640  1
  Ag  Ag25  1  0.33131298  0.33550614  0.33035820  1
  Ag  Ag26  1  0.16994683  0.33601042  0.16179794  1
  Ag  Ag27  1  0.50448454  0.16157175  0.67520926  1
  Ag  Ag28  1  0.33202372  0.66793621  -0.00411502  1
  Ag  Ag29  1  -0.00587683  0.16720926  0.16245551  1
  Ag  Ag30  1  0.32958496  0.50107439  0.50425383  1
  Ag  Ag31  1  0.48712640  0.67055235  0.15608953  1
  Ag  Ag32  1  0.66630700  0.00618500  0.33693848  1
  Ag  Ag33  1  0.82903135  0.66598936  0.83138244  1
  Ag  Ag34  1  0.33296646  0.82940875  0.16332886  1
  Ag  Ag35  1  0.17134578  0.49198751  0.00228236  1
  Ag  Ag36  1  0.16963505  0.00230420  0.50930608  1
  Ag  Ag37  1  0.32926521  0.32938297  -0.00034889  1
  Ag  Ag38  1  0.17902300  0.66895234  0.83377399  1
  Ag  Ag39  1  0.83355014  0.49560676  0.34023821  1
  Ag  Ag40  1  0.01150403  0.32866202  0.00055892  1
  Ag  Ag41  1  0.67080495  0.32748656  0.33867026  1
  Ag  Ag42  1  0.33255099  0.00454872  -0.01005516  1
  Ag  Ag43  1  0.66185569  0.50187551  0.83127503  1
  Ag  Ag44  1  0.83014082  0.50186807  0.66370151  1
  Ag  Ag45  1  0.82758781  0.83533639  -0.00008859  1
  Ag  Ag46  1  0.16697278  0.33195499  0.49742295  1
  Ag  Ag47  1  0.32986904  0.67147751  0.67827501  1
  Ag  Ag48  1  0.67156774  0.16566484  0.16048363  1
  Ag  Ag49  1  0.49857918  0.83348063  -0.00662498  1
  Ag  Ag50  1  0.83143058  0.16532707  0.00169796  1
  Ag  Ag51  1  0.82766378  0.17064611  0.32802543  1
  Ag  Ag52  1  0.33614155  0.50605565  0.83208419  1
  Ag  Ag53  1  0.17124251  0.16000488  0.67671163  1
  Sb  Sb54  1  0.00204841  0.50259704  0.50159106  1
  Sb  Sb55  1  0.66720577  0.50184031  0.50452812  1
  Sb  Sb56  1  0.49656662  0.49957751  0.33279378  1
  Sb  Sb57  1  0.16814845  0.00073094  0.16576773  1
  Sb  Sb58  1  0.34038665  0.83178943  0.83531695  1
  Sb  Sb59  1  0.00279992  -0.00313219  0.66586663  1
  Sb  Sb60  1  0.66819900  0.16311438  0.50504847  1
  Sb  Sb61  1  0.49440749  0.00141006  0.83212471  1
  Sb  Sb62  1  0.66122472  0.66812651  -0.00207266  1
  Sb  Sb63  1  0.33111563  0.50650870  0.16403282  1
  Sb  Sb64  1  0.33039032  0.16939949  0.50603072  1
  Sb  Sb65  1  0.33399699  0.16314273  0.15952533  1
  Sb  Sb66  1  0.00071235  0.00205177  0.33336176  1
  Sb  Sb67  1  0.49215275  0.50112874  -0.00361901  1
  Sb  Sb68  1  0.83402766  -0.00039428  0.83593392  1
  Sb  Sb69  1  0.17122394  0.83397825  -0.00593643  1
  Sb  Sb70  1  0.66395584  0.32870998  -0.00268291  1
  Sb  Sb71  1  0.16566616  0.66601276  0.50273670  1
  Sb  Sb72  1  0.00187353  0.49608834  0.16635232  1
  Sb  Sb73  1  0.83443060  0.00043042  0.49799918  1
  Sb  Sb74  1  0.33377618  0.83044414  0.50236655  1
  Sb  Sb75  1  0.16994254  0.83012637  0.33768195  1
  Sb  Sb76  1  0.33634982  0.33168530  0.66916877  1
  Sb  Sb77  1  0.66500244  0.66579583  0.33266214  1
  Sb  Sb78  1  -0.00069735  0.16460746  0.49784797  1
  Sb  Sb79  1  0.83612631  0.32913913  0.17007479  1
  Sb  Sb80  1  0.00409224  0.00491026  0.00056481  1
  Sb  Sb81  1  0.17476710  0.33374446  0.83579365  1
  Sb  Sb82  1  0.66211688  0.00234407  -0.00390263  1
  Sb  Sb83  1  0.00273722  0.66543349  0.33591950  1
  Sb  Sb84  1  -0.00330031  0.33541971  0.67012627  1
  Sb  Sb85  1  0.00487102  0.66425861  -0.00364565  1
  Sb  Sb86  1  0.49565280  -0.00064453  0.50378498  1
  Sb  Sb87  1  0.66444775  0.83728203  0.16441238  1
  Sb  Sb88  1  0.66545310  0.66952423  0.67088325  1
  Sb  Sb89  1  0.50101997  0.66873433  0.50410639  1
  Sb  Sb90  1  0.00130705  0.33245948  0.33001219  1
  Sb  Sb91  1  0.83737798  0.49971748  -0.00211447  1
  Sb  Sb92  1  0.00210111  0.83537025  0.16779744  1
  Sb  Sb93  1  0.50021918  0.33289798  0.50493941  1
  Sb  Sb94  1  0.16699206  0.17073534  0.33054909  1
  Sb  Sb95  1  0.49484191  0.33583012  0.16098085  1
  Sb  Sb96  1  0.83107047  0.83329211  0.33053588  1
  Sb  Sb97  1  0.00132226  0.16758652  0.83669107  1
  Sb  Sb98  1  -0.00220493  0.83106391  0.83055436  1
  Sb  Sb99  1  0.82523601  0.33537254  0.82920761  1
  Sb  Sb100  1  0.00337253  0.50138275  0.83286074  1
  Sb  Sb101  1  0.49864580  0.83335202  0.33233729  1
  Sb  Sb102  1  0.83070502  0.83273209  0.66995023  1
  Sb  Sb103  1  0.50304925  0.50014685  0.67084364  1
  Sb  Sb104  1  0.66959165  0.49544301  0.16372772  1
  Sb  Sb105  1  0.50234542  -0.00274778  0.16460076  1
  Sb  Sb106  1  0.50421165  0.16728080  0.32996982  1
  Sb  Sb107  1  0.16744445  0.50017882  0.66751901  1
  Te  Te108  1  0.16525182  0.16910699  0.16215386  1
  Te  Te109  1  0.16438245  0.16839137  0.49946117  1
  Te  Te110  1  0.16737417  0.16745721  0.83505506  1
  Te  Te111  1  0.16603292  0.49989910  0.16787783  1
  Te  Te112  1  0.16932922  0.49626493  0.49733547  1
  Te  Te113  1  0.17148133  0.50466592  0.83586989  1
  Te  Te114  1  0.16991709  0.82925317  0.16636727  1
  Te  Te115  1  0.16583997  0.83463347  0.50533767  1
  Te  Te116  1  0.16470403  0.82912655  0.82787937  1
  Te  Te117  1  0.50728887  0.16727284  0.15998803  1
  Te  Te118  1  0.49879319  0.16734089  0.51089355  1
  Te  Te119  1  0.49929393  0.16529257  0.83424454  1
  Te  Te120  1  0.50365648  0.51034040  0.16491710  1
  Te  Te121  1  0.49083774  0.50044066  0.50106823  1
  Te  Te122  1  0.49953469  0.50565109  0.83331162  1
  Te  Te123  1  0.49727180  0.82848540  0.16239060  1
  Te  Te124  1  0.50723540  0.83269490  0.50714981  1
  Te  Te125  1  0.50508670  0.83015729  0.83409202  1
  Te  Te126  1  0.83158357  0.16827213  0.16581906  1
  Te  Te127  1  0.83487836  0.17000323  0.50200690  1
  Te  Te128  1  0.83096853  0.16677324  0.83327268  1
  Te  Te129  1  0.83403604  0.50474214  0.16936174  1
  Te  Te130  1  0.83275504  0.49953615  0.50071893  1
  Te  Te131  1  0.83043773  0.50306664  0.83029571  1
  Te  Te132  1  0.83325296  0.83136053  0.16248505  1
  Te  Te133  1  0.83274768  0.83183196  0.49945231  1
  Te  Te134  1  0.82833160  0.83190656  0.83796823  1
  Te  Te135  1  0.17281294  0.00242993  -0.00136149  1
  Te  Te136  1  0.17206612  0.00106248  0.33492552  1
  Te  Te137  1  0.16727052  0.00023487  0.66681161  1
  Te  Te138  1  0.17017076  0.33239122  -0.00113799  1
  Te  Te139  1  0.16909537  0.33585146  0.33492457  1
  Te  Te140  1  0.16575398  0.33047541  0.66255062  1
  Te  Te141  1  0.16960931  0.66842387  -0.00129030  1
  Te  Te142  1  0.17040097  0.66199286  0.33148120  1
  Te  Te143  1  0.16927693  0.66499186  0.66964701  1
  Te  Te144  1  0.49325149  -0.00145329  0.00006921  1
  Te  Te145  1  0.49882145  0.00131274  0.33435713  1
  Te  Te146  1  0.49958752  -0.00075203  0.66663419  1
  Te  Te147  1  0.49405402  0.32999404  -0.00477331  1
  Te  Te148  1  0.49710371  0.33279363  0.33265514  1
  Te  Te149  1  0.50529057  0.32973811  0.67185293  1
  Te  Te150  1  0.49557350  0.66885485  -0.00196724  1
  Te  Te151  1  0.49421254  0.66676690  0.33127098  1
  Te  Te152  1  0.49539293  0.67062808  0.67106068  1
  Te  Te153  1  0.83288748  0.00195782  0.00330362  1
  Te  Te154  1  0.82996883  0.00358862  0.33028027  1
  Te  Te155  1  0.83081461  0.00564829  0.66685558  1
  Te  Te156  1  0.83360601  0.32992353  0.00080857  1
  Te  Te157  1  0.83280437  0.33315207  0.33580975  1
  Te  Te158  1  0.83154186  0.33116251  0.66283209  1
  Te  Te159  1  0.83602963  0.66572299  -0.00221510  1
  Te  Te160  1  0.83359082  0.66381997  0.33450423  1
  Te  Te161  1  0.83166043  0.66735431  0.66743826  1
  Te  Te162  1  -0.00289198  0.16896438  0.00293389  1
  Te  Te163  1  -0.00812309  0.16678557  0.32653781  1
  Te  Te164  1  0.00074170  0.16663450  0.66717664  1
  Te  Te165  1  0.00903910  0.49299924  -0.00035488  1
  Te  Te166  1  -0.00343295  0.49955167  0.33395855  1
  Te  Te167  1  -0.00861387  0.50604613  0.66700801  1
  Te  Te168  1  -0.00882264  0.83366432  0.00118636  1
  Te  Te169  1  0.00038316  0.83373549  0.34147057  1
  Te  Te170  1  0.00148800  0.82882164  0.66345175  1
  Te  Te171  1  0.33393585  0.16558931  -0.00173229  1
  Te  Te172  1  0.33546248  0.16733851  0.33339428  1
  Te  Te173  1  0.33010130  0.16434826  0.67121387  1
  Te  Te174  1  0.32927844  0.50181770  -0.00372063  1
  Te  Te175  1  0.33195838  0.49785885  0.33240339  1
  Te  Te176  1  0.33418953  0.50277874  0.66921512  1
  Te  Te177  1  0.33541730  0.83175171  0.00202717  1
  Te  Te178  1  0.33486425  0.83446055  0.33069926  1
  Te  Te179  1  0.33400571  0.83445303  0.66645855  1
  Te  Te180  1  0.66889786  0.16487880  -0.00287298  1
  Te  Te181  1  0.66802499  0.16647347  0.33638214  1
  Te  Te182  1  0.66609127  0.16501859  0.66806560  1
  Te  Te183  1  0.66744483  0.49753892  -0.00787486  1
  Te  Te184  1  0.67006651  0.49497987  0.33406448  1
  Te  Te185  1  0.67017410  0.49554976  0.67068991  1
  Te  Te186  1  0.66531972  0.83514870  -0.00422141  1
  Te  Te187  1  0.66511913  0.83890079  0.33536961  1
  Te  Te188  1  0.66475477  0.83565687  0.66855860  1
  Te  Te189  1  -0.00710983  0.00390175  0.16746909  1
  Te  Te190  1  0.00758124  -0.00639991  0.49894912  1
  Te  Te191  1  0.01214293  -0.00112827  0.83378132  1
  Te  Te192  1  0.00613813  0.32849728  0.16219905  1
  Te  Te193  1  -0.00006162  0.33313269  0.50092838  1
  Te  Te194  1  -0.00140139  0.33464488  0.83989464  1
  Te  Te195  1  -0.00198974  0.66824130  0.16637163  1
  Te  Te196  1  -0.00392783  0.66968610  0.50437023  1
  Te  Te197  1  -0.00712868  0.66586131  0.82809217  1
  Te  Te198  1  0.33405462  -0.00514379  0.17122099  1
  Te  Te199  1  0.32856736  -0.00098265  0.49976350  1
  Te  Te200  1  0.32956082  0.00284753  0.83138446  1
  Te  Te201  1  0.33027718  0.33195114  0.16628495  1
  Te  Te202  1  0.33230908  0.33697073  0.49797425  1
  Te  Te203  1  0.33837143  0.33204454  0.83623011  1
  Te  Te204  1  0.33059940  0.66790717  0.16628022  1
  Te  Te205  1  0.33367466  0.66269356  0.49468596  1
  Te  Te206  1  0.33525848  0.66774621  0.83450620  1
  Te  Te207  1  0.67016421  0.00405475  0.16985523  1
  Te  Te208  1  0.66715209  -0.00517147  0.50025021  1
  Te  Te209  1  0.66923135  0.00136078  0.82833734  1
  Te  Te210  1  0.66382049  0.32769522  0.17192012  1
  Te  Te211  1  0.66917708  0.33468797  0.50008326  1
  Te  Te212  1  0.66063739  0.32991778  0.83058718  1
  Te  Te213  1  0.67468853  0.66694260  0.16625595  1
  Te  Te214  1  0.67168449  0.67073990  0.49993257  1
  Te  Te215  1  0.66868446  0.66610068  0.83383135  1
