# generated using pymatgen
data_AgSbTe2
_symmetry_space_group_name_H-M   'P 1'
_cell_length_a   18.31330866
_cell_length_b   18.31123338
_cell_length_c   18.31447757
_cell_angle_alpha   90.00357994
_cell_angle_beta   89.99787295
_cell_angle_gamma   89.99916514
_symmetry_Int_Tables_number   1
_chemical_formula_structural   AgSbTe2
_chemical_formula_sum   'Ag54 Sb54 Te108'
_cell_volume   6141.56350148
_cell_formula_units_Z   54
loop_
 _symmetry_equiv_pos_site_id
 _symmetry_equiv_pos_as_xyz
  1  'x, y, z'
loop_
 _atom_site_type_symbol
 _atom_site_label
 _atom_site_symmetry_multiplicity
 _atom_site_fract_x
 _atom_site_fract_y
 _atom_site_fract_z
 _atom_site_occupancy
  Ag  Ag0  1  0.83025532  -0.00086865  0.17018093  1
  Ag  Ag1  1  0.16334882  0.32905037  0.50407974  1
  Ag  Ag2  1  0.15930271  0.33241067  0.83561976  1
  Ag  Ag3  1  -0.00374758  0.33305784  0.00126116  1
  Ag  Ag4  1  0.67031088  0.16532522  0.84052227  1
  Ag  Ag5  1  0.34062575  0.00095048  0.00739147  1
  Ag  Ag6  1  0.67041227  0.66931962  0.67562739  1
  Ag  Ag7  1  0.66874624  0.00106713  0.66525718  1
  Ag  Ag8  1  0.83254225  0.33130765  0.15975240  1
  Ag  Ag9  1  0.34096253  0.16438934  0.16913341  1
  Ag  Ag10  1  0.49732263  0.50731223  0.32381177  1
  Ag  Ag11  1  -0.00444133  0.00279508  0.00244148  1
  Ag  Ag12  1  0.50869373  0.66571985  0.84144891  1
  Ag  Ag13  1  0.16045533  0.33456086  0.16377314  1
  Ag  Ag14  1  0.00047021  0.50063335  0.16321661  1
  Ag  Ag15  1  0.33836918  -0.00257823  0.33193879  1
  Ag  Ag16  1  0.50693590  0.66397335  0.16082536  1
  Ag  Ag17  1  0.16377968  0.00939321  0.49906613  1
  Ag  Ag18  1  0.83304468  0.00298894  0.49151798  1
  Ag  Ag19  1  0.33851425  0.84047997  0.49632365  1
  Ag  Ag20  1  0.67029760  0.83960150  0.16938311  1
  Ag  Ag21  1  0.83691488  0.33198210  0.83954969  1
  Ag  Ag22  1  0.50674198  0.16996782  0.67174807  1
  Ag  Ag23  1  0.49916752  0.50373866  0.00622499  1
  Ag  Ag24  1  0.16119294  0.17317111  0.66147084  1
  Ag  Ag25  1  0.50445455  0.83069613  0.32731985  1
  Ag  Ag26  1  0.83187790  0.15801034  0.33279830  1
  Ag  Ag27  1  0.00309950  0.49429773  0.50120914  1
  Ag  Ag28  1  0.50256394  0.83141678  0.00695932  1
  Ag  Ag29  1  0.66940876  0.32666006  0.00180141  1
  Ag  Ag30  1  0.66601963  0.15939074  0.15951392  1
  Ag  Ag31  1  -0.00850546  0.66332806  0.00078486  1
  Ag  Ag32  1  0.66564459  0.66753700  -0.00116102  1
  Ag  Ag33  1  -0.01052476  0.82790918  0.16427280  1
  Ag  Ag34  1  0.83779046  0.50021180  0.66597623  1
  Ag  Ag35  1  0.00491538  0.16917820  0.50669649  1
  Ag  Ag36  1  0.66380395  0.83683965  0.49056511  1
  Ag  Ag37  1  0.66859644  -0.00365543  0.32808521  1
  Ag  Ag38  1  0.50498213  0.16528181  0.00096322  1
  Ag  Ag39  1  0.83334085  0.16858126  0.66680539  1
  Ag  Ag40  1  -0.00831165  0.16913616  0.83097005  1
  Ag  Ag41  1  0.50370498  0.50034519  0.66803273  1
  Ag  Ag42  1  0.33690479  0.83274751  0.83478688  1
  Ag  Ag43  1  0.50385859  0.33560431  0.16263945  1
  Ag  Ag44  1  0.16293703  0.49592416  0.00416636  1
  Ag  Ag45  1  0.33852836  0.67234800  0.33192448  1
  Ag  Ag46  1  0.15769594  0.49315386  0.66432799  1
  Ag  Ag47  1  0.32611664  0.15973474  0.49660805  1
  Ag  Ag48  1  0.82346844  0.84027841  0.32834409  1
  Ag  Ag49  1  -0.00954395  0.66169829  0.67342080  1
  Ag  Ag50  1  0.16849646  0.49841119  0.33166391  1
  Ag  Ag51  1  0.82903755  0.67300455  0.16191588  1
  Ag  Ag52  1  0.82917589  0.66262729  0.83864766  1
  Ag  Ag53  1  0.66595921  0.00442502  0.00786060  1
  Sb  Sb54  1  0.16523237  0.66038231  0.16529666  1
  Sb  Sb55  1  0.00056693  0.33557363  0.67345877  1
  Sb  Sb56  1  0.66880565  0.33073328  0.67344747  1
  Sb  Sb57  1  0.16331065  0.17004160  0.33796471  1
  Sb  Sb58  1  0.83245223  0.67105377  0.49886191  1
  Sb  Sb59  1  0.17003297  0.83123506  0.33246785  1
  Sb  Sb60  1  0.83126727  0.00245477  0.83614672  1
  Sb  Sb61  1  0.33781131  0.00237298  0.66355014  1
  Sb  Sb62  1  0.00090396  0.83527094  0.84085561  1
  Sb  Sb63  1  0.66671928  0.32656604  0.32371959  1
  Sb  Sb64  1  0.49700597  0.33242784  0.49613828  1
  Sb  Sb65  1  0.33259274  0.49665888  0.16785726  1
  Sb  Sb66  1  0.50277115  0.83265755  0.66670947  1
  Sb  Sb67  1  0.66798790  0.49974546  0.83514849  1
  Sb  Sb68  1  0.66441773  0.83426950  0.83889944  1
  Sb  Sb69  1  0.33269913  0.32959112  0.33157519  1
  Sb  Sb70  1  0.17071687  0.83048924  0.00177166  1
  Sb  Sb71  1  0.66827463  0.50105789  0.16536846  1
  Sb  Sb72  1  -0.00505898  0.00083478  0.32945454  1
  Sb  Sb73  1  0.16584553  0.66396761  0.50003412  1
  Sb  Sb74  1  0.83318219  0.50009489  0.33359667  1
  Sb  Sb75  1  0.16647563  0.83430057  0.66558050  1
  Sb  Sb76  1  0.33595421  0.66633356  0.66462134  1
  Sb  Sb77  1  0.82691528  0.16839167  0.00008811  1
  Sb  Sb78  1  0.00008190  0.33360738  0.32721859  1
  Sb  Sb79  1  0.33545017  0.16323769  0.83430283  1
  Sb  Sb80  1  0.50900725  -0.00067145  0.16472677  1
  Sb  Sb81  1  0.32794159  0.49889568  0.49732972  1
  Sb  Sb82  1  0.16676394  0.00686560  0.83060893  1
  Sb  Sb83  1  0.83930402  0.32660598  0.50071304  1
  Sb  Sb84  1  0.16832505  0.17152480  -0.00178352  1
  Sb  Sb85  1  0.83422155  0.50042170  -0.00134852  1
  Sb  Sb86  1  0.50279081  0.16429020  0.32919075  1
  Sb  Sb87  1  0.33095327  0.33221230  0.66593453  1
  Sb  Sb88  1  -0.00187174  0.83510734  0.49544854  1
  Sb  Sb89  1  0.82597116  0.83201400  0.00750604  1
  Sb  Sb90  1  -0.00546025  0.16920156  0.16354107  1
  Sb  Sb91  1  0.16303853  0.00476995  0.16964907  1
  Sb  Sb92  1  0.66323088  0.67389667  0.32692237  1
  Sb  Sb93  1  -0.00082260  0.49495185  0.83577643  1
  Sb  Sb94  1  -0.00467674  0.00143668  0.66870445  1
  Sb  Sb95  1  0.50312563  0.33639922  0.83995383  1
  Sb  Sb96  1  0.34033993  0.67085267  0.00343624  1
  Sb  Sb97  1  0.66850482  0.16092804  0.50089796  1
  Sb  Sb98  1  0.33444451  0.32921433  0.00233081  1
  Sb  Sb99  1  0.33416733  0.50306058  0.83444909  1
  Sb  Sb100  1  0.67056667  0.50507430  0.50251489  1
  Sb  Sb101  1  0.16372328  0.66064501  0.83440494  1
  Sb  Sb102  1  0.00110536  0.66578171  0.32936035  1
  Sb  Sb103  1  0.83073307  0.83328905  0.66282250  1
  Sb  Sb104  1  0.50266337  0.00024533  0.49884872  1
  Sb  Sb105  1  0.50092824  -0.00276493  0.83669429  1
  Sb  Sb106  1  0.50085007  0.66640309  0.49767826  1
  Sb  Sb107  1  0.34002878  0.83854314  0.16907514  1
  Te  Te108  1  0.16705208  0.17351104  0.16778763  1
  Te  Te109  1  0.16580846  0.16770564  0.50060688  1
  Te  Te110  1  0.16655761  0.17248657  0.82753072  1
  Te  Te111  1  0.16564557  0.49502220  0.16635837  1
  Te  Te112  1  0.16318014  0.49680301  0.50197142  1
  Te  Te113  1  0.16720199  0.49349767  0.83025324  1
  Te  Te114  1  0.15865700  0.83449777  0.16715465  1
  Te  Te115  1  0.16925558  0.83810251  0.49963553  1
  Te  Te116  1  0.17399627  0.83429079  0.83290184  1
  Te  Te117  1  0.50246396  0.16973411  0.16559097  1
  Te  Te118  1  0.49605920  0.16846773  0.50290240  1
  Te  Te119  1  0.50349652  0.16816464  0.83360050  1
  Te  Te120  1  0.49931383  0.50029949  0.16592329  1
  Te  Te121  1  0.49837168  0.49829998  0.50465157  1
  Te  Te122  1  0.50077897  0.50428932  0.83119872  1
  Te  Te123  1  0.50350275  0.83011836  0.16688795  1
  Te  Te124  1  0.50047422  0.83325866  0.49633759  1
  Te  Te125  1  0.49725890  0.82706102  0.83554400  1
  Te  Te126  1  0.83068201  0.16863216  0.16803449  1
  Te  Te127  1  0.83516097  0.16279156  0.50265437  1
  Te  Te128  1  0.83212163  0.16764072  0.83040078  1
  Te  Te129  1  0.83848970  0.49658407  0.16841157  1
  Te  Te130  1  0.84018517  0.49859301  0.50392416  1
  Te  Te131  1  0.83339015  0.50042794  0.82625799  1
  Te  Te132  1  0.83157820  0.83228814  0.16827570  1
  Te  Te133  1  0.83059685  0.84001784  0.49314165  1
  Te  Te134  1  0.83416925  0.82569911  0.83237236  1
  Te  Te135  1  0.16457653  -0.00009961  0.00002820  1
  Te  Te136  1  0.17097911  0.00003751  0.33802993  1
  Te  Te137  1  0.16518890  0.00462860  0.66145691  1
  Te  Te138  1  0.16686382  0.33666948  0.00148029  1
  Te  Te139  1  0.16680106  0.33941952  0.32929483  1
  Te  Te140  1  0.16609991  0.33301903  0.66530294  1
  Te  Te141  1  0.16242403  0.65940214  -0.00105035  1
  Te  Te142  1  0.17229130  0.65981136  0.33294280  1
  Te  Te143  1  0.16428603  0.66100582  0.66793763  1
  Te  Te144  1  0.50270573  0.00144428  -0.00023342  1
  Te  Te145  1  0.50033415  -0.00394953  0.33211077  1
  Te  Te146  1  0.50692763  0.00503350  0.66815931  1
  Te  Te147  1  0.50199207  0.33373525  0.00312241  1
  Te  Te148  1  0.50017154  0.33866570  0.32683134  1
  Te  Te149  1  0.50065903  0.33401254  0.66864564  1
  Te  Te150  1  0.50117896  0.66550773  0.00101700  1
  Te  Te151  1  0.49861939  0.66716456  0.33114982  1
  Te  Te152  1  0.50363036  0.66402240  0.66925193  1
  Te  Te153  1  0.83212780  -0.00099150  0.00412131  1
  Te  Te154  1  0.83222204  -0.00031634  0.33140707  1
  Te  Te155  1  0.82929237  0.00360903  0.66626711  1
  Te  Te156  1  0.83190370  0.33536947  -0.00095485  1
  Te  Te157  1  0.83196569  0.33005157  0.32742943  1
  Te  Te158  1  0.83354958  0.33295171  0.67047453  1
  Te  Te159  1  0.83180692  0.66544157  0.00101708  1
  Te  Te160  1  0.83235595  0.66941244  0.32668643  1
  Te  Te161  1  0.83126768  0.66551733  0.66556485  1
  Te  Te162  1  0.00159603  0.16818749  -0.00410949  1
  Te  Te163  1  -0.00678142  0.16668057  0.33988249  1
  Te  Te164  1  -0.00161934  0.16564725  0.66733699  1
  Te  Te165  1  0.00043939  0.49942305  0.00209872  1
  Te  Te166  1  0.00281314  0.50067644  0.33434113  1
  Te  Te167  1  -0.00082210  0.50172078  0.66683917  1
  Te  Te168  1  0.00258435  0.83247066  0.00510504  1
  Te  Te169  1  -0.00163222  0.83269797  0.32578130  1
  Te  Te170  1  0.00019531  0.82561463  0.66729831  1
  Te  Te171  1  0.33857055  0.16070525  0.00228957  1
  Te  Te172  1  0.33390528  0.16152271  0.33349560  1
  Te  Te173  1  0.33463970  0.16563746  0.66399472  1
  Te  Te174  1  0.33505574  0.50128110  0.00042051  1
  Te  Te175  1  0.33552741  0.50311316  0.33413173  1
  Te  Te176  1  0.33712122  0.50091854  0.66550029  1
  Te  Te177  1  0.33821781  0.83894749  0.00040367  1
  Te  Te178  1  0.33591940  0.83608382  0.33540802  1
  Te  Te179  1  0.33421674  0.83422525  0.66233751  1
  Te  Te180  1  0.66418942  0.16584404  0.00043586  1
  Te  Te181  1  0.67075388  0.15947276  0.33050626  1
  Te  Te182  1  0.66717889  0.16511673  0.66694788  1
  Te  Te183  1  0.66095416  0.50342664  0.00014669  1
  Te  Te184  1  0.65983378  0.50074199  0.33568407  1
  Te  Te185  1  0.66592449  0.50258397  0.66666259  1
  Te  Te186  1  0.66050292  0.83282929  0.00337889  1
  Te  Te187  1  0.66492481  0.83527493  0.33132133  1
  Te  Te188  1  0.66588491  0.83536161  0.66480414  1
  Te  Te189  1  -0.00457939  0.00045319  0.16206038  1
  Te  Te190  1  -0.00132091  0.00278213  0.50049692  1
  Te  Te191  1  -0.00044457  0.00560966  0.84025188  1
  Te  Te192  1  -0.00174494  0.33608944  0.16126275  1
  Te  Te193  1  0.00363566  0.33269657  0.49792172  1
  Te  Te194  1  -0.00224389  0.32892773  0.83951799  1
  Te  Te195  1  -0.00158077  0.66339404  0.16311569  1
  Te  Te196  1  -0.00068572  0.66484473  0.50277779  1
  Te  Te197  1  -0.00411231  0.66830361  0.83622045  1
  Te  Te198  1  0.32993403  0.00503370  0.16714915  1
  Te  Te199  1  0.33354996  0.00077673  0.49826504  1
  Te  Te200  1  0.33283686  -0.00598769  0.83747265  1
  Te  Te201  1  0.33640115  0.32599514  0.16733806  1
  Te  Te202  1  0.32626139  0.32644560  0.49849359  1
  Te  Te203  1  0.32530488  0.33342028  0.83395014  1
  Te  Te204  1  0.33672561  0.66905912  0.17200444  1
  Te  Te205  1  0.33314903  0.67201720  0.49474365  1
  Te  Te206  1  0.33594756  0.67297424  0.83353151  1
  Te  Te207  1  0.67043606  0.00021193  0.16635505  1
  Te  Te208  1  0.66971316  -0.00309664  0.49897827  1
  Te  Te209  1  0.66706918  0.00428546  0.83346468  1
  Te  Te210  1  0.66813496  0.33302510  0.16111059  1
  Te  Te211  1  0.66753984  0.33454214  0.49816525  1
  Te  Te212  1  0.67078513  0.32733086  0.84054007  1
  Te  Te213  1  0.66750273  0.66715067  0.16187317  1
  Te  Te214  1  0.66757291  0.67337756  0.50799725  1
  Te  Te215  1  0.66842124  0.66785544  0.83571113  1
