# generated using pymatgen
data_AgSbTe2
_symmetry_space_group_name_H-M   'P 1'
_cell_length_a   18.32311901
_cell_length_b   18.32121667
_cell_length_c   18.32640517
_cell_angle_alpha   90.00191857
_cell_angle_beta   90.00469108
_cell_angle_gamma   89.99786729
_symmetry_Int_Tables_number   1
_chemical_formula_structural   AgSbTe2
_chemical_formula_sum   'Ag54 Sb54 Te108'
_cell_volume   6152.20778973
_cell_formula_units_Z   54
loop_
 _symmetry_equiv_pos_site_id
 _symmetry_equiv_pos_as_xyz
  1  'x, y, z'
loop_
 _atom_site_type_symbol
 _atom_site_label
 _atom_site_symmetry_multiplicity
 _atom_site_fract_x
 _atom_site_fract_y
 _atom_site_fract_z
 _atom_site_occupancy
  Ag  Ag0  1  0.66256619  0.82963186  0.83392659  1
  Ag  Ag1  1  0.32954337  0.49504428  0.16430930  1
  Ag  Ag2  1  0.49349233  0.34018503  0.50255606  1
  Ag  Ag3  1  0.17637638  0.33053183  0.50254484  1
  Ag  Ag4  1  -0.00237888  0.67021807  0.66162628  1
  Ag  Ag5  1  0.16513421  0.66086799  0.16052880  1
  Ag  Ag6  1  0.49664921  0.16768852  -0.00848120  1
  Ag  Ag7  1  0.67103453  0.66812932  0.33343365  1
  Ag  Ag8  1  0.17412536  0.34289896  0.15682993  1
  Ag  Ag9  1  0.33705448  0.49609169  0.83390504  1
  Ag  Ag10  1  0.50352723  0.66537657  0.82695668  1
  Ag  Ag11  1  0.17247410  0.34260677  0.84079419  1
  Ag  Ag12  1  0.16725457  0.50009217  0.00329201  1
  Ag  Ag13  1  0.65895176  -0.00537228  0.66876891  1
  Ag  Ag14  1  0.50129410  0.50244136  0.33978462  1
  Ag  Ag15  1  0.50238945  -0.00436659  0.82716422  1
  Ag  Ag16  1  0.33179767  0.33569902  0.00413092  1
  Ag  Ag17  1  0.16942393  0.82394279  -0.00305134  1
  Ag  Ag18  1  0.49770783  0.16075592  0.66916861  1
  Ag  Ag19  1  0.82777018  0.66791178  0.49455501  1
  Ag  Ag20  1  0.66040228  0.66961899  0.67020605  1
  Ag  Ag21  1  0.83864269  -0.00507169  0.50296544  1
  Ag  Ag22  1  0.34006127  -0.00056651  0.66337039  1
  Ag  Ag23  1  0.49244308  0.33617305  0.16821363  1
  Ag  Ag24  1  0.33645564  0.17128556  0.83258822  1
  Ag  Ag25  1  0.17273111  0.66282584  0.83743237  1
  Ag  Ag26  1  0.83596144  0.50042343  0.00743519  1
  Ag  Ag27  1  0.00876035  0.16036263  0.50091580  1
  Ag  Ag28  1  0.17405212  0.83243437  0.66935363  1
  Ag  Ag29  1  0.49955550  0.50346301  0.66440253  1
  Ag  Ag30  1  0.83312733  0.34418045  0.16453080  1
  Ag  Ag31  1  -0.00119470  -0.00397193  0.34197615  1
  Ag  Ag32  1  -0.00767975  0.66672211  0.33617023  1
  Ag  Ag33  1  0.33556918  -0.00172773  0.34428303  1
  Ag  Ag34  1  0.33562012  0.83204070  0.16848683  1
  Ag  Ag35  1  0.66045692  0.33990534  0.66727584  1
  Ag  Ag36  1  0.16885041  0.00258775  0.50271973  1
  Ag  Ag37  1  0.50264275  0.66071825  0.50786666  1
  Ag  Ag38  1  0.66675623  0.66984808  -0.00317057  1
  Ag  Ag39  1  0.33205501  0.16340911  0.50142307  1
  Ag  Ag40  1  0.49854389  0.83315560  0.66808139  1
  Ag  Ag41  1  0.33509267  0.17769995  0.16342166  1
  Ag  Ag42  1  0.66538521  -0.00913016  -0.01368233  1
  Ag  Ag43  1  0.33735889  0.49741433  0.50003140  1
  Ag  Ag44  1  0.82898588  0.50582853  0.32581923  1
  Ag  Ag45  1  0.00059483  -0.00441560  0.65998908  1
  Ag  Ag46  1  0.65654748  0.50982625  0.83218416  1
  Ag  Ag47  1  0.33432454  0.84287402  0.50345006  1
  Ag  Ag48  1  0.01461577  0.33623756  0.00303906  1
  Ag  Ag49  1  0.65965265  0.83005489  0.16145028  1
  Ag  Ag50  1  0.00117295  0.50046082  0.16560623  1
  Ag  Ag51  1  0.81926947  -0.00018105  0.82421240  1
  Ag  Ag52  1  0.66518765  -0.00774022  0.33863125  1
  Ag  Ag53  1  0.83405272  0.66139758  0.17438700  1
  Sb  Sb54  1  0.83231333  0.33578789  0.49623221  1
  Sb  Sb55  1  0.00678765  0.17332468  0.17071500  1
  Sb  Sb56  1  0.66410217  0.33771484  0.33569278  1
  Sb  Sb57  1  0.66059723  0.16328052  0.16622833  1
  Sb  Sb58  1  0.82763130  0.16274234  0.66646762  1
  Sb  Sb59  1  -0.00196123  0.83240423  0.83125091  1
  Sb  Sb60  1  0.17384215  0.17151757  -0.00054611  1
  Sb  Sb61  1  0.00226856  0.82588242  0.16768065  1
  Sb  Sb62  1  0.33442279  0.66243079  -0.00024092  1
  Sb  Sb63  1  0.00776621  0.16572021  0.82849723  1
  Sb  Sb64  1  0.50046843  0.66299476  0.16646324  1
  Sb  Sb65  1  0.00503733  0.49971059  0.49496417  1
  Sb  Sb66  1  0.83382222  0.16837993  0.33420162  1
  Sb  Sb67  1  0.49719798  0.49714721  -0.00145717  1
  Sb  Sb68  1  0.17024921  0.50160702  0.32643268  1
  Sb  Sb69  1  -0.00350292  0.00410514  -0.00013466  1
  Sb  Sb70  1  0.49718041  0.16843582  0.33685041  1
  Sb  Sb71  1  0.17362581  0.50487908  0.67087867  1
  Sb  Sb72  1  0.33837224  0.32948994  0.66644067  1
  Sb  Sb73  1  0.17441291  0.16174444  0.66434237  1
  Sb  Sb74  1  0.17168474  -0.00302968  0.82717049  1
  Sb  Sb75  1  0.16881396  0.83256358  0.33465411  1
  Sb  Sb76  1  0.33702088  0.83188841  0.83206710  1
  Sb  Sb77  1  0.49540011  0.33529944  0.83005608  1
  Sb  Sb78  1  0.16850626  0.66752758  0.50132541  1
  Sb  Sb79  1  0.49870150  0.83554558  -0.00433869  1
  Sb  Sb80  1  -0.00016730  0.33416197  0.66796130  1
  Sb  Sb81  1  0.00040681  0.33743538  0.32882333  1
  Sb  Sb82  1  -0.00076684  0.66078222  0.00022386  1
  Sb  Sb83  1  0.83491708  0.33238592  0.83742882  1
  Sb  Sb84  1  0.50057777  0.82913251  0.33930134  1
  Sb  Sb85  1  0.66143453  0.33709507  -0.00314715  1
  Sb  Sb86  1  0.16878830  0.16577389  0.33582002  1
  Sb  Sb87  1  0.66734355  0.50517693  0.16288543  1
  Sb  Sb88  1  0.33494949  0.66818832  0.33331635  1
  Sb  Sb89  1  0.82846383  0.66839001  0.83257855  1
  Sb  Sb90  1  0.00600462  0.83817978  0.50209265  1
  Sb  Sb91  1  0.33704852  0.00312988  -0.00237518  1
  Sb  Sb92  1  0.82863669  0.83441768  0.66687216  1
  Sb  Sb93  1  0.33381989  0.33174638  0.33175290  1
  Sb  Sb94  1  0.66008717  0.83145143  0.50379727  1
  Sb  Sb95  1  0.66173239  0.16370803  0.50185077  1
  Sb  Sb96  1  0.83011780  -0.00298634  0.17039334  1
  Sb  Sb97  1  0.82655424  0.50269929  0.66635425  1
  Sb  Sb98  1  0.00315095  0.50108667  0.83753981  1
  Sb  Sb99  1  0.33884993  0.67141801  0.66566830  1
  Sb  Sb100  1  0.49616452  0.00048623  0.50629902  1
  Sb  Sb101  1  0.83103943  0.82714859  0.33446752  1
  Sb  Sb102  1  0.49896577  0.00214683  0.16427596  1
  Sb  Sb103  1  0.65820968  0.16379165  0.83277545  1
  Sb  Sb104  1  0.16939905  -0.00185673  0.17067772  1
  Sb  Sb105  1  0.83265700  0.82804065  0.00012632  1
  Sb  Sb106  1  0.82679725  0.17021978  0.00054946  1
  Sb  Sb107  1  0.65859387  0.50405213  0.50405458  1
  Te  Te108  1  0.17475543  0.17135115  0.16702197  1
  Te  Te109  1  0.16961326  0.16570487  0.50086830  1
  Te  Te110  1  0.17527263  0.17002369  0.83189455  1
  Te  Te111  1  0.16909463  0.50040604  0.16564076  1
  Te  Te112  1  0.17357880  0.49711223  0.50026498  1
  Te  Te113  1  0.16968001  0.50182516  0.83707849  1
  Te  Te114  1  0.16977273  0.82986361  0.16326022  1
  Te  Te115  1  0.17519336  0.83577449  0.50503465  1
  Te  Te116  1  0.16771950  0.82877850  0.83291605  1
  Te  Te117  1  0.49381884  0.17121411  0.16769779  1
  Te  Te118  1  0.49472662  0.17271662  0.50430066  1
  Te  Te119  1  0.49447928  0.16802889  0.83076974  1
  Te  Te120  1  0.49648880  0.49695484  0.16727599  1
  Te  Te121  1  0.49801724  0.50024641  0.50087836  1
  Te  Te122  1  0.49808769  0.50155574  0.83193143  1
  Te  Te123  1  0.49846456  0.83227203  0.16646465  1
  Te  Te124  1  0.49332489  0.82721180  0.50599106  1
  Te  Te125  1  0.50258306  0.83196054  0.82953310  1
  Te  Te126  1  0.83528751  0.17271271  0.16678613  1
  Te  Te127  1  0.83634185  0.16542809  0.49963700  1
  Te  Te128  1  0.83543151  0.15990488  0.83448496  1
  Te  Te129  1  0.82990227  0.50209764  0.16606871  1
  Te  Te130  1  0.83572041  0.50382612  0.49683757  1
  Te  Te131  1  0.83196996  0.49886822  0.83656532  1
  Te  Te132  1  0.82969722  0.82614350  0.16527530  1
  Te  Te133  1  0.83325351  0.83262418  0.50067332  1
  Te  Te134  1  0.82603245  0.84061500  0.83453847  1
  Te  Te135  1  0.16443711  -0.00196086  -0.00107524  1
  Te  Te136  1  0.16638505  -0.00111755  0.33923530  1
  Te  Te137  1  0.16408875  -0.00458783  0.66362608  1
  Te  Te138  1  0.17146123  0.33466811  -0.00044036  1
  Te  Te139  1  0.16537655  0.33382538  0.34105636  1
  Te  Te140  1  0.16447073  0.33420186  0.66298851  1
  Te  Te141  1  0.16628966  0.66373210  -0.00059698  1
  Te  Te142  1  0.15986856  0.66755889  0.32885812  1
  Te  Te143  1  0.16348188  0.67116866  0.66922017  1
  Te  Te144  1  0.50481642  0.00354785  -0.00484030  1
  Te  Te145  1  0.50150700  -0.00104975  0.33426924  1
  Te  Te146  1  0.49964141  -0.00123166  0.66652496  1
  Te  Te147  1  0.49544325  0.32942396  0.00346193  1
  Te  Te148  1  0.50124145  0.33895647  0.33437853  1
  Te  Te149  1  0.50304001  0.33779479  0.66432275  1
  Te  Te150  1  0.50580641  0.66681372  -0.00612952  1
  Te  Te151  1  0.50460939  0.66226518  0.33584984  1
  Te  Te152  1  0.50046559  0.66599527  0.66726598  1
  Te  Te153  1  0.82721864  0.00035494  -0.00087299  1
  Te  Te154  1  0.83272078  0.00050122  0.33855441  1
  Te  Te155  1  0.83494986  -0.00021999  0.66421633  1
  Te  Te156  1  0.82966714  0.33790754  0.00464601  1
  Te  Te157  1  0.83175557  0.34045354  0.32689023  1
  Te  Te158  1  0.82525758  0.33288363  0.66673042  1
  Te  Te159  1  0.83051310  0.66175891  0.00037190  1
  Te  Te160  1  0.83235818  0.66419055  0.33412346  1
  Te  Te161  1  0.83534439  0.66775771  0.66268297  1
  Te  Te162  1  -0.00118939  0.17428715  -0.00004378  1
  Te  Te163  1  -0.00029630  0.16062077  0.33887887  1
  Te  Te164  1  -0.00041936  0.16413057  0.66066277  1
  Te  Te165  1  0.00126820  0.49609746  0.00398665  1
  Te  Te166  1  -0.00339038  0.50447586  0.32788131  1
  Te  Te167  1  -0.00007771  0.50441864  0.66526875  1
  Te  Te168  1  0.00798322  0.83513634  -0.00028946  1
  Te  Te169  1  0.00061579  0.83404437  0.33308692  1
  Te  Te170  1  0.00438294  0.83331247  0.66694899  1
  Te  Te171  1  0.33800427  0.17005685  0.00098073  1
  Te  Te172  1  0.33434805  0.15794966  0.33567213  1
  Te  Te173  1  0.33790665  0.16263931  0.66464255  1
  Te  Te174  1  0.33024885  0.49680476  0.00024428  1
  Te  Te175  1  0.33844210  0.50098912  0.33287595  1
  Te  Te176  1  0.33861157  0.49930387  0.66762713  1
  Te  Te177  1  0.32877060  0.83431746  0.00354643  1
  Te  Te178  1  0.33422546  0.83808701  0.33161241  1
  Te  Te179  1  0.33472924  0.83751887  0.66648944  1
  Te  Te180  1  0.65873357  0.16237814  0.00086885  1
  Te  Te181  1  0.66588157  0.15746557  0.33321232  1
  Te  Te182  1  0.65936769  0.16115955  0.66651853  1
  Te  Te183  1  0.66830397  0.50345274  -0.00597667  1
  Te  Te184  1  0.66510908  0.50455163  0.33319481  1
  Te  Te185  1  0.66216438  0.50471117  0.67088570  1
  Te  Te186  1  0.66619011  0.83205029  -0.00042370  1
  Te  Te187  1  0.66508114  0.83143062  0.32930883  1
  Te  Te188  1  0.66247040  0.83248445  0.66961647  1
  Te  Te189  1  -0.00081416  0.00176071  0.17080536  1
  Te  Te190  1  0.00073520  -0.00017375  0.50072681  1
  Te  Te191  1  -0.00162756  0.00107994  0.82919834  1
  Te  Te192  1  0.00220160  0.33786294  0.16387748  1
  Te  Te193  1  0.00144826  0.32827386  0.49929461  1
  Te  Te194  1  0.00659366  0.33245454  0.83794956  1
  Te  Te195  1  -0.00076495  0.66231210  0.16732547  1
  Te  Te196  1  -0.00042808  0.66691047  0.49947006  1
  Te  Te197  1  0.00242996  0.66662769  0.82781665  1
  Te  Te198  1  0.33275485  -0.00531769  0.16721086  1
  Te  Te199  1  0.33383019  0.00063064  0.50189247  1
  Te  Te200  1  0.33871599  0.00330442  0.82959325  1
  Te  Te201  1  0.33291429  0.33471200  0.16837881  1
  Te  Te202  1  0.33417982  0.33388101  0.49872553  1
  Te  Te203  1  0.33095287  0.33509457  0.83292440  1
  Te  Te204  1  0.33108964  0.66806176  0.16654277  1
  Te  Te205  1  0.33715536  0.66042895  0.49863430  1
  Te  Te206  1  0.33313184  0.66232633  0.83348770  1
  Te  Te207  1  0.66687953  -0.00564302  0.17080764  1
  Te  Te208  1  0.66955367  -0.00229705  0.50189776  1
  Te  Te209  1  0.66284456  0.00107005  0.83064042  1
  Te  Te210  1  0.66560669  0.33219096  0.16683334  1
  Te  Te211  1  0.66377404  0.33268032  0.50499960  1
  Te  Te212  1  0.66721522  0.33581356  0.82800252  1
  Te  Te213  1  0.66660089  0.66988104  0.16696635  1
  Te  Te214  1  0.66696292  0.66840440  0.50002500  1
  Te  Te215  1  0.66729539  0.66796596  0.83162072  1
