# generated using pymatgen
data_AgSbTe2
_symmetry_space_group_name_H-M   'P 1'
_cell_length_a   18.33907465
_cell_length_b   18.33820629
_cell_length_c   18.33131212
_cell_angle_alpha   90.00447605
_cell_angle_beta   90.00211903
_cell_angle_gamma   89.99987490
_symmetry_Int_Tables_number   1
_chemical_formula_structural   AgSbTe2
_chemical_formula_sum   'Ag54 Sb54 Te108'
_cell_volume   6164.92535651
_cell_formula_units_Z   54
loop_
 _symmetry_equiv_pos_site_id
 _symmetry_equiv_pos_as_xyz
  1  'x, y, z'
loop_
 _atom_site_type_symbol
 _atom_site_label
 _atom_site_symmetry_multiplicity
 _atom_site_fract_x
 _atom_site_fract_y
 _atom_site_fract_z
 _atom_site_occupancy
  Ag  Ag0  1  0.00147709  -0.00306254  -0.00171012  1
  Ag  Ag1  1  0.33340990  0.00310193  -0.00141221  1
  Ag  Ag2  1  0.67202069  0.66171050  0.00528094  1
  Ag  Ag3  1  0.00229144  0.83027538  0.49923754  1
  Ag  Ag4  1  0.49822367  0.82762697  0.00450493  1
  Ag  Ag5  1  0.67329547  0.49605523  0.83948890  1
  Ag  Ag6  1  0.00630887  0.50103372  0.49666807  1
  Ag  Ag7  1  0.16304581  0.65970769  0.17005583  1
  Ag  Ag8  1  0.17197156  0.33896399  0.83122372  1
  Ag  Ag9  1  -0.00101432  0.17158348  0.50222283  1
  Ag  Ag10  1  0.83601658  0.66190762  0.16495982  1
  Ag  Ag11  1  0.49582395  -0.00179095  0.49608928  1
  Ag  Ag12  1  0.82761144  0.50499167  0.00161630  1
  Ag  Ag13  1  0.48748941  0.33793018  0.16729825  1
  Ag  Ag14  1  0.16326971  0.65751380  0.83783692  1
  Ag  Ag15  1  0.49291886  0.83374683  0.32869604  1
  Ag  Ag16  1  0.00644854  0.82282801  0.83178203  1
  Ag  Ag17  1  0.83963423  0.65597954  0.84280001  1
  Ag  Ag18  1  0.00642771  0.50162913  0.16961630  1
  Ag  Ag19  1  0.83952583  0.17129273  0.66682353  1
  Ag  Ag20  1  0.16856694  0.49828179  0.67667509  1
  Ag  Ag21  1  0.66645431  0.17714299  0.83523239  1
  Ag  Ag22  1  0.16670261  0.82931123  0.66877492  1
  Ag  Ag23  1  0.00172393  0.66391976  0.33067875  1
  Ag  Ag24  1  0.66943599  0.33448843  0.67490568  1
  Ag  Ag25  1  0.32506921  0.49366699  0.16900276  1
  Ag  Ag26  1  0.16765668  0.50304085  0.32585603  1
  Ag  Ag27  1  0.00469611  0.50261370  0.83404761  1
  Ag  Ag28  1  0.83332473  0.82316471  0.00148802  1
  Ag  Ag29  1  0.16796790  0.82059462  0.33560131  1
  Ag  Ag30  1  0.67592519  0.66620792  0.32543536  1
  Ag  Ag31  1  0.33278425  0.33813785  0.00363831  1
  Ag  Ag32  1  0.33342425  0.17827085  0.16463719  1
  Ag  Ag33  1  0.66421527  0.17521636  0.16506626  1
  Ag  Ag34  1  0.84246536  0.50591080  0.32502279  1
  Ag  Ag35  1  0.32534720  0.83017716  0.83477995  1
  Ag  Ag36  1  0.33150895  0.34379986  0.31777048  1
  Ag  Ag37  1  0.32906564  0.33690365  0.67231253  1
  Ag  Ag38  1  0.17522819  0.34126735  0.16438876  1
  Ag  Ag39  1  0.33635984  -0.00209503  0.33188757  1
  Ag  Ag40  1  0.32358854  0.49422237  0.83338307  1
  Ag  Ag41  1  0.83559677  0.33906204  0.83127270  1
  Ag  Ag42  1  0.66840476  0.49901026  0.16088151  1
  Ag  Ag43  1  0.32100319  0.65947638  0.32972391  1
  Ag  Ag44  1  0.00919581  0.33550390  0.66968920  1
  Ag  Ag45  1  0.32520964  0.49782013  0.49477627  1
  Ag  Ag46  1  0.83588636  0.82248747  0.32759921  1
  Ag  Ag47  1  0.48578526  0.49731875  0.67489136  1
  Ag  Ag48  1  0.33293510  0.17636651  0.83474422  1
  Ag  Ag49  1  0.83362358  0.17124400  0.33263664  1
  Ag  Ag50  1  0.16698741  0.18188011  0.66842030  1
  Ag  Ag51  1  0.33164251  0.00852028  0.67305808  1
  Ag  Ag52  1  0.50226563  0.50295765  -0.00099733  1
  Ag  Ag53  1  0.66313257  -0.00753427  0.33109427  1
  Sb  Sb54  1  0.49565590  -0.00084338  0.83195505  1
  Sb  Sb55  1  0.66159215  0.34131589  -0.00351703  1
  Sb  Sb56  1  0.66074343  0.00699861  0.66368200  1
  Sb  Sb57  1  0.16693787  0.33811063  0.50437324  1
  Sb  Sb58  1  0.00238874  0.65957805  0.66692982  1
  Sb  Sb59  1  0.83499303  0.00115134  0.83419322  1
  Sb  Sb60  1  0.00079971  -0.00599005  0.33075143  1
  Sb  Sb61  1  0.16864090  0.00031065  0.83193873  1
  Sb  Sb62  1  0.83546856  0.33466137  0.50511771  1
  Sb  Sb63  1  0.49825125  0.00344459  0.16913835  1
  Sb  Sb64  1  0.16978454  0.16830508  -0.00491460  1
  Sb  Sb65  1  0.83226488  0.16911870  0.00004699  1
  Sb  Sb66  1  0.50096999  0.16224823  0.33217644  1
  Sb  Sb67  1  0.66773962  0.50005115  0.49924777  1
  Sb  Sb68  1  0.00395964  0.33505261  -0.00474678  1
  Sb  Sb69  1  0.49822812  0.66861398  0.49587627  1
  Sb  Sb70  1  0.66915897  0.65891412  0.67142112  1
  Sb  Sb71  1  0.00154517  0.17421501  0.17069156  1
  Sb  Sb72  1  0.84115383  0.83621880  0.66824522  1
  Sb  Sb73  1  0.16991170  -0.00162975  0.50049604  1
  Sb  Sb74  1  0.33660875  0.66226726  0.00269582  1
  Sb  Sb75  1  0.83258184  -0.00438985  0.16793642  1
  Sb  Sb76  1  0.16875786  0.50032233  0.00069843  1
  Sb  Sb77  1  0.00238682  0.17151957  0.82944711  1
  Sb  Sb78  1  0.49571812  0.17395131  0.66805462  1
  Sb  Sb79  1  0.49493872  0.50508895  0.33059058  1
  Sb  Sb80  1  0.16933086  -0.00026750  0.16819380  1
  Sb  Sb81  1  0.00415766  0.34283522  0.33701751  1
  Sb  Sb82  1  0.50056384  0.65896931  0.16709665  1
  Sb  Sb83  1  0.32845744  0.16952012  0.50122869  1
  Sb  Sb84  1  0.66433887  0.33697786  0.33202035  1
  Sb  Sb85  1  0.83645309  0.66480913  0.49440359  1
  Sb  Sb86  1  0.32893026  0.66018876  0.66557671  1
  Sb  Sb87  1  0.83219299  0.00073339  0.49745874  1
  Sb  Sb88  1  0.66368275  -0.00353252  0.00436215  1
  Sb  Sb89  1  0.49189454  0.83000802  0.66695461  1
  Sb  Sb90  1  0.49771388  0.16980841  0.00092889  1
  Sb  Sb91  1  0.16610236  0.83156501  -0.00108992  1
  Sb  Sb92  1  0.16547366  0.17187072  0.33699113  1
  Sb  Sb93  1  0.66653480  0.82761349  0.16832245  1
  Sb  Sb94  1  0.49621704  0.33227758  0.49683403  1
  Sb  Sb95  1  0.00012921  0.82540731  0.16595095  1
  Sb  Sb96  1  0.49452555  0.33788899  0.83742888  1
  Sb  Sb97  1  0.83486774  0.34223508  0.16278810  1
  Sb  Sb98  1  0.66850032  0.82918028  0.83596977  1
  Sb  Sb99  1  0.49675929  0.66269385  0.83541835  1
  Sb  Sb100  1  0.67067392  0.16787238  0.49826849  1
  Sb  Sb101  1  0.83880490  0.49416243  0.67216078  1
  Sb  Sb102  1  -0.00595926  0.66557321  0.00180093  1
  Sb  Sb103  1  0.33299392  0.82949084  0.16565210  1
  Sb  Sb104  1  0.00661789  0.00395141  0.66931492  1
  Sb  Sb105  1  0.16587347  0.66332527  0.49598646  1
  Sb  Sb106  1  0.67091602  0.83356195  0.49589356  1
  Sb  Sb107  1  0.32824596  0.83003640  0.49933089  1
  Te  Te108  1  0.17135007  0.17137592  0.16772505  1
  Te  Te109  1  0.15975653  0.16583505  0.50693602  1
  Te  Te110  1  0.17049027  0.17153254  0.82803951  1
  Te  Te111  1  0.16625220  0.50160398  0.16478074  1
  Te  Te112  1  0.16638252  0.50057076  0.49845873  1
  Te  Te113  1  0.16572160  0.49947195  0.83627861  1
  Te  Te114  1  0.16630863  0.82827907  0.17370038  1
  Te  Te115  1  0.16176487  0.83182208  0.49914292  1
  Te  Te116  1  0.16604965  0.83405678  0.83305880  1
  Te  Te117  1  0.49890016  0.17350463  0.16641265  1
  Te  Te118  1  0.50043662  0.15964648  0.50064693  1
  Te  Te119  1  0.50028112  0.16713304  0.83347399  1
  Te  Te120  1  0.50335247  0.49697123  0.16433342  1
  Te  Te121  1  0.49721967  0.49999011  0.50376269  1
  Te  Te122  1  0.50236964  0.50100593  0.83526148  1
  Te  Te123  1  0.50012030  0.83317455  0.16694170  1
  Te  Te124  1  0.49970196  0.83751666  0.49708652  1
  Te  Te125  1  0.49598126  0.83069012  0.83662054  1
  Te  Te126  1  0.83180108  0.16801924  0.16953055  1
  Te  Te127  1  0.83809496  0.16759340  0.49974063  1
  Te  Te128  1  0.83221814  0.17109955  0.83188926  1
  Te  Te129  1  0.82998960  0.50199304  0.16617179  1
  Te  Te130  1  0.83818866  0.49988919  0.49326553  1
  Te  Te131  1  0.83262505  0.49878325  0.83186191  1
  Te  Te132  1  0.83327289  0.82684529  0.16608680  1
  Te  Te133  1  0.84126743  0.83324301  0.49717329  1
  Te  Te134  1  0.83670664  0.83275919  0.83619453  1
  Te  Te135  1  0.17169013  -0.00008240  0.00096152  1
  Te  Te136  1  0.17113134  -0.00117023  0.33314856  1
  Te  Te137  1  0.17371988  -0.00811277  0.66582189  1
  Te  Te138  1  0.17137673  0.33287269  -0.00212653  1
  Te  Te139  1  0.17116900  0.33799741  0.32955086  1
  Te  Te140  1  0.16768739  0.33769253  0.66861131  1
  Te  Te141  1  0.16750281  0.66779702  -0.00015793  1
  Te  Te142  1  0.16425319  0.66402755  0.33162890  1
  Te  Te143  1  0.16539895  0.66770131  0.67516715  1
  Te  Te144  1  0.49516986  -0.00762758  0.00054380  1
  Te  Te145  1  0.49947479  -0.00422534  0.33365835  1
  Te  Te146  1  0.49235428  -0.00063167  0.66099549  1
  Te  Te147  1  0.49429798  0.33785450  0.00635291  1
  Te  Te148  1  0.49382857  0.33265726  0.32905858  1
  Te  Te149  1  0.49501208  0.33857960  0.66428764  1
  Te  Te150  1  0.50669785  0.66701438  0.00095831  1
  Te  Te151  1  0.50392729  0.67471588  0.33231325  1
  Te  Te152  1  0.50137547  0.65778530  0.66511456  1
  Te  Te153  1  0.83307426  -0.00481529  0.00101514  1
  Te  Te154  1  0.83025682  0.00044846  0.33281510  1
  Te  Te155  1  0.83109179  0.00878962  0.66583661  1
  Te  Te156  1  0.83461729  0.33744917  -0.00719706  1
  Te  Te157  1  0.83360133  0.33214072  0.33304800  1
  Te  Te158  1  0.83156220  0.32921833  0.67077590  1
  Te  Te159  1  0.83251764  0.66570014  0.00111950  1
  Te  Te160  1  0.83505142  0.66519828  0.33124604  1
  Te  Te161  1  0.83346610  0.66916356  0.67353215  1
  Te  Te162  1  -0.00057270  0.15902008  0.00097213  1
  Te  Te163  1  -0.00344851  0.16482073  0.33802262  1
  Te  Te164  1  0.00148480  0.16899365  0.66437189  1
  Te  Te165  1  -0.00855649  0.49863567  -0.00438072  1
  Te  Te166  1  0.00201843  0.50214484  0.33299042  1
  Te  Te167  1  0.00467390  0.49592020  0.66796701  1
  Te  Te168  1  -0.00176625  0.83627558  -0.00280533  1
  Te  Te169  1  -0.00021113  0.83040224  0.33314638  1
  Te  Te170  1  0.00457996  0.83576466  0.66779900  1
  Te  Te171  1  0.33431771  0.16494809  -0.00222149  1
  Te  Te172  1  0.33241730  0.16330486  0.33245035  1
  Te  Te173  1  0.32981286  0.16740573  0.66836331  1
  Te  Te174  1  0.33740392  0.49897016  -0.00162246  1
  Te  Te175  1  0.33316202  0.50011935  0.33074494  1
  Te  Te176  1  0.32907960  0.49993047  0.67242064  1
  Te  Te177  1  0.33507984  0.83281740  -0.00226628  1
  Te  Te178  1  0.33173969  0.83496523  0.33381837  1
  Te  Te179  1  0.32900847  0.83194444  0.66867349  1
  Te  Te180  1  0.66561494  0.16503812  0.00016016  1
  Te  Te181  1  0.67111346  0.16873179  0.33041731  1
  Te  Te182  1  0.66680663  0.17043958  0.67060653  1
  Te  Te183  1  0.66576118  0.50150114  -0.00076921  1
  Te  Te184  1  0.66570182  0.50244442  0.33137794  1
  Te  Te185  1  0.66857440  0.49522541  0.66779707  1
  Te  Te186  1  0.66729316  0.82895770  0.00039520  1
  Te  Te187  1  0.67188637  0.83309639  0.33260514  1
  Te  Te188  1  0.66524224  0.83502588  0.66580109  1
  Te  Te189  1  0.00105321  0.00280801  0.15998338  1
  Te  Te190  1  0.00019182  -0.00352859  0.50049908  1
  Te  Te191  1  0.00061472  -0.00403959  0.83774116  1
  Te  Te192  1  0.00578077  0.34083022  0.16566653  1
  Te  Te193  1  0.00034820  0.33521636  0.50584837  1
  Te  Te194  1  0.00092104  0.33607860  0.83022373  1
  Te  Te195  1  -0.00020282  0.66073386  0.16886136  1
  Te  Te196  1  0.00004418  0.66515641  0.49514244  1
  Te  Te197  1  0.00041029  0.66484716  0.83234952  1
  Te  Te198  1  0.33315157  0.00203165  0.16584614  1
  Te  Te199  1  0.33588288  0.00026652  0.49593486  1
  Te  Te200  1  0.33340149  -0.00077719  0.83375368  1
  Te  Te201  1  0.33144999  0.33427444  0.16269879  1
  Te  Te202  1  0.33377006  0.33752537  0.50800764  1
  Te  Te203  1  0.33284628  0.33449323  0.83305395  1
  Te  Te204  1  0.33039371  0.66137149  0.17025578  1
  Te  Te205  1  0.33352304  0.65914805  0.49138799  1
  Te  Te206  1  0.32886378  0.66787720  0.83373665  1
  Te  Te207  1  0.66563132  0.00818274  0.17194099  1
  Te  Te208  1  0.66026091  0.00087115  0.49293320  1
  Te  Te209  1  0.66601005  0.00550952  0.83390186  1
  Te  Te210  1  0.66786530  0.33482366  0.16563257  1
  Te  Te211  1  0.66434555  0.33321053  0.50975981  1
  Te  Te212  1  0.66419052  0.33454499  0.83304761  1
  Te  Te213  1  0.66856697  0.66229893  0.16647166  1
  Te  Te214  1  0.66701637  0.66630840  0.49228095  1
  Te  Te215  1  0.67199152  0.66180465  0.83730662  1
