# generated using pymatgen
data_AgSbTe2
_symmetry_space_group_name_H-M   'P 1'
_cell_length_a   18.33302975
_cell_length_b   18.33983051
_cell_length_c   18.33578352
_cell_angle_alpha   90.00065438
_cell_angle_beta   89.99922269
_cell_angle_gamma   89.99712855
_symmetry_Int_Tables_number   1
_chemical_formula_structural   AgSbTe2
_chemical_formula_sum   'Ag54 Sb54 Te108'
_cell_volume   6164.94254174
_cell_formula_units_Z   54
loop_
 _symmetry_equiv_pos_site_id
 _symmetry_equiv_pos_as_xyz
  1  'x, y, z'
loop_
 _atom_site_type_symbol
 _atom_site_label
 _atom_site_symmetry_multiplicity
 _atom_site_fract_x
 _atom_site_fract_y
 _atom_site_fract_z
 _atom_site_occupancy
  Ag  Ag0  1  0.01285545  0.83223506  0.15534134  1
  Ag  Ag1  1  0.33030368  0.83570809  0.16603069  1
  Ag  Ag2  1  0.33949934  0.16110540  0.83565761  1
  Ag  Ag3  1  0.33148347  0.66230974  0.33748142  1
  Ag  Ag4  1  0.49268214  0.33013111  0.49770760  1
  Ag  Ag5  1  0.66413457  -0.00013562  0.32665880  1
  Ag  Ag6  1  0.17491901  0.50059963  0.33041162  1
  Ag  Ag7  1  0.66460215  0.84313963  0.83552294  1
  Ag  Ag8  1  0.33290165  0.83552435  0.83214742  1
  Ag  Ag9  1  0.16335657  0.50897233  0.00364475  1
  Ag  Ag10  1  0.17181496  0.67580020  0.16736659  1
  Ag  Ag11  1  0.49763410  0.32250246  0.83742974  1
  Ag  Ag12  1  0.49202822  0.49365761  0.33092830  1
  Ag  Ag13  1  0.00110340  0.32927536  -0.00437460  1
  Ag  Ag14  1  0.32890245  0.83144759  0.50271124  1
  Ag  Ag15  1  0.66293969  0.83583459  0.15684573  1
  Ag  Ag16  1  0.33272888  0.17076302  0.49163929  1
  Ag  Ag17  1  0.33203838  0.33193538  0.66062458  1
  Ag  Ag18  1  0.65784072  0.15433742  0.83717186  1
  Ag  Ag19  1  0.00490108  0.67603402  0.67478621  1
  Ag  Ag20  1  0.49765176  0.16557829  -0.00112439  1
  Ag  Ag21  1  0.17681903  0.16774482  0.32742981  1
  Ag  Ag22  1  0.33569914  0.16154721  0.17146205  1
  Ag  Ag23  1  0.49895687  0.67346490  0.83746879  1
  Ag  Ag24  1  0.17186821  0.67415438  0.49775163  1
  Ag  Ag25  1  0.82093936  -0.00041056  0.82976693  1
  Ag  Ag26  1  0.83617442  -0.00195165  0.51197546  1
  Ag  Ag27  1  0.49534523  0.00081375  0.16142349  1
  Ag  Ag28  1  0.83966862  0.83704363  0.66933644  1
  Ag  Ag29  1  0.16276943  0.83567941  0.00648560  1
  Ag  Ag30  1  0.84499647  0.67321555  0.16447824  1
  Ag  Ag31  1  0.00242621  0.51063958  0.83532251  1
  Ag  Ag32  1  0.83379952  0.15391929  0.67691222  1
  Ag  Ag33  1  0.00052760  -0.00508241  0.00027303  1
  Ag  Ag34  1  0.01387386  0.83490946  0.51146883  1
  Ag  Ag35  1  0.50764028  0.00360206  0.84099105  1
  Ag  Ag36  1  0.66242626  0.67578726  0.66955265  1
  Ag  Ag37  1  0.66908717  0.00301899  -0.00797286  1
  Ag  Ag38  1  0.33629823  0.33262621  0.33840948  1
  Ag  Ag39  1  0.16386666  0.83194278  0.66504845  1
  Ag  Ag40  1  0.17523240  -0.00594484  0.16588883  1
  Ag  Ag41  1  0.33223601  0.50004754  0.49526622  1
  Ag  Ag42  1  0.49307338  0.17043084  0.32270325  1
  Ag  Ag43  1  0.00315326  0.67628884  -0.00464589  1
  Ag  Ag44  1  0.66056237  0.32186432  -0.00187939  1
  Ag  Ag45  1  0.16991954  0.16127930  0.00302646  1
  Ag  Ag46  1  0.00565610  0.33577559  0.67404158  1
  Ag  Ag47  1  0.16654149  -0.00804566  0.49637948  1
  Ag  Ag48  1  0.49287218  0.67639048  0.16233676  1
  Ag  Ag49  1  0.67133849  -0.00497677  0.67904923  1
  Ag  Ag50  1  0.82358917  0.16290910  -0.00395963  1
  Ag  Ag51  1  0.00571733  0.83267014  0.83296043  1
  Ag  Ag52  1  0.49678117  0.31963921  0.16568363  1
  Ag  Ag53  1  0.33005964  0.67237639  0.66198611  1
  Sb  Sb54  1  0.33575213  -0.00227831  0.66684982  1
  Sb  Sb55  1  0.84013825  0.84031402  -0.00484263  1
  Sb  Sb56  1  0.16960019  0.83517884  0.33235813  1
  Sb  Sb57  1  0.83010531  0.16355443  0.33093915  1
  Sb  Sb58  1  0.83191927  0.83456295  0.33432147  1
  Sb  Sb59  1  0.33033644  0.50194791  0.82972902  1
  Sb  Sb60  1  0.00849548  0.16002611  0.16099882  1
  Sb  Sb61  1  0.67000076  0.67393744  -0.00190731  1
  Sb  Sb62  1  0.66330198  0.32908062  0.67311993  1
  Sb  Sb63  1  0.32866486  0.66845011  0.00082975  1
  Sb  Sb64  1  0.17050965  0.33186778  0.83497621  1
  Sb  Sb65  1  0.66386834  0.83625938  0.50550800  1
  Sb  Sb66  1  0.00919415  0.50646631  0.50579638  1
  Sb  Sb67  1  0.65462852  0.32545656  0.32631515  1
  Sb  Sb68  1  0.33333853  0.50286284  0.17385535  1
  Sb  Sb69  1  0.83640788  0.50541111  0.66729227  1
  Sb  Sb70  1  0.33279227  0.00101144  0.00142282  1
  Sb  Sb71  1  0.83946810  0.49745408  -0.00166682  1
  Sb  Sb72  1  0.01077673  0.66839965  0.33115358  1
  Sb  Sb73  1  0.84069958  0.67468580  0.49956301  1
  Sb  Sb74  1  0.82790906  0.33375514  0.16342106  1
  Sb  Sb75  1  0.16891168  -0.00346540  0.83802326  1
  Sb  Sb76  1  0.16831727  0.50704132  0.66701256  1
  Sb  Sb77  1  0.65765625  0.50110008  0.49970770  1
  Sb  Sb78  1  0.49332612  0.49554493  0.00374546  1
  Sb  Sb79  1  0.83092525  -0.00446134  0.16171315  1
  Sb  Sb80  1  0.66032466  0.16343719  0.50567022  1
  Sb  Sb81  1  0.17260636  0.33128765  0.16488731  1
  Sb  Sb82  1  0.83324503  0.67545101  0.83574353  1
  Sb  Sb83  1  0.16543119  0.16125572  0.66821743  1
  Sb  Sb84  1  0.00913739  0.33272749  0.33204625  1
  Sb  Sb85  1  0.66290658  0.50648058  0.16530454  1
  Sb  Sb86  1  0.65681622  0.67190597  0.33429475  1
  Sb  Sb87  1  0.00595695  0.16050163  0.50286834  1
  Sb  Sb88  1  0.16880356  0.67097696  0.83489634  1
  Sb  Sb89  1  0.83607046  0.50279076  0.33265315  1
  Sb  Sb90  1  0.00011967  0.16196059  0.83584414  1
  Sb  Sb91  1  0.33473190  0.00329856  0.33248618  1
  Sb  Sb92  1  0.65686863  0.15721621  0.15692010  1
  Sb  Sb93  1  0.49692371  0.00428375  0.49898840  1
  Sb  Sb94  1  0.49497344  0.84005169  -0.00068224  1
  Sb  Sb95  1  0.17369125  0.33303287  0.50037994  1
  Sb  Sb96  1  0.49746892  0.83283799  0.67103629  1
  Sb  Sb97  1  0.33307056  0.32939235  0.00082815  1
  Sb  Sb98  1  0.49707945  0.49988560  0.66507868  1
  Sb  Sb99  1  0.83100324  0.32487659  0.83411103  1
  Sb  Sb100  1  -0.00388479  -0.00496702  0.67300594  1
  Sb  Sb101  1  0.66870255  0.50208809  0.83478745  1
  Sb  Sb102  1  0.49987686  0.16576190  0.67279849  1
  Sb  Sb103  1  0.00039256  -0.00177872  0.32988754  1
  Sb  Sb104  1  0.82954171  0.32485529  0.50391353  1
  Sb  Sb105  1  0.49041087  0.66478234  0.50024269  1
  Sb  Sb106  1  0.00481930  0.50685667  0.15915054  1
  Sb  Sb107  1  0.49582199  0.83665035  0.32898396  1
  Te  Te108  1  0.17304346  0.16477237  0.16579079  1
  Te  Te109  1  0.17263958  0.16315671  0.50004763  1
  Te  Te110  1  0.17496254  0.16404298  0.83730350  1
  Te  Te111  1  0.16752671  0.50179619  0.16549568  1
  Te  Te112  1  0.17235274  0.50452017  0.49647710  1
  Te  Te113  1  0.16169226  0.49940805  0.83931312  1
  Te  Te114  1  0.16837633  0.83544252  0.16796188  1
  Te  Te115  1  0.16916337  0.83385077  0.49650799  1
  Te  Te116  1  0.16912439  0.83399525  0.83258450  1
  Te  Te117  1  0.49714826  0.16241568  0.16362125  1
  Te  Te118  1  0.49282495  0.16996392  0.49977072  1
  Te  Te119  1  0.49947917  0.16504344  0.83490552  1
  Te  Te120  1  0.49951274  0.50350673  0.17057809  1
  Te  Te121  1  0.49278011  0.49477843  0.49459271  1
  Te  Te122  1  0.49958442  0.50218082  0.83487125  1
  Te  Te123  1  0.49653861  0.83640018  0.16448543  1
  Te  Te124  1  0.49182099  0.83424541  0.49865581  1
  Te  Te125  1  0.49809064  0.83307903  0.83601356  1
  Te  Te126  1  0.83423464  0.16639225  0.16138570  1
  Te  Te127  1  0.83357348  0.15902254  0.50111497  1
  Te  Te128  1  0.83352645  0.16106547  0.83576387  1
  Te  Te129  1  0.83284759  0.50932744  0.16646177  1
  Te  Te130  1  0.83368656  0.49976603  0.49857636  1
  Te  Te131  1  0.84204521  0.49950762  0.83287202  1
  Te  Te132  1  0.82850135  0.83064613  0.16680206  1
  Te  Te133  1  0.83192263  0.83837063  0.50504558  1
  Te  Te134  1  0.83048601  0.83751110  0.82957094  1
  Te  Te135  1  0.16426216  -0.00123579  0.00351270  1
  Te  Te136  1  0.16610692  0.00772695  0.33061421  1
  Te  Te137  1  0.16616568  -0.00636305  0.66159163  1
  Te  Te138  1  0.16197473  0.32665484  0.00063002  1
  Te  Te139  1  0.17374040  0.33300045  0.33292863  1
  Te  Te140  1  0.16667879  0.33332472  0.66718231  1
  Te  Te141  1  0.16302005  0.66966628  0.00260067  1
  Te  Te142  1  0.17161446  0.66327433  0.33149859  1
  Te  Te143  1  0.16704405  0.67102152  0.66632096  1
  Te  Te144  1  0.50284243  0.00335375  0.00087473  1
  Te  Te145  1  0.50350777  0.00574362  0.33122289  1
  Te  Te146  1  0.50813219  -0.00022818  0.66910426  1
  Te  Te147  1  0.49952432  0.33059759  -0.00053204  1
  Te  Te148  1  0.49568403  0.33136917  0.32981603  1
  Te  Te149  1  0.49633545  0.33327831  0.66853988  1
  Te  Te150  1  0.50145141  0.66372403  0.00013113  1
  Te  Te151  1  0.49442576  0.66288283  0.33028815  1
  Te  Te152  1  0.49746353  0.66584354  0.66949745  1
  Te  Te153  1  0.83369168  0.00431967  -0.00312445  1
  Te  Te154  1  0.82745206  0.00155069  0.33642076  1
  Te  Te155  1  0.83399972  -0.00230886  0.66931468  1
  Te  Te156  1  0.83667081  0.32678032  0.00071794  1
  Te  Te157  1  0.83192355  0.33350963  0.33355281  1
  Te  Te158  1  0.83553837  0.33209834  0.66606363  1
  Te  Te159  1  0.83844930  0.66548592  0.00512695  1
  Te  Te160  1  0.83022009  0.66639152  0.32653259  1
  Te  Te161  1  0.83930876  0.67259876  0.66621004  1
  Te  Te162  1  0.00771457  0.16800122  0.00036511  1
  Te  Te163  1  0.00523025  0.16760571  0.33282700  1
  Te  Te164  1  -0.00364240  0.17277314  0.66772633  1
  Te  Te165  1  0.00424248  0.49640472  -0.00506848  1
  Te  Te166  1  0.00641589  0.49945475  0.33450048  1
  Te  Te167  1  0.00151016  0.49767432  0.67264928  1
  Te  Te168  1  0.00119450  0.83405870  -0.00195862  1
  Te  Te169  1  -0.00232425  0.83289591  0.33457968  1
  Te  Te170  1  0.00201876  0.83399224  0.66906122  1
  Te  Te171  1  0.33414000  0.16722321  -0.00348232  1
  Te  Te172  1  0.33424443  0.16641315  0.33234704  1
  Te  Te173  1  0.33225939  0.16874327  0.67127364  1
  Te  Te174  1  0.32411714  0.49839422  -0.00032543  1
  Te  Te175  1  0.33248076  0.49996983  0.33488323  1
  Te  Te176  1  0.33187235  0.49803766  0.66116064  1
  Te  Te177  1  0.32599155  0.83236745  -0.00154778  1
  Te  Te178  1  0.33378180  0.82668324  0.33038890  1
  Te  Te179  1  0.33047669  0.83189773  0.66894849  1
  Te  Te180  1  0.66425413  0.16436302  -0.00279297  1
  Te  Te181  1  0.66205265  0.16146438  0.33471668  1
  Te  Te182  1  0.67312410  0.16461234  0.67298025  1
  Te  Te183  1  0.66793934  0.49487158  -0.00061905  1
  Te  Te184  1  0.66229869  0.49826972  0.33367278  1
  Te  Te185  1  0.66797439  0.50758585  0.66636822  1
  Te  Te186  1  0.66798537  0.83783154  -0.00288261  1
  Te  Te187  1  0.66383371  0.83887328  0.33150525  1
  Te  Te188  1  0.66533584  0.83390102  0.67028277  1
  Te  Te189  1  0.00060585  -0.00715973  0.16226761  1
  Te  Te190  1  0.00155207  -0.00510673  0.49811392  1
  Te  Te191  1  0.00117440  -0.00598523  0.83949567  1
  Te  Te192  1  -0.00238800  0.33442013  0.16311501  1
  Te  Te193  1  -0.00086449  0.33441935  0.50244974  1
  Te  Te194  1  -0.00068621  0.32945982  0.83338291  1
  Te  Te195  1  0.00458813  0.67214460  0.16478938  1
  Te  Te196  1  0.00685360  0.67333996  0.50341372  1
  Te  Te197  1  -0.00057037  0.67080696  0.83439366  1
  Te  Te198  1  0.33442076  -0.00135942  0.16704045  1
  Te  Te199  1  0.32939076  -0.00356367  0.49984465  1
  Te  Te200  1  0.33864200  -0.00219681  0.83233868  1
  Te  Te201  1  0.33876636  0.32877844  0.16999735  1
  Te  Te202  1  0.33495972  0.33086584  0.50021339  1
  Te  Te203  1  0.33771328  0.33423915  0.82936172  1
  Te  Te204  1  0.33210230  0.66925168  0.16643500  1
  Te  Te205  1  0.33090898  0.66895093  0.50149788  1
  Te  Te206  1  0.33812677  0.66836796  0.82974678  1
  Te  Te207  1  0.66510427  -0.00537744  0.16642628  1
  Te  Te208  1  0.66887482  -0.00014691  0.50022637  1
  Te  Te209  1  0.66521401  -0.00111809  0.83491128  1
  Te  Te210  1  0.66004993  0.33438093  0.15928569  1
  Te  Te211  1  0.65828447  0.33286164  0.50046565  1
  Te  Te212  1  0.66134199  0.33430112  0.83749897  1
  Te  Te213  1  0.65670463  0.67412490  0.16650690  1
  Te  Te214  1  0.66783231  0.66754867  0.50640459  1
  Te  Te215  1  0.66387066  0.66893135  0.83000251  1
