# generated using pymatgen
data_AgSbTe2
_symmetry_space_group_name_H-M   'P 1'
_cell_length_a   18.32328589
_cell_length_b   18.33069761
_cell_length_c   18.32519656
_cell_angle_alpha   89.99987498
_cell_angle_beta   89.99813977
_cell_angle_gamma   90.00025478
_symmetry_Int_Tables_number   1
_chemical_formula_structural   AgSbTe2
_chemical_formula_sum   'Ag54 Sb54 Te108'
_cell_volume   6155.04159650
_cell_formula_units_Z   54
loop_
 _symmetry_equiv_pos_site_id
 _symmetry_equiv_pos_as_xyz
  1  'x, y, z'
loop_
 _atom_site_type_symbol
 _atom_site_label
 _atom_site_symmetry_multiplicity
 _atom_site_fract_x
 _atom_site_fract_y
 _atom_site_fract_z
 _atom_site_occupancy
  Ag  Ag0  1  0.00963135  0.66005208  0.33724193  1
  Ag  Ag1  1  -0.00465965  0.50090628  0.17584903  1
  Ag  Ag2  1  0.66325211  -0.00020441  0.33132767  1
  Ag  Ag3  1  0.83675856  0.00040575  0.83334138  1
  Ag  Ag4  1  0.00451155  0.83613400  0.16683393  1
  Ag  Ag5  1  -0.00139549  0.17607856  0.49514761  1
  Ag  Ag6  1  0.33148209  0.34245212  0.66805300  1
  Ag  Ag7  1  -0.00599650  0.16373075  0.17213579  1
  Ag  Ag8  1  0.67065174  0.33633558  0.32968391  1
  Ag  Ag9  1  0.16195232  0.16770573  0.66426158  1
  Ag  Ag10  1  0.83095100  0.33278550  0.83049342  1
  Ag  Ag11  1  0.65677618  0.66381771  0.66490688  1
  Ag  Ag12  1  0.83756895  0.00156049  0.49861234  1
  Ag  Ag13  1  0.33358350  0.82723880  0.16966429  1
  Ag  Ag14  1  0.65931562  0.50444920  0.82990177  1
  Ag  Ag15  1  0.49813684  0.16553992  0.32991489  1
  Ag  Ag16  1  -0.00367107  -0.00073042  0.00725770  1
  Ag  Ag17  1  0.49200885  0.66871476  0.16759962  1
  Ag  Ag18  1  0.15909033  -0.00409394  0.16909109  1
  Ag  Ag19  1  0.33527531  0.33582085  0.33206719  1
  Ag  Ag20  1  0.33663996  0.66710318  0.00170202  1
  Ag  Ag21  1  0.50175129  0.50775886  0.67241372  1
  Ag  Ag22  1  0.67529933  0.17092575  0.17164944  1
  Ag  Ag23  1  0.33949359  0.66450658  0.66881259  1
  Ag  Ag24  1  0.33546711  0.82804426  0.48879995  1
  Ag  Ag25  1  0.83321142  0.50044165  0.66601500  1
  Ag  Ag26  1  0.34050343  0.50663045  0.82869811  1
  Ag  Ag27  1  0.16480555  0.50348554  0.33283187  1
  Ag  Ag28  1  -0.00188360  -0.00242552  0.66756258  1
  Ag  Ag29  1  -0.00214097  0.49878206  0.49497310  1
  Ag  Ag30  1  0.34337177  0.82583923  0.83349418  1
  Ag  Ag31  1  0.49656244  0.82984144  0.33146716  1
  Ag  Ag32  1  0.33241629  0.66990380  0.33157093  1
  Ag  Ag33  1  0.49617934  0.82414953  0.67317852  1
  Ag  Ag34  1  0.00000932  0.66473970  0.65637331  1
  Ag  Ag35  1  0.16338515  0.66659344  0.49428180  1
  Ag  Ag36  1  0.67138621  0.49837066  0.17040524  1
  Ag  Ag37  1  0.83904445  0.00753604  0.16757627  1
  Ag  Ag38  1  0.83486949  0.16615838  0.00461457  1
  Ag  Ag39  1  0.65968154  0.82423510  0.83092516  1
  Ag  Ag40  1  0.66245805  0.66510433  0.33462356  1
  Ag  Ag41  1  0.50114028  0.34588584  0.83104600  1
  Ag  Ag42  1  0.49672227  0.66460413  0.82810319  1
  Ag  Ag43  1  0.84030068  0.66129267  0.50138956  1
  Ag  Ag44  1  0.33695180  -0.01238691  0.32961128  1
  Ag  Ag45  1  -0.00328810  0.83395219  0.83355493  1
  Ag  Ag46  1  0.33251320  0.16404044  0.17144478  1
  Ag  Ag47  1  0.49693282  0.82958212  -0.00148853  1
  Ag  Ag48  1  0.33594661  0.33968482  0.00308646  1
  Ag  Ag49  1  -0.00218330  0.33499519  0.65728506  1
  Ag  Ag50  1  0.83550765  0.32922292  0.17054039  1
  Ag  Ag51  1  0.17317875  0.67014603  0.17466537  1
  Ag  Ag52  1  0.83990002  0.33433527  0.49730813  1
  Ag  Ag53  1  -0.00598572  0.33982106  0.33771109  1
  Sb  Sb54  1  0.66847496  0.16878807  0.83708376  1
  Sb  Sb55  1  0.16829104  0.50084601  0.00659610  1
  Sb  Sb56  1  0.83539141  0.66402264  0.17342219  1
  Sb  Sb57  1  0.83911849  0.49902633  0.33814766  1
  Sb  Sb58  1  0.49436361  0.16877637  0.66307840  1
  Sb  Sb59  1  0.32820425  0.50534865  0.50251191  1
  Sb  Sb60  1  0.33511311  0.16908132  0.83811660  1
  Sb  Sb61  1  0.83138653  0.83695718  -0.00046524  1
  Sb  Sb62  1  0.16087311  0.33784104  0.49894561  1
  Sb  Sb63  1  0.50199993  0.16416180  0.00758587  1
  Sb  Sb64  1  0.32819148  -0.00501422  0.66252705  1
  Sb  Sb65  1  0.67256629  -0.00067986  0.00509636  1
  Sb  Sb66  1  0.16701474  0.33439300  0.83078349  1
  Sb  Sb67  1  -0.00127419  -0.00022809  0.33083182  1
  Sb  Sb68  1  0.49742809  0.66743674  0.50143085  1
  Sb  Sb69  1  0.83272602  0.49588039  -0.00314382  1
  Sb  Sb70  1  0.66031388  0.66775256  0.00001545  1
  Sb  Sb71  1  0.16536432  0.49995633  0.66183365  1
  Sb  Sb72  1  0.32897825  -0.00465048  0.00759408  1
  Sb  Sb73  1  0.83130076  0.16861141  0.32633155  1
  Sb  Sb74  1  0.49824577  0.50518735  -0.00457309  1
  Sb  Sb75  1  0.32676944  0.16536647  0.49389208  1
  Sb  Sb76  1  0.66491564  0.83201793  0.16611384  1
  Sb  Sb77  1  0.00003725  0.32968101  0.00274054  1
  Sb  Sb78  1  0.16338650  0.16587917  0.00144210  1
  Sb  Sb79  1  0.66982988  0.34064115  0.66402921  1
  Sb  Sb80  1  0.16873154  0.83317618  0.66662944  1
  Sb  Sb81  1  0.33366602  0.50428226  0.16659614  1
  Sb  Sb82  1  0.83266632  0.82755419  0.66690263  1
  Sb  Sb83  1  0.50274213  0.33472282  0.50148354  1
  Sb  Sb84  1  -0.00137913  0.50432934  0.82957107  1
  Sb  Sb85  1  0.00222443  0.82851095  0.49660443  1
  Sb  Sb86  1  0.82970037  0.83307251  0.33294081  1
  Sb  Sb87  1  0.16172278  -0.00240654  0.83576157  1
  Sb  Sb88  1  0.67400879  -0.00648779  0.66321960  1
  Sb  Sb89  1  0.17215631  0.82566150  0.33101821  1
  Sb  Sb90  1  0.66392334  0.33392504  0.00361897  1
  Sb  Sb91  1  0.16870675  0.16995401  0.33413800  1
  Sb  Sb92  1  -0.00224905  0.16382307  0.83242401  1
  Sb  Sb93  1  0.16311691  0.33461302  0.16969199  1
  Sb  Sb94  1  0.49811439  0.50313301  0.33554650  1
  Sb  Sb95  1  0.17394442  0.66731282  0.83088897  1
  Sb  Sb96  1  0.82806134  0.66633217  0.82648806  1
  Sb  Sb97  1  0.50052547  -0.00537644  0.16991391  1
  Sb  Sb98  1  0.67356576  0.50221669  0.49881483  1
  Sb  Sb99  1  0.83797630  0.17164016  0.66784096  1
  Sb  Sb100  1  0.16219705  -0.00455791  0.49461634  1
  Sb  Sb101  1  0.50534558  -0.00765182  0.83258341  1
  Sb  Sb102  1  0.66283817  0.83009734  0.50171372  1
  Sb  Sb103  1  0.00627086  0.67174398  0.00393034  1
  Sb  Sb104  1  0.17218435  0.83260838  0.00377996  1
  Sb  Sb105  1  0.50393089  -0.00134173  0.49673270  1
  Sb  Sb106  1  0.67482720  0.16741328  0.49107937  1
  Sb  Sb107  1  0.50185042  0.33882446  0.16458613  1
  Te  Te108  1  0.16934276  0.16343824  0.16651392  1
  Te  Te109  1  0.15884448  0.16387083  0.50404030  1
  Te  Te110  1  0.16687651  0.16565905  0.82674014  1
  Te  Te111  1  0.16160799  0.50426225  0.17238802  1
  Te  Te112  1  0.15942649  0.50624324  0.49488996  1
  Te  Te113  1  0.17248747  0.50035725  0.83503344  1
  Te  Te114  1  0.16613765  0.83331250  0.16645772  1
  Te  Te115  1  0.17472166  0.82779737  0.50027374  1
  Te  Te116  1  0.16048882  0.83347205  0.83495765  1
  Te  Te117  1  0.49571714  0.16776063  0.17078380  1
  Te  Te118  1  0.50031921  0.16656033  0.49228116  1
  Te  Te119  1  0.50135645  0.16901193  0.83424249  1
  Te  Te120  1  0.50620378  0.50700620  0.16718249  1
  Te  Te121  1  0.50093455  0.49920701  0.51164149  1
  Te  Te122  1  0.50013360  0.50246656  0.83173880  1
  Te  Te123  1  0.49875961  0.82844832  0.16960128  1
  Te  Te124  1  0.49405958  0.83409688  0.49632659  1
  Te  Te125  1  0.50063813  0.83060093  0.83218521  1
  Te  Te126  1  0.83438515  0.16769709  0.16563768  1
  Te  Te127  1  0.84059026  0.16776172  0.50160781  1
  Te  Te128  1  0.83200881  0.16722860  0.83930282  1
  Te  Te129  1  0.83277395  0.49602122  0.16412445  1
  Te  Te130  1  0.83885249  0.49849061  0.50569490  1
  Te  Te131  1  0.83066083  0.49633417  0.82923287  1
  Te  Te132  1  0.83621699  0.83756643  0.16509812  1
  Te  Te133  1  0.83309310  0.83803603  0.50064343  1
  Te  Te134  1  0.83584589  0.83678752  0.83313770  1
  Te  Te135  1  0.15792695  0.00058412  0.00713870  1
  Te  Te136  1  0.17257348  0.00201589  0.32772589  1
  Te  Te137  1  0.15959823  0.00449329  0.66550443  1
  Te  Te138  1  0.17713969  0.33283317  -0.00082466  1
  Te  Te139  1  0.16853024  0.33920333  0.33369618  1
  Te  Te140  1  0.16579005  0.33061599  0.66529847  1
  Te  Te141  1  0.17567024  0.66600474  0.00834190  1
  Te  Te142  1  0.16745637  0.66476932  0.33249757  1
  Te  Te143  1  0.16298492  0.66609329  0.66330578  1
  Te  Te144  1  0.49984838  -0.00659157  -0.00044460  1
  Te  Te145  1  0.49939142  -0.00030557  0.33317121  1
  Te  Te146  1  0.50060534  -0.00407884  0.66491756  1
  Te  Te147  1  0.49401096  0.33130819  -0.00637653  1
  Te  Te148  1  0.49957337  0.33414688  0.33341688  1
  Te  Te149  1  0.49729090  0.33412645  0.67046048  1
  Te  Te150  1  0.49485329  0.67057683  0.00106638  1
  Te  Te151  1  0.50010215  0.66740243  0.33426527  1
  Te  Te152  1  0.49936887  0.66764083  0.66572349  1
  Te  Te153  1  0.83733371  0.00288763  0.00075788  1
  Te  Te154  1  0.82995521  0.00013152  0.33270410  1
  Te  Te155  1  0.83849479  0.00076821  0.66758498  1
  Te  Te156  1  0.83252145  0.32862561  0.00036725  1
  Te  Te157  1  0.83396445  0.33368760  0.33166578  1
  Te  Te158  1  0.83578805  0.33696063  0.66710762  1
  Te  Te159  1  0.83480308  0.66634262  -0.00091524  1
  Te  Te160  1  0.82620430  0.66640290  0.33984964  1
  Te  Te161  1  0.83903594  0.66219442  0.66264265  1
  Te  Te162  1  -0.00324841  0.16236230  0.00494840  1
  Te  Te163  1  0.00139810  0.17048790  0.33220819  1
  Te  Te164  1  0.00035952  0.17087438  0.66581480  1
  Te  Te165  1  0.00053463  0.49993329  0.00531730  1
  Te  Te166  1  0.00040086  0.50038276  0.33308239  1
  Te  Te167  1  -0.00128598  0.50027554  0.66600759  1
  Te  Te168  1  -0.00093461  0.83824977  0.00136861  1
  Te  Te169  1  -0.00241311  0.82773509  0.32774269  1
  Te  Te170  1  0.00055890  0.83163061  0.66727859  1
  Te  Te171  1  0.33299946  0.16781722  0.00734268  1
  Te  Te172  1  0.33528787  0.17375522  0.33084220  1
  Te  Te173  1  0.32847506  0.16693727  0.66481490  1
  Te  Te174  1  0.33365600  0.50036035  -0.00574311  1
  Te  Te175  1  0.33007452  0.49935830  0.33469093  1
  Te  Te176  1  0.33221733  0.50121461  0.66832644  1
  Te  Te177  1  0.33755794  0.83028678  0.00191716  1
  Te  Te178  1  0.33573956  0.83025990  0.32995511  1
  Te  Te179  1  0.33513699  0.83150650  0.67281863  1
  Te  Te180  1  0.67077695  0.16614744  0.00954302  1
  Te  Te181  1  0.66153422  0.16753179  0.32899035  1
  Te  Te182  1  0.66348866  0.16503056  0.66510206  1
  Te  Te183  1  0.66615716  0.50032573  0.00037243  1
  Te  Te184  1  0.66506184  0.50107001  0.33120583  1
  Te  Te185  1  0.66729955  0.50448365  0.66780407  1
  Te  Te186  1  0.65972838  0.83404297  -0.00716309  1
  Te  Te187  1  0.66015933  0.83060484  0.33299446  1
  Te  Te188  1  0.66228912  0.82678477  0.67069365  1
  Te  Te189  1  -0.00090149  0.00034248  0.16977959  1
  Te  Te190  1  -0.00241584  -0.00193159  0.50139554  1
  Te  Te191  1  -0.00304889  -0.00229965  0.82935628  1
  Te  Te192  1  -0.00287925  0.33328200  0.16671899  1
  Te  Te193  1  -0.00147003  0.33473361  0.49873983  1
  Te  Te194  1  -0.00550295  0.33460770  0.83351491  1
  Te  Te195  1  0.00041735  0.66613482  0.16932033  1
  Te  Te196  1  0.00010025  0.66744834  0.49754867  1
  Te  Te197  1  0.00126058  0.67187838  0.83440859  1
  Te  Te198  1  0.33366814  -0.00086364  0.17016645  1
  Te  Te199  1  0.33228552  -0.00445770  0.49309550  1
  Te  Te200  1  0.33244004  -0.00476860  0.83422169  1
  Te  Te201  1  0.33353662  0.33542378  0.16844259  1
  Te  Te202  1  0.33328509  0.33339384  0.50059476  1
  Te  Te203  1  0.33430769  0.33236246  0.82776171  1
  Te  Te204  1  0.33334258  0.66600572  0.16991764  1
  Te  Te205  1  0.33066406  0.66825769  0.49924043  1
  Te  Te206  1  0.33497227  0.66742609  0.82987419  1
  Te  Te207  1  0.67016777  0.00158095  0.17172787  1
  Te  Te208  1  0.67576601  -0.00015660  0.49351392  1
  Te  Te209  1  0.67424199  -0.00160733  0.83271495  1
  Te  Te210  1  0.66808481  0.33401596  0.16984551  1
  Te  Te211  1  0.67407950  0.33350894  0.49244152  1
  Te  Te212  1  0.66760277  0.33671417  0.83273213  1
  Te  Te213  1  0.66724306  0.66381173  0.16930984  1
  Te  Te214  1  0.67425717  0.66664626  0.50000172  1
  Te  Te215  1  0.66243412  0.66492098  0.83223610  1
