# generated using pymatgen
data_AgSbTe2
_symmetry_space_group_name_H-M   'P 1'
_cell_length_a   18.32414036
_cell_length_b   18.31991918
_cell_length_c   18.32513099
_cell_angle_alpha   89.99962358
_cell_angle_beta   89.99930209
_cell_angle_gamma   89.99823991
_symmetry_Int_Tables_number   1
_chemical_formula_structural   AgSbTe2
_chemical_formula_sum   'Ag54 Sb54 Te108'
_cell_volume   6151.68728469
_cell_formula_units_Z   54
loop_
 _symmetry_equiv_pos_site_id
 _symmetry_equiv_pos_as_xyz
  1  'x, y, z'
loop_
 _atom_site_type_symbol
 _atom_site_label
 _atom_site_symmetry_multiplicity
 _atom_site_fract_x
 _atom_site_fract_y
 _atom_site_fract_z
 _atom_site_occupancy
  Ag  Ag0  1  0.33799563  -0.00240416  0.66508644  1
  Ag  Ag1  1  0.17475092  0.50464361  0.65932393  1
  Ag  Ag2  1  0.65742512  -0.00061647  0.33237186  1
  Ag  Ag3  1  0.49407807  0.49701508  0.32933586  1
  Ag  Ag4  1  0.49972346  0.50261770  0.01019257  1
  Ag  Ag5  1  0.49848979  0.00047590  0.49121813  1
  Ag  Ag6  1  0.66164619  0.34480135  0.66260750  1
  Ag  Ag7  1  0.16786441  -0.01004904  0.83705374  1
  Ag  Ag8  1  0.16395326  0.83231008  0.00171971  1
  Ag  Ag9  1  0.83478893  0.83162324  0.00806339  1
  Ag  Ag10  1  0.49669339  0.50166509  0.66453074  1
  Ag  Ag11  1  0.16590597  0.67079152  0.82924300  1
  Ag  Ag12  1  0.66472899  0.50165037  0.49701301  1
  Ag  Ag13  1  0.00309537  0.66609896  0.66440850  1
  Ag  Ag14  1  0.83115650  0.67190631  0.83039795  1
  Ag  Ag15  1  0.00085729  0.15693567  0.16739017  1
  Ag  Ag16  1  0.33877304  0.34076518  0.33454988  1
  Ag  Ag17  1  0.33152113  0.83197778  0.83327297  1
  Ag  Ag18  1  0.49824628  0.00158890  0.17494460  1
  Ag  Ag19  1  0.33996216  -0.00139554  0.33096558  1
  Ag  Ag20  1  0.17062549  0.34561716  0.49434781  1
  Ag  Ag21  1  0.16364640  0.66841460  0.17289790  1
  Ag  Ag22  1  0.49755100  0.16903239  0.33308331  1
  Ag  Ag23  1  0.17482889  0.50433032  0.33581294  1
  Ag  Ag24  1  0.83470551  -0.00757166  0.83549005  1
  Ag  Ag25  1  0.66783666  0.66539091  0.67010073  1
  Ag  Ag26  1  0.66167869  -0.00442906  0.66387132  1
  Ag  Ag27  1  0.84041763  0.66827686  0.50124523  1
  Ag  Ag28  1  0.17461363  0.34453231  0.17306729  1
  Ag  Ag29  1  0.67513807  0.82776598  0.16399804  1
  Ag  Ag30  1  0.16960048  -0.00762337  0.16509126  1
  Ag  Ag31  1  0.65758102  0.33902375  0.33537487  1
  Ag  Ag32  1  0.33668062  0.34296462  0.66017347  1
  Ag  Ag33  1  -0.00067681  0.82747957  0.49291863  1
  Ag  Ag34  1  0.83125550  -0.01234884  0.16452979  1
  Ag  Ag35  1  0.32774856  0.65874408  0.33519367  1
  Ag  Ag36  1  0.49656670  0.34019460  0.17354790  1
  Ag  Ag37  1  -0.00296987  0.16637146  0.83296945  1
  Ag  Ag38  1  -0.01089853  0.83288898  0.17051965  1
  Ag  Ag39  1  0.83398442  0.67506492  0.16964707  1
  Ag  Ag40  1  0.00073060  0.50962142  0.83039431  1
  Ag  Ag41  1  0.32805191  0.66098524  0.66533534  1
  Ag  Ag42  1  0.50499492  0.66559934  0.82881264  1
  Ag  Ag43  1  0.33856912  0.50068088  0.17225806  1
  Ag  Ag44  1  0.83316292  0.83089213  0.32162857  1
  Ag  Ag45  1  0.33354463  0.16662911  0.49764560  1
  Ag  Ag46  1  0.66982868  0.82852155  0.83658388  1
  Ag  Ag47  1  0.65777856  0.50619191  0.17350015  1
  Ag  Ag48  1  0.16286236  0.66370582  0.49959519  1
  Ag  Ag49  1  0.83252752  0.33665630  0.83052400  1
  Ag  Ag50  1  0.33239779  -0.00336078  0.00747751  1
  Ag  Ag51  1  0.00597928  0.66821437  0.33810648  1
  Ag  Ag52  1  0.83278410  0.16565412  0.66940848  1
  Ag  Ag53  1  0.66728452  0.66906820  -0.00357556  1
  Sb  Sb54  1  0.33635875  0.67069060  -0.00138575  1
  Sb  Sb55  1  -0.00351895  0.66837791  -0.00057030  1
  Sb  Sb56  1  0.32836767  0.15862330  0.82611945  1
  Sb  Sb57  1  0.49460669  0.33323635  0.49311149  1
  Sb  Sb58  1  0.83441441  0.15814298  -0.00383124  1
  Sb  Sb59  1  0.17249942  0.17105267  0.33182611  1
  Sb  Sb60  1  0.00425842  0.16220967  0.49940037  1
  Sb  Sb61  1  0.00363777  0.34021964  0.33238303  1
  Sb  Sb62  1  0.00027148  0.33346086  -0.00042831  1
  Sb  Sb63  1  0.00046275  -0.00557140  0.66891975  1
  Sb  Sb64  1  0.50317670  0.83268697  0.33168724  1
  Sb  Sb65  1  0.50158026  0.16988004  0.66168967  1
  Sb  Sb66  1  0.17198183  0.50800111  0.00226604  1
  Sb  Sb67  1  0.16681601  0.16018402  0.00196712  1
  Sb  Sb68  1  0.16732656  0.82531822  0.67242341  1
  Sb  Sb69  1  0.49917826  0.16872890  0.00717559  1
  Sb  Sb70  1  0.66858977  0.50802976  0.83100949  1
  Sb  Sb71  1  0.83260176  0.83243688  0.66973457  1
  Sb  Sb72  1  0.82897348  0.16088392  0.33581174  1
  Sb  Sb73  1  0.50145863  0.82864377  0.00051802  1
  Sb  Sb74  1  0.00517176  -0.00327236  0.00105115  1
  Sb  Sb75  1  0.66213960  0.16993963  0.49971476  1
  Sb  Sb76  1  0.33536539  0.49757576  0.49529730  1
  Sb  Sb77  1  0.49966049  0.82850648  0.66743448  1
  Sb  Sb78  1  0.67093097  0.82903788  0.49930281  1
  Sb  Sb79  1  0.67179408  0.16046919  0.82885916  1
  Sb  Sb80  1  0.00214499  0.50634424  0.16422604  1
  Sb  Sb81  1  0.66578563  0.66582440  0.33349791  1
  Sb  Sb82  1  0.83397947  0.33891014  0.50379185  1
  Sb  Sb83  1  0.16354466  0.82570026  0.32737905  1
  Sb  Sb84  1  0.83223173  0.50606566  0.33246212  1
  Sb  Sb85  1  0.66967025  0.16327335  0.16857192  1
  Sb  Sb86  1  0.33037114  0.16659995  0.17345263  1
  Sb  Sb87  1  0.49924315  -0.00611648  0.83334305  1
  Sb  Sb88  1  0.66616251  0.34396896  0.00047679  1
  Sb  Sb89  1  0.33124609  0.50697129  0.83221351  1
  Sb  Sb90  1  0.33328832  0.33135154  0.00294428  1
  Sb  Sb91  1  0.33353691  0.83232430  0.16454544  1
  Sb  Sb92  1  0.82758000  0.50920462  -0.00074900  1
  Sb  Sb93  1  -0.00141668  0.83064246  0.83580504  1
  Sb  Sb94  1  0.00182052  -0.00654622  0.32915786  1
  Sb  Sb95  1  0.83049423  0.50271407  0.66824227  1
  Sb  Sb96  1  0.17287881  -0.00519199  0.49915225  1
  Sb  Sb97  1  0.16438111  0.17025227  0.66702976  1
  Sb  Sb98  1  0.00116307  0.50738673  0.50403669  1
  Sb  Sb99  1  0.50039259  0.66503011  0.16584956  1
  Sb  Sb100  1  0.00093035  0.33988788  0.66776750  1
  Sb  Sb101  1  0.49825204  0.66664302  0.50348423  1
  Sb  Sb102  1  0.82846459  -0.00636035  0.50027474  1
  Sb  Sb103  1  0.32877287  0.83369228  0.50248404  1
  Sb  Sb104  1  0.83144797  0.33391186  0.16375782  1
  Sb  Sb105  1  0.66302633  -0.00819961  0.00236068  1
  Sb  Sb106  1  0.16425833  0.33670369  0.83313981  1
  Sb  Sb107  1  0.50384113  0.34061155  0.83336684  1
  Te  Te108  1  0.16066557  0.16082261  0.16654699  1
  Te  Te109  1  0.17124207  0.16816455  0.49963304  1
  Te  Te110  1  0.15953965  0.16396992  0.83450240  1
  Te  Te111  1  0.16750005  0.50368465  0.16818820  1
  Te  Te112  1  0.16622850  0.50333403  0.49973532  1
  Te  Te113  1  0.16360804  0.50373623  0.83372225  1
  Te  Te114  1  0.16912469  0.83208562  0.16230048  1
  Te  Te115  1  0.16106523  0.82637617  0.49881556  1
  Te  Te116  1  0.16478455  0.83270102  0.83764454  1
  Te  Te117  1  0.50065460  0.16463224  0.17256470  1
  Te  Te118  1  0.49566644  0.16161192  0.49512060  1
  Te  Te119  1  0.49908171  0.16973979  0.83582024  1
  Te  Te120  1  0.49900247  0.50190107  0.16970471  1
  Te  Te121  1  0.50502606  0.49986723  0.50280762  1
  Te  Te122  1  0.49959740  0.50563602  0.82788388  1
  Te  Te123  1  0.50472440  0.83931972  0.16513105  1
  Te  Te124  1  0.50088470  0.84102480  0.50006121  1
  Te  Te125  1  0.50227507  0.82587663  0.83394827  1
  Te  Te126  1  0.84020085  0.16421683  0.16631670  1
  Te  Te127  1  0.83576896  0.16694057  0.50642758  1
  Te  Te128  1  0.83685763  0.16008897  0.83089459  1
  Te  Te129  1  0.83082630  0.50373763  0.16516725  1
  Te  Te130  1  0.82766562  0.50712185  0.50031805  1
  Te  Te131  1  0.83790231  0.50245194  0.83422651  1
  Te  Te132  1  0.83211067  0.83154173  0.16505856  1
  Te  Te133  1  0.83748917  0.82694228  0.49802604  1
  Te  Te134  1  0.83271699  0.83299177  0.83549182  1
  Te  Te135  1  0.17156600  -0.00541306  -0.00076960  1
  Te  Te136  1  0.17087788  0.00107076  0.32992568  1
  Te  Te137  1  0.17058676  0.00119673  0.66912358  1
  Te  Te138  1  0.16807706  0.33413921  0.00848787  1
  Te  Te139  1  0.16938082  0.33803790  0.33243475  1
  Te  Te140  1  0.17059233  0.33910356  0.66593199  1
  Te  Te141  1  0.16735774  0.67174126  -0.00177487  1
  Te  Te142  1  0.16812866  0.66512160  0.33200095  1
  Te  Te143  1  0.16833804  0.66455085  0.66844633  1
  Te  Te144  1  0.49422288  0.00080769  0.00325061  1
  Te  Te145  1  0.50044282  -0.00346080  0.33189307  1
  Te  Te146  1  0.50078415  0.00228721  0.66782806  1
  Te  Te147  1  0.49961830  0.34001416  0.00697749  1
  Te  Te148  1  0.49968043  0.33565361  0.33230189  1
  Te  Te149  1  0.50030442  0.33686002  0.66571707  1
  Te  Te150  1  0.50398651  0.66229968  -0.00539728  1
  Te  Te151  1  0.49264816  0.66079776  0.33496306  1
  Te  Te152  1  0.49984018  0.66268880  0.66812821  1
  Te  Te153  1  0.83119433  -0.00699656  -0.00045697  1
  Te  Te154  1  0.83145940  -0.00443010  0.33099727  1
  Te  Te155  1  0.83192713  0.00146582  0.66861264  1
  Te  Te156  1  0.83243110  0.33250535  -0.00769488  1
  Te  Te157  1  0.82782733  0.33150521  0.33347012  1
  Te  Te158  1  0.83059952  0.33198211  0.66984808  1
  Te  Te159  1  0.82951680  0.67160591  -0.00018006  1
  Te  Te160  1  0.83264489  0.66996246  0.33147703  1
  Te  Te161  1  0.83110658  0.66651620  0.66827842  1
  Te  Te162  1  -0.00004966  0.16633252  0.00060503  1
  Te  Te163  1  -0.00123926  0.16793807  0.32972484  1
  Te  Te164  1  -0.00472624  0.16690048  0.66805384  1
  Te  Te165  1  0.00064060  0.50036934  -0.00914232  1
  Te  Te166  1  0.00415015  0.50809204  0.33303790  1
  Te  Te167  1  0.00406559  0.50600775  0.67034765  1
  Te  Te168  1  -0.00037139  0.83301548  0.00835450  1
  Te  Te169  1  -0.00344637  0.82792070  0.33046460  1
  Te  Te170  1  0.00001564  0.82613353  0.66118926  1
  Te  Te171  1  0.33403429  0.15800393  -0.00231348  1
  Te  Te172  1  0.33818754  0.16516016  0.33689068  1
  Te  Te173  1  0.33336373  0.16565369  0.66012266  1
  Te  Te174  1  0.33965614  0.49913957  0.00619530  1
  Te  Te175  1  0.33332000  0.49930402  0.33181607  1
  Te  Te176  1  0.33390460  0.50098937  0.66724707  1
  Te  Te177  1  0.33171950  0.83755687  -0.00534443  1
  Te  Te178  1  0.33415522  0.83598391  0.33366703  1
  Te  Te179  1  0.33355038  0.83471927  0.67152743  1
  Te  Te180  1  0.66670612  0.16911792  -0.00188485  1
  Te  Te181  1  0.66093818  0.16498346  0.33385090  1
  Te  Te182  1  0.67014057  0.16279797  0.66528161  1
  Te  Te183  1  0.66078464  0.50825246  0.00552157  1
  Te  Te184  1  0.66640060  0.49852515  0.33323355  1
  Te  Te185  1  0.66458310  0.50160592  0.66604956  1
  Te  Te186  1  0.66832193  0.82836772  -0.00096961  1
  Te  Te187  1  0.67062431  0.83645878  0.33128534  1
  Te  Te188  1  0.66615151  0.83300446  0.66910564  1
  Te  Te189  1  0.00026314  -0.00294207  0.16684577  1
  Te  Te190  1  0.00118710  -0.00705419  0.49917340  1
  Te  Te191  1  -0.00081694  0.00086557  0.83339434  1
  Te  Te192  1  0.00264268  0.33365353  0.16712630  1
  Te  Te193  1  0.00815313  0.33202751  0.49963234  1
  Te  Te194  1  -0.00480141  0.32818851  0.83308915  1
  Te  Te195  1  0.00107480  0.66897420  0.16710302  1
  Te  Te196  1  0.00042166  0.66712942  0.50049216  1
  Te  Te197  1  0.00039025  0.66797252  0.83134170  1
  Te  Te198  1  0.33204058  0.00053925  0.16941950  1
  Te  Te199  1  0.33591554  0.00067662  0.50102093  1
  Te  Te200  1  0.33140757  -0.00502949  0.82647223  1
  Te  Te201  1  0.33365417  0.33295145  0.16915598  1
  Te  Te202  1  0.32994923  0.33192732  0.49997454  1
  Te  Te203  1  0.33307096  0.33154374  0.82871508  1
  Te  Te204  1  0.33092545  0.66461752  0.16834629  1
  Te  Te205  1  0.32921924  0.66775192  0.50196210  1
  Te  Te206  1  0.32852043  0.67067363  0.83067454  1
  Te  Te207  1  0.66906710  -0.00214449  0.16820347  1
  Te  Te208  1  0.66229812  -0.00048599  0.50121396  1
  Te  Te209  1  0.66816506  -0.00649254  0.83106928  1
  Te  Te210  1  0.66417663  0.33629059  0.16910745  1
  Te  Te211  1  0.66802188  0.33746187  0.50156743  1
  Te  Te212  1  0.67192026  0.33353957  0.82883675  1
  Te  Te213  1  0.66713985  0.66719628  0.16830599  1
  Te  Te214  1  0.66654062  0.66341096  0.50437125  1
  Te  Te215  1  0.66885852  0.66761762  0.83077267  1
