# generated using pymatgen
data_AgSbTe2
_symmetry_space_group_name_H-M   'P 1'
_cell_length_a   18.31594166
_cell_length_b   18.31443166
_cell_length_c   18.31048111
_cell_angle_alpha   89.99883220
_cell_angle_beta   90.00051071
_cell_angle_gamma   90.00166110
_symmetry_Int_Tables_number   1
_chemical_formula_structural   AgSbTe2
_chemical_formula_sum   'Ag54 Sb54 Te108'
_cell_volume   6142.17877580
_cell_formula_units_Z   54
loop_
 _symmetry_equiv_pos_site_id
 _symmetry_equiv_pos_as_xyz
  1  'x, y, z'
loop_
 _atom_site_type_symbol
 _atom_site_label
 _atom_site_symmetry_multiplicity
 _atom_site_fract_x
 _atom_site_fract_y
 _atom_site_fract_z
 _atom_site_occupancy
  Ag  Ag0  1  0.00596984  0.50599677  0.83471789  1
  Ag  Ag1  1  0.01335610  0.83031969  0.83949598  1
  Ag  Ag2  1  0.67120195  0.83438408  0.16515199  1
  Ag  Ag3  1  0.49923989  0.49433464  0.67090622  1
  Ag  Ag4  1  0.16306774  0.33639835  0.49991652  1
  Ag  Ag5  1  0.33162792  0.83254667  0.16928812  1
  Ag  Ag6  1  0.16648719  0.50186759  0.32772528  1
  Ag  Ag7  1  0.66693011  0.67125047  0.66775012  1
  Ag  Ag8  1  0.00678013  0.33516554  0.66182643  1
  Ag  Ag9  1  0.00187480  0.34104271  0.33433122  1
  Ag  Ag10  1  0.82985848  0.67324891  0.17044062  1
  Ag  Ag11  1  0.33208252  0.66745385  0.00826444  1
  Ag  Ag12  1  0.67080559  0.67106611  0.32993303  1
  Ag  Ag13  1  0.00658448  -0.00857531  0.32827600  1
  Ag  Ag14  1  -0.00050365  0.83443454  0.16577545  1
  Ag  Ag15  1  0.49165748  0.50143014  0.00446987  1
  Ag  Ag16  1  0.65901403  0.15934897  0.83479718  1
  Ag  Ag17  1  0.16910587  -0.00601035  0.17309620  1
  Ag  Ag18  1  0.49398112  0.33502421  0.16880401  1
  Ag  Ag19  1  0.66537258  -0.00815752  0.32933507  1
  Ag  Ag20  1  0.33719519  -0.00073656  0.66679988  1
  Ag  Ag21  1  0.33031681  -0.00886485  0.33117710  1
  Ag  Ag22  1  0.83395041  0.83245357  0.00522026  1
  Ag  Ag23  1  0.83610341  0.66529223  0.48759385  1
  Ag  Ag24  1  0.66417567  0.66989151  0.00501732  1
  Ag  Ag25  1  0.83259468  -0.00817773  0.16989376  1
  Ag  Ag26  1  0.32879651  0.83482684  0.49222794  1
  Ag  Ag27  1  0.16696407  0.34002663  0.83034842  1
  Ag  Ag28  1  0.49586739  0.50549736  0.32770036  1
  Ag  Ag29  1  0.33819284  0.16025553  0.83442752  1
  Ag  Ag30  1  0.49936070  -0.00080703  0.82933268  1
  Ag  Ag31  1  0.17102691  0.83159624  0.67139645  1
  Ag  Ag32  1  0.84083859  0.33824708  0.49410219  1
  Ag  Ag33  1  0.17192123  0.50654770  0.00549360  1
  Ag  Ag34  1  0.33198903  0.50168438  0.16802891  1
  Ag  Ag35  1  0.49611118  0.82902079  0.32964037  1
  Ag  Ag36  1  0.82891587  0.16079403  0.00427927  1
  Ag  Ag37  1  0.33238432  0.32940681  0.66765784  1
  Ag  Ag38  1  0.33037922  0.83625211  0.83462994  1
  Ag  Ag39  1  0.33586752  0.16764604  0.16303136  1
  Ag  Ag40  1  0.83466245  0.33332603  0.17171060  1
  Ag  Ag41  1  0.49938991  0.16949148  0.67161650  1
  Ag  Ag42  1  0.16897411  0.82681009  -0.00174601  1
  Ag  Ag43  1  0.65944840  -0.00141609  0.66818560  1
  Ag  Ag44  1  0.16571889  0.66914644  0.49692869  1
  Ag  Ag45  1  -0.00036561  0.66581311  0.33205079  1
  Ag  Ag46  1  0.16853728  0.33517241  0.16944361  1
  Ag  Ag47  1  0.33164902  0.67122166  0.32757181  1
  Ag  Ag48  1  0.17060693  -0.01036031  0.49081842  1
  Ag  Ag49  1  0.66297261  0.83584751  0.83793365  1
  Ag  Ag50  1  0.66704758  0.16226310  0.16254359  1
  Ag  Ag51  1  0.83868612  0.50362973  0.33011106  1
  Ag  Ag52  1  0.16682246  0.66925442  0.83365851  1
  Ag  Ag53  1  0.66119698  0.33117140  0.66709080  1
  Sb  Sb54  1  0.49606250  0.83342903  0.66588139  1
  Sb  Sb55  1  0.66405162  0.83168014  0.49718897  1
  Sb  Sb56  1  0.66842065  0.50239889  0.83298268  1
  Sb  Sb57  1  0.49849177  0.82745628  0.00472872  1
  Sb  Sb58  1  0.17026805  0.50060364  0.66690743  1
  Sb  Sb59  1  0.17175020  -0.00560566  0.83407980  1
  Sb  Sb60  1  0.49884345  0.00229506  0.16552250  1
  Sb  Sb61  1  0.49913453  0.16689739  0.33356869  1
  Sb  Sb62  1  0.49551678  0.33133777  0.83306398  1
  Sb  Sb63  1  0.66645412  -0.00623326  0.00240314  1
  Sb  Sb64  1  0.33202332  0.16206572  0.49984159  1
  Sb  Sb65  1  0.17428131  0.16667517  0.66870233  1
  Sb  Sb66  1  0.83661068  0.66854576  0.83741910  1
  Sb  Sb67  1  0.00303304  0.66883564  0.00597644  1
  Sb  Sb68  1  0.33074013  0.50554964  0.49401729  1
  Sb  Sb69  1  0.50240476  0.17057747  -0.00207087  1
  Sb  Sb70  1  0.83720636  0.33315797  0.83342640  1
  Sb  Sb71  1  0.00121309  0.49949112  0.49891554  1
  Sb  Sb72  1  0.00746433  0.83147953  0.49379488  1
  Sb  Sb73  1  0.66174970  0.50245566  0.16736970  1
  Sb  Sb74  1  0.16771250  0.66855531  0.16802962  1
  Sb  Sb75  1  0.33260003  -0.00724229  0.00226126  1
  Sb  Sb76  1  0.82889720  -0.00139588  0.83876553  1
  Sb  Sb77  1  0.00433248  -0.00003427  0.66200368  1
  Sb  Sb78  1  0.83486984  0.50455004  0.00766540  1
  Sb  Sb79  1  0.66666088  0.33597633  -0.00064183  1
  Sb  Sb80  1  0.83057164  0.49918325  0.66143499  1
  Sb  Sb81  1  0.66712237  0.50208411  0.49928164  1
  Sb  Sb82  1  0.32805401  0.33591416  0.33303149  1
  Sb  Sb83  1  0.82525583  0.16843015  0.67248504  1
  Sb  Sb84  1  -0.00144541  0.16289698  0.16732234  1
  Sb  Sb85  1  -0.00016612  -0.00495761  0.00548390  1
  Sb  Sb86  1  0.33447650  0.66824554  0.66522864  1
  Sb  Sb87  1  0.32900144  0.50195042  0.83763720  1
  Sb  Sb88  1  0.50163837  0.66247196  0.16912408  1
  Sb  Sb89  1  0.16619735  0.16582397  0.00202591  1
  Sb  Sb90  1  0.66706999  0.16587579  0.49982949  1
  Sb  Sb91  1  -0.00164591  0.66390164  0.66351314  1
  Sb  Sb92  1  0.49657505  0.67014767  0.83309463  1
  Sb  Sb93  1  0.00184242  0.33518963  0.00413819  1
  Sb  Sb94  1  0.83171101  0.17130777  0.32653771  1
  Sb  Sb95  1  0.49732748  0.33518639  0.49893913  1
  Sb  Sb96  1  0.00277562  0.16536253  0.83306631  1
  Sb  Sb97  1  0.00515025  0.50363845  0.16737637  1
  Sb  Sb98  1  0.17301901  0.82855332  0.32929921  1
  Sb  Sb99  1  0.33203386  0.33811352  0.00077283  1
  Sb  Sb100  1  0.49829896  0.66773834  0.49724840  1
  Sb  Sb101  1  0.00050377  0.16935298  0.49956080  1
  Sb  Sb102  1  0.49415068  -0.00196959  0.50239740  1
  Sb  Sb103  1  0.83747981  -0.00293539  0.49085047  1
  Sb  Sb104  1  0.66996115  0.33642476  0.33418662  1
  Sb  Sb105  1  0.83463020  0.83296040  0.67169838  1
  Sb  Sb106  1  0.16769462  0.16729309  0.33094580  1
  Sb  Sb107  1  0.82990670  0.82505866  0.32584518  1
  Te  Te108  1  0.17162413  0.16952220  0.16376306  1
  Te  Te109  1  0.16696617  0.17326641  0.50087241  1
  Te  Te110  1  0.17227586  0.17085169  0.83622394  1
  Te  Te111  1  0.17005427  0.49985990  0.16684121  1
  Te  Te112  1  0.16737426  0.50050398  0.49504402  1
  Te  Te113  1  0.16542071  0.50078357  0.83390805  1
  Te  Te114  1  0.16821140  0.83422176  0.16323558  1
  Te  Te115  1  0.16956118  0.83179100  0.50349825  1
  Te  Te116  1  0.16964442  0.83291480  0.83577801  1
  Te  Te117  1  0.49969926  0.17270800  0.16571075  1
  Te  Te118  1  0.49990987  0.16731906  0.50978249  1
  Te  Te119  1  0.49920373  0.16510398  0.83174632  1
  Te  Te120  1  0.49622712  0.49586572  0.16730468  1
  Te  Te121  1  0.49879982  0.49989391  0.49752537  1
  Te  Te122  1  0.49972400  0.50004869  0.83271002  1
  Te  Te123  1  0.49842399  0.83583634  0.17086192  1
  Te  Te124  1  0.49152881  0.83324047  0.49196151  1
  Te  Te125  1  0.50157515  0.83709986  0.83395668  1
  Te  Te126  1  0.83087477  0.16847317  0.16325675  1
  Te  Te127  1  0.83298667  0.17304961  0.50098634  1
  Te  Te128  1  0.82778110  0.16627428  0.84170912  1
  Te  Te129  1  0.83471820  0.49702130  0.17134737  1
  Te  Te130  1  0.83349025  0.50063117  0.49331301  1
  Te  Te131  1  0.84143123  0.50003519  0.83564100  1
  Te  Te132  1  0.83097842  0.83345701  0.16508258  1
  Te  Te133  1  0.83634302  0.82737059  0.50241158  1
  Te  Te134  1  0.82582582  0.83361760  0.84076105  1
  Te  Te135  1  0.16630602  -0.00565940  0.00734570  1
  Te  Te136  1  0.16831693  0.00088420  0.33172411  1
  Te  Te137  1  0.16932929  -0.00332803  0.66388178  1
  Te  Te138  1  0.16662618  0.33698983  0.00312299  1
  Te  Te139  1  0.16384766  0.33589538  0.33223669  1
  Te  Te140  1  0.16853035  0.33416054  0.66577151  1
  Te  Te141  1  0.16849312  0.66700259  -0.00050582  1
  Te  Te142  1  0.16760340  0.66321253  0.33415723  1
  Te  Te143  1  0.16562738  0.66989868  0.66555348  1
  Te  Te144  1  0.49969924  0.00134448  -0.01031119  1
  Te  Te145  1  0.49988906  -0.00131800  0.33404383  1
  Te  Te146  1  0.49932431  -0.00008989  0.66828027  1
  Te  Te147  1  0.49995592  0.34189119  0.00614852  1
  Te  Te148  1  0.50034877  0.33700345  0.32963550  1
  Te  Te149  1  0.49904079  0.33422542  0.66619575  1
  Te  Te150  1  0.49870217  0.66040445  -0.00086331  1
  Te  Te151  1  0.49776399  0.66570697  0.33464002  1
  Te  Te152  1  0.50665275  0.66201969  0.66508664  1
  Te  Te153  1  0.83313771  -0.00334522  0.00816069  1
  Te  Te154  1  0.83172961  0.00132239  0.32906082  1
  Te  Te155  1  0.83002026  0.00112875  0.66179313  1
  Te  Te156  1  0.83363937  0.33509472  0.00664991  1
  Te  Te157  1  0.83550697  0.33779728  0.33367214  1
  Te  Te158  1  0.83290543  0.33401580  0.66387239  1
  Te  Te159  1  0.82991928  0.67116634  0.00558684  1
  Te  Te160  1  0.83299202  0.66405101  0.33143872  1
  Te  Te161  1  0.82735392  0.66550562  0.66346414  1
  Te  Te162  1  -0.00901896  0.16612647  -0.00121672  1
  Te  Te163  1  -0.00057187  0.16734210  0.33265144  1
  Te  Te164  1  -0.00191234  0.17335225  0.66818557  1
  Te  Te165  1  0.00701833  0.50223144  -0.00521405  1
  Te  Te166  1  0.00222105  0.50142671  0.33232614  1
  Te  Te167  1  -0.00039478  0.49512218  0.67380396  1
  Te  Te168  1  -0.00002340  0.83166729  0.00107460  1
  Te  Te169  1  0.00001626  0.83252676  0.32739438  1
  Te  Te170  1  0.00412965  0.83394807  0.67218421  1
  Te  Te171  1  0.33383007  0.16588822  0.00094649  1
  Te  Te172  1  0.33530772  0.16002778  0.32697694  1
  Te  Te173  1  0.33763329  0.16461943  0.66838801  1
  Te  Te174  1  0.33180548  0.50444884  0.00425031  1
  Te  Te175  1  0.33281699  0.50251967  0.32892446  1
  Te  Te176  1  0.33907147  0.49715899  0.66593778  1
  Te  Te177  1  0.33265035  0.82781474  0.00059287  1
  Te  Te178  1  0.33368038  0.83212128  0.33074513  1
  Te  Te179  1  0.33137379  0.83511872  0.67228844  1
  Te  Te180  1  0.66927510  0.16777086  0.00101605  1
  Te  Te181  1  0.66468970  0.16138159  0.32716989  1
  Te  Te182  1  0.66168711  0.16416516  0.66958691  1
  Te  Te183  1  0.66427238  0.50848939  -0.00094602  1
  Te  Te184  1  0.66276615  0.50539530  0.33284086  1
  Te  Te185  1  0.66218556  0.49926650  0.66739634  1
  Te  Te186  1  0.66493821  0.82842841  0.00171876  1
  Te  Te187  1  0.66279908  0.83205666  0.33142042  1
  Te  Te188  1  0.66597835  0.83483798  0.66778608  1
  Te  Te189  1  0.00127331  -0.00359921  0.17116403  1
  Te  Te190  1  0.00756398  -0.00013267  0.49224428  1
  Te  Te191  1  -0.00091849  -0.00700193  0.83184774  1
  Te  Te192  1  0.00186633  0.33304358  0.17195431  1
  Te  Te193  1  0.00144933  0.33394760  0.49794260  1
  Te  Te194  1  0.00568491  0.33173787  0.83125044  1
  Te  Te195  1  -0.00644012  0.67113286  0.17221834  1
  Te  Te196  1  0.00130470  0.66620063  0.49453589  1
  Te  Te197  1  0.00413693  0.66995312  0.83197405  1
  Te  Te198  1  0.33266529  -0.00261665  0.16860423  1
  Te  Te199  1  0.32816741  -0.00382316  0.50004074  1
  Te  Te200  1  0.33473985  -0.00068714  0.83161886  1
  Te  Te201  1  0.33084836  0.33284988  0.16755574  1
  Te  Te202  1  0.32849731  0.33221976  0.50413506  1
  Te  Te203  1  0.32889440  0.33142270  0.83006268  1
  Te  Te204  1  0.33423872  0.66816346  0.16752558  1
  Te  Te205  1  0.32784523  0.67269002  0.49681299  1
  Te  Te206  1  0.32832386  0.67151385  0.83358384  1
  Te  Te207  1  0.66604836  -0.00121248  0.16842650  1
  Te  Te208  1  0.66840133  -0.00092891  0.49881482  1
  Te  Te209  1  0.66491473  -0.00099353  0.83168388  1
  Te  Te210  1  0.67072562  0.33069811  0.16703469  1
  Te  Te211  1  0.66979404  0.33245099  0.50492260  1
  Te  Te212  1  0.66737116  0.33087138  0.82836323  1
  Te  Te213  1  0.66799709  0.66862936  0.16871728  1
  Te  Te214  1  0.67147487  0.66840271  0.49766368  1
  Te  Te215  1  0.66821405  0.67053416  0.83162022  1
