# generated using pymatgen
data_AgSbTe2
_symmetry_space_group_name_H-M   'P 1'
_cell_length_a   18.32325230
_cell_length_b   18.32076680
_cell_length_c   18.32614246
_cell_angle_alpha   90.00177883
_cell_angle_beta   90.00281397
_cell_angle_gamma   89.99817680
_symmetry_Int_Tables_number   1
_chemical_formula_structural   AgSbTe2
_chemical_formula_sum   'Ag54 Sb54 Te108'
_cell_volume   6152.01330260
_cell_formula_units_Z   54
loop_
 _symmetry_equiv_pos_site_id
 _symmetry_equiv_pos_as_xyz
  1  'x, y, z'
loop_
 _atom_site_type_symbol
 _atom_site_label
 _atom_site_symmetry_multiplicity
 _atom_site_fract_x
 _atom_site_fract_y
 _atom_site_fract_z
 _atom_site_occupancy
  Ag  Ag0  1  0.32942234  0.66891217  0.00477847  1
  Ag  Ag1  1  0.33566983  0.83188943  0.16506934  1
  Ag  Ag2  1  0.66217506  0.15803996  0.17290539  1
  Ag  Ag3  1  0.17615175  0.50354303  0.33444676  1
  Ag  Ag4  1  0.17167985  0.66803919  0.49607858  1
  Ag  Ag5  1  0.16484852  -0.00936537  0.83302669  1
  Ag  Ag6  1  -0.00290528  0.32928698  0.66743467  1
  Ag  Ag7  1  0.66809127  0.84224878  0.17415588  1
  Ag  Ag8  1  0.66558273  0.16693176  0.83702128  1
  Ag  Ag9  1  -0.00176265  0.83361575  0.16881164  1
  Ag  Ag10  1  0.16729034  0.16715647  0.00738514  1
  Ag  Ag11  1  0.32532068  0.82951852  0.83569111  1
  Ag  Ag12  1  0.50345908  0.16688287  0.65891666  1
  Ag  Ag13  1  0.16966593  0.67285234  0.83352349  1
  Ag  Ag14  1  0.33046143  0.66592512  0.65776722  1
  Ag  Ag15  1  0.82900229  0.83810948  0.33633741  1
  Ag  Ag16  1  -0.01000047  -0.00331666  0.33459865  1
  Ag  Ag17  1  0.83234789  0.67105761  0.49872594  1
  Ag  Ag18  1  0.17056674  0.67017976  0.16861574  1
  Ag  Ag19  1  0.00602047  0.66747212  0.00099918  1
  Ag  Ag20  1  0.83898035  0.83266846  0.65600881  1
  Ag  Ag21  1  0.49772933  0.49561400  0.32963232  1
  Ag  Ag22  1  0.82370994  0.00163681  0.17077063  1
  Ag  Ag23  1  -0.00598410  -0.00717627  0.66354555  1
  Ag  Ag24  1  0.50809778  0.17201655  0.33094654  1
  Ag  Ag25  1  0.82355944  0.32727719  0.17233302  1
  Ag  Ag26  1  0.67049721  0.32770779  0.00979323  1
  Ag  Ag27  1  0.00651453  0.83376982  0.82708630  1
  Ag  Ag28  1  0.66265429  0.66988631  0.33578581  1
  Ag  Ag29  1  0.50715542  0.32681807  0.17123294  1
  Ag  Ag30  1  0.66603349  0.00662810  0.01418979  1
  Ag  Ag31  1  0.51062894  0.00302748  0.16738250  1
  Ag  Ag32  1  0.83175638  0.33779899  0.49560212  1
  Ag  Ag33  1  0.33320755  0.33815261  0.65967241  1
  Ag  Ag34  1  0.83256287  0.50183258  0.66568565  1
  Ag  Ag35  1  -0.00932376  0.83278067  0.50215779  1
  Ag  Ag36  1  0.49945873  0.82838619  0.00510076  1
  Ag  Ag37  1  0.67201415  0.00113426  0.66455745  1
  Ag  Ag38  1  0.34204354  0.34113014  0.33340412  1
  Ag  Ag39  1  0.67294750  0.83552233  0.49015267  1
  Ag  Ag40  1  0.66272813  0.32155812  0.32683708  1
  Ag  Ag41  1  0.16091754  0.83141131  0.67022338  1
  Ag  Ag42  1  0.49735398  0.66671549  0.49512228  1
  Ag  Ag43  1  0.50554932  0.50375015  0.00824972  1
  Ag  Ag44  1  0.66722108  0.16187378  0.48559503  1
  Ag  Ag45  1  0.33443090  0.50367113  0.49597651  1
  Ag  Ag46  1  0.66750280  0.49655672  0.83708508  1
  Ag  Ag47  1  0.33527061  0.66213427  0.33552893  1
  Ag  Ag48  1  0.67121221  0.00655687  0.32541649  1
  Ag  Ag49  1  0.34255663  0.16368651  0.17013422  1
  Ag  Ag50  1  0.82166913  0.15754427  0.33162768  1
  Ag  Ag51  1  -0.00939333  0.33778306  0.00101575  1
  Ag  Ag52  1  0.82639897  0.49812645  -0.00124592  1
  Ag  Ag53  1  0.17004852  0.16754242  0.32976015  1
  Sb  Sb54  1  0.33665522  0.33734802  0.00570753  1
  Sb  Sb55  1  0.50064329  0.83599997  0.66898596  1
  Sb  Sb56  1  0.66470128  0.50152883  0.49973001  1
  Sb  Sb57  1  0.00330570  0.67242411  0.66822590  1
  Sb  Sb58  1  0.33666003  0.16323609  0.83633214  1
  Sb  Sb59  1  0.49995401  0.00025467  0.83834584  1
  Sb  Sb60  1  0.83417502  0.66914038  0.17096679  1
  Sb  Sb61  1  0.82682437  0.16386699  0.65821587  1
  Sb  Sb62  1  0.82997102  0.50021315  0.33400177  1
  Sb  Sb63  1  0.50504872  0.33614332  0.49211206  1
  Sb  Sb64  1  0.33405233  -0.00311611  0.66874184  1
  Sb  Sb65  1  0.50573073  -0.00333658  0.49396930  1
  Sb  Sb66  1  -0.00114222  0.50385070  0.16650819  1
  Sb  Sb67  1  0.33432430  0.82498821  0.49743279  1
  Sb  Sb68  1  0.49614053  0.66753504  0.83197474  1
  Sb  Sb69  1  0.66804282  0.83457967  0.83426009  1
  Sb  Sb70  1  0.50776943  0.83219260  0.32790360  1
  Sb  Sb71  1  0.33713576  -0.00137165  0.33103520  1
  Sb  Sb72  1  0.83669287  0.66759186  0.82988532  1
  Sb  Sb73  1  0.33777977  -0.00558792  0.00226137  1
  Sb  Sb74  1  0.16418906  -0.00582048  0.50173224  1
  Sb  Sb75  1  0.50263371  0.49711740  0.66427389  1
  Sb  Sb76  1  0.66508052  0.66562463  0.00614887  1
  Sb  Sb77  1  0.50182176  0.33235179  0.83826901  1
  Sb  Sb78  1  0.49716472  0.66886565  0.17161986  1
  Sb  Sb79  1  0.66706840  0.32847677  0.66387138  1
  Sb  Sb80  1  0.16616614  0.33429593  0.83379309  1
  Sb  Sb81  1  0.16388596  0.50607851  0.66279846  1
  Sb  Sb82  1  0.16945107  0.83368138  -0.00395993  1
  Sb  Sb83  1  0.83017559  -0.00434380  0.49232130  1
  Sb  Sb84  1  -0.00273436  0.16225970  0.16769144  1
  Sb  Sb85  1  0.83168395  0.33378098  0.83388570  1
  Sb  Sb86  1  -0.00325777  0.50509102  0.83254303  1
  Sb  Sb87  1  0.66495588  0.67033813  0.66044640  1
  Sb  Sb88  1  0.83434126  -0.00172760  0.83553880  1
  Sb  Sb89  1  0.66528408  0.49564690  0.16520768  1
  Sb  Sb90  1  0.16336505  0.83220458  0.33500388  1
  Sb  Sb91  1  0.16361343  0.33745208  0.49812933  1
  Sb  Sb92  1  0.00095932  0.50536236  0.50058105  1
  Sb  Sb93  1  0.16657369  0.33381507  0.16858931  1
  Sb  Sb94  1  0.33706305  0.50620679  0.82989853  1
  Sb  Sb95  1  0.50133865  0.16696479  0.00835005  1
  Sb  Sb96  1  0.00147579  0.67278375  0.33151464  1
  Sb  Sb97  1  0.83082724  0.82960818  0.00470322  1
  Sb  Sb98  1  -0.00317453  0.16249856  0.83378450  1
  Sb  Sb99  1  0.16755376  0.50222731  0.00399496  1
  Sb  Sb100  1  0.83185644  0.17105360  0.00722030  1
  Sb  Sb101  1  -0.00595286  0.16180253  0.49797634  1
  Sb  Sb102  1  -0.00347827  -0.00262794  0.00172738  1
  Sb  Sb103  1  -0.00385202  0.32825787  0.33185334  1
  Sb  Sb104  1  0.16590808  -0.00323334  0.16406770  1
  Sb  Sb105  1  0.33476800  0.50308664  0.17365820  1
  Sb  Sb106  1  0.33911960  0.17337297  0.49205364  1
  Sb  Sb107  1  0.17004714  0.16271520  0.66447026  1
  Te  Te108  1  0.16726346  0.16568195  0.16741129  1
  Te  Te109  1  0.16808238  0.16582212  0.49438332  1
  Te  Te110  1  0.16688317  0.16490650  0.83435747  1
  Te  Te111  1  0.16663349  0.50684158  0.17286856  1
  Te  Te112  1  0.17004715  0.50628156  0.49545276  1
  Te  Te113  1  0.16715291  0.50813796  0.83379269  1
  Te  Te114  1  0.16721981  0.83027824  0.16633899  1
  Te  Te115  1  0.16666951  0.82756815  0.50506285  1
  Te  Te116  1  0.16664678  0.83158535  0.83280421  1
  Te  Te117  1  0.50113742  0.16649168  0.16807961  1
  Te  Te118  1  0.50614970  0.16668439  0.49643980  1
  Te  Te119  1  0.50393725  0.16552955  0.82944868  1
  Te  Te120  1  0.49931131  0.49527944  0.16787877  1
  Te  Te121  1  0.49685870  0.50496790  0.49703185  1
  Te  Te122  1  0.50599443  0.49981227  0.83575975  1
  Te  Te123  1  0.49865576  0.83464135  0.16404497  1
  Te  Te124  1  0.50572193  0.82762751  0.50094397  1
  Te  Te125  1  0.49493536  0.83407959  0.83973530  1
  Te  Te126  1  0.83044453  0.16695779  0.17158031  1
  Te  Te127  1  0.82771024  0.17265738  0.49262581  1
  Te  Te128  1  0.82683872  0.16587564  0.83296493  1
  Te  Te129  1  0.83313882  0.49600123  0.16235753  1
  Te  Te130  1  0.83325238  0.50084625  0.50243481  1
  Te  Te131  1  0.82917845  0.50047094  0.83276594  1
  Te  Te132  1  0.83294324  0.83473336  0.16943729  1
  Te  Te133  1  0.83148377  0.83262461  0.49826142  1
  Te  Te134  1  0.83877002  0.83302801  0.82845379  1
  Te  Te135  1  0.16568563  0.00651747  -0.00435244  1
  Te  Te136  1  0.16508628  0.00428979  0.33348070  1
  Te  Te137  1  0.16395194  -0.00453059  0.67062373  1
  Te  Te138  1  0.16504116  0.33032507  0.00011236  1
  Te  Te139  1  0.16778558  0.33256504  0.33344443  1
  Te  Te140  1  0.16678391  0.33305007  0.66642111  1
  Te  Te141  1  0.16702016  0.66626575  0.00239483  1
  Te  Te142  1  0.16817649  0.66620207  0.33333924  1
  Te  Te143  1  0.16963521  0.66953393  0.66594292  1
  Te  Te144  1  0.50570550  -0.00278646  0.00513834  1
  Te  Te145  1  0.50505466  0.00530033  0.32805737  1
  Te  Te146  1  0.50316002  0.00459319  0.66699626  1
  Te  Te147  1  0.50381315  0.33783268  0.00591083  1
  Te  Te148  1  0.50108734  0.33384726  0.33215391  1
  Te  Te149  1  0.49576865  0.32960721  0.66489409  1
  Te  Te150  1  0.49718564  0.66506492  0.00044738  1
  Te  Te151  1  0.49832562  0.66589096  0.33561357  1
  Te  Te152  1  0.49361381  0.66647684  0.66079231  1
  Te  Te153  1  0.82776229  -0.00015504  0.00667425  1
  Te  Te154  1  0.83206423  -0.00142873  0.33102947  1
  Te  Te155  1  0.83471941  -0.00318693  0.66843657  1
  Te  Te156  1  0.83162536  0.33653421  0.00056559  1
  Te  Te157  1  0.83109701  0.33510205  0.33240433  1
  Te  Te158  1  0.83510054  0.33295653  0.66343589  1
  Te  Te159  1  0.83632232  0.66057393  0.00030720  1
  Te  Te160  1  0.83160738  0.66803329  0.33775703  1
  Te  Te161  1  0.83372932  0.66705188  0.66233881  1
  Te  Te162  1  0.00365166  0.16976257  -0.00062281  1
  Te  Te163  1  0.00637947  0.16015661  0.33407768  1
  Te  Te164  1  -0.00008936  0.16744256  0.66608936  1
  Te  Te165  1  -0.00155956  0.49977000  -0.00105383  1
  Te  Te166  1  0.00586748  0.49844452  0.33410377  1
  Te  Te167  1  -0.00615589  0.49300044  0.66689671  1
  Te  Te168  1  -0.00135246  0.83013293  0.00358321  1
  Te  Te169  1  -0.00347631  0.83679523  0.33175446  1
  Te  Te170  1  -0.00040410  0.83346093  0.66579917  1
  Te  Te171  1  0.32992406  0.16811017  0.00459713  1
  Te  Te172  1  0.33176361  0.16585001  0.32920793  1
  Te  Te173  1  0.33881655  0.16964560  0.66587014  1
  Te  Te174  1  0.33772397  0.50580812  -0.00120259  1
  Te  Te175  1  0.33508239  0.50050697  0.33487678  1
  Te  Te176  1  0.33354096  0.50053054  0.66247447  1
  Te  Te177  1  0.33576390  0.82928532  0.00254955  1
  Te  Te178  1  0.33356827  0.82944743  0.32863222  1
  Te  Te179  1  0.33196011  0.82916259  0.66864832  1
  Te  Te180  1  0.66615709  0.16708349  0.00011568  1
  Te  Te181  1  0.66664081  0.16649461  0.33008332  1
  Te  Te182  1  0.66348578  0.16399221  0.67137469  1
  Te  Te183  1  0.66615716  0.50066873  -0.00124864  1
  Te  Te184  1  0.66173194  0.50783095  0.33366405  1
  Te  Te185  1  0.67081778  0.49886688  0.67161206  1
  Te  Te186  1  0.66267286  0.83476170  0.00094662  1
  Te  Te187  1  0.66717529  0.83273365  0.33360657  1
  Te  Te188  1  0.66919489  0.83772965  0.66659042  1
  Te  Te189  1  -0.00196488  -0.00571967  0.16991298  1
  Te  Te190  1  -0.00071195  -0.00612007  0.50106100  1
  Te  Te191  1  0.00325242  -0.00465057  0.83167935  1
  Te  Te192  1  -0.00276960  0.33279663  0.16206254  1
  Te  Te193  1  -0.00587982  0.33281494  0.50266549  1
  Te  Te194  1  0.00020282  0.33301766  0.83404524  1
  Te  Te195  1  0.00227566  0.67117609  0.16266408  1
  Te  Te196  1  -0.00217944  0.67253682  0.50013340  1
  Te  Te197  1  0.00464357  0.67215000  0.83788379  1
  Te  Te198  1  0.33514363  -0.00145888  0.16601902  1
  Te  Te199  1  0.33443176  0.00072715  0.50073837  1
  Te  Te200  1  0.32723710  -0.00606208  0.83464189  1
  Te  Te201  1  0.33430510  0.32857999  0.17205181  1
  Te  Te202  1  0.33252370  0.33946870  0.49808468  1
  Te  Te203  1  0.33323444  0.33359607  0.82776221  1
  Te  Te204  1  0.33209661  0.66934989  0.16755885  1
  Te  Te205  1  0.33218900  0.66464491  0.49749226  1
  Te  Te206  1  0.33013847  0.66986628  0.83526803  1
  Te  Te207  1  0.66713812  -0.00134538  0.16929231  1
  Te  Te208  1  0.66622888  0.00010549  0.50403557  1
  Te  Te209  1  0.66697461  0.00326091  0.82691353  1
  Te  Te210  1  0.66705111  0.33391822  0.16743588  1
  Te  Te211  1  0.67133874  0.33127901  0.49608542  1
  Te  Te212  1  0.66605695  0.33273596  0.83684608  1
  Te  Te213  1  0.66555383  0.67559095  0.17384709  1
  Te  Te214  1  0.66897486  0.66914700  0.49711916  1
  Te  Te215  1  0.66632236  0.66292932  0.83358661  1
