# generated using pymatgen
data_AgSbTe2
_symmetry_space_group_name_H-M   'P 1'
_cell_length_a   18.33494688
_cell_length_b   18.33506808
_cell_length_c   18.33691180
_cell_angle_alpha   89.99996021
_cell_angle_beta   89.99804256
_cell_angle_gamma   89.99823807
_symmetry_Int_Tables_number   1
_chemical_formula_structural   AgSbTe2
_chemical_formula_sum   'Ag54 Sb54 Te108'
_cell_volume   6164.36546222
_cell_formula_units_Z   54
loop_
 _symmetry_equiv_pos_site_id
 _symmetry_equiv_pos_as_xyz
  1  'x, y, z'
loop_
 _atom_site_type_symbol
 _atom_site_label
 _atom_site_symmetry_multiplicity
 _atom_site_fract_x
 _atom_site_fract_y
 _atom_site_fract_z
 _atom_site_occupancy
  Ag  Ag0  1  0.67660918  0.66337604  0.66428566  1
  Ag  Ag1  1  0.50146743  0.66138429  0.50108282  1
  Ag  Ag2  1  0.33258593  0.49644462  0.49965046  1
  Ag  Ag3  1  0.33263312  0.00426288  0.65854243  1
  Ag  Ag4  1  0.00024795  0.33548445  0.65915492  1
  Ag  Ag5  1  0.33306445  0.00473643  0.34211504  1
  Ag  Ag6  1  0.33245559  0.66356007  0.33414854  1
  Ag  Ag7  1  0.16738300  0.16573633  0.65776794  1
  Ag  Ag8  1  0.83234939  0.01281449  0.50174044  1
  Ag  Ag9  1  0.83556953  0.66490039  0.82497214  1
  Ag  Ag10  1  0.66455087  0.16201868  0.81941120  1
  Ag  Ag11  1  0.32616305  0.50056941  0.82493269  1
  Ag  Ag12  1  0.16406191  0.82730642  -0.00320039  1
  Ag  Ag13  1  0.32440407  0.66538286  0.00536072  1
  Ag  Ag14  1  0.66956043  0.16977798  0.50320575  1
  Ag  Ag15  1  0.16038338  0.32680040  0.49742585  1
  Ag  Ag16  1  0.66560808  0.00017106  -0.01386379  1
  Ag  Ag17  1  0.00115676  0.34159004  0.00628104  1
  Ag  Ag18  1  0.16162822  0.50215883  -0.00020103  1
  Ag  Ag19  1  0.00258547  0.65946205  -0.00450711  1
  Ag  Ag20  1  0.83189491  0.65317033  0.50392090  1
  Ag  Ag21  1  0.16362395  0.17425377  0.34532665  1
  Ag  Ag22  1  0.32077584  0.16513117  0.49700718  1
  Ag  Ag23  1  0.49609627  0.00686603  0.50408750  1
  Ag  Ag24  1  0.50476400  0.00748251  0.82139693  1
  Ag  Ag25  1  0.66731222  0.84340246  0.83063113  1
  Ag  Ag26  1  0.32905037  0.16394490  0.17611664  1
  Ag  Ag27  1  0.00282385  0.33277148  0.33728022  1
  Ag  Ag28  1  0.84091444  0.33199111  0.50072672  1
  Ag  Ag29  1  0.00599210  0.17015918  0.50012849  1
  Ag  Ag30  1  0.00415611  0.49991635  0.82941429  1
  Ag  Ag31  1  0.49416757  0.32896053  0.16735445  1
  Ag  Ag32  1  0.67557038  0.49347331  0.50252866  1
  Ag  Ag33  1  0.84337944  0.17507212  0.34011136  1
  Ag  Ag34  1  0.84118376  0.50334990  0.66222058  1
  Ag  Ag35  1  0.16434713  0.49127118  0.34049847  1
  Ag  Ag36  1  0.83928700  0.49632080  0.34496372  1
  Ag  Ag37  1  0.49596481  0.00707290  0.16969945  1
  Ag  Ag38  1  0.00740597  0.17584696  0.17935873  1
  Ag  Ag39  1  0.50350947  0.16425587  0.66203764  1
  Ag  Ag40  1  0.83581459  0.66429446  0.16638134  1
  Ag  Ag41  1  0.17397072  0.01281290  0.50379890  1
  Ag  Ag42  1  0.15955311  0.49665119  0.66070399  1
  Ag  Ag43  1  0.16510508  0.84035377  0.66658196  1
  Ag  Ag44  1  0.66365032  0.00843552  0.66702971  1
  Ag  Ag45  1  0.33216895  0.83650736  0.16603923  1
  Ag  Ag46  1  0.83782869  0.82965415  -0.00126811  1
  Ag  Ag47  1  -0.00386485  0.65230464  0.66757313  1
  Ag  Ag48  1  0.50131579  0.33011048  0.82926117  1
  Ag  Ag49  1  0.48762046  0.49771390  0.33753473  1
  Ag  Ag50  1  0.16259482  0.33343515  0.17660748  1
  Ag  Ag51  1  0.00140784  0.00558873  0.66282680  1
  Ag  Ag52  1  0.00285148  0.49275953  0.16247085  1
  Ag  Ag53  1  0.66960216  0.32670829  0.66288590  1
  Sb  Sb54  1  0.49254294  0.49949598  0.00362582  1
  Sb  Sb55  1  0.32671626  0.33790504  0.00133793  1
  Sb  Sb56  1  0.49700773  0.83199444  0.33400504  1
  Sb  Sb57  1  0.84032899  0.33750683  0.17336682  1
  Sb  Sb58  1  0.66296714  0.83470027  0.15888423  1
  Sb  Sb59  1  0.16420104  0.66175596  0.50137347  1
  Sb  Sb60  1  0.83598459  0.82761857  0.66907357  1
  Sb  Sb61  1  0.00035136  0.83967381  0.50316655  1
  Sb  Sb62  1  0.16320513  0.66057769  0.16515338  1
  Sb  Sb63  1  0.84139599  0.50450057  -0.00158003  1
  Sb  Sb64  1  -0.00414417  0.82757054  0.83117172  1
  Sb  Sb65  1  0.83244522  0.17041923  0.65865860  1
  Sb  Sb66  1  0.49953765  0.16543368  -0.00335586  1
  Sb  Sb67  1  -0.00258085  -0.00087339  -0.00516080  1
  Sb  Sb68  1  0.00478772  0.83259033  0.16307766  1
  Sb  Sb69  1  0.33756872  0.16911726  0.82763599  1
  Sb  Sb70  1  0.00511098  0.00993387  0.34069494  1
  Sb  Sb71  1  0.66147520  0.00281949  0.34197318  1
  Sb  Sb72  1  0.16758461  0.33633514  0.82896555  1
  Sb  Sb73  1  0.33608833  0.82970573  0.83564652  1
  Sb  Sb74  1  0.83210035  0.33773331  0.82407129  1
  Sb  Sb75  1  0.00211107  0.65488374  0.33681591  1
  Sb  Sb76  1  0.67256734  0.66986174  -0.00709854  1
  Sb  Sb77  1  0.67111491  0.32951083  -0.00628075  1
  Sb  Sb78  1  0.16125234  0.66383308  0.83379627  1
  Sb  Sb79  1  0.33241166  0.83698806  0.49860235  1
  Sb  Sb80  1  0.49924024  0.33269252  0.50026771  1
  Sb  Sb81  1  -0.00516829  0.17231224  0.82624223  1
  Sb  Sb82  1  0.17212442  0.00023927  0.82416409  1
  Sb  Sb83  1  0.49478427  0.17115093  0.33909559  1
  Sb  Sb84  1  0.66861907  0.49820338  0.82392240  1
  Sb  Sb85  1  0.82761995  -0.00272039  0.82439517  1
  Sb  Sb86  1  0.83419653  0.16318895  0.00643385  1
  Sb  Sb87  1  0.49759371  0.84182832  0.66640791  1
  Sb  Sb88  1  0.66466486  0.66367862  0.34230686  1
  Sb  Sb89  1  0.17140797  0.00580078  0.17191562  1
  Sb  Sb90  1  0.16932238  0.83384444  0.33466314  1
  Sb  Sb91  1  0.33057707  0.66836838  0.66391503  1
  Sb  Sb92  1  0.67129536  0.33351434  0.34050756  1
  Sb  Sb93  1  0.83051095  -0.00212157  0.17189470  1
  Sb  Sb94  1  0.32649728  0.49760730  0.17205503  1
  Sb  Sb95  1  0.32614677  0.33293193  0.33438953  1
  Sb  Sb96  1  0.66458791  0.16675305  0.17189175  1
  Sb  Sb97  1  0.67136606  0.49877567  0.17376296  1
  Sb  Sb98  1  0.33080352  0.33006978  0.66424950  1
  Sb  Sb99  1  0.66741564  0.83438904  0.50760375  1
  Sb  Sb100  1  0.49899749  0.49486278  0.66068342  1
  Sb  Sb101  1  0.50402536  0.66422027  0.82699903  1
  Sb  Sb102  1  -0.00080408  0.49184194  0.50359100  1
  Sb  Sb103  1  0.83439442  0.82982609  0.33230560  1
  Sb  Sb104  1  0.49899350  0.83437616  -0.00044351  1
  Sb  Sb105  1  0.49952525  0.66480049  0.17210730  1
  Sb  Sb106  1  0.16531258  0.16944509  0.00167009  1
  Sb  Sb107  1  0.33616992  -0.00376225  0.00021711  1
  Te  Te108  1  0.16659646  0.17161509  0.16650385  1
  Te  Te109  1  0.16578980  0.16751090  0.50168865  1
  Te  Te110  1  0.16753994  0.16779528  0.82776295  1
  Te  Te111  1  0.16289568  0.49509988  0.16645540  1
  Te  Te112  1  0.16977147  0.49867433  0.50024855  1
  Te  Te113  1  0.16656316  0.49943998  0.83275976  1
  Te  Te114  1  0.17184581  0.83430261  0.16361537  1
  Te  Te115  1  0.16679099  0.83638040  0.50493210  1
  Te  Te116  1  0.16741476  0.83314424  0.83415022  1
  Te  Te117  1  0.49691280  0.16726127  0.16902520  1
  Te  Te118  1  0.50563017  0.16602232  0.50244989  1
  Te  Te119  1  0.50269221  0.16723456  0.83035315  1
  Te  Te120  1  0.50153773  0.49590841  0.17334302  1
  Te  Te121  1  0.49437814  0.49966478  0.49679074  1
  Te  Te122  1  0.49758238  0.49568971  0.83437790  1
  Te  Te123  1  0.49355260  0.83666998  0.16663198  1
  Te  Te124  1  0.49989123  0.83050628  0.49947577  1
  Te  Te125  1  0.50528265  0.83608936  0.83362809  1
  Te  Te126  1  0.83688035  0.16638313  0.17528617  1
  Te  Te127  1  0.83101560  0.16999242  0.49841258  1
  Te  Te128  1  0.82654875  0.16664979  0.83674602  1
  Te  Te129  1  0.83808444  0.50413475  0.16835137  1
  Te  Te130  1  0.83510894  0.49680462  0.50207874  1
  Te  Te131  1  0.83614370  0.50446748  0.82866624  1
  Te  Te132  1  0.83344469  0.82916402  0.16220910  1
  Te  Te133  1  0.83283906  0.83393050  0.49898886  1
  Te  Te134  1  0.82917843  0.82959553  0.83772091  1
  Te  Te135  1  0.16593006  -0.00497803  -0.00164725  1
  Te  Te136  1  0.17203759  0.00187639  0.33979148  1
  Te  Te137  1  0.16695522  0.00317649  0.66411234  1
  Te  Te138  1  0.16027023  0.33740116  -0.00008952  1
  Te  Te139  1  0.16444002  0.33341850  0.33434022  1
  Te  Te140  1  0.16474764  0.33560831  0.66402524  1
  Te  Te141  1  0.16438955  0.66499854  0.00061299  1
  Te  Te142  1  0.17156194  0.66357814  0.33292155  1
  Te  Te143  1  0.16167953  0.66127750  0.66685240  1
  Te  Te144  1  0.50481991  -0.00087445  0.00472088  1
  Te  Te145  1  0.49448117  0.00067653  0.33435991  1
  Te  Te146  1  0.50131479  0.00252660  0.66438154  1
  Te  Te147  1  0.50114253  0.33335572  0.00170494  1
  Te  Te148  1  0.50282773  0.33806981  0.32900240  1
  Te  Te149  1  0.50263765  0.32785617  0.66840740  1
  Te  Te150  1  0.49786352  0.66640709  0.00016026  1
  Te  Te151  1  0.49611359  0.66090154  0.33850867  1
  Te  Te152  1  0.49955173  0.66790119  0.66125427  1
  Te  Te153  1  0.82868604  -0.00554494  0.00210536  1
  Te  Te154  1  0.83320414  -0.00063122  0.33998325  1
  Te  Te155  1  0.83351228  -0.00379289  0.66096870  1
  Te  Te156  1  0.83933168  0.33271414  -0.00001120  1
  Te  Te157  1  0.83725266  0.33483567  0.33791574  1
  Te  Te158  1  0.83390833  0.33840961  0.66221778  1
  Te  Te159  1  0.83647057  0.66928307  0.00130269  1
  Te  Te160  1  0.83363957  0.66222645  0.33747141  1
  Te  Te161  1  0.83584538  0.66592928  0.66465663  1
  Te  Te162  1  -0.00041628  0.16955984  -0.00129605  1
  Te  Te163  1  0.00302884  0.16984949  0.33659812  1
  Te  Te164  1  0.00087326  0.16948523  0.66353123  1
  Te  Te165  1  0.00231734  0.50145542  0.00035795  1
  Te  Te166  1  0.00213115  0.49570033  0.32858507  1
  Te  Te167  1  0.00068002  0.49623081  0.66707849  1
  Te  Te168  1  0.00177920  0.83027801  -0.00177843  1
  Te  Te169  1  0.00153921  0.83201611  0.33081673  1
  Te  Te170  1  0.00632416  0.84052570  0.66844630  1
  Te  Te171  1  0.33159424  0.16681327  0.00536975  1
  Te  Te172  1  0.33043109  0.16484480  0.33591740  1
  Te  Te173  1  0.33292495  0.16386968  0.66356500  1
  Te  Te174  1  0.32601838  0.50501800  0.00067199  1
  Te  Te175  1  0.32967087  0.50102582  0.33609018  1
  Te  Te176  1  0.33108711  0.50060122  0.66480880  1
  Te  Te177  1  0.32856928  0.82793350  0.00221938  1
  Te  Te178  1  0.33226950  0.83082608  0.32702112  1
  Te  Te179  1  0.32563211  0.83832173  0.66883055  1
  Te  Te180  1  0.66757075  0.16086352  0.00068670  1
  Te  Te181  1  0.67318515  0.16685364  0.33996328  1
  Te  Te182  1  0.66898050  0.16727011  0.66380399  1
  Te  Te183  1  0.66596746  0.49942107  0.00044428  1
  Te  Te184  1  0.67523235  0.49993954  0.34122427  1
  Te  Te185  1  0.66573834  0.50209619  0.66096489  1
  Te  Te186  1  0.67002809  0.83760751  -0.00658753  1
  Te  Te187  1  0.66631022  0.83348488  0.33021925  1
  Te  Te188  1  0.66637595  0.83078963  0.67224813  1
  Te  Te189  1  -0.00020869  0.00566361  0.16564769  1
  Te  Te190  1  -0.00281279  0.00615173  0.50348237  1
  Te  Te191  1  -0.00033351  0.00198862  0.82583241  1
  Te  Te192  1  0.00093723  0.33273287  0.16838589  1
  Te  Te193  1  0.00061492  0.33063842  0.49943032  1
  Te  Te194  1  -0.00046221  0.33873965  0.83171750  1
  Te  Te195  1  -0.00359704  0.66552887  0.16508613  1
  Te  Te196  1  -0.00477504  0.67116274  0.50437246  1
  Te  Te197  1  -0.00461318  0.66219087  0.83182911  1
  Te  Te198  1  0.33589938  0.00276441  0.16596057  1
  Te  Te199  1  0.33460701  0.00030083  0.50077517  1
  Te  Te200  1  0.34247181  -0.00031641  0.83157418  1
  Te  Te201  1  0.33253797  0.32941993  0.16595688  1
  Te  Te202  1  0.32949281  0.33222384  0.50050870  1
  Te  Te203  1  0.33973272  0.33897316  0.83398513  1
  Te  Te204  1  0.33470017  0.66777127  0.16775244  1
  Te  Te205  1  0.33487396  0.66599867  0.49704823  1
  Te  Te206  1  0.33646123  0.66129783  0.83615439  1
  Te  Te207  1  0.66043974  0.00017732  0.16809522  1
  Te  Te208  1  0.66450852  0.00080689  0.50555662  1
  Te  Te209  1  0.66500459  0.00201884  0.82904292  1
  Te  Te210  1  0.66165444  0.33246969  0.16339842  1
  Te  Te211  1  0.66580411  0.33464749  0.50457221  1
  Te  Te212  1  0.66310274  0.32943497  0.82781391  1
  Te  Te213  1  0.67197626  0.66712336  0.16573329  1
  Te  Te214  1  0.66745073  0.66669911  0.50526993  1
  Te  Te215  1  0.67150298  0.66628222  0.82615702  1
