# generated using pymatgen
data_AgSbTe2
_symmetry_space_group_name_H-M   'P 1'
_cell_length_a   18.35152856
_cell_length_b   18.35021300
_cell_length_c   18.33975993
_cell_angle_alpha   90.00262551
_cell_angle_beta   90.00034490
_cell_angle_gamma   89.99655216
_symmetry_Int_Tables_number   1
_chemical_formula_structural   AgSbTe2
_chemical_formula_sum   'Ag54 Sb54 Te108'
_cell_volume   6175.99589607
_cell_formula_units_Z   54
loop_
 _symmetry_equiv_pos_site_id
 _symmetry_equiv_pos_as_xyz
  1  'x, y, z'
loop_
 _atom_site_type_symbol
 _atom_site_label
 _atom_site_symmetry_multiplicity
 _atom_site_fract_x
 _atom_site_fract_y
 _atom_site_fract_z
 _atom_site_occupancy
  Ag  Ag0  1  0.82688002  0.16038475  0.66746695  1
  Ag  Ag1  1  0.00630646  0.84250873  0.82309794  1
  Ag  Ag2  1  0.66530035  0.15777356  0.50983493  1
  Ag  Ag3  1  0.66309107  0.83718174  0.50425953  1
  Ag  Ag4  1  0.01400049  0.83167144  0.50547450  1
  Ag  Ag5  1  0.16688488  0.66889756  0.82979365  1
  Ag  Ag6  1  0.01352969  0.66865242  0.33760460  1
  Ag  Ag7  1  0.17059288  0.66281538  0.18099644  1
  Ag  Ag8  1  0.32848609  0.83209358  0.49677847  1
  Ag  Ag9  1  0.49970372  0.00174846  0.17163296  1
  Ag  Ag10  1  0.16819057  0.51499091  0.32978438  1
  Ag  Ag11  1  0.51244854  0.16456218  0.66507532  1
  Ag  Ag12  1  0.66802372  0.31606940  0.66482651  1
  Ag  Ag13  1  0.65451919  0.49957883  0.16686207  1
  Ag  Ag14  1  0.17161951  0.32761109  0.16421752  1
  Ag  Ag15  1  0.16354387  0.15815154  0.66823258  1
  Ag  Ag16  1  0.33398173  0.49415871  0.16240905  1
  Ag  Ag17  1  0.00993716  0.50038121  0.83100477  1
  Ag  Ag18  1  0.17436066  0.82746521  0.34530670  1
  Ag  Ag19  1  0.49387787  0.49693871  0.00143287  1
  Ag  Ag20  1  0.33098254  0.65908418  0.00819726  1
  Ag  Ag21  1  0.00564101  0.16394598  0.82532772  1
  Ag  Ag22  1  0.66075505  -0.00343166  0.34492594  1
  Ag  Ag23  1  0.83509580  0.33177884  0.17093026  1
  Ag  Ag24  1  0.32829309  0.49781728  0.84056661  1
  Ag  Ag25  1  -0.00154213  0.00078038  0.66902669  1
  Ag  Ag26  1  0.66438124  0.83254954  0.17273721  1
  Ag  Ag27  1  0.49908142  0.67923652  0.50076070  1
  Ag  Ag28  1  0.32698704  0.67200572  0.33153495  1
  Ag  Ag29  1  0.51322445  0.83834032  0.65940989  1
  Ag  Ag30  1  0.16742712  0.67852735  0.49351190  1
  Ag  Ag31  1  0.82841404  0.84201266  0.66569769  1
  Ag  Ag32  1  0.67144137  0.16129523  0.82237052  1
  Ag  Ag33  1  0.16314348  0.83896023  0.65871366  1
  Ag  Ag34  1  0.16292972  0.00515023  0.82204192  1
  Ag  Ag35  1  -0.00166648  0.32082840  0.66914822  1
  Ag  Ag36  1  0.50439970  0.33256187  0.50809365  1
  Ag  Ag37  1  0.32935790  0.17567559  0.16843413  1
  Ag  Ag38  1  0.16729518  0.16951967  -0.00145858  1
  Ag  Ag39  1  0.49321474  0.83483329  0.34362410  1
  Ag  Ag40  1  0.33361626  -0.00659492  0.33388863  1
  Ag  Ag41  1  0.67070955  0.00125626  0.66484690  1
  Ag  Ag42  1  0.49328263  0.33209156  0.82878744  1
  Ag  Ag43  1  0.84254251  0.00103797  0.82515510  1
  Ag  Ag44  1  0.16617894  -0.00897402  0.50436724  1
  Ag  Ag45  1  0.16793286  0.16262355  0.33338019  1
  Ag  Ag46  1  0.66801213  0.84081252  0.81900012  1
  Ag  Ag47  1  0.83187870  0.67383187  0.50207937  1
  Ag  Ag48  1  0.01284521  0.16817854  0.16509392  1
  Ag  Ag49  1  0.82723658  0.33270318  0.50570717  1
  Ag  Ag50  1  0.33322230  0.33796219  0.00284346  1
  Ag  Ag51  1  0.66644564  0.68677008  0.66327759  1
  Ag  Ag52  1  0.49386426  0.33293132  0.16603753  1
  Ag  Ag53  1  0.16843169  0.33024689  0.83416075  1
  Sb  Sb54  1  0.33573585  0.83253634  0.17450545  1
  Sb  Sb55  1  -0.00140858  0.67479514  0.66348042  1
  Sb  Sb56  1  0.33168311  0.00218339  0.00547978  1
  Sb  Sb57  1  0.66326229  0.67302636  0.33923166  1
  Sb  Sb58  1  0.50082566  0.49757112  0.66860273  1
  Sb  Sb59  1  0.83210466  0.83285613  -0.00872462  1
  Sb  Sb60  1  0.83265959  0.83404450  0.34294138  1
  Sb  Sb61  1  0.33266607  0.50481368  0.49679580  1
  Sb  Sb62  1  0.49958470  -0.00335354  0.49808178  1
  Sb  Sb63  1  0.49653400  0.00404468  0.83249249  1
  Sb  Sb64  1  0.83673704  0.66387768  0.17383497  1
  Sb  Sb65  1  0.00193453  0.50548384  0.50442403  1
  Sb  Sb66  1  0.66057879  0.33264465  -0.00295055  1
  Sb  Sb67  1  0.00403331  -0.00295109  0.33972237  1
  Sb  Sb68  1  0.00305310  0.00141606  -0.00851250  1
  Sb  Sb69  1  0.33431090  0.66833546  0.66215714  1
  Sb  Sb70  1  0.17052872  0.00308767  0.17205484  1
  Sb  Sb71  1  0.83545487  0.32804052  0.82865384  1
  Sb  Sb72  1  0.49637718  0.16214581  0.33634992  1
  Sb  Sb73  1  -0.00168837  0.16261706  0.50593915  1
  Sb  Sb74  1  0.66535622  0.50161098  0.49707721  1
  Sb  Sb75  1  0.66463813  0.49790331  0.83344073  1
  Sb  Sb76  1  0.82887819  0.49724610  0.00019090  1
  Sb  Sb77  1  0.16567465  0.50151830  0.66811586  1
  Sb  Sb78  1  0.83350760  -0.00170018  0.50676175  1
  Sb  Sb79  1  0.83433042  0.49871843  0.66710445  1
  Sb  Sb80  1  0.33087105  0.82908207  0.82579187  1
  Sb  Sb81  1  0.32731909  0.17065425  0.83600155  1
  Sb  Sb82  1  0.33581033  0.16284623  0.49694488  1
  Sb  Sb83  1  -0.00075798  0.83723960  0.17038689  1
  Sb  Sb84  1  0.66284019  0.16823227  0.16769499  1
  Sb  Sb85  1  0.83637887  0.16512332  0.33995971  1
  Sb  Sb86  1  0.01006783  0.66521796  0.00134961  1
  Sb  Sb87  1  0.83784310  0.67313048  0.82492140  1
  Sb  Sb88  1  0.33202377  0.33418467  0.32807562  1
  Sb  Sb89  1  0.66438709  0.00030321  -0.00550469  1
  Sb  Sb90  1  0.66022895  0.66639429  -0.00349767  1
  Sb  Sb91  1  0.66502366  0.32863413  0.33801470  1
  Sb  Sb92  1  0.16768586  0.83632151  -0.00206575  1
  Sb  Sb93  1  0.49415395  0.66664531  0.17131068  1
  Sb  Sb94  1  0.82838464  0.00457260  0.16247620  1
  Sb  Sb95  1  0.33092524  -0.00103731  0.66151724  1
  Sb  Sb96  1  0.49630061  0.66383332  0.82687252  1
  Sb  Sb97  1  0.00303802  0.33515379  0.33769800  1
  Sb  Sb98  1  0.83868198  0.16860012  -0.00611487  1
  Sb  Sb99  1  0.49481741  0.17239281  -0.00293711  1
  Sb  Sb100  1  0.17374026  0.49536849  0.00159460  1
  Sb  Sb101  1  0.00657301  0.49423819  0.16387334  1
  Sb  Sb102  1  0.49497149  0.50403565  0.33030685  1
  Sb  Sb103  1  0.16781524  0.33176192  0.50194633  1
  Sb  Sb104  1  0.49768227  0.82905622  -0.00113140  1
  Sb  Sb105  1  0.83741032  0.50043108  0.33388006  1
  Sb  Sb106  1  0.00741418  0.33219126  -0.00545919  1
  Sb  Sb107  1  0.33469737  0.33147881  0.67135287  1
  Te  Te108  1  0.16956820  0.16503147  0.16794756  1
  Te  Te109  1  0.16728964  0.16628818  0.50173052  1
  Te  Te110  1  0.16651142  0.16833771  0.83057856  1
  Te  Te111  1  0.16928691  0.50081703  0.16846398  1
  Te  Te112  1  0.16785026  0.50174582  0.49364588  1
  Te  Te113  1  0.16760683  0.49560285  0.83390669  1
  Te  Te114  1  0.16358431  0.83069653  0.16694351  1
  Te  Te115  1  0.16892475  0.83408494  0.50003294  1
  Te  Te116  1  0.16554700  0.83319707  0.83252307  1
  Te  Te117  1  0.49695739  0.16884832  0.16607873  1
  Te  Te118  1  0.50317238  0.17037612  0.50351244  1
  Te  Te119  1  0.49906004  0.17124230  0.82959914  1
  Te  Te120  1  0.49564817  0.49971549  0.16564054  1
  Te  Te121  1  0.49892965  0.49389326  0.49950066  1
  Te  Te122  1  0.49770104  0.49518286  0.83689019  1
  Te  Te123  1  0.50347347  0.83455415  0.16694548  1
  Te  Te124  1  0.50354494  0.83495431  0.50146365  1
  Te  Te125  1  0.50339078  0.83368700  0.82951979  1
  Te  Te126  1  0.83213586  0.17160906  0.16626123  1
  Te  Te127  1  0.82974900  0.17102641  0.50543491  1
  Te  Te128  1  0.83467530  0.16389493  0.82833733  1
  Te  Te129  1  0.83464478  0.49383634  0.16656681  1
  Te  Te130  1  0.83364293  0.49528280  0.49933266  1
  Te  Te131  1  0.83778898  0.50088738  0.83539319  1
  Te  Te132  1  0.82949959  0.83399086  0.16529132  1
  Te  Te133  1  0.82299249  0.83272518  0.50614772  1
  Te  Te134  1  0.83041869  0.83747056  0.82676081  1
  Te  Te135  1  0.16772768  0.00713239  -0.00390262  1
  Te  Te136  1  0.16774494  0.00151480  0.33690044  1
  Te  Te137  1  0.16916273  -0.00117244  0.66528482  1
  Te  Te138  1  0.17156860  0.32940280  0.00043599  1
  Te  Te139  1  0.16683441  0.32318546  0.33107066  1
  Te  Te140  1  0.16435320  0.33391186  0.66957751  1
  Te  Te141  1  0.17239468  0.66815077  -0.00927896  1
  Te  Te142  1  0.16923598  0.67118882  0.33662153  1
  Te  Te143  1  0.16618038  0.66830965  0.66942960  1
  Te  Te144  1  0.49764064  0.00015175  0.00915661  1
  Te  Te145  1  0.50030880  -0.00389414  0.33207086  1
  Te  Te146  1  0.49936844  0.00135068  0.66704402  1
  Te  Te147  1  0.49486463  0.33613612  0.00170326  1
  Te  Te148  1  0.49973929  0.33346282  0.32932843  1
  Te  Te149  1  0.50182290  0.33060853  0.66848842  1
  Te  Te150  1  0.49225591  0.66094694  -0.00120765  1
  Te  Te151  1  0.49599399  0.67175220  0.33922977  1
  Te  Te152  1  0.50421846  0.67054160  0.66117257  1
  Te  Te153  1  0.83269839  0.00063704  -0.01166553  1
  Te  Te154  1  0.82779813  0.00013170  0.33158028  1
  Te  Te155  1  0.83514000  0.00075294  0.66777324  1
  Te  Te156  1  0.83253360  0.33289159  0.01021903  1
  Te  Te157  1  0.83404537  0.33255939  0.33239751  1
  Te  Te158  1  0.83155559  0.33180453  0.66539720  1
  Te  Te159  1  0.83340721  0.66565253  0.00248147  1
  Te  Te160  1  0.83634209  0.66627899  0.34171712  1
  Te  Te161  1  0.82935509  0.66767344  0.66030671  1
  Te  Te162  1  0.00544331  0.16741867  0.00266739  1
  Te  Te163  1  0.00390929  0.16578778  0.33034704  1
  Te  Te164  1  0.00317517  0.16243090  0.66644647  1
  Te  Te165  1  -0.00195348  0.50006602  -0.00870911  1
  Te  Te166  1  0.00694477  0.50466419  0.33271876  1
  Te  Te167  1  0.00034414  0.49360106  0.67224770  1
  Te  Te168  1  -0.00126830  0.83282532  -0.00756125  1
  Te  Te169  1  0.00205510  0.83044728  0.33742422  1
  Te  Te170  1  0.00291336  0.83436264  0.66589065  1
  Te  Te171  1  0.32879506  0.16966547  0.00618698  1
  Te  Te172  1  0.33030389  0.16288815  0.32945012  1
  Te  Te173  1  0.32718880  0.16661032  0.66568565  1
  Te  Te174  1  0.33437579  0.49870875  0.00188086  1
  Te  Te175  1  0.32816373  0.50420559  0.32911103  1
  Te  Te176  1  0.33346959  0.49991120  0.67501982  1
  Te  Te177  1  0.33338619  0.82747039  -0.00125223  1
  Te  Te178  1  0.33422636  0.83317067  0.33535116  1
  Te  Te179  1  0.32685096  0.83293618  0.65933949  1
  Te  Te180  1  0.66743245  0.16699069  -0.00889937  1
  Te  Te181  1  0.66722645  0.15983192  0.33695210  1
  Te  Te182  1  0.66755941  0.16122344  0.66652378  1
  Te  Te183  1  0.65915092  0.50062052  0.00565648  1
  Te  Te184  1  0.66736385  0.50077245  0.32603153  1
  Te  Te185  1  0.66674921  0.49766405  0.66716062  1
  Te  Te186  1  0.66538805  0.83215717  0.00717345  1
  Te  Te187  1  0.66588976  0.83691974  0.33287123  1
  Te  Te188  1  0.66811326  0.84141080  0.66433246  1
  Te  Te189  1  -0.00304489  0.00644153  0.16641159  1
  Te  Te190  1  0.00228767  -0.00573536  0.50502714  1
  Te  Te191  1  0.00255128  0.00140806  0.82905891  1
  Te  Te192  1  0.00544464  0.32951098  0.16703535  1
  Te  Te193  1  -0.00274527  0.33447738  0.50598316  1
  Te  Te194  1  0.00190750  0.32693663  0.82998356  1
  Te  Te195  1  0.00621203  0.66675167  0.17052887  1
  Te  Te196  1  0.00209454  0.67010300  0.49848015  1
  Te  Te197  1  0.00441061  0.66492060  0.83330597  1
  Te  Te198  1  0.33761777  0.00062758  0.17265690  1
  Te  Te199  1  0.32841716  -0.00399808  0.49375383  1
  Te  Te200  1  0.32657906  -0.00198336  0.83666540  1
  Te  Te201  1  0.33169962  0.33484595  0.16627983  1
  Te  Te202  1  0.34000282  0.33530603  0.49972769  1
  Te  Te203  1  0.33267314  0.33591304  0.83740883  1
  Te  Te204  1  0.32936588  0.66671363  0.16778631  1
  Te  Te205  1  0.33287976  0.66898720  0.49631158  1
  Te  Te206  1  0.32997637  0.66183637  0.83274154  1
  Te  Te207  1  0.66332596  -0.00084086  0.16441290  1
  Te  Te208  1  0.66759286  0.00003888  0.50194541  1
  Te  Te209  1  0.66136658  0.00041087  0.82937928  1
  Te  Te210  1  0.66106349  0.33475100  0.16701501  1
  Te  Te211  1  0.66597842  0.33481091  0.50297862  1
  Te  Te212  1  0.66641592  0.33137853  0.82867364  1
  Te  Te213  1  0.66775478  0.66561606  0.16678704  1
  Te  Te214  1  0.66536488  0.66749107  0.50335525  1
  Te  Te215  1  0.66771003  0.66989506  0.82765582  1
