# generated using pymatgen
data_AgSbTe2
_symmetry_space_group_name_H-M   'P 1'
_cell_length_a   18.33315667
_cell_length_b   18.33750409
_cell_length_c   18.33983941
_cell_angle_alpha   89.99845513
_cell_angle_beta   89.99692444
_cell_angle_gamma   89.99892955
_symmetry_Int_Tables_number   1
_chemical_formula_structural   AgSbTe2
_chemical_formula_sum   'Ag54 Sb54 Te108'
_cell_volume   6165.56671109
_cell_formula_units_Z   54
loop_
 _symmetry_equiv_pos_site_id
 _symmetry_equiv_pos_as_xyz
  1  'x, y, z'
loop_
 _atom_site_type_symbol
 _atom_site_label
 _atom_site_symmetry_multiplicity
 _atom_site_fract_x
 _atom_site_fract_y
 _atom_site_fract_z
 _atom_site_occupancy
  Ag  Ag0  1  0.50221151  -0.00110311  0.17201643  1
  Ag  Ag1  1  0.01318687  0.82926442  0.49724006  1
  Ag  Ag2  1  0.49376829  0.83670115  0.33609097  1
  Ag  Ag3  1  0.17070856  0.34327138  0.49467534  1
  Ag  Ag4  1  0.16762792  0.51615211  0.34758465  1
  Ag  Ag5  1  0.49145110  0.32892421  0.16787252  1
  Ag  Ag6  1  0.49726401  0.68331987  0.83184682  1
  Ag  Ag7  1  0.65697558  0.83768799  0.16607757  1
  Ag  Ag8  1  0.84446077  0.49944553  0.66399507  1
  Ag  Ag9  1  0.01334257  0.50616996  0.50099242  1
  Ag  Ag10  1  0.49408319  0.83967629  0.66693473  1
  Ag  Ag11  1  0.32812492  0.67129983  0.33873092  1
  Ag  Ag12  1  0.83145376  -0.00159341  0.49530551  1
  Ag  Ag13  1  0.16973329  0.15949935  -0.00596354  1
  Ag  Ag14  1  0.49739554  0.00165399  0.49679709  1
  Ag  Ag15  1  0.17061771  0.83799136  0.00519646  1
  Ag  Ag16  1  0.82461239  -0.00315299  0.16608820  1
  Ag  Ag17  1  0.17656755  0.00024876  0.83481472  1
  Ag  Ag18  1  0.65751690  -0.00502469  0.32770670  1
  Ag  Ag19  1  0.33441565  0.32931617  0.00257192  1
  Ag  Ag20  1  0.32945213  0.67365688  0.65792868  1
  Ag  Ag21  1  0.17332912  0.33696590  0.17407365  1
  Ag  Ag22  1  0.65714151  0.67735163  0.33291170  1
  Ag  Ag23  1  0.33127923  0.83236576  0.49842841  1
  Ag  Ag24  1  0.83300985  0.32777700  0.83518794  1
  Ag  Ag25  1  0.83500155  0.33174713  0.16383731  1
  Ag  Ag26  1  0.01228395  0.66177478  0.65945829  1
  Ag  Ag27  1  0.33579937  0.83715303  0.82779575  1
  Ag  Ag28  1  0.65211896  0.83759449  0.83936574  1
  Ag  Ag29  1  0.33571136  0.16412644  0.50179384  1
  Ag  Ag30  1  0.33644677  -0.00115798  -0.00533157  1
  Ag  Ag31  1  0.49811976  0.32763666  0.83120724  1
  Ag  Ag32  1  0.49450079  -0.00029037  0.83052485  1
  Ag  Ag33  1  0.00409028  0.16442375  0.83084511  1
  Ag  Ag34  1  0.33674411  -0.00729739  0.66941028  1
  Ag  Ag35  1  0.17136611  0.16918349  0.66779066  1
  Ag  Ag36  1  0.32531218  0.50192032  0.49732300  1
  Ag  Ag37  1  0.48861080  0.32476452  0.49902322  1
  Ag  Ag38  1  0.16514694  0.49786326  0.65739250  1
  Ag  Ag39  1  0.49560294  0.49486982  -0.00059304  1
  Ag  Ag40  1  0.49770500  0.15398194  0.33942377  1
  Ag  Ag41  1  0.65622399  -0.00438922  0.00444124  1
  Ag  Ag42  1  0.00578986  0.33336528  0.33940315  1
  Ag  Ag43  1  0.17583400  0.82679646  0.33317620  1
  Ag  Ag44  1  0.83143468  -0.00018511  0.83514559  1
  Ag  Ag45  1  0.16829870  0.65687784  0.49285817  1
  Ag  Ag46  1  0.17083113  0.66461224  0.17959129  1
  Ag  Ag47  1  -0.00134215  -0.00662045  0.33588423  1
  Ag  Ag48  1  0.33201347  0.50452184  0.17074670  1
  Ag  Ag49  1  0.49069567  0.15737134  0.66219326  1
  Ag  Ag50  1  0.83414193  0.83947000  0.00030486  1
  Ag  Ag51  1  0.01438858  0.67154152  0.34034790  1
  Ag  Ag52  1  0.33472925  0.83239968  0.17129601  1
  Ag  Ag53  1  0.00509888  0.33778260  0.66049090  1
  Sb  Sb54  1  0.65693522  0.16379037  0.49931051  1
  Sb  Sb55  1  0.84404909  0.67241464  0.49976292  1
  Sb  Sb56  1  0.33433292  0.67151235  0.00075037  1
  Sb  Sb57  1  0.17205387  0.67328436  0.82937891  1
  Sb  Sb58  1  0.00544864  -0.00074708  0.66342103  1
  Sb  Sb59  1  0.00279509  -0.00083604  0.00243327  1
  Sb  Sb60  1  0.83734193  0.16786280  0.66806237  1
  Sb  Sb61  1  0.49516605  0.83606490  -0.00031004  1
  Sb  Sb62  1  0.83747383  0.66946201  0.16919428  1
  Sb  Sb63  1  0.66304312  0.67665461  0.00399004  1
  Sb  Sb64  1  0.00758836  0.16571012  0.50296193  1
  Sb  Sb65  1  0.82844705  0.49983904  -0.00192018  1
  Sb  Sb66  1  0.83023473  0.83337789  0.66916613  1
  Sb  Sb67  1  0.00443277  0.83434972  0.17436840  1
  Sb  Sb68  1  0.66351128  0.50422218  0.83293234  1
  Sb  Sb69  1  0.33589653  -0.00758037  0.33469245  1
  Sb  Sb70  1  0.66228471  0.50133202  0.49762581  1
  Sb  Sb71  1  0.00313810  0.66899139  0.00120205  1
  Sb  Sb72  1  0.66632922  0.15904915  0.83333461  1
  Sb  Sb73  1  0.66437402  0.15791260  0.16659245  1
  Sb  Sb74  1  0.83850105  0.32963120  0.50081352  1
  Sb  Sb75  1  0.84287191  0.49948998  0.33745729  1
  Sb  Sb76  1  0.49166231  0.16527847  -0.00196399  1
  Sb  Sb77  1  0.33452310  0.16508228  0.17102232  1
  Sb  Sb78  1  0.00227925  0.16567600  0.16612091  1
  Sb  Sb79  1  0.33065771  0.15948631  0.82726332  1
  Sb  Sb80  1  0.66165527  0.66896057  0.66204561  1
  Sb  Sb81  1  0.49137990  0.50373387  0.33184410  1
  Sb  Sb82  1  0.66097239  0.83503403  0.49579602  1
  Sb  Sb83  1  0.83073990  0.16354095  0.33373348  1
  Sb  Sb84  1  0.48935615  0.67014613  0.50131781  1
  Sb  Sb85  1  0.17283731  -0.00176506  0.50180156  1
  Sb  Sb86  1  0.83251159  0.83671164  0.33038751  1
  Sb  Sb87  1  0.66020394  0.32605153  0.00088360  1
  Sb  Sb88  1  0.00590796  0.33294336  -0.00047406  1
  Sb  Sb89  1  0.17122482  -0.00163980  0.16439217  1
  Sb  Sb90  1  0.65946324  0.50510359  0.16793438  1
  Sb  Sb91  1  0.66808436  0.33345936  0.66784183  1
  Sb  Sb92  1  0.17362047  0.50008253  0.00200703  1
  Sb  Sb93  1  0.17445267  0.83356088  0.66234683  1
  Sb  Sb94  1  0.33398002  0.50329404  0.83179901  1
  Sb  Sb95  1  0.00941068  0.49837977  0.17476489  1
  Sb  Sb96  1  0.32964176  0.33304559  0.66602084  1
  Sb  Sb97  1  0.66540140  0.33133785  0.33056147  1
  Sb  Sb98  1  0.65803083  -0.00185609  0.66757695  1
  Sb  Sb99  1  0.49304787  0.67059317  0.16481242  1
  Sb  Sb100  1  0.16925439  0.32728083  0.83142960  1
  Sb  Sb101  1  0.32952049  0.33927930  0.33224419  1
  Sb  Sb102  1  0.00493086  0.83762304  0.82749848  1
  Sb  Sb103  1  0.17192791  0.16482429  0.33610817  1
  Sb  Sb104  1  0.49393849  0.50018378  0.66783066  1
  Sb  Sb105  1  0.82977466  0.66991623  0.83070339  1
  Sb  Sb106  1  -0.00003018  0.49461053  0.82238811  1
  Sb  Sb107  1  0.83879307  0.16084203  -0.00123367  1
  Te  Te108  1  0.16734005  0.17134116  0.16344733  1
  Te  Te109  1  0.17365285  0.16778201  0.50419638  1
  Te  Te110  1  0.16523770  0.16241643  0.83155859  1
  Te  Te111  1  0.17321028  0.49772830  0.16649201  1
  Te  Te112  1  0.16838787  0.49834039  0.50158024  1
  Te  Te113  1  0.16678821  0.50151675  0.83068300  1
  Te  Te114  1  0.17020934  0.83358263  0.16880693  1
  Te  Te115  1  0.16975440  0.83360726  0.49695951  1
  Te  Te116  1  0.17124915  0.83973958  0.83667873  1
  Te  Te117  1  0.50018112  0.16713439  0.17028304  1
  Te  Te118  1  0.49543529  0.16552222  0.50046701  1
  Te  Te119  1  0.49926884  0.16584753  0.82929132  1
  Te  Te120  1  0.49347148  0.49731278  0.16420197  1
  Te  Te121  1  0.49472963  0.49495556  0.50033839  1
  Te  Te122  1  0.50041837  0.48694383  0.83581976  1
  Te  Te123  1  0.49804423  0.83479871  0.16643814  1
  Te  Te124  1  0.49621611  0.83518198  0.49966528  1
  Te  Te125  1  0.49612854  0.83988524  0.83670498  1
  Te  Te126  1  0.83364866  0.16975386  0.16576032  1
  Te  Te127  1  0.83257237  0.15874341  0.50194073  1
  Te  Te128  1  0.83693015  0.16696423  0.83279880  1
  Te  Te129  1  0.83358112  0.49542222  0.16611135  1
  Te  Te130  1  0.83315005  0.49880789  0.50465113  1
  Te  Te131  1  0.83173946  0.49621034  0.83012343  1
  Te  Te132  1  0.83417350  0.83629802  0.16136476  1
  Te  Te133  1  0.83153276  0.83963242  0.50158394  1
  Te  Te134  1  0.83604486  0.83763154  0.83654572  1
  Te  Te135  1  0.16932940  -0.00085731  -0.00128000  1
  Te  Te136  1  0.16006192  -0.00293027  0.33244369  1
  Te  Te137  1  0.17167621  0.00340659  0.67138130  1
  Te  Te138  1  0.17275035  0.33267044  0.00156095  1
  Te  Te139  1  0.16405845  0.32900329  0.33346398  1
  Te  Te140  1  0.16452493  0.33268686  0.66692227  1
  Te  Te141  1  0.16610495  0.67276565  0.00070829  1
  Te  Te142  1  0.16906954  0.67015589  0.33439619  1
  Te  Te143  1  0.16936192  0.66699535  0.66584978  1
  Te  Te144  1  0.49767841  0.00193420  -0.00133784  1
  Te  Te145  1  0.49779222  -0.00342310  0.33279121  1
  Te  Te146  1  0.49717394  -0.00127312  0.66800050  1
  Te  Te147  1  0.49645898  0.33156491  0.00422544  1
  Te  Te148  1  0.50046921  0.33569022  0.33274896  1
  Te  Te149  1  0.50019665  0.33297828  0.66489584  1
  Te  Te150  1  0.50050944  0.65821343  -0.00592676  1
  Te  Te151  1  0.49779335  0.67133088  0.33318196  1
  Te  Te152  1  0.49475122  0.66859512  0.67072259  1
  Te  Te153  1  0.83564598  -0.00201812  0.00053334  1
  Te  Te154  1  0.83559442  0.00089128  0.33197897  1
  Te  Te155  1  0.83293563  0.00048191  0.66991894  1
  Te  Te156  1  0.83282505  0.33298616  -0.00101588  1
  Te  Te157  1  0.83614489  0.33186463  0.32980545  1
  Te  Te158  1  0.83729653  0.33529940  0.66962360  1
  Te  Te159  1  0.83304012  0.67270324  -0.00012739  1
  Te  Te160  1  0.83381953  0.66595480  0.33310777  1
  Te  Te161  1  0.83440996  0.66212118  0.66685413  1
  Te  Te162  1  0.00911770  0.16705784  -0.00681004  1
  Te  Te163  1  0.00040350  0.17073767  0.33466669  1
  Te  Te164  1  0.00511360  0.16876658  0.66987084  1
  Te  Te165  1  -0.00234359  0.50111248  -0.00048732  1
  Te  Te166  1  0.00694825  0.49763798  0.33965147  1
  Te  Te167  1  0.00383412  0.49955040  0.66173986  1
  Te  Te168  1  0.00196785  0.83274746  -0.00059720  1
  Te  Te169  1  -0.00131183  0.83225243  0.33838235  1
  Te  Te170  1  -0.00080467  0.82965201  0.65929236  1
  Te  Te171  1  0.32858614  0.16508052  0.00117574  1
  Te  Te172  1  0.33893601  0.16636393  0.34043555  1
  Te  Te173  1  0.33286026  0.16737051  0.66216685  1
  Te  Te174  1  0.33654026  0.49714441  0.00281934  1
  Te  Te175  1  0.32779360  0.50581016  0.33281063  1
  Te  Te176  1  0.32833998  0.50343751  0.66352516  1
  Te  Te177  1  0.33056228  0.83640709  0.00270096  1
  Te  Te178  1  0.33452441  0.83263197  0.33234300  1
  Te  Te179  1  0.33479144  0.83348493  0.66667770  1
  Te  Te180  1  0.66792727  0.15560676  -0.00069496  1
  Te  Te181  1  0.65838150  0.16020024  0.33291962  1
  Te  Te182  1  0.65821081  0.16730131  0.66678931  1
  Te  Te183  1  0.65937036  0.50004170  0.00099497  1
  Te  Te184  1  0.66863698  0.50544152  0.33245655  1
  Te  Te185  1  0.67400809  0.50164137  0.66566161  1
  Te  Te186  1  0.66820394  0.83825875  0.00111101  1
  Te  Te187  1  0.66608923  0.83571363  0.33034412  1
  Te  Te188  1  0.65924299  0.83167753  0.67299436  1
  Te  Te189  1  -0.00710276  0.00079802  0.17349399  1
  Te  Te190  1  -0.00138645  -0.00227251  0.49739101  1
  Te  Te191  1  -0.00430054  0.00314751  0.83200107  1
  Te  Te192  1  -0.00095664  0.33313303  0.16785510  1
  Te  Te193  1  0.00171428  0.33293976  0.50079639  1
  Te  Te194  1  -0.00251738  0.32857120  0.83156688  1
  Te  Te195  1  0.00704273  0.66591932  0.17295875  1
  Te  Te196  1  0.00444556  0.66744952  0.49963019  1
  Te  Te197  1  -0.00048828  0.66710497  0.82647986  1
  Te  Te198  1  0.33742572  -0.00283897  0.16273466  1
  Te  Te199  1  0.33770607  -0.00427488  0.50189065  1
  Te  Te200  1  0.33451528  -0.00168194  0.83285660  1
  Te  Te201  1  0.33370026  0.33111414  0.16633551  1
  Te  Te202  1  0.33138619  0.33721610  0.49986494  1
  Te  Te203  1  0.33676165  0.33476423  0.83830424  1
  Te  Te204  1  0.32984094  0.66830506  0.16711036  1
  Te  Te205  1  0.33021361  0.66876434  0.49902418  1
  Te  Te206  1  0.33859750  0.67132429  0.83181520  1
  Te  Te207  1  0.66538654  -0.00399198  0.16633209  1
  Te  Te208  1  0.66462348  -0.00112150  0.49464179  1
  Te  Te209  1  0.66908512  -0.00409657  0.83409737  1
  Te  Te210  1  0.66872039  0.33600704  0.16631874  1
  Te  Te211  1  0.66302219  0.33361577  0.49881966  1
  Te  Te212  1  0.66751806  0.33299244  0.83501229  1
  Te  Te213  1  0.66752024  0.67377098  0.17188349  1
  Te  Te214  1  0.66865270  0.66705607  0.49290780  1
  Te  Te215  1  0.66054062  0.67397128  0.83273976  1
