# generated using pymatgen
data_AgSbTe2
_symmetry_space_group_name_H-M   'P 1'
_cell_length_a   18.32633089
_cell_length_b   18.32408697
_cell_length_c   18.32300622
_cell_angle_alpha   90.00099434
_cell_angle_beta   89.99752756
_cell_angle_gamma   89.99841766
_symmetry_Int_Tables_number   1
_chemical_formula_structural   AgSbTe2
_chemical_formula_sum   'Ag54 Sb54 Te108'
_cell_volume   6153.10882853
_cell_formula_units_Z   54
loop_
 _symmetry_equiv_pos_site_id
 _symmetry_equiv_pos_as_xyz
  1  'x, y, z'
loop_
 _atom_site_type_symbol
 _atom_site_label
 _atom_site_symmetry_multiplicity
 _atom_site_fract_x
 _atom_site_fract_y
 _atom_site_fract_z
 _atom_site_occupancy
  Ag  Ag0  1  0.82946410  0.66984089  0.50130343  1
  Ag  Ag1  1  -0.00519698  0.83930140  0.50102489  1
  Ag  Ag2  1  0.67329789  0.32350601  0.66564629  1
  Ag  Ag3  1  0.49932721  0.16970316  0.34760961  1
  Ag  Ag4  1  0.66957924  0.66492444  0.34693304  1
  Ag  Ag5  1  0.67005783  0.16504844  0.82190601  1
  Ag  Ag6  1  0.00939559  0.66320767  0.00500995  1
  Ag  Ag7  1  0.49846641  0.33086376  0.50202954  1
  Ag  Ag8  1  0.50402582  0.49755161  0.33945895  1
  Ag  Ag9  1  0.82951598  0.16963687  0.66212122  1
  Ag  Ag10  1  0.00214149  0.82412903  0.16870882  1
  Ag  Ag11  1  0.00036097  0.17206399  0.82083924  1
  Ag  Ag12  1  0.84158056  0.33163974  0.82658513  1
  Ag  Ag13  1  0.16074199  0.00382380  0.49752054  1
  Ag  Ag14  1  -0.00703815  0.32882117  0.66916283  1
  Ag  Ag15  1  -0.00419996  0.16643154  0.50372116  1
  Ag  Ag16  1  0.16192097  0.16695313  0.66186779  1
  Ag  Ag17  1  0.83744926  0.33793047  0.16438065  1
  Ag  Ag18  1  0.32752850  0.66315824  -0.00524080  1
  Ag  Ag19  1  0.50537891  0.16427408  0.66328888  1
  Ag  Ag20  1  0.16858345  0.82399942  0.00037013  1
  Ag  Ag21  1  0.83593838  0.17316433  0.34501348  1
  Ag  Ag22  1  0.67063492  0.16298078  0.50444124  1
  Ag  Ag23  1  0.50012682  -0.00146801  0.82810437  1
  Ag  Ag24  1  0.67076282  0.82983684  0.50561635  1
  Ag  Ag25  1  0.33485097  0.50195222  0.50466563  1
  Ag  Ag26  1  0.82448620  0.83238345  0.66178384  1
  Ag  Ag27  1  0.16419364  0.16399714  0.34257258  1
  Ag  Ag28  1  0.32670199  0.33732674  -0.00278397  1
  Ag  Ag29  1  0.83372434  0.49232654  0.66040862  1
  Ag  Ag30  1  -0.00542064  0.49918989  0.49811245  1
  Ag  Ag31  1  0.32777536  0.16739824  0.17341927  1
  Ag  Ag32  1  0.33590440  0.83338444  0.50531996  1
  Ag  Ag33  1  0.84030802  0.00158939  0.50200906  1
  Ag  Ag34  1  0.16130517  0.33108904  0.83431319  1
  Ag  Ag35  1  0.16864428  0.66366598  0.83866049  1
  Ag  Ag36  1  -0.00239341  0.50457244  0.16978539  1
  Ag  Ag37  1  0.50883177  0.66466216  0.50236147  1
  Ag  Ag38  1  0.66467079  0.67690567  0.66297663  1
  Ag  Ag39  1  0.49322910  0.82720970  -0.00896690  1
  Ag  Ag40  1  0.16565689  0.00205048  0.17102415  1
  Ag  Ag41  1  0.16713832  0.16728066  -0.00250247  1
  Ag  Ag42  1  0.00530785  0.33615416  -0.00681003  1
  Ag  Ag43  1  0.49366550  0.50395120  -0.00012470  1
  Ag  Ag44  1  0.15920761  0.67164446  0.15840057  1
  Ag  Ag45  1  0.33443626  0.00098276  0.66335396  1
  Ag  Ag46  1  0.50666028  0.83530660  0.66638803  1
  Ag  Ag47  1  0.33671307  0.66910619  0.66459247  1
  Ag  Ag48  1  0.83308841  0.49942490  0.34204208  1
  Ag  Ag49  1  0.84115123  0.66167811  0.17458933  1
  Ag  Ag50  1  0.00188933  0.00361633  0.33958687  1
  Ag  Ag51  1  0.33213304  0.50230443  0.82812435  1
  Ag  Ag52  1  0.66388575  0.83546266  0.82219732  1
  Ag  Ag53  1  0.33538821  0.16613219  0.50242603  1
  Sb  Sb54  1  0.00333923  0.49378058  0.83230606  1
  Sb  Sb55  1  0.66798984  0.50295598  0.50204898  1
  Sb  Sb56  1  0.82971584  0.00577799  0.82244009  1
  Sb  Sb57  1  0.16545798  0.67078116  0.50069712  1
  Sb  Sb58  1  0.83726606  0.66264997  0.82788162  1
  Sb  Sb59  1  0.32689024  0.83590516  0.16793579  1
  Sb  Sb60  1  0.33071893  0.17132434  0.82744346  1
  Sb  Sb61  1  0.33420458  0.33110770  0.33245211  1
  Sb  Sb62  1  0.67140420  -0.00119349  0.33908627  1
  Sb  Sb63  1  0.66288402  0.49997775  0.82882067  1
  Sb  Sb64  1  0.50202639  0.50084963  0.66235799  1
  Sb  Sb65  1  0.33666044  0.66488957  0.33718805  1
  Sb  Sb66  1  0.66782213  0.33296285  -0.00783150  1
  Sb  Sb67  1  0.00405650  0.00108820  0.00499984  1
  Sb  Sb68  1  0.66863377  0.33592694  0.34318597  1
  Sb  Sb69  1  0.67228191  0.83048642  0.16876526  1
  Sb  Sb70  1  0.32867948  0.00374875  0.34184983  1
  Sb  Sb71  1  0.49806700  0.00254390  0.50514970  1
  Sb  Sb72  1  0.49143192  0.00081800  0.16324142  1
  Sb  Sb73  1  0.33658623  0.82861634  0.82778446  1
  Sb  Sb74  1  -0.00396496  0.66828066  0.33050591  1
  Sb  Sb75  1  0.83441600  0.82861116  0.34321347  1
  Sb  Sb76  1  0.00514552  0.16937352  0.17009619  1
  Sb  Sb77  1  0.84332526  -0.00107598  0.17782641  1
  Sb  Sb78  1  0.49926918  0.66649085  0.16965870  1
  Sb  Sb79  1  0.16177987  0.33193424  0.15944197  1
  Sb  Sb80  1  0.50256951  0.33422464  0.16951933  1
  Sb  Sb81  1  0.83071914  0.33268275  0.50542002  1
  Sb  Sb82  1  0.00391163  0.00835993  0.65958464  1
  Sb  Sb83  1  0.49291586  0.16793283  -0.00537338  1
  Sb  Sb84  1  0.16340442  0.83855010  0.33113920  1
  Sb  Sb85  1  0.66471938  0.66723042  -0.00480460  1
  Sb  Sb86  1  0.16939021  0.50191173  -0.00142551  1
  Sb  Sb87  1  0.33316384  0.33330321  0.66820044  1
  Sb  Sb88  1  0.49894982  0.33055344  0.82776036  1
  Sb  Sb89  1  -0.00303487  0.32930172  0.33759091  1
  Sb  Sb90  1  0.84004582  0.16857581  -0.00375293  1
  Sb  Sb91  1  0.16680676  0.83673671  0.66714166  1
  Sb  Sb92  1  0.50074366  0.83414270  0.34099925  1
  Sb  Sb93  1  0.66546762  0.16787187  0.17197898  1
  Sb  Sb94  1  0.16352076  0.49559502  0.33510893  1
  Sb  Sb95  1  0.67247149  0.50015636  0.16920795  1
  Sb  Sb96  1  0.33019284  -0.00102975  -0.00579747  1
  Sb  Sb97  1  0.32867543  0.49749958  0.16668853  1
  Sb  Sb98  1  0.16880530  0.32440337  0.50565501  1
  Sb  Sb99  1  0.83588885  0.83078607  -0.00429898  1
  Sb  Sb100  1  0.16332523  0.49524312  0.66586204  1
  Sb  Sb101  1  0.49563767  0.66966313  0.82699859  1
  Sb  Sb102  1  0.00006854  0.66281382  0.66685354  1
  Sb  Sb103  1  0.16901088  0.00320675  0.83049956  1
  Sb  Sb104  1  0.66525494  -0.00059955  -0.00261617  1
  Sb  Sb105  1  0.66122484  0.00023742  0.66380992  1
  Sb  Sb106  1  0.83323712  0.49946592  -0.00096789  1
  Sb  Sb107  1  -0.00257316  0.83697129  0.83025974  1
  Te  Te108  1  0.16900096  0.16625015  0.16472181  1
  Te  Te109  1  0.16704870  0.16518710  0.50122798  1
  Te  Te110  1  0.16396865  0.16782855  0.83297347  1
  Te  Te111  1  0.16016312  0.50378790  0.16922065  1
  Te  Te112  1  0.16902898  0.50085511  0.49872351  1
  Te  Te113  1  0.17170670  0.49989519  0.83180121  1
  Te  Te114  1  0.16341467  0.83289285  0.16385167  1
  Te  Te115  1  0.16474174  0.83874812  0.49912242  1
  Te  Te116  1  0.16569987  0.83311757  0.83919541  1
  Te  Te117  1  0.49434858  0.16702607  0.16758419  1
  Te  Te118  1  0.49736474  0.16289314  0.50320119  1
  Te  Te119  1  0.50312717  0.16308471  0.82836142  1
  Te  Te120  1  0.49945090  0.50002712  0.17263068  1
  Te  Te121  1  0.49949718  0.50305659  0.49845223  1
  Te  Te122  1  0.49427294  0.49968606  0.83574170  1
  Te  Te123  1  0.50012122  0.83430565  0.16300757  1
  Te  Te124  1  0.49852325  0.83325293  0.50420122  1
  Te  Te125  1  0.50236499  0.83472014  0.83010370  1
  Te  Te126  1  0.83251538  0.16809152  0.16765538  1
  Te  Te127  1  0.83447142  0.17086166  0.50148067  1
  Te  Te128  1  0.83343657  0.17073413  0.82999420  1
  Te  Te129  1  0.83774307  0.50175858  0.16532183  1
  Te  Te130  1  0.83404974  0.49956646  0.50020668  1
  Te  Te131  1  0.83280087  0.49407859  0.82885163  1
  Te  Te132  1  0.84073602  0.82928595  0.16547952  1
  Te  Te133  1  0.83441607  0.82996950  0.50272861  1
  Te  Te134  1  0.82768082  0.83402405  0.82654912  1
  Te  Te135  1  0.16701864  0.00427731  0.00268592  1
  Te  Te136  1  0.16363431  0.00500719  0.33456114  1
  Te  Te137  1  0.17413120  0.00463978  0.66309339  1
  Te  Te138  1  0.16608727  0.33167368  -0.00416010  1
  Te  Te139  1  0.16597042  0.32468792  0.33080579  1
  Te  Te140  1  0.16350653  0.32781459  0.67300012  1
  Te  Te141  1  0.16739341  0.66555334  -0.00076672  1
  Te  Te142  1  0.16751388  0.66527985  0.32767003  1
  Te  Te143  1  0.17149193  0.66701687  0.67010951  1
  Te  Te144  1  0.49799221  -0.00617487  -0.00579561  1
  Te  Te145  1  0.50111245  0.00721439  0.33067517  1
  Te  Te146  1  0.49443129  -0.00115335  0.66838534  1
  Te  Te147  1  0.49739222  0.33746330  0.00036752  1
  Te  Te148  1  0.50140242  0.33208263  0.33747323  1
  Te  Te149  1  0.50275163  0.33095394  0.66196975  1
  Te  Te150  1  0.49705693  0.66714099  0.00093711  1
  Te  Te151  1  0.50514669  0.66549681  0.33809887  1
  Te  Te152  1  0.49942041  0.66793308  0.66229767  1
  Te  Te153  1  0.83427249  -0.00072400  0.00180450  1
  Te  Te154  1  0.83846196  0.00731019  0.34068803  1
  Te  Te155  1  0.83631051  0.00062294  0.66054671  1
  Te  Te156  1  0.83664172  0.33369851  -0.00048463  1
  Te  Te157  1  0.83226433  0.33529960  0.32732580  1
  Te  Te158  1  0.83296474  0.33103697  0.66669641  1
  Te  Te159  1  0.83575464  0.66596122  0.00078626  1
  Te  Te160  1  0.83103340  0.66258311  0.33568993  1
  Te  Te161  1  0.83301158  0.66831717  0.66429777  1
  Te  Te162  1  0.00594042  0.17024887  0.00130768  1
  Te  Te163  1  -0.00147248  0.16476118  0.33660497  1
  Te  Te164  1  0.00079241  0.16853791  0.66438401  1
  Te  Te165  1  -0.00097338  0.49984589  0.00223607  1
  Te  Te166  1  -0.00425741  0.49830476  0.33611277  1
  Te  Te167  1  -0.00452621  0.49499924  0.66234033  1
  Te  Te168  1  0.00405361  0.82955273  -0.00067018  1
  Te  Te169  1  -0.00108668  0.83891077  0.33670399  1
  Te  Te170  1  -0.00206816  0.83193301  0.66183973  1
  Te  Te171  1  0.32921802  0.16884489  -0.00150426  1
  Te  Te172  1  0.33446065  0.16665971  0.33632987  1
  Te  Te173  1  0.33505566  0.16841297  0.66351168  1
  Te  Te174  1  0.33569088  0.50106833  0.00291224  1
  Te  Te175  1  0.33757617  0.49845010  0.33831757  1
  Te  Te176  1  0.33357601  0.50313575  0.66512444  1
  Te  Te177  1  0.33215320  0.82985944  0.00014941  1
  Te  Te178  1  0.33372496  0.83403568  0.34210260  1
  Te  Te179  1  0.33267033  0.82909255  0.66332623  1
  Te  Te180  1  0.66461815  0.16714320  -0.00383186  1
  Te  Te181  1  0.66729513  0.16731952  0.33923506  1
  Te  Te182  1  0.66682048  0.16404626  0.66476312  1
  Te  Te183  1  0.65517376  0.50036420  -0.00115022  1
  Te  Te184  1  0.66738373  0.50435935  0.33412107  1
  Te  Te185  1  0.67277458  0.49899024  0.66811575  1
  Te  Te186  1  0.66143588  0.83218591  -0.00280926  1
  Te  Te187  1  0.66671841  0.82680966  0.33802776  1
  Te  Te188  1  0.66556048  0.83498483  0.66423443  1
  Te  Te189  1  0.00678542  -0.00452544  0.17225940  1
  Te  Te190  1  0.00035111  0.00182750  0.49944001  1
  Te  Te191  1  -0.00067557  0.00816651  0.83567576  1
  Te  Te192  1  -0.00365224  0.33712183  0.16392213  1
  Te  Te193  1  0.00235836  0.33353251  0.50470097  1
  Te  Te194  1  0.00097920  0.33239921  0.83322762  1
  Te  Te195  1  -0.00049161  0.66654595  0.16706778  1
  Te  Te196  1  -0.00293420  0.66387113  0.49960051  1
  Te  Te197  1  0.00595301  0.66664563  0.83866628  1
  Te  Te198  1  0.32467262  0.00490075  0.16621697  1
  Te  Te199  1  0.33080086  0.00146467  0.50406746  1
  Te  Te200  1  0.33750800  -0.00042222  0.82597596  1
  Te  Te201  1  0.33405168  0.32898727  0.15957537  1
  Te  Te202  1  0.33754897  0.33396496  0.50013246  1
  Te  Te203  1  0.33173284  0.33874418  0.83742040  1
  Te  Te204  1  0.33004987  0.66696569  0.16339467  1
  Te  Te205  1  0.33142568  0.66606335  0.50226339  1
  Te  Te206  1  0.32993292  0.66322708  0.83401246  1
  Te  Te207  1  0.66752711  -0.00110568  0.16746818  1
  Te  Te208  1  0.67465729  0.00046296  0.49845714  1
  Te  Te209  1  0.66258986  0.00033153  0.83363721  1
  Te  Te210  1  0.67525904  0.33233533  0.16436056  1
  Te  Te211  1  0.65902567  0.32656843  0.50588282  1
  Te  Te212  1  0.66845187  0.32911409  0.82646887  1
  Te  Te213  1  0.67277182  0.66711315  0.16732586  1
  Te  Te214  1  0.66800134  0.66712303  0.50438021  1
  Te  Te215  1  0.66756808  0.67124746  0.82628002  1
