# generated using pymatgen
data_AgSbTe2
_symmetry_space_group_name_H-M   'P 1'
_cell_length_a   18.32254799
_cell_length_b   18.32678207
_cell_length_c   18.32354095
_cell_angle_alpha   89.99804507
_cell_angle_beta   89.99640362
_cell_angle_gamma   89.99861351
_symmetry_Int_Tables_number   1
_chemical_formula_structural   AgSbTe2
_chemical_formula_sum   'Ag54 Sb54 Te108'
_cell_volume   6152.92307189
_cell_formula_units_Z   54
loop_
 _symmetry_equiv_pos_site_id
 _symmetry_equiv_pos_as_xyz
  1  'x, y, z'
loop_
 _atom_site_type_symbol
 _atom_site_label
 _atom_site_symmetry_multiplicity
 _atom_site_fract_x
 _atom_site_fract_y
 _atom_site_fract_z
 _atom_site_occupancy
  Ag  Ag0  1  0.32361503  0.33622408  0.33760087  1
  Ag  Ag1  1  0.83349335  0.34002430  0.50086811  1
  Ag  Ag2  1  0.00272826  0.33662946  0.33789026  1
  Ag  Ag3  1  -0.00313587  0.49824324  0.18135504  1
  Ag  Ag4  1  -0.00078127  0.49368885  0.82758808  1
  Ag  Ag5  1  0.50091833  0.50137475  0.33847688  1
  Ag  Ag6  1  0.16554743  0.49763214  0.66302905  1
  Ag  Ag7  1  0.82902003  0.83124738  0.34487829  1
  Ag  Ag8  1  0.33047830  0.50584435  0.82395621  1
  Ag  Ag9  1  0.67148107  0.00099899  -0.00703190  1
  Ag  Ag10  1  0.67381753  0.83243122  0.50743219  1
  Ag  Ag11  1  0.67347201  0.83321201  0.82806156  1
  Ag  Ag12  1  0.33483935  0.82197528  0.50444963  1
  Ag  Ag13  1  0.16133637  0.33178463  0.83035322  1
  Ag  Ag14  1  0.00344774  0.49853156  0.50071002  1
  Ag  Ag15  1  0.16019559  0.49349211  0.34467018  1
  Ag  Ag16  1  0.83931267  0.15755411  0.67163912  1
  Ag  Ag17  1  0.66918529  0.33469578  0.67128153  1
  Ag  Ag18  1  0.83204824  -0.00028029  0.83117609  1
  Ag  Ag19  1  -0.00901084  0.82902195  0.50222559  1
  Ag  Ag20  1  0.82969145  -0.00430349  0.16014522  1
  Ag  Ag21  1  0.82991924  0.83648352  0.66645652  1
  Ag  Ag22  1  0.15726862  0.00516499  0.82367147  1
  Ag  Ag23  1  0.83661039  0.50382971  0.33867334  1
  Ag  Ag24  1  0.67564892  -0.00690619  0.67208789  1
  Ag  Ag25  1  0.82740824  0.67211730  0.83021525  1
  Ag  Ag26  1  0.16853553  0.66222760  0.50202647  1
  Ag  Ag27  1  0.16343161  -0.00156164  0.50599224  1
  Ag  Ag28  1  0.33959455  0.66741660  -0.01145142  1
  Ag  Ag29  1  0.66975288  -0.00271713  0.33574633  1
  Ag  Ag30  1  0.15775319  0.16769504  0.66427869  1
  Ag  Ag31  1  0.32281924  0.50416819  0.50255189  1
  Ag  Ag32  1  0.50919725  0.83165122  0.33859873  1
  Ag  Ag33  1  0.83215497  0.67137127  0.16703928  1
  Ag  Ag34  1  0.00022253  0.16792333  0.50942639  1
  Ag  Ag35  1  0.66984967  0.67038388  -0.01133134  1
  Ag  Ag36  1  0.82939906  0.16171886  -0.01126018  1
  Ag  Ag37  1  0.33564765  0.66643548  0.66591702  1
  Ag  Ag38  1  0.51256593  0.00079089  0.16742312  1
  Ag  Ag39  1  0.16430599  0.17405098  0.34443059  1
  Ag  Ag40  1  0.67751314  0.16294040  0.83324095  1
  Ag  Ag41  1  0.66999865  0.66959633  0.66910480  1
  Ag  Ag42  1  0.67391264  0.32293413  -0.00981117  1
  Ag  Ag43  1  0.50435741  0.34059772  0.49829577  1
  Ag  Ag44  1  0.67538240  0.50294729  0.83169965  1
  Ag  Ag45  1  0.33621987  0.82473165  0.82522474  1
  Ag  Ag46  1  -0.00561696  0.17016206  0.82660268  1
  Ag  Ag47  1  0.49694538  0.66467093  0.49945834  1
  Ag  Ag48  1  0.33334604  0.16589716  0.16622702  1
  Ag  Ag49  1  -0.00665094  0.00479003  0.66629630  1
  Ag  Ag50  1  0.83280645  0.66943239  0.50308835  1
  Ag  Ag51  1  -0.00779417  0.33390566  -0.00676682  1
  Ag  Ag52  1  0.82978110  0.83768590  -0.01004333  1
  Ag  Ag53  1  0.51202847  0.16667878  -0.00077338  1
  Sb  Sb54  1  0.50079421  0.32985807  0.17096619  1
  Sb  Sb55  1  0.83341044  0.49992817  -0.00091050  1
  Sb  Sb56  1  0.49846274  0.50156616  0.66101792  1
  Sb  Sb57  1  0.50255496  0.33495872  0.82963617  1
  Sb  Sb58  1  0.83503758  0.33076788  0.82821568  1
  Sb  Sb59  1  0.83418810  0.33315219  0.16921862  1
  Sb  Sb60  1  0.50222348  0.49741749  0.00317205  1
  Sb  Sb61  1  0.33024266  0.16711627  0.83509594  1
  Sb  Sb62  1  0.50879909  0.83605432  0.00233672  1
  Sb  Sb63  1  0.50921261  -0.00104653  0.83660943  1
  Sb  Sb64  1  0.67006097  0.67133264  0.33934423  1
  Sb  Sb65  1  0.16227589  0.66341177  0.17252509  1
  Sb  Sb66  1  0.49950389  -0.00303558  0.49645487  1
  Sb  Sb67  1  0.66955208  0.33054733  0.33763239  1
  Sb  Sb68  1  0.50599944  0.66688889  0.82807026  1
  Sb  Sb69  1  0.33493999  0.00234084  0.33438433  1
  Sb  Sb70  1  0.32682837  0.17083832  0.49782675  1
  Sb  Sb71  1  0.16187896  0.33653961  0.50370405  1
  Sb  Sb72  1  0.16538646  0.50021308  -0.00536427  1
  Sb  Sb73  1  -0.00624865  0.83496928  0.82756982  1
  Sb  Sb74  1  -0.00477603  0.00380692  0.34034672  1
  Sb  Sb75  1  0.66583810  0.16335396  0.15873815  1
  Sb  Sb76  1  0.33942581  -0.00353013  -0.00307672  1
  Sb  Sb77  1  0.16262338  0.16710671  -0.00521624  1
  Sb  Sb78  1  0.49696768  0.16657114  0.33083323  1
  Sb  Sb79  1  -0.00407536  0.65842647  0.33824571  1
  Sb  Sb80  1  -0.00535801  0.32867359  0.66485021  1
  Sb  Sb81  1  0.32864825  0.49775138  0.17217950  1
  Sb  Sb82  1  0.00068556  0.16985144  0.16565200  1
  Sb  Sb83  1  -0.00967351  0.00583033  -0.00825541  1
  Sb  Sb84  1  0.16418708  0.83287936  0.34077044  1
  Sb  Sb85  1  0.50561736  0.67052698  0.17120250  1
  Sb  Sb86  1  0.33460780  0.66170932  0.34016614  1
  Sb  Sb87  1  -0.00603499  0.82953544  0.17453194  1
  Sb  Sb88  1  0.50390677  0.16747629  0.67029678  1
  Sb  Sb89  1  0.16613004  0.66488739  0.82627390  1
  Sb  Sb90  1  0.33331184  0.33589313  -0.00004201  1
  Sb  Sb91  1  0.67103264  0.83527737  0.16811338  1
  Sb  Sb92  1  0.67286426  0.50255486  0.16380616  1
  Sb  Sb93  1  0.83734007  0.16445607  0.33756267  1
  Sb  Sb94  1  0.33162595  -0.00630456  0.66678684  1
  Sb  Sb95  1  0.16158635  0.83346930  -0.00614046  1
  Sb  Sb96  1  -0.00541943  0.66285786  -0.00319707  1
  Sb  Sb97  1  0.83726722  -0.00442604  0.50595299  1
  Sb  Sb98  1  0.16523869  0.33332546  0.16776143  1
  Sb  Sb99  1  0.83661745  0.50190277  0.66390278  1
  Sb  Sb100  1  0.16141976  0.83363537  0.66380050  1
  Sb  Sb101  1  0.50810324  0.83256560  0.66103621  1
  Sb  Sb102  1  0.33564913  0.83548781  0.16794211  1
  Sb  Sb103  1  -0.00329091  0.66880366  0.66423075  1
  Sb  Sb104  1  0.66880197  0.50546833  0.50539814  1
  Sb  Sb105  1  0.33462097  0.33877318  0.66186566  1
  Sb  Sb106  1  0.16272775  0.00280892  0.16896246  1
  Sb  Sb107  1  0.67351914  0.16265600  0.50802462  1
  Te  Te108  1  0.17063644  0.16585681  0.16934111  1
  Te  Te109  1  0.16302798  0.16677902  0.50289963  1
  Te  Te110  1  0.16421131  0.16562836  0.82959813  1
  Te  Te111  1  0.15907736  0.50058890  0.17329497  1
  Te  Te112  1  0.16503910  0.49913287  0.50141725  1
  Te  Te113  1  0.16595846  0.49898471  0.82903229  1
  Te  Te114  1  0.16474486  0.83311161  0.16730525  1
  Te  Te115  1  0.16891218  0.83133998  0.50041881  1
  Te  Te116  1  0.16972479  0.83750569  0.83151703  1
  Te  Te117  1  0.49650472  0.16272950  0.16314652  1
  Te  Te118  1  0.49920969  0.16986464  0.50041029  1
  Te  Te119  1  0.50075001  0.16708187  0.83943853  1
  Te  Te120  1  0.49934081  0.50075345  0.17642930  1
  Te  Te121  1  0.50372267  0.50206286  0.49622294  1
  Te  Te122  1  0.49381288  0.49994474  0.83452160  1
  Te  Te123  1  0.50006961  0.83915707  0.17515838  1
  Te  Te124  1  0.49670463  0.83188766  0.49621146  1
  Te  Te125  1  0.49492820  0.83340107  0.83462507  1
  Te  Te126  1  0.83393849  0.16072308  0.16549896  1
  Te  Te127  1  0.83955831  0.16951088  0.50411141  1
  Te  Te128  1  0.83419177  0.16744092  0.83213245  1
  Te  Te129  1  0.83827579  0.50303694  0.17207297  1
  Te  Te130  1  0.83452886  0.50242456  0.49912546  1
  Te  Te131  1  0.83385102  0.50379544  0.83140599  1
  Te  Te132  1  0.83454322  0.83180090  0.16778123  1
  Te  Te133  1  0.83324074  0.83284135  0.50275329  1
  Te  Te134  1  0.83253613  0.83298785  0.83056250  1
  Te  Te135  1  0.16599392  -0.00014757  -0.00335470  1
  Te  Te136  1  0.16549947  0.00446672  0.33772298  1
  Te  Te137  1  0.16627442  0.00097941  0.66619762  1
  Te  Te138  1  0.16392411  0.33299489  -0.00667085  1
  Te  Te139  1  0.16474630  0.33383598  0.33399228  1
  Te  Te140  1  0.16842773  0.33301806  0.67094675  1
  Te  Te141  1  0.17167925  0.66778060  0.00164217  1
  Te  Te142  1  0.16640445  0.66179747  0.34034387  1
  Te  Te143  1  0.16999645  0.66392530  0.66096870  1
  Te  Te144  1  0.50629647  0.00357893  0.00606587  1
  Te  Te145  1  0.50352926  -0.00211682  0.32883420  1
  Te  Te146  1  0.50766621  0.00129144  0.66680280  1
  Te  Te147  1  0.50265691  0.32854108  0.00102135  1
  Te  Te148  1  0.50132376  0.33563592  0.33811996  1
  Te  Te149  1  0.50661003  0.33327000  0.65934638  1
  Te  Te150  1  0.50173933  0.66692955  0.00265443  1
  Te  Te151  1  0.50221570  0.66756863  0.33776335  1
  Te  Te152  1  0.50066213  0.66694586  0.65906439  1
  Te  Te153  1  0.83030119  -0.00029541  -0.00341063  1
  Te  Te154  1  0.82975318  -0.00301127  0.33132925  1
  Te  Te155  1  0.83256763  -0.00024484  0.66812159  1
  Te  Te156  1  0.83258092  0.33113303  0.00176391  1
  Te  Te157  1  0.83702867  0.33545629  0.33759091  1
  Te  Te158  1  0.82783997  0.33155445  0.66085321  1
  Te  Te159  1  0.83024164  0.66687342  -0.00350826  1
  Te  Te160  1  0.83221921  0.66807911  0.33476302  1
  Te  Te161  1  0.83097403  0.66829030  0.66621622  1
  Te  Te162  1  -0.00497741  0.17296665  -0.00224912  1
  Te  Te163  1  0.00454605  0.17198868  0.33342274  1
  Te  Te164  1  0.00040755  0.16561010  0.66748322  1
  Te  Te165  1  0.00053381  0.49437460  -0.00954212  1
  Te  Te166  1  -0.00203813  0.49707945  0.33891368  1
  Te  Te167  1  0.00407362  0.50065524  0.66576629  1
  Te  Te168  1  -0.00835657  0.83221912  0.00116938  1
  Te  Te169  1  -0.00527426  0.83464245  0.34221056  1
  Te  Te170  1  -0.00616281  0.83879492  0.66055130  1
  Te  Te171  1  0.33332633  0.16636431  0.00394902  1
  Te  Te172  1  0.32885936  0.17100326  0.33051593  1
  Te  Te173  1  0.32894533  0.16536783  0.66693077  1
  Te  Te174  1  0.33379105  0.50484538  -0.00003913  1
  Te  Te175  1  0.33348110  0.49615231  0.33629009  1
  Te  Te176  1  0.33165341  0.50380904  0.66420633  1
  Te  Te177  1  0.33425447  0.82825160  -0.00146066  1
  Te  Te178  1  0.33361285  0.83334657  0.33723147  1
  Te  Te179  1  0.33394908  0.82815008  0.66536691  1
  Te  Te180  1  0.66935024  0.16481781  -0.00360761  1
  Te  Te181  1  0.66664312  0.16046393  0.33449440  1
  Te  Te182  1  0.66895159  0.16759462  0.67281417  1
  Te  Te183  1  0.66550904  0.50318786  -0.00628286  1
  Te  Te184  1  0.66919048  0.49880550  0.33301867  1
  Te  Te185  1  0.66585669  0.50089128  0.67262516  1
  Te  Te186  1  0.67048706  0.83388912  -0.00407973  1
  Te  Te187  1  0.66849746  0.83595532  0.33532545  1
  Te  Te188  1  0.66873495  0.83225663  0.66768346  1
  Te  Te189  1  -0.00625492  -0.00073208  0.16592527  1
  Te  Te190  1  0.00381978  0.00364622  0.50383088  1
  Te  Te191  1  -0.00170153  0.00168975  0.82812012  1
  Te  Te192  1  -0.00049382  0.33803088  0.16744390  1
  Te  Te193  1  -0.00336146  0.33535526  0.49882998  1
  Te  Te194  1  0.00040271  0.33311496  0.83204681  1
  Te  Te195  1  -0.00623517  0.65950680  0.16492385  1
  Te  Te196  1  -0.00310330  0.66583696  0.50166348  1
  Te  Te197  1  -0.00384893  0.66307877  0.83160462  1
  Te  Te198  1  0.33243888  0.00415538  0.16542939  1
  Te  Te199  1  0.32767429  -0.00223912  0.50043224  1
  Te  Te200  1  0.33040172  -0.00295726  0.83326221  1
  Te  Te201  1  0.33319458  0.32896694  0.17134070  1
  Te  Te202  1  0.33786994  0.33804450  0.49640205  1
  Te  Te203  1  0.32955212  0.33836938  0.83289049  1
  Te  Te204  1  0.33402705  0.66639368  0.16126374  1
  Te  Te205  1  0.33426944  0.66422552  0.50144073  1
  Te  Te206  1  0.33290314  0.66565990  0.83016963  1
  Te  Te207  1  0.66959297  0.00025697  0.16548316  1
  Te  Te208  1  0.66587137  -0.00506302  0.50029158  1
  Te  Te209  1  0.67020091  -0.00147711  0.83253618  1
  Te  Te210  1  0.66667538  0.33381410  0.15788768  1
  Te  Te211  1  0.66918644  0.33131065  0.50327286  1
  Te  Te212  1  0.66627624  0.33518213  0.83270689  1
  Te  Te213  1  0.67279653  0.66698864  0.15832966  1
  Te  Te214  1  0.67017858  0.67165105  0.50394710  1
  Te  Te215  1  0.66677498  0.66808580  0.83030026  1
