# generated using pymatgen
data_AgSbTe2
_symmetry_space_group_name_H-M   'P 1'
_cell_length_a   18.32641370
_cell_length_b   18.31777656
_cell_length_c   18.32386786
_cell_angle_alpha   89.99695126
_cell_angle_beta   90.00082619
_cell_angle_gamma   89.99924871
_symmetry_Int_Tables_number   1
_chemical_formula_structural   AgSbTe2
_chemical_formula_sum   'Ag54 Sb54 Te108'
_cell_volume   6151.30688011
_cell_formula_units_Z   54
loop_
 _symmetry_equiv_pos_site_id
 _symmetry_equiv_pos_as_xyz
  1  'x, y, z'
loop_
 _atom_site_type_symbol
 _atom_site_label
 _atom_site_symmetry_multiplicity
 _atom_site_fract_x
 _atom_site_fract_y
 _atom_site_fract_z
 _atom_site_occupancy
  Ag  Ag0  1  0.67093134  0.17098280  0.16353688  1
  Ag  Ag1  1  0.82792477  0.17451722  0.66727035  1
  Ag  Ag2  1  -0.00449685  0.16555974  0.83356800  1
  Ag  Ag3  1  0.34540316  0.83044886  0.83097168  1
  Ag  Ag4  1  0.49548492  0.83491537  -0.00628661  1
  Ag  Ag5  1  0.83292958  0.00044396  0.17268021  1
  Ag  Ag6  1  0.67448125  0.50105916  0.49684891  1
  Ag  Ag7  1  0.83331069  0.49626592  0.65810388  1
  Ag  Ag8  1  0.83842226  0.82144625  0.33363916  1
  Ag  Ag9  1  0.32599092  0.83029288  0.50477723  1
  Ag  Ag10  1  0.67627076  0.66794127  0.00212562  1
  Ag  Ag11  1  0.66339782  0.83037653  0.83310339  1
  Ag  Ag12  1  0.16486943  0.17463526  0.67044858  1
  Ag  Ag13  1  0.16894019  0.16396861  0.00144893  1
  Ag  Ag14  1  0.83693657  0.34004212  0.50185509  1
  Ag  Ag15  1  0.33203396  0.49414608  0.16821720  1
  Ag  Ag16  1  0.50132720  0.32761636  0.82930501  1
  Ag  Ag17  1  0.83593259  0.33811895  0.17320774  1
  Ag  Ag18  1  0.00066654  0.82895160  0.49093544  1
  Ag  Ag19  1  -0.00688861  0.67018646  0.00893111  1
  Ag  Ag20  1  0.16210298  0.33853040  0.50588759  1
  Ag  Ag21  1  0.50711047  0.16874767  0.67290655  1
  Ag  Ag22  1  0.16610700  0.83380206  0.00289794  1
  Ag  Ag23  1  0.83729722  0.66360286  0.48938866  1
  Ag  Ag24  1  0.15821696  0.66660722  0.49574683  1
  Ag  Ag25  1  0.32791991  0.33411084  0.66332484  1
  Ag  Ag26  1  0.66592795  0.16451005  0.82973751  1
  Ag  Ag27  1  0.33098747  0.17096851  0.16296084  1
  Ag  Ag28  1  0.82994134  0.66749922  0.83572081  1
  Ag  Ag29  1  0.67196899  0.32876298  0.66661979  1
  Ag  Ag30  1  0.83190446  -0.00462154  0.49514435  1
  Ag  Ag31  1  -0.00291191  0.83114149  0.83549256  1
  Ag  Ag32  1  0.16474015  0.33376673  0.17097886  1
  Ag  Ag33  1  -0.00126370  0.82499272  0.16901755  1
  Ag  Ag34  1  0.15563470  0.66611967  0.17178735  1
  Ag  Ag35  1  -0.01048250  0.67071268  0.32602612  1
  Ag  Ag36  1  0.33170520  0.66494785  0.66627440  1
  Ag  Ag37  1  0.66853955  0.00874793  0.66449337  1
  Ag  Ag38  1  0.83225375  0.50619465  0.01027076  1
  Ag  Ag39  1  0.67535423  0.66794168  0.32821485  1
  Ag  Ag40  1  0.33045256  0.33313454  0.33353921  1
  Ag  Ag41  1  0.16455104  0.49327420  0.66225514  1
  Ag  Ag42  1  0.83771652  0.66340302  0.17344572  1
  Ag  Ag43  1  0.15516935  0.82861543  0.32984514  1
  Ag  Ag44  1  0.50765296  0.67475328  0.83341973  1
  Ag  Ag45  1  0.49843545  0.16342578  -0.00209207  1
  Ag  Ag46  1  0.83041290  0.50827942  0.33280657  1
  Ag  Ag47  1  0.50309580  0.16873179  0.32524616  1
  Ag  Ag48  1  -0.00194527  0.32991369  0.66500877  1
  Ag  Ag49  1  0.33355285  -0.00071015  0.00173140  1
  Ag  Ag50  1  0.50024523  0.83435446  0.67533622  1
  Ag  Ag51  1  -0.00412721  0.16708962  0.16178584  1
  Ag  Ag52  1  0.67095234  -0.00162221  0.33499445  1
  Ag  Ag53  1  0.67591478  0.49913656  0.16996278  1
  Sb  Sb54  1  0.83629604  0.82694944  0.00388509  1
  Sb  Sb55  1  0.33796699  0.00022805  0.66943865  1
  Sb  Sb56  1  0.00180160  -0.00511822  0.00148849  1
  Sb  Sb57  1  -0.00604276  0.00451254  0.66648688  1
  Sb  Sb58  1  0.50472142  0.50108168  -0.00001292  1
  Sb  Sb59  1  0.33710540  0.16294802  0.83612098  1
  Sb  Sb60  1  0.66466053  -0.00285354  -0.00001973  1
  Sb  Sb61  1  0.50629730  -0.00122768  0.50145823  1
  Sb  Sb62  1  0.33390052  0.50276567  0.83460631  1
  Sb  Sb63  1  -0.00251405  0.16522922  0.49996250  1
  Sb  Sb64  1  0.50012076  0.32972660  0.16340716  1
  Sb  Sb65  1  0.66812918  0.33523130  -0.00271850  1
  Sb  Sb66  1  0.67412666  0.83195987  0.16263521  1
  Sb  Sb67  1  0.16096382  0.00027688  0.16630385  1
  Sb  Sb68  1  0.33222935  0.67198602  -0.00261061  1
  Sb  Sb69  1  0.33299934  0.32840660  0.00040360  1
  Sb  Sb70  1  0.33272419  0.66362024  0.33599054  1
  Sb  Sb71  1  0.16887967  0.33091931  0.82906506  1
  Sb  Sb72  1  0.32569772  0.83262318  0.16493023  1
  Sb  Sb73  1  0.16396084  0.66932766  0.83351112  1
  Sb  Sb74  1  -0.00257645  0.50095082  0.83073041  1
  Sb  Sb75  1  0.16633922  -0.00031858  0.83300687  1
  Sb  Sb76  1  0.83124549  -0.00341312  0.83386053  1
  Sb  Sb77  1  0.00160620  0.33714859  0.33541376  1
  Sb  Sb78  1  0.66601633  0.33311099  0.33580452  1
  Sb  Sb79  1  0.50188345  -0.00219450  0.83348656  1
  Sb  Sb80  1  0.82942925  0.16763400  0.33265383  1
  Sb  Sb81  1  0.66905011  0.16978967  0.50329578  1
  Sb  Sb82  1  0.50624909  0.00233235  0.16596126  1
  Sb  Sb83  1  -0.00772282  -0.00702435  0.33198035  1
  Sb  Sb84  1  0.83083280  0.83134307  0.66366277  1
  Sb  Sb85  1  0.16867620  0.16603881  0.33027961  1
  Sb  Sb86  1  -0.00127913  0.33457839  -0.00139896  1
  Sb  Sb87  1  0.83077902  0.33520123  0.82782719  1
  Sb  Sb88  1  0.83280044  0.17023646  -0.00098071  1
  Sb  Sb89  1  0.50524249  0.49578999  0.33183345  1
  Sb  Sb90  1  0.00123176  0.66485937  0.66577218  1
  Sb  Sb91  1  0.66924829  0.50182644  0.83328027  1
  Sb  Sb92  1  0.16126737  0.50436450  0.33584247  1
  Sb  Sb93  1  0.16991759  0.83174625  0.66801441  1
  Sb  Sb94  1  0.33423417  0.50109630  0.49815899  1
  Sb  Sb95  1  0.50418134  0.83619170  0.33270327  1
  Sb  Sb96  1  0.50252086  0.66869072  0.50485531  1
  Sb  Sb97  1  0.50229260  0.49835744  0.66777487  1
  Sb  Sb98  1  -0.00653255  0.50575444  0.50111889  1
  Sb  Sb99  1  0.50384181  0.66792267  0.16180476  1
  Sb  Sb100  1  0.16279323  0.50121922  0.00148141  1
  Sb  Sb101  1  0.16082126  -0.00318296  0.50012575  1
  Sb  Sb102  1  0.50127070  0.33207982  0.50505234  1
  Sb  Sb103  1  0.33758512  0.00325702  0.32905121  1
  Sb  Sb104  1  0.67096755  0.83023822  0.50311538  1
  Sb  Sb105  1  0.66683511  0.66528878  0.66795651  1
  Sb  Sb106  1  0.33221775  0.16509641  0.49948380  1
  Sb  Sb107  1  -0.00472817  0.50183719  0.16671051  1
  Te  Te108  1  0.16684998  0.16777512  0.16539004  1
  Te  Te109  1  0.16557681  0.17102066  0.50158364  1
  Te  Te110  1  0.16448818  0.16661044  0.83614702  1
  Te  Te111  1  0.16937497  0.49939003  0.16772989  1
  Te  Te112  1  0.16860059  0.50004403  0.50240905  1
  Te  Te113  1  0.16652172  0.49995854  0.82663033  1
  Te  Te114  1  0.16133434  0.83166724  0.16521135  1
  Te  Te115  1  0.16423422  0.83046454  0.50058264  1
  Te  Te116  1  0.15961086  0.83306564  0.83737617  1
  Te  Te117  1  0.50309184  0.16706116  0.16299358  1
  Te  Te118  1  0.49948485  0.16617478  0.50435984  1
  Te  Te119  1  0.50201546  0.16671044  0.83403298  1
  Te  Te120  1  0.49905060  0.49858563  0.16559124  1
  Te  Te121  1  0.51015738  0.50043481  0.49964409  1
  Te  Te122  1  0.50039986  0.50160520  0.83456812  1
  Te  Te123  1  0.49805144  0.83459518  0.15973670  1
  Te  Te124  1  0.49360104  0.83308104  0.50328645  1
  Te  Te125  1  0.50246457  0.83287881  0.83407778  1
  Te  Te126  1  0.83188893  0.17137295  0.16556571  1
  Te  Te127  1  0.83464391  0.17113666  0.50502645  1
  Te  Te128  1  0.83273335  0.16658593  0.83079780  1
  Te  Te129  1  0.83299804  0.50096204  0.16896467  1
  Te  Te130  1  0.83242222  0.50052832  0.50025216  1
  Te  Te131  1  0.83301966  0.50472426  0.83225646  1
  Te  Te132  1  0.83759023  0.82952638  0.17065165  1
  Te  Te133  1  0.83564457  0.82952490  0.49684633  1
  Te  Te134  1  0.83304497  0.83005024  0.83316280  1
  Te  Te135  1  0.17097127  0.00086110  0.00025806  1
  Te  Te136  1  0.16850747  -0.00984788  0.33438050  1
  Te  Te137  1  0.16763111  0.01186160  0.66496982  1
  Te  Te138  1  0.16558780  0.33099436  0.00733337  1
  Te  Te139  1  0.16915443  0.33484222  0.33137235  1
  Te  Te140  1  0.16790022  0.33266529  0.66620638  1
  Te  Te141  1  0.16408139  0.66863118  0.00409322  1
  Te  Te142  1  0.16774436  0.66962287  0.33384235  1
  Te  Te143  1  0.16978183  0.66487605  0.66335901  1
  Te  Te144  1  0.49657930  0.00105458  0.00086481  1
  Te  Te145  1  0.50794067  0.00652923  0.33389032  1
  Te  Te146  1  0.50587830  0.00199942  0.66584502  1
  Te  Te147  1  0.50023572  0.32854672  -0.00820182  1
  Te  Te148  1  0.49371036  0.32790746  0.33449519  1
  Te  Te149  1  0.49988425  0.33112928  0.66912886  1
  Te  Te150  1  0.50152382  0.66949203  -0.00589548  1
  Te  Te151  1  0.50653431  0.66664205  0.33321937  1
  Te  Te152  1  0.49600772  0.66919564  0.67127021  1
  Te  Te153  1  0.83298539  0.00013827  0.00828621  1
  Te  Te154  1  0.82841346  0.00251989  0.33395473  1
  Te  Te155  1  0.82754072  0.00208563  0.66465219  1
  Te  Te156  1  0.83432304  0.34139364  0.00727267  1
  Te  Te157  1  0.83441568  0.33530867  0.33483957  1
  Te  Te158  1  0.83335063  0.33437314  0.66655888  1
  Te  Te159  1  0.83332576  0.66694621  -0.00155383  1
  Te  Te160  1  0.83153752  0.66615928  0.33307511  1
  Te  Te161  1  0.83368282  0.66220017  0.67009344  1
  Te  Te162  1  0.00256352  0.16645187  -0.00082613  1
  Te  Te163  1  0.00148165  0.16575585  0.32521917  1
  Te  Te164  1  0.00013453  0.16943647  0.66728927  1
  Te  Te165  1  -0.00557812  0.50781872  -0.00269802  1
  Te  Te166  1  -0.00751879  0.50784238  0.33442687  1
  Te  Te167  1  -0.00040532  0.49306508  0.66651267  1
  Te  Te168  1  0.00345496  0.83027531  -0.00067232  1
  Te  Te169  1  -0.00168432  0.83007361  0.33105975  1
  Te  Te170  1  0.00099673  0.83562461  0.67443917  1
  Te  Te171  1  0.33267588  0.16335901  0.00180360  1
  Te  Te172  1  0.33744195  0.17034961  0.32949082  1
  Te  Te173  1  0.33403614  0.16872106  0.66769665  1
  Te  Te174  1  0.33236600  0.50012475  0.00641948  1
  Te  Te175  1  0.33391227  0.49437808  0.32988768  1
  Te  Te176  1  0.33187699  0.49974249  0.66626059  1
  Te  Te177  1  0.33180745  0.83651994  -0.00194764  1
  Te  Te178  1  0.33520066  0.83366434  0.33589077  1
  Te  Te179  1  0.33582185  0.83385743  0.66892371  1
  Te  Te180  1  0.66405333  0.16556698  -0.00057214  1
  Te  Te181  1  0.66287595  0.16518855  0.33021809  1
  Te  Te182  1  0.66734234  0.16797819  0.66681620  1
  Te  Te183  1  0.67129348  0.50520585  0.00465657  1
  Te  Te184  1  0.67004760  0.50029262  0.33078889  1
  Te  Te185  1  0.66974008  0.49582080  0.66519464  1
  Te  Te186  1  0.66303607  0.83065877  -0.00485809  1
  Te  Te187  1  0.66867578  0.83328469  0.33320967  1
  Te  Te188  1  0.66241313  0.83357792  0.67088776  1
  Te  Te189  1  -0.00699167  0.00497176  0.16646678  1
  Te  Te190  1  -0.00828235  -0.00859714  0.49914857  1
  Te  Te191  1  -0.00186848  0.00202302  0.83414143  1
  Te  Te192  1  0.00055227  0.33012208  0.16736750  1
  Te  Te193  1  0.00047250  0.33219807  0.50251239  1
  Te  Te194  1  0.00039410  0.32640875  0.82875501  1
  Te  Te195  1  -0.00051813  0.66563246  0.16737558  1
  Te  Te196  1  -0.00010577  0.67116777  0.50037333  1
  Te  Te197  1  -0.00367797  0.66910104  0.83386345  1
  Te  Te198  1  0.33310581  0.00608805  0.16314104  1
  Te  Te199  1  0.33188509  -0.00748528  0.49890077  1
  Te  Te200  1  0.33249995  -0.00855822  0.83855189  1
  Te  Te201  1  0.33321339  0.33124774  0.16674804  1
  Te  Te202  1  0.32937624  0.33352738  0.50131593  1
  Te  Te203  1  0.33834477  0.33413215  0.82770573  1
  Te  Te204  1  0.33198342  0.66343805  0.16688156  1
  Te  Te205  1  0.33221083  0.66869289  0.50410913  1
  Te  Te206  1  0.33420149  0.67032837  0.82910964  1
  Te  Te207  1  0.67291628  0.00274891  0.16895817  1
  Te  Te208  1  0.67325821  -0.00106798  0.50008421  1
  Te  Te209  1  0.66859718  0.00210764  0.82964187  1
  Te  Te210  1  0.66939624  0.33282475  0.16671883  1
  Te  Te211  1  0.67070488  0.33756305  0.50368763  1
  Te  Te212  1  0.66364061  0.32972763  0.82942173  1
  Te  Te213  1  0.66899415  0.66469995  0.16565111  1
  Te  Te214  1  0.67073515  0.66342286  0.49739047  1
  Te  Te215  1  0.66721201  0.66801555  0.83505896  1
