# generated using pymatgen
data_AgSbTe2
_symmetry_space_group_name_H-M   'P 1'
_cell_length_a   18.33593665
_cell_length_b   18.33408201
_cell_length_c   18.34081934
_cell_angle_alpha   89.99862735
_cell_angle_beta   89.99816578
_cell_angle_gamma   90.00132449
_symmetry_Int_Tables_number   1
_chemical_formula_structural   AgSbTe2
_chemical_formula_sum   'Ag54 Sb54 Te108'
_cell_volume   6165.68029690
_cell_formula_units_Z   54
loop_
 _symmetry_equiv_pos_site_id
 _symmetry_equiv_pos_as_xyz
  1  'x, y, z'
loop_
 _atom_site_type_symbol
 _atom_site_label
 _atom_site_symmetry_multiplicity
 _atom_site_fract_x
 _atom_site_fract_y
 _atom_site_fract_z
 _atom_site_occupancy
  Ag  Ag0  1  0.67570369  -0.00145500  -0.00159917  1
  Ag  Ag1  1  0.83244947  0.83676332  0.33348485  1
  Ag  Ag2  1  0.66741279  0.67902439  0.66672794  1
  Ag  Ag3  1  0.00220294  0.33211069  0.34159238  1
  Ag  Ag4  1  0.33489988  0.16603709  0.49990801  1
  Ag  Ag5  1  0.32065361  0.49886899  0.50069316  1
  Ag  Ag6  1  0.15565507  0.16364300  0.66718085  1
  Ag  Ag7  1  0.15701888  0.83906984  -0.00319554  1
  Ag  Ag8  1  0.67478773  0.83749290  0.17026715  1
  Ag  Ag9  1  0.67660613  0.83917691  0.50015974  1
  Ag  Ag10  1  0.50086032  0.50409353  0.66461406  1
  Ag  Ag11  1  0.16537019  0.68015056  0.83087409  1
  Ag  Ag12  1  0.00191866  0.33337074  0.66174030  1
  Ag  Ag13  1  0.16291601  -0.00109628  0.15944772  1
  Ag  Ag14  1  -0.00695746  -0.00501534  0.33646959  1
  Ag  Ag15  1  0.16299570  0.49961444  0.34355659  1
  Ag  Ag16  1  0.32725353  0.83409421  0.83432848  1
  Ag  Ag17  1  0.00120876  0.50874869  0.82067199  1
  Ag  Ag18  1  0.83580308  0.15159581  0.66122780  1
  Ag  Ag19  1  -0.00506596  0.83440800  0.49654663  1
  Ag  Ag20  1  0.67894515  -0.00279166  0.66646725  1
  Ag  Ag21  1  0.15672699  -0.00372775  0.83609268  1
  Ag  Ag22  1  0.32943337  0.67051057  0.33466407  1
  Ag  Ag23  1  0.15824902  0.49526588  0.66135574  1
  Ag  Ag24  1  0.83745277  0.83719231  0.00148122  1
  Ag  Ag25  1  0.66750940  0.15769492  0.49726973  1
  Ag  Ag26  1  0.32787972  -0.00086814  0.66602245  1
  Ag  Ag27  1  0.51000506  0.15740801  0.33438526  1
  Ag  Ag28  1  0.16538232  0.15529020  -0.00426548  1
  Ag  Ag29  1  0.50047247  0.33493242  0.16921528  1
  Ag  Ag30  1  0.83578129  -0.00379912  0.82203379  1
  Ag  Ag31  1  0.82965888  0.15145628  0.33979633  1
  Ag  Ag32  1  0.84301647  0.50299686  0.66578557  1
  Ag  Ag33  1  0.50907754  0.83450062  0.33063606  1
  Ag  Ag34  1  -0.00673138  0.83609105  0.17085469  1
  Ag  Ag35  1  0.66816527  0.15278519  0.83194025  1
  Ag  Ag36  1  0.49933477  0.67040911  0.82320825  1
  Ag  Ag37  1  -0.00313961  -0.00466444  -0.00537698  1
  Ag  Ag38  1  0.00353296  0.50207789  0.50331889  1
  Ag  Ag39  1  0.00158280  0.67791471  0.33398246  1
  Ag  Ag40  1  0.67662960  -0.00270450  0.33550477  1
  Ag  Ag41  1  -0.00216789  0.83606392  0.83398764  1
  Ag  Ag42  1  0.83254858  0.83866106  0.66551547  1
  Ag  Ag43  1  0.66822189  0.31990087  0.00281031  1
  Ag  Ag44  1  0.33191377  0.83347652  0.16609556  1
  Ag  Ag45  1  0.83244305  -0.00194392  0.50642087  1
  Ag  Ag46  1  0.50048358  0.66773572  0.49890285  1
  Ag  Ag47  1  0.67647141  0.83693519  0.82769027  1
  Ag  Ag48  1  0.50373840  0.67195404  0.17286685  1
  Ag  Ag49  1  0.66741805  0.15335997  0.16967600  1
  Ag  Ag50  1  0.82921448  0.67496500  0.17071154  1
  Ag  Ag51  1  0.16500969  0.32723697  0.17173022  1
  Ag  Ag52  1  0.16266218  0.33629369  0.49773396  1
  Ag  Ag53  1  -0.00653583  -0.00227362  0.66815973  1
  Sb  Sb54  1  0.33579753  0.67105937  0.66245955  1
  Sb  Sb55  1  -0.00004406  0.67721321  0.00230009  1
  Sb  Sb56  1  0.83509526  0.50675121  -0.00582607  1
  Sb  Sb57  1  0.67364431  0.32789653  0.66899593  1
  Sb  Sb58  1  0.50211344  0.50114123  -0.00419803  1
  Sb  Sb59  1  0.50462393  0.16811681  0.66137946  1
  Sb  Sb60  1  0.16599042  0.67302445  0.16538794  1
  Sb  Sb61  1  0.50131839  0.16577837  0.00460837  1
  Sb  Sb62  1  0.83486106  0.32683789  0.83166880  1
  Sb  Sb63  1  0.15998616  0.00373787  0.50349111  1
  Sb  Sb64  1  0.16357569  0.50070598  -0.00253415  1
  Sb  Sb65  1  -0.00234831  0.32576437  -0.00149599  1
  Sb  Sb66  1  0.50154466  -0.00398926  0.16883428  1
  Sb  Sb67  1  0.50875166  0.83046713  0.66387491  1
  Sb  Sb68  1  0.66646444  0.67667550  0.33712886  1
  Sb  Sb69  1  0.32890369  0.33584852  0.33465765  1
  Sb  Sb70  1  0.84058660  0.50519793  0.34040318  1
  Sb  Sb71  1  0.16421373  0.32874941  0.83110900  1
  Sb  Sb72  1  0.32864702  -0.00299926  -0.00375150  1
  Sb  Sb73  1  0.67065672  0.50294501  0.50220978  1
  Sb  Sb74  1  0.83541058  0.67703227  0.83229485  1
  Sb  Sb75  1  0.16055118  0.83166615  0.32974446  1
  Sb  Sb76  1  0.33527742  0.15695388  0.82667903  1
  Sb  Sb77  1  0.15945380  0.83619804  0.67237659  1
  Sb  Sb78  1  0.00172496  0.50501276  0.17116104  1
  Sb  Sb79  1  0.33298947  0.83446202  0.50050061  1
  Sb  Sb80  1  0.50932090  -0.00521543  0.49992345  1
  Sb  Sb81  1  0.49629710  0.50565503  0.33780684  1
  Sb  Sb82  1  0.83369688  0.15565387  -0.00057172  1
  Sb  Sb83  1  0.83159717  0.67683039  0.49894838  1
  Sb  Sb84  1  0.83588644  -0.00649189  0.17060431  1
  Sb  Sb85  1  0.33513705  0.16130267  0.17236307  1
  Sb  Sb86  1  0.50342958  0.33802776  0.83484266  1
  Sb  Sb87  1  0.33130541  0.50595710  0.17391156  1
  Sb  Sb88  1  0.33317929  0.67026309  0.00334239  1
  Sb  Sb89  1  0.66763697  0.67521821  -0.00319569  1
  Sb  Sb90  1  0.49698560  0.33598056  0.49580757  1
  Sb  Sb91  1  0.67184044  0.50490363  0.82939450  1
  Sb  Sb92  1  0.66581327  0.50427204  0.16740877  1
  Sb  Sb93  1  -0.00256046  0.16362344  0.50182821  1
  Sb  Sb94  1  0.50664950  -0.00728207  0.83090563  1
  Sb  Sb95  1  0.16312087  0.16862280  0.33651049  1
  Sb  Sb96  1  -0.00402405  0.15844538  0.16900097  1
  Sb  Sb97  1  0.83946481  0.32697855  0.50130490  1
  Sb  Sb98  1  -0.00321753  0.66984384  0.66297313  1
  Sb  Sb99  1  0.33424580  0.33034913  0.00329134  1
  Sb  Sb100  1  -0.00357018  0.15791249  0.82946747  1
  Sb  Sb101  1  0.16729206  0.66278689  0.50379486  1
  Sb  Sb102  1  0.32677917  0.33067463  0.66493080  1
  Sb  Sb103  1  0.32647331  0.50864641  0.82366287  1
  Sb  Sb104  1  0.33052571  -0.00413455  0.33703615  1
  Sb  Sb105  1  0.67127882  0.32088416  0.33030794  1
  Sb  Sb106  1  0.50342631  0.83377091  0.00310005  1
  Sb  Sb107  1  0.83531114  0.33533865  0.16858812  1
  Te  Te108  1  0.16704071  0.16515359  0.16747222  1
  Te  Te109  1  0.16955265  0.17130600  0.50439221  1
  Te  Te110  1  0.16852875  0.16096330  0.83002640  1
  Te  Te111  1  0.16773512  0.49622322  0.16733158  1
  Te  Te112  1  0.16417526  0.49943800  0.50119012  1
  Te  Te113  1  0.16121542  0.49784570  0.82924236  1
  Te  Te114  1  0.16644437  0.83493517  0.16270857  1
  Te  Te115  1  0.16074262  0.83245261  0.50104590  1
  Te  Te116  1  0.16352160  0.83676591  0.83401316  1
  Te  Te117  1  0.50282750  0.16954103  0.17172213  1
  Te  Te118  1  0.50116402  0.16848312  0.49448281  1
  Te  Te119  1  0.50669343  0.16862490  0.83367693  1
  Te  Te120  1  0.49789990  0.50092041  0.16647548  1
  Te  Te121  1  0.50208270  0.50352557  0.50359769  1
  Te  Te122  1  0.49853630  0.50771465  0.82845719  1
  Te  Te123  1  0.49797765  0.83114394  0.16917804  1
  Te  Te124  1  0.50027676  0.82852744  0.49445593  1
  Te  Te125  1  0.49901465  0.82797062  0.83445291  1
  Te  Te126  1  0.82642869  0.17050742  0.16996348  1
  Te  Te127  1  0.83033583  0.16207826  0.50041555  1
  Te  Te128  1  0.82786023  0.16011094  0.83061452  1
  Te  Te129  1  0.83411355  0.50971572  0.16559516  1
  Te  Te130  1  0.83857796  0.49860278  0.50595799  1
  Te  Te131  1  0.83975683  0.50180904  0.82814521  1
  Te  Te132  1  0.83396732  0.83266181  0.16878631  1
  Te  Te133  1  0.83387692  0.83619895  0.50000385  1
  Te  Te134  1  0.83431466  0.83520779  0.83205754  1
  Te  Te135  1  0.16650590  -0.00194512  -0.00151289  1
  Te  Te136  1  0.16133248  0.00063280  0.33117015  1
  Te  Te137  1  0.16386024  0.00245462  0.66808726  1
  Te  Te138  1  0.16600929  0.32960744  0.00500002  1
  Te  Te139  1  0.16305099  0.33505051  0.33432719  1
  Te  Te140  1  0.16166869  0.33185238  0.66468006  1
  Te  Te141  1  0.16674866  0.66955134  -0.00730344  1
  Te  Te142  1  0.16551709  0.66221818  0.33264439  1
  Te  Te143  1  0.16797453  0.66269394  0.67173793  1
  Te  Te144  1  0.50859845  0.00088250  -0.00016011  1
  Te  Te145  1  0.49966784  -0.00181621  0.33417459  1
  Te  Te146  1  0.49300965  0.00172095  0.66608644  1
  Te  Te147  1  0.50534112  0.33376040  0.00681451  1
  Te  Te148  1  0.50073334  0.33416127  0.32826785  1
  Te  Te149  1  0.50018629  0.33995094  0.66607140  1
  Te  Te150  1  0.50073347  0.66565395  0.00590896  1
  Te  Te151  1  0.50038029  0.66951987  0.33356782  1
  Te  Te152  1  0.50258514  0.66561611  0.66527988  1
  Te  Te153  1  0.83533376  -0.00410649  -0.00290678  1
  Te  Te154  1  0.83533337  -0.00339895  0.33279407  1
  Te  Te155  1  0.83326397  -0.00316838  0.66612467  1
  Te  Te156  1  0.82849676  0.33273154  0.00014262  1
  Te  Te157  1  0.84120684  0.33538520  0.33350673  1
  Te  Te158  1  0.84132989  0.34096223  0.66734242  1
  Te  Te159  1  0.83292700  0.67428579  0.00707734  1
  Te  Te160  1  0.83688061  0.67180440  0.33158328  1
  Te  Te161  1  0.82759959  0.66540149  0.66595941  1
  Te  Te162  1  0.00480600  0.15907128  -0.00025333  1
  Te  Te163  1  -0.00525961  0.16717411  0.33405870  1
  Te  Te164  1  -0.00332368  0.16522677  0.66801974  1
  Te  Te165  1  -0.00107777  0.49826180  -0.00332786  1
  Te  Te166  1  0.00359268  0.49519216  0.33635737  1
  Te  Te167  1  0.00205288  0.50642694  0.66420615  1
  Te  Te168  1  -0.00078565  0.83762653  -0.00127300  1
  Te  Te169  1  -0.00100489  0.83486214  0.33305585  1
  Te  Te170  1  -0.00548621  0.83538426  0.66671647  1
  Te  Te171  1  0.32671330  0.16506243  0.00016917  1
  Te  Te172  1  0.33655783  0.16580599  0.33901246  1
  Te  Te173  1  0.33498405  0.16342283  0.66112049  1
  Te  Te174  1  0.33294545  0.49915500  -0.00147899  1
  Te  Te175  1  0.32864938  0.50555370  0.34038164  1
  Te  Te176  1  0.33365944  0.49999752  0.66010524  1
  Te  Te177  1  0.32977970  0.83351247  0.00017411  1
  Te  Te178  1  0.33523677  0.83026419  0.33215080  1
  Te  Te179  1  0.33340789  0.83812411  0.66959116  1
  Te  Te180  1  0.66706457  0.16069465  0.00194967  1
  Te  Te181  1  0.66848327  0.16043839  0.33316188  1
  Te  Te182  1  0.67043263  0.16372892  0.66605424  1
  Te  Te183  1  0.66890020  0.49496353  -0.00152455  1
  Te  Te184  1  0.66895955  0.49724056  0.33493288  1
  Te  Te185  1  0.66331790  0.49769770  0.66714870  1
  Te  Te186  1  0.67031726  0.83830348  0.00226688  1
  Te  Te187  1  0.66821367  0.83596695  0.33339764  1
  Te  Te188  1  0.66870146  0.83640557  0.66550929  1
  Te  Te189  1  0.00328783  -0.00391867  0.16776874  1
  Te  Te190  1  -0.00459735  -0.00272491  0.50055044  1
  Te  Te191  1  -0.00181876  -0.00218209  0.83123462  1
  Te  Te192  1  0.00421953  0.33431298  0.16642997  1
  Te  Te193  1  0.00335049  0.33366223  0.50187420  1
  Te  Te194  1  0.00019244  0.33759193  0.82925348  1
  Te  Te195  1  -0.00081198  0.67230242  0.17178994  1
  Te  Te196  1  -0.00054981  0.66783904  0.49473802  1
  Te  Te197  1  0.00234975  0.67058772  0.83372690  1
  Te  Te198  1  0.32769214  -0.00598314  0.16739153  1
  Te  Te199  1  0.33169864  0.00334329  0.50447203  1
  Te  Te200  1  0.33260158  -0.00614822  0.82930588  1
  Te  Te201  1  0.33312115  0.33326918  0.16740393  1
  Te  Te202  1  0.32834727  0.33426537  0.50021048  1
  Te  Te203  1  0.33499260  0.33341727  0.83438184  1
  Te  Te204  1  0.33583814  0.67219592  0.17222251  1
  Te  Te205  1  0.33699068  0.66528039  0.49552374  1
  Te  Te206  1  0.33448948  0.67308213  0.83332873  1
  Te  Te207  1  0.66537649  -0.00271111  0.16971829  1
  Te  Te208  1  0.66892365  -0.00115118  0.49988042  1
  Te  Te209  1  0.66702949  -0.00401467  0.82923992  1
  Te  Te210  1  0.66490589  0.33658355  0.16345252  1
  Te  Te211  1  0.66626101  0.32713447  0.49967309  1
  Te  Te212  1  0.66693127  0.33246953  0.83946733  1
  Te  Te213  1  0.66542029  0.67139126  0.16634969  1
  Te  Te214  1  0.66230951  0.67060535  0.50542094  1
  Te  Te215  1  0.66348358  0.67194803  0.82946210  1
