# generated using pymatgen
data_AgSbTe2
_symmetry_space_group_name_H-M   'P 1'
_cell_length_a   18.31974754
_cell_length_b   18.32680275
_cell_length_c   18.33081598
_cell_angle_alpha   90.00187860
_cell_angle_beta   90.00141294
_cell_angle_gamma   89.99980477
_symmetry_Int_Tables_number   1
_chemical_formula_structural   AgSbTe2
_chemical_formula_sum   'Ag54 Sb54 Te108'
_cell_volume   6154.43214136
_cell_formula_units_Z   54
loop_
 _symmetry_equiv_pos_site_id
 _symmetry_equiv_pos_as_xyz
  1  'x, y, z'
loop_
 _atom_site_type_symbol
 _atom_site_label
 _atom_site_symmetry_multiplicity
 _atom_site_fract_x
 _atom_site_fract_y
 _atom_site_fract_z
 _atom_site_occupancy
  Ag  Ag0  1  0.50533477  0.82484343  0.00377246  1
  Ag  Ag1  1  -0.01313856  0.66515553  0.66089340  1
  Ag  Ag2  1  -0.00684516  0.00059741  0.33542152  1
  Ag  Ag3  1  0.49928306  0.66115840  0.16711554  1
  Ag  Ag4  1  0.83454378  0.16521005  0.00201705  1
  Ag  Ag5  1  0.83474966  0.16526109  0.33223438  1
  Ag  Ag6  1  0.66892753  0.82812740  0.82752701  1
  Ag  Ag7  1  0.82951647  0.33359088  0.50217970  1
  Ag  Ag8  1  0.50068496  0.33256363  0.82125168  1
  Ag  Ag9  1  0.16429889  0.66703952  0.50007635  1
  Ag  Ag10  1  0.34047043  0.50324182  0.49608919  1
  Ag  Ag11  1  0.50744480  0.00211691  0.82863159  1
  Ag  Ag12  1  0.34650665  0.66906157  0.00474214  1
  Ag  Ag13  1  0.83223870  0.00411525  0.16504384  1
  Ag  Ag14  1  0.66552758  0.83144739  0.50717286  1
  Ag  Ag15  1  0.67023575  -0.00979067  0.66687201  1
  Ag  Ag16  1  -0.00264545  0.16739589  0.83108316  1
  Ag  Ag17  1  0.82914603  0.67372512  0.82504991  1
  Ag  Ag18  1  0.34122511  -0.00406712  0.00045205  1
  Ag  Ag19  1  0.66942562  0.67139913  0.66948912  1
  Ag  Ag20  1  0.50582194  0.34531182  0.16725134  1
  Ag  Ag21  1  -0.00707979  0.33527204  0.33290162  1
  Ag  Ag22  1  0.50387040  0.50644161  0.00286759  1
  Ag  Ag23  1  0.83249466  0.33196827  0.16695482  1
  Ag  Ag24  1  0.50469626  -0.00247313  0.50378026  1
  Ag  Ag25  1  -0.00764749  0.33450212  -0.00158934  1
  Ag  Ag26  1  0.16564392  0.32994555  0.83099802  1
  Ag  Ag27  1  -0.01101141  0.00122934  0.66764476  1
  Ag  Ag28  1  0.50324110  0.33476191  0.50985058  1
  Ag  Ag29  1  0.66571843  0.50816710  0.83232006  1
  Ag  Ag30  1  0.66086781  0.33600455  0.66615945  1
  Ag  Ag31  1  0.82633106  0.49978690  0.00031358  1
  Ag  Ag32  1  0.83006207  -0.00492163  0.82699552  1
  Ag  Ag33  1  -0.00114553  0.49766973  0.16872195  1
  Ag  Ag34  1  0.66473509  0.66684726  -0.00673833  1
  Ag  Ag35  1  0.66110139  0.66748431  0.33570178  1
  Ag  Ag36  1  -0.00444375  0.66500527  0.33954429  1
  Ag  Ag37  1  0.34784431  0.33396496  0.66369194  1
  Ag  Ag38  1  0.82816000  -0.00295768  0.50826001  1
  Ag  Ag39  1  0.34267883  0.50162132  0.16881188  1
  Ag  Ag40  1  0.50157349  0.82596015  0.33152191  1
  Ag  Ag41  1  0.82916215  0.83307912  0.66889604  1
  Ag  Ag42  1  0.16232774  -0.00024896  0.16158198  1
  Ag  Ag43  1  0.83130868  0.66938485  0.50649202  1
  Ag  Ag44  1  0.50206263  -0.00308360  0.16414605  1
  Ag  Ag45  1  -0.00488489  0.33297936  0.66810399  1
  Ag  Ag46  1  0.33944829  0.16830772  0.50124994  1
  Ag  Ag47  1  0.34550368  0.66471440  0.33466430  1
  Ag  Ag48  1  0.50054151  0.17837935  0.66503854  1
  Ag  Ag49  1  0.82555244  0.83379263  -0.00860122  1
  Ag  Ag50  1  0.50324753  0.49232954  0.66449130  1
  Ag  Ag51  1  0.16180271  0.00320314  0.83468603  1
  Ag  Ag52  1  0.49886081  0.50582331  0.33056069  1
  Ag  Ag53  1  0.34581806  0.83101003  0.50021867  1
  Sb  Sb54  1  -0.00466156  0.00331147  -0.00165724  1
  Sb  Sb55  1  0.16069616  0.16581471  0.33410906  1
  Sb  Sb56  1  0.82763645  0.50284142  0.67018410  1
  Sb  Sb57  1  0.82966393  0.16349625  0.66645388  1
  Sb  Sb58  1  -0.00975459  0.83904120  0.83216848  1
  Sb  Sb59  1  0.33358470  -0.00459468  0.33123757  1
  Sb  Sb60  1  0.66462681  0.16269093  0.50285258  1
  Sb  Sb61  1  0.66901684  0.34019500  -0.00564404  1
  Sb  Sb62  1  0.50870170  0.83119164  0.66538722  1
  Sb  Sb63  1  0.66840541  0.16650023  0.16649563  1
  Sb  Sb64  1  0.15940550  0.66785975  0.82874241  1
  Sb  Sb65  1  -0.00280607  0.83156545  0.16765635  1
  Sb  Sb66  1  0.66372672  0.50122262  0.16178583  1
  Sb  Sb67  1  0.33621180  0.16866952  0.17069195  1
  Sb  Sb68  1  0.66488340  -0.00787734  -0.00662591  1
  Sb  Sb69  1  0.66943562  -0.00670416  0.33900764  1
  Sb  Sb70  1  0.67046186  0.16454814  0.83094801  1
  Sb  Sb71  1  0.17057965  0.49913967  0.66662966  1
  Sb  Sb72  1  0.33469739  0.33871933  0.33873498  1
  Sb  Sb73  1  0.34061595  0.66260914  0.66329623  1
  Sb  Sb74  1  0.16802074  0.33792541  0.50485637  1
  Sb  Sb75  1  0.83049344  0.33188373  0.83191277  1
  Sb  Sb76  1  -0.00703241  0.66094024  -0.00049103  1
  Sb  Sb77  1  0.15936589  0.83435979  0.66592679  1
  Sb  Sb78  1  -0.00571329  0.83220861  0.49990014  1
  Sb  Sb79  1  0.50565521  0.16771288  0.33871228  1
  Sb  Sb80  1  0.50955969  0.66593601  0.83848107  1
  Sb  Sb81  1  0.34374344  0.49958759  0.83416726  1
  Sb  Sb82  1  0.16916325  0.50068146  -0.00065566  1
  Sb  Sb83  1  0.33946157  0.00232785  0.66851036  1
  Sb  Sb84  1  0.16959425  0.83584883  -0.00119466  1
  Sb  Sb85  1  0.66485772  0.83260380  0.16468431  1
  Sb  Sb86  1  0.17066373  0.50107777  0.33366819  1
  Sb  Sb87  1  0.17129068  0.83192928  0.33521229  1
  Sb  Sb88  1  0.16661003  -0.00506843  0.50215478  1
  Sb  Sb89  1  0.33257678  0.16629881  0.82987718  1
  Sb  Sb90  1  -0.00384858  0.17014927  0.16454222  1
  Sb  Sb91  1  0.16153157  0.16591794  -0.00181118  1
  Sb  Sb92  1  0.16934407  0.16696898  0.66729790  1
  Sb  Sb93  1  0.82934211  0.49901099  0.32986019  1
  Sb  Sb94  1  0.82759305  0.83515465  0.33549679  1
  Sb  Sb95  1  0.33548205  0.33420856  -0.00329798  1
  Sb  Sb96  1  0.66885819  0.34001247  0.33916872  1
  Sb  Sb97  1  0.34349296  0.83471369  0.83075815  1
  Sb  Sb98  1  -0.00026451  0.16679081  0.50403552  1
  Sb  Sb99  1  0.00042923  0.50145225  0.49728798  1
  Sb  Sb100  1  0.33856758  0.82977092  0.16857593  1
  Sb  Sb101  1  -0.00680360  0.49478124  0.83533716  1
  Sb  Sb102  1  0.16306556  0.33157894  0.16277943  1
  Sb  Sb103  1  0.66170968  0.50574669  0.50645153  1
  Sb  Sb104  1  0.50579734  0.16651714  -0.00406981  1
  Sb  Sb105  1  0.82866783  0.66550313  0.16682195  1
  Sb  Sb106  1  0.50435525  0.66730179  0.49400335  1
  Sb  Sb107  1  0.17156193  0.66938020  0.17093539  1
  Te  Te108  1  0.16767776  0.15806223  0.16621852  1
  Te  Te109  1  0.17693418  0.16559528  0.49952052  1
  Te  Te110  1  0.16168355  0.16556990  0.83367076  1
  Te  Te111  1  0.16456635  0.49977798  0.16616976  1
  Te  Te112  1  0.17557451  0.50684154  0.50007443  1
  Te  Te113  1  0.16692864  0.49471323  0.83388333  1
  Te  Te114  1  0.16759331  0.84198897  0.16678359  1
  Te  Te115  1  0.17338156  0.82636817  0.50053306  1
  Te  Te116  1  0.16774476  0.83963115  0.83350136  1
  Te  Te117  1  0.50058062  0.16161899  0.16792555  1
  Te  Te118  1  0.49833767  0.16816118  0.50209033  1
  Te  Te119  1  0.50034417  0.16617577  0.82874905  1
  Te  Te120  1  0.50073234  0.50169917  0.16522451  1
  Te  Te121  1  0.49925881  0.49767391  0.49848957  1
  Te  Te122  1  0.50444117  0.49697538  0.83710563  1
  Te  Te123  1  0.49997999  0.83695360  0.16545543  1
  Te  Te124  1  0.50370961  0.83430067  0.49983213  1
  Te  Te125  1  0.50658663  0.84003827  0.83793707  1
  Te  Te126  1  0.83388910  0.16800692  0.16585577  1
  Te  Te127  1  0.83438640  0.16729698  0.49644433  1
  Te  Te128  1  0.83666717  0.16214145  0.83586734  1
  Te  Te129  1  0.83582017  0.49700903  0.16220018  1
  Te  Te130  1  0.83266734  0.49621221  0.49883144  1
  Te  Te131  1  0.82757312  0.50226869  0.83938779  1
  Te  Te132  1  0.83237817  0.83776362  0.16276433  1
  Te  Te133  1  0.82902019  0.83478649  0.50209143  1
  Te  Te134  1  0.82946833  0.83426324  0.83197205  1
  Te  Te135  1  0.16947690  -0.00066650  -0.00146775  1
  Te  Te136  1  0.15998611  -0.00041447  0.33089993  1
  Te  Te137  1  0.16067383  -0.00006692  0.67215366  1
  Te  Te138  1  0.16291388  0.33298048  -0.00670406  1
  Te  Te139  1  0.15617674  0.33269565  0.33320911  1
  Te  Te140  1  0.15514455  0.33306921  0.67197107  1
  Te  Te141  1  0.17026560  0.66822022  -0.00069672  1
  Te  Te142  1  0.15856171  0.66693283  0.33861972  1
  Te  Te143  1  0.16235364  0.66681850  0.66222546  1
  Te  Te144  1  0.50021025  0.00267950  -0.00062693  1
  Te  Te145  1  0.50034462  -0.00104904  0.33659193  1
  Te  Te146  1  0.50301298  -0.00259887  0.66542511  1
  Te  Te147  1  0.50033753  0.33476662  0.00815079  1
  Te  Te148  1  0.50088097  0.33602166  0.32660800  1
  Te  Te149  1  0.50334789  0.33518890  0.66559502  1
  Te  Te150  1  0.50246574  0.66682907  0.00028979  1
  Te  Te151  1  0.50033339  0.66675751  0.33089652  1
  Te  Te152  1  0.50712508  0.66095225  0.66938062  1
  Te  Te153  1  0.83152837  -0.00178612  0.00171110  1
  Te  Te154  1  0.83441201  0.00015751  0.33153768  1
  Te  Te155  1  0.83171193  0.00176178  0.66609095  1
  Te  Te156  1  0.83332034  0.33519436  0.00032905  1
  Te  Te157  1  0.83457020  0.33286156  0.33187572  1
  Te  Te158  1  0.83515587  0.33255811  0.66323794  1
  Te  Te159  1  0.82921923  0.66679399  0.00110755  1
  Te  Te160  1  0.83592531  0.66713642  0.33535132  1
  Te  Te161  1  0.83022097  0.66506860  0.66582241  1
  Te  Te162  1  -0.00536372  0.17225347  -0.00443386  1
  Te  Te163  1  -0.00534866  0.16548430  0.33420856  1
  Te  Te164  1  0.00012109  0.16560625  0.66997051  1
  Te  Te165  1  -0.00145865  0.49499449  0.00381065  1
  Te  Te166  1  -0.00023844  0.50003512  0.33041041  1
  Te  Te167  1  0.00025150  0.50068073  0.66633037  1
  Te  Te168  1  -0.00597302  0.83128001  0.00027084  1
  Te  Te169  1  0.00012458  0.83272447  0.33291271  1
  Te  Te170  1  -0.00855157  0.83311861  0.66595657  1
  Te  Te171  1  0.33433249  0.16071111  0.00126357  1
  Te  Te172  1  0.33312112  0.16703128  0.34013864  1
  Te  Te173  1  0.33855873  0.17041896  0.66278966  1
  Te  Te174  1  0.33819399  0.50294492  0.00410672  1
  Te  Te175  1  0.33710566  0.50381289  0.33196006  1
  Te  Te176  1  0.33902488  0.49588304  0.66404851  1
  Te  Te177  1  0.33874199  0.83313951  -0.00063764  1
  Te  Te178  1  0.33958687  0.82761574  0.33770511  1
  Te  Te179  1  0.33218113  0.83206179  0.66094059  1
  Te  Te180  1  0.67547019  0.16705432  -0.00093507  1
  Te  Te181  1  0.67600795  0.16743732  0.33442858  1
  Te  Te182  1  0.66049770  0.17252496  0.66681815  1
  Te  Te183  1  0.66552604  0.50523147  -0.00435246  1
  Te  Te184  1  0.65978035  0.50732969  0.33433262  1
  Te  Te185  1  0.66307394  0.49872746  0.67156343  1
  Te  Te186  1  0.66596586  0.82778381  -0.00204048  1
  Te  Te187  1  0.66072872  0.82698167  0.33791546  1
  Te  Te188  1  0.67051348  0.83221507  0.66721740  1
  Te  Te189  1  -0.00415450  -0.00016133  0.16871220  1
  Te  Te190  1  -0.00258326  -0.00035302  0.50056622  1
  Te  Te191  1  -0.00347268  0.00358082  0.83183634  1
  Te  Te192  1  -0.00131136  0.33603866  0.16684055  1
  Te  Te193  1  -0.00160568  0.33400010  0.49953570  1
  Te  Te194  1  -0.00171467  0.33084118  0.83300216  1
  Te  Te195  1  0.00193829  0.66099566  0.16901973  1
  Te  Te196  1  -0.00518428  0.66629224  0.50089738  1
  Te  Te197  1  -0.00718031  0.66614271  0.82937614  1
  Te  Te198  1  0.33885556  0.00046647  0.16355324  1
  Te  Te199  1  0.33566602  -0.00345739  0.50030123  1
  Te  Te200  1  0.33506743  0.00033568  0.83682986  1
  Te  Te201  1  0.33276977  0.33810513  0.16705674  1
  Te  Te202  1  0.33507586  0.33575178  0.50342228  1
  Te  Te203  1  0.33538292  0.33265223  0.82808024  1
  Te  Te204  1  0.33579884  0.66349319  0.16719934  1
  Te  Te205  1  0.33641660  0.66598441  0.49926827  1
  Te  Te206  1  0.32759290  0.66752093  0.83620392  1
  Te  Te207  1  0.66736390  -0.00038091  0.16766047  1
  Te  Te208  1  0.66686738  -0.00360199  0.50434868  1
  Te  Te209  1  0.66738802  -0.00152315  0.82841375  1
  Te  Te210  1  0.66913256  0.33380305  0.16750058  1
  Te  Te211  1  0.66659129  0.33420021  0.50431581  1
  Te  Te212  1  0.66131466  0.33395298  0.82857530  1
  Te  Te213  1  0.66033091  0.66685241  0.17117970  1
  Te  Te214  1  0.67058697  0.66989680  0.50160198  1
  Te  Te215  1  0.66997665  0.66782298  0.83288129  1
