# generated using pymatgen
data_AgSbTe2
_symmetry_space_group_name_H-M   'P 1'
_cell_length_a   18.32402359
_cell_length_b   18.32753212
_cell_length_c   18.32617183
_cell_angle_alpha   89.99867193
_cell_angle_beta   89.99980409
_cell_angle_gamma   90.00341251
_symmetry_Int_Tables_number   1
_chemical_formula_structural   AgSbTe2
_chemical_formula_sum   'Ag54 Sb54 Te108'
_cell_volume   6154.55397652
_cell_formula_units_Z   54
loop_
 _symmetry_equiv_pos_site_id
 _symmetry_equiv_pos_as_xyz
  1  'x, y, z'
loop_
 _atom_site_type_symbol
 _atom_site_label
 _atom_site_symmetry_multiplicity
 _atom_site_fract_x
 _atom_site_fract_y
 _atom_site_fract_z
 _atom_site_occupancy
  Ag  Ag0  1  -0.00276562  0.82920396  0.49967630  1
  Ag  Ag1  1  0.83076370  0.83454344  0.66449395  1
  Ag  Ag2  1  0.50846452  0.66162540  0.82685070  1
  Ag  Ag3  1  0.51196736  0.34095198  0.82681560  1
  Ag  Ag4  1  0.34153834  0.50396293  0.49882565  1
  Ag  Ag5  1  0.50517878  0.50015865  -0.00286149  1
  Ag  Ag6  1  0.15861453  0.83773756  0.33743654  1
  Ag  Ag7  1  -0.00655104  0.66696020  -0.00566480  1
  Ag  Ag8  1  0.16888314  0.00407066  0.17239964  1
  Ag  Ag9  1  0.51217324  0.16501843  0.66578369  1
  Ag  Ag10  1  0.00424083  -0.00665680  0.33912116  1
  Ag  Ag11  1  0.16338208  0.33821869  0.83245816  1
  Ag  Ag12  1  -0.00588743  0.67480787  0.33807776  1
  Ag  Ag13  1  0.16316170  0.15786790  0.32799240  1
  Ag  Ag14  1  0.66936151  0.66199211  0.00281368  1
  Ag  Ag15  1  0.33461591  0.83271963  0.50212811  1
  Ag  Ag16  1  0.16793515  0.16815134  0.00975738  1
  Ag  Ag17  1  0.50567527  0.66404463  0.50630443  1
  Ag  Ag18  1  0.66883727  0.33710764  0.34166169  1
  Ag  Ag19  1  0.67214903  -0.00391881  0.65880166  1
  Ag  Ag20  1  0.33089732  0.00155477  0.00850456  1
  Ag  Ag21  1  0.15910864  0.83609136  0.66089123  1
  Ag  Ag22  1  0.66852937  0.49940711  0.83160924  1
  Ag  Ag23  1  0.82947312  0.66829514  0.16832864  1
  Ag  Ag24  1  0.67204493  0.66915203  0.33218458  1
  Ag  Ag25  1  0.16629825  0.32383745  0.16518220  1
  Ag  Ag26  1  0.82709080  0.33583673  0.82020448  1
  Ag  Ag27  1  -0.01226092  0.34159251  0.66652929  1
  Ag  Ag28  1  0.82880284  0.17795028  0.65984794  1
  Ag  Ag29  1  0.66910028  0.82920703  0.50185949  1
  Ag  Ag30  1  0.33860478  0.49639724  0.17044631  1
  Ag  Ag31  1  -0.00125623  0.66684521  0.66259083  1
  Ag  Ag32  1  -0.01151361  0.50690226  0.50739905  1
  Ag  Ag33  1  0.51156742  0.83538389  0.66352464  1
  Ag  Ag34  1  0.51282834  0.34096980  0.50793493  1
  Ag  Ag35  1  0.67021017  -0.00301708  0.34012953  1
  Ag  Ag36  1  -0.00892564  -0.00853449  0.65901481  1
  Ag  Ag37  1  0.83067686  0.00111134  0.50047753  1
  Ag  Ag38  1  -0.00493658  0.83026770  0.18022803  1
  Ag  Ag39  1  0.66545886  0.17069432  0.17058529  1
  Ag  Ag40  1  0.32815029  0.16686760  0.16825085  1
  Ag  Ag41  1  0.83169410  0.16434334  0.33938626  1
  Ag  Ag42  1  0.82962540  0.33146915  0.50813013  1
  Ag  Ag43  1  0.66539147  0.50128713  0.16369773  1
  Ag  Ag44  1  0.32231662  -0.00022470  0.33557977  1
  Ag  Ag45  1  0.67242309  0.82774895  0.17387446  1
  Ag  Ag46  1  0.66619974  0.82513814  0.81817780  1
  Ag  Ag47  1  -0.00805307  0.50133295  0.82456489  1
  Ag  Ag48  1  0.66573747  0.34409914  -0.00632945  1
  Ag  Ag49  1  0.66810211  0.49762633  0.50239538  1
  Ag  Ag50  1  0.83313133  0.49075203  0.66608608  1
  Ag  Ag51  1  0.67371592  0.33290459  0.66283278  1
  Ag  Ag52  1  0.33410813  -0.00414514  0.65957161  1
  Ag  Ag53  1  0.16188345  0.66345452  0.83214625  1
  Sb  Sb54  1  0.83118433  0.66158396  0.83233731  1
  Sb  Sb55  1  0.50314654  0.83302822  0.34017288  1
  Sb  Sb56  1  0.82996844  0.49829423  0.34045065  1
  Sb  Sb57  1  0.33636375  0.33141357  0.00170501  1
  Sb  Sb58  1  -0.00437396  0.33213899  0.33904519  1
  Sb  Sb59  1  0.49800377  0.17207099  -0.00365688  1
  Sb  Sb60  1  0.33710466  0.83331442  0.82476546  1
  Sb  Sb61  1  0.50482634  0.16653997  0.33858096  1
  Sb  Sb62  1  -0.00363429  0.16270221  0.50083311  1
  Sb  Sb63  1  0.50308266  0.82838061  -0.00628887  1
  Sb  Sb64  1  0.15876733  0.50358573  0.66721299  1
  Sb  Sb65  1  0.33253264  0.83520409  0.17371426  1
  Sb  Sb66  1  0.16284658  0.33500941  0.50170047  1
  Sb  Sb67  1  0.50833581  0.66522303  0.16736225  1
  Sb  Sb68  1  0.82606840  0.50075072  -0.00605877  1
  Sb  Sb69  1  0.16586073  -0.00122825  0.83378212  1
  Sb  Sb70  1  0.00145109  0.16210650  0.16919995  1
  Sb  Sb71  1  0.83267244  0.83170886  -0.00424205  1
  Sb  Sb72  1  0.66652680  0.17332074  0.83196329  1
  Sb  Sb73  1  0.83205667  0.00443950  0.81990434  1
  Sb  Sb74  1  0.83514554  0.16865257  0.00126746  1
  Sb  Sb75  1  0.16623847  0.83526229  0.00045988  1
  Sb  Sb76  1  0.83162637  0.33646096  0.16906064  1
  Sb  Sb77  1  0.83511683  -0.00439400  0.17497595  1
  Sb  Sb78  1  0.16199176  -0.00281524  0.49444777  1
  Sb  Sb79  1  0.16339050  0.16193408  0.66449725  1
  Sb  Sb80  1  0.33619540  0.32929080  0.33328831  1
  Sb  Sb81  1  0.16526876  0.50128979  0.33328988  1
  Sb  Sb82  1  0.33346455  0.16654854  0.83517458  1
  Sb  Sb83  1  0.00461501  -0.00617851  0.00312329  1
  Sb  Sb84  1  0.82977305  0.66697187  0.49824762  1
  Sb  Sb85  1  -0.00418969  0.50595143  0.16758434  1
  Sb  Sb86  1  -0.00275617  0.33976584  -0.00554276  1
  Sb  Sb87  1  0.66239417  -0.00249350  0.00197334  1
  Sb  Sb88  1  0.33705449  0.49963885  0.83025217  1
  Sb  Sb89  1  0.83581308  0.83768910  0.34137819  1
  Sb  Sb90  1  -0.00012218  0.17366455  0.83015357  1
  Sb  Sb91  1  0.33642632  0.66907198  0.00077627  1
  Sb  Sb92  1  0.16438649  0.66965618  0.50380284  1
  Sb  Sb93  1  0.50432369  0.50020521  0.33488629  1
  Sb  Sb94  1  0.67219305  0.66697115  0.66481671  1
  Sb  Sb95  1  0.50666652  -0.00266611  0.50304404  1
  Sb  Sb96  1  0.66806172  0.17007494  0.49852547  1
  Sb  Sb97  1  0.50742515  0.50079725  0.66741057  1
  Sb  Sb98  1  0.50195703  -0.00020911  0.82846087  1
  Sb  Sb99  1  -0.00465144  0.82603680  0.82354890  1
  Sb  Sb100  1  0.16974086  0.49627154  -0.00037281  1
  Sb  Sb101  1  0.33326300  0.67065561  0.33572781  1
  Sb  Sb102  1  0.16139681  0.66807648  0.16359468  1
  Sb  Sb103  1  0.33541373  0.16191993  0.49655731  1
  Sb  Sb104  1  0.33725333  0.32980498  0.66499129  1
  Sb  Sb105  1  0.49805999  0.00042256  0.16788073  1
  Sb  Sb106  1  0.33074255  0.67046043  0.66484245  1
  Sb  Sb107  1  0.50231574  0.33481791  0.16760074  1
  Te  Te108  1  0.16546479  0.16565754  0.16924100  1
  Te  Te109  1  0.16741090  0.16810882  0.49077712  1
  Te  Te110  1  0.16701799  0.16970863  0.83602962  1
  Te  Te111  1  0.16958676  0.49751580  0.16644654  1
  Te  Te112  1  0.17112983  0.50177173  0.49917102  1
  Te  Te113  1  0.16668667  0.50088503  0.83361287  1
  Te  Te114  1  0.16498194  0.83654134  0.16924803  1
  Te  Te115  1  0.16588503  0.83264908  0.50021437  1
  Te  Te116  1  0.16643946  0.82962738  0.83050119  1
  Te  Te117  1  0.50147465  0.16826958  0.16570716  1
  Te  Te118  1  0.49843246  0.17599200  0.50737138  1
  Te  Te119  1  0.49912626  0.17486228  0.82671012  1
  Te  Te120  1  0.50148443  0.49902376  0.16240007  1
  Te  Te121  1  0.50367836  0.50122188  0.50067213  1
  Te  Te122  1  0.50237018  0.50050606  0.83395452  1
  Te  Te123  1  0.50600484  0.83258109  0.16600140  1
  Te  Te124  1  0.50238807  0.83063424  0.50426322  1
  Te  Te125  1  0.50465039  0.82830743  0.82668309  1
  Te  Te126  1  0.82861374  0.16690350  0.17011106  1
  Te  Te127  1  0.83345471  0.16665708  0.50028970  1
  Te  Te128  1  0.83351131  0.17451971  0.82937296  1
  Te  Te129  1  0.82700031  0.50461334  0.16735613  1
  Te  Te130  1  0.83070901  0.49808067  0.50497677  1
  Te  Te131  1  0.83155358  0.49654798  0.82828772  1
  Te  Te132  1  0.83291202  0.83031666  0.16309742  1
  Te  Te133  1  0.83251483  0.83471811  0.50450549  1
  Te  Te134  1  0.82687889  0.83476521  0.82777716  1
  Te  Te135  1  0.17050115  0.00417869  0.00358852  1
  Te  Te136  1  0.16399910  -0.00157079  0.33258175  1
  Te  Te137  1  0.16745265  -0.00325979  0.66615245  1
  Te  Te138  1  0.16587412  0.32914170  0.00039715  1
  Te  Te139  1  0.16547167  0.33079349  0.32997563  1
  Te  Te140  1  0.16619203  0.33023765  0.67075230  1
  Te  Te141  1  0.16523024  0.66675765  -0.00522857  1
  Te  Te142  1  0.16221172  0.67253381  0.33248748  1
  Te  Te143  1  0.16147402  0.67190168  0.67097899  1
  Te  Te144  1  0.49202006  0.00171864  -0.00253628  1
  Te  Te145  1  0.50611528  0.00052595  0.33503653  1
  Te  Te146  1  0.50221074  -0.00022742  0.66684300  1
  Te  Te147  1  0.50540325  0.33759107  -0.00501622  1
  Te  Te148  1  0.50751028  0.33283954  0.33939736  1
  Te  Te149  1  0.50141572  0.33268588  0.66718158  1
  Te  Te150  1  0.50416458  0.66181861  -0.00502795  1
  Te  Te151  1  0.50573127  0.66734391  0.33972119  1
  Te  Te152  1  0.49789605  0.67002449  0.66703558  1
  Te  Te153  1  0.83438606  0.00191440  -0.00169128  1
  Te  Te154  1  0.83047316  0.00423477  0.33819012  1
  Te  Te155  1  0.83226159  -0.00340932  0.66138675  1
  Te  Te156  1  0.82713122  0.33276197  -0.00207643  1
  Te  Te157  1  0.82876253  0.32704812  0.33649280  1
  Te  Te158  1  0.83312341  0.33362273  0.66471819  1
  Te  Te159  1  0.83137406  0.66629276  0.00457099  1
  Te  Te160  1  0.83256757  0.66549743  0.32967382  1
  Te  Te161  1  0.84007628  0.67271261  0.66709471  1
  Te  Te162  1  0.00582422  0.16584745  -0.00015808  1
  Te  Te163  1  -0.00195397  0.16334755  0.33397847  1
  Te  Te164  1  -0.00474283  0.16404077  0.66628382  1
  Te  Te165  1  0.00088482  0.50791133  -0.00155592  1
  Te  Te166  1  -0.00174789  0.50399949  0.33769364  1
  Te  Te167  1  -0.00215313  0.50099047  0.66544573  1
  Te  Te168  1  0.00036995  0.82612390  0.00278089  1
  Te  Te169  1  -0.00122557  0.83335440  0.33708860  1
  Te  Te170  1  -0.00018122  0.83265466  0.66331860  1
  Te  Te171  1  0.33073786  0.16335087  0.00576262  1
  Te  Te172  1  0.33285955  0.16157127  0.32872015  1
  Te  Te173  1  0.33267446  0.15822771  0.66562704  1
  Te  Te174  1  0.34051148  0.50036577  0.00324716  1
  Te  Te175  1  0.33366414  0.50031558  0.33305414  1
  Te  Te176  1  0.33169166  0.49937872  0.65981887  1
  Te  Te177  1  0.33492383  0.84007876  0.00101850  1
  Te  Te178  1  0.33094290  0.83847817  0.33933122  1
  Te  Te179  1  0.33052870  0.83667807  0.66155631  1
  Te  Te180  1  0.66660219  0.16724293  0.00643557  1
  Te  Te181  1  0.66794366  0.16320229  0.33050838  1
  Te  Te182  1  0.66898349  0.16524393  0.66841321  1
  Te  Te183  1  0.66539319  0.50116967  -0.00131406  1
  Te  Te184  1  0.66732725  0.50034649  0.33627038  1
  Te  Te185  1  0.67096539  0.49897385  0.66565319  1
  Te  Te186  1  0.66598512  0.82813583  0.00721576  1
  Te  Te187  1  0.66861028  0.83289529  0.33532274  1
  Te  Te188  1  0.66771567  0.83108198  0.66306528  1
  Te  Te189  1  0.00320856  -0.00661355  0.17043374  1
  Te  Te190  1  -0.00399194  -0.00313233  0.49970358  1
  Te  Te191  1  -0.00002851  -0.00170947  0.82937421  1
  Te  Te192  1  0.00447619  0.33602390  0.16569695  1
  Te  Te193  1  -0.00429477  0.33895293  0.50533811  1
  Te  Te194  1  0.00223323  0.34008837  0.83035642  1
  Te  Te195  1  -0.00305284  0.67044232  0.17080086  1
  Te  Te196  1  -0.00101315  0.66690069  0.50007539  1
  Te  Te197  1  -0.00146045  0.66218713  0.83291419  1
  Te  Te198  1  0.33130964  0.00103280  0.17167748  1
  Te  Te199  1  0.33652147  -0.00467883  0.49890050  1
  Te  Te200  1  0.33348148  -0.00057872  0.82883930  1
  Te  Te201  1  0.33010205  0.33363565  0.16769582  1
  Te  Te202  1  0.33345268  0.33829721  0.49865089  1
  Te  Te203  1  0.32596570  0.33444102  0.83333926  1
  Te  Te204  1  0.33430482  0.66064507  0.16744914  1
  Te  Te205  1  0.33932686  0.66639217  0.49890108  1
  Te  Te206  1  0.33124035  0.66577207  0.83431720  1
  Te  Te207  1  0.66649232  -0.00126923  0.16802302  1
  Te  Te208  1  0.66926327  -0.00277102  0.50055285  1
  Te  Te209  1  0.66652406  -0.00664283  0.83236649  1
  Te  Te210  1  0.66728467  0.33571805  0.16869183  1
  Te  Te211  1  0.66882466  0.33413235  0.50154192  1
  Te  Te212  1  0.66727695  0.33497281  0.83119307  1
  Te  Te213  1  0.66750239  0.66470928  0.16823900  1
  Te  Te214  1  0.66578390  0.66699444  0.49838005  1
  Te  Te215  1  0.66699142  0.66399372  0.83358731  1
