# generated using pymatgen
data_AgSbTe2
_symmetry_space_group_name_H-M   'P 1'
_cell_length_a   18.33576998
_cell_length_b   18.33776080
_cell_length_c   18.33120201
_cell_angle_alpha   90.00229615
_cell_angle_beta   90.00164857
_cell_angle_gamma   89.99892309
_symmetry_Int_Tables_number   1
_chemical_formula_structural   AgSbTe2
_chemical_formula_sum   'Ag54 Sb54 Te108'
_cell_volume   6163.62770080
_cell_formula_units_Z   54
loop_
 _symmetry_equiv_pos_site_id
 _symmetry_equiv_pos_as_xyz
  1  'x, y, z'
loop_
 _atom_site_type_symbol
 _atom_site_label
 _atom_site_symmetry_multiplicity
 _atom_site_fract_x
 _atom_site_fract_y
 _atom_site_fract_z
 _atom_site_occupancy
  Ag  Ag0  1  0.16585458  0.49943796  0.33598430  1
  Ag  Ag1  1  0.00822687  0.49323609  0.82865764  1
  Ag  Ag2  1  0.32822219  0.49392376  0.83116856  1
  Ag  Ag3  1  0.33299762  0.66232709  -0.00069914  1
  Ag  Ag4  1  0.17097440  0.17816302  -0.01116292  1
  Ag  Ag5  1  0.16737261  0.83426593  0.66897332  1
  Ag  Ag6  1  0.84406591  0.33171882  0.82589254  1
  Ag  Ag7  1  0.00230469  0.83138487  0.82742659  1
  Ag  Ag8  1  0.49748236  -0.00577143  0.83061282  1
  Ag  Ag9  1  0.84257595  0.16955488  0.66793496  1
  Ag  Ag10  1  0.67054983  0.49723880  0.16596487  1
  Ag  Ag11  1  0.83877533  0.50091254  0.33987839  1
  Ag  Ag12  1  -0.00093132  0.66415399  0.34551353  1
  Ag  Ag13  1  0.84191312  0.65803705  0.50727141  1
  Ag  Ag14  1  0.83904245  0.83398899  0.66966859  1
  Ag  Ag15  1  0.00056591  -0.00354505  0.34089603  1
  Ag  Ag16  1  0.16426879  0.00501025  0.16614516  1
  Ag  Ag17  1  0.00344058  0.33537482  0.66935285  1
  Ag  Ag18  1  0.84160615  0.49747525  0.66429807  1
  Ag  Ag19  1  0.32447818  0.32835967  0.66947562  1
  Ag  Ag20  1  0.67714657  -0.00432995  0.67073904  1
  Ag  Ag21  1  0.65894004  0.83637654  0.82887540  1
  Ag  Ag22  1  0.83331186  0.00208300  0.82380379  1
  Ag  Ag23  1  0.33461698  0.83504624  0.83059089  1
  Ag  Ag24  1  -0.00189129  0.66494354  0.66461486  1
  Ag  Ag25  1  0.33029502  0.49932607  0.50887172  1
  Ag  Ag26  1  0.49162564  0.33445535  0.51195714  1
  Ag  Ag27  1  0.17091092  0.49559476  -0.00720260  1
  Ag  Ag28  1  0.32780106  0.17667400  0.51274802  1
  Ag  Ag29  1  0.83860961  0.33554883  0.16561539  1
  Ag  Ag30  1  0.33019945  0.49960313  0.15678220  1
  Ag  Ag31  1  0.00455974  0.33450124  -0.01398820  1
  Ag  Ag32  1  0.16240201  0.49499574  0.67142521  1
  Ag  Ag33  1  0.16496575  0.17266484  0.66999547  1
  Ag  Ag34  1  0.48952596  0.49791074  -0.00141100  1
  Ag  Ag35  1  0.67076246  0.17306120  0.16369923  1
  Ag  Ag36  1  0.33117421  0.82972397  0.51381296  1
  Ag  Ag37  1  0.16298261  0.66199571  0.50446570  1
  Ag  Ag38  1  0.32743829  0.00201028  0.66874073  1
  Ag  Ag39  1  0.49146507  0.17395749  -0.00536232  1
  Ag  Ag40  1  0.16554433  0.33523509  0.83194081  1
  Ag  Ag41  1  0.49143541  0.49869189  0.32840330  1
  Ag  Ag42  1  0.49446898  0.83281292  -0.01186440  1
  Ag  Ag43  1  0.83464879  0.65517655  0.17253507  1
  Ag  Ag44  1  0.16395478  0.33541239  0.15556425  1
  Ag  Ag45  1  0.00377032  0.16747738  0.50707839  1
  Ag  Ag46  1  0.49172926  0.83578578  0.67213019  1
  Ag  Ag47  1  0.83762469  0.00199761  0.16390130  1
  Ag  Ag48  1  0.67817583  0.67217867  0.66744002  1
  Ag  Ag49  1  0.00089872  0.00182134  0.66708899  1
  Ag  Ag50  1  0.33173561  0.82827423  0.15972983  1
  Ag  Ag51  1  0.83516963  0.33845550  0.51144508  1
  Ag  Ag52  1  0.48758688  0.33119287  0.83050750  1
  Ag  Ag53  1  0.33338320  0.17582490  0.83004262  1
  Sb  Sb54  1  0.66469574  0.50210551  0.83508300  1
  Sb  Sb55  1  0.49808070  0.17261162  0.33080674  1
  Sb  Sb56  1  0.49690607  0.82788018  0.33537369  1
  Sb  Sb57  1  0.16681947  0.65833314  0.82632279  1
  Sb  Sb58  1  0.16443622  0.66288290  0.17044026  1
  Sb  Sb59  1  0.67394550  0.66358874  0.33786328  1
  Sb  Sb60  1  0.66365918  0.66475193  -0.00359674  1
  Sb  Sb61  1  0.83666099  0.82890508  0.33882869  1
  Sb  Sb62  1  0.16573194  -0.00142865  0.50241718  1
  Sb  Sb63  1  0.49675271  0.33683864  0.16104059  1
  Sb  Sb64  1  0.00421678  0.66086002  -0.00436580  1
  Sb  Sb65  1  0.66726887  0.33632476  0.33168198  1
  Sb  Sb66  1  0.16696339  0.00390745  0.83117296  1
  Sb  Sb67  1  0.00371979  0.49910971  0.50834906  1
  Sb  Sb68  1  0.49670269  0.50210071  0.66942886  1
  Sb  Sb69  1  0.33266763  0.17093034  0.15976139  1
  Sb  Sb70  1  0.83633947  0.00039049  0.50639352  1
  Sb  Sb71  1  0.32600075  0.34074351  -0.00928779  1
  Sb  Sb72  1  0.67405420  0.00001002  0.33575960  1
  Sb  Sb73  1  0.00254132  0.00620728  -0.00648506  1
  Sb  Sb74  1  0.83586227  0.17232278  0.33712702  1
  Sb  Sb75  1  0.49699244  0.66929549  0.83158081  1
  Sb  Sb76  1  0.49842284  0.00049541  0.15857695  1
  Sb  Sb77  1  0.66636451  0.00106682  -0.00674049  1
  Sb  Sb78  1  0.49397084  0.16463099  0.67268032  1
  Sb  Sb79  1  0.33132768  0.33724238  0.34113085  1
  Sb  Sb80  1  0.32815783  -0.00065469  0.33823926  1
  Sb  Sb81  1  0.16495154  0.17210821  0.33674275  1
  Sb  Sb82  1  0.00044988  0.33769968  0.33881480  1
  Sb  Sb83  1  0.50165231  0.66332968  0.16576474  1
  Sb  Sb84  1  0.66634036  0.49975370  0.49955616  1
  Sb  Sb85  1  0.66241206  0.16318260  0.83408488  1
  Sb  Sb86  1  0.32760160  0.66797428  0.66992132  1
  Sb  Sb87  1  0.00371632  0.83207686  0.50986677  1
  Sb  Sb88  1  0.16532498  0.82982683  0.33708363  1
  Sb  Sb89  1  0.66315306  0.83084787  0.51221531  1
  Sb  Sb90  1  -0.00219539  0.16763808  0.16961086  1
  Sb  Sb91  1  0.67013516  0.33295859  0.66870954  1
  Sb  Sb92  1  0.49632907  0.66181017  0.50377053  1
  Sb  Sb93  1  0.83517858  0.66565463  0.82766192  1
  Sb  Sb94  1  0.00199260  0.49859435  0.16484252  1
  Sb  Sb95  1  0.66581414  0.83173308  0.15849407  1
  Sb  Sb96  1  0.83125001  0.83342997  -0.00829636  1
  Sb  Sb97  1  0.00524716  0.17076037  0.82570457  1
  Sb  Sb98  1  0.83635938  0.49809282  -0.00241113  1
  Sb  Sb99  1  0.16562448  0.33776121  0.50813736  1
  Sb  Sb100  1  0.33262049  -0.00290588  -0.00812685  1
  Sb  Sb101  1  0.32711208  0.66193158  0.33182087  1
  Sb  Sb102  1  0.83677581  0.16926667  -0.00526246  1
  Sb  Sb103  1  0.00272049  0.83415699  0.15998820  1
  Sb  Sb104  1  0.17194449  0.83085381  -0.00708174  1
  Sb  Sb105  1  0.66683576  0.16813906  0.50253391  1
  Sb  Sb106  1  0.66831262  0.33353352  -0.00081605  1
  Sb  Sb107  1  0.49601255  0.00444960  0.50952223  1
  Te  Te108  1  0.16720559  0.16891309  0.16842403  1
  Te  Te109  1  0.16815693  0.16777979  0.50434442  1
  Te  Te110  1  0.17147771  0.16921508  0.83098387  1
  Te  Te111  1  0.16898423  0.49860525  0.16759177  1
  Te  Te112  1  0.16951231  0.50075159  0.49944009  1
  Te  Te113  1  0.16757212  0.49711738  0.83173531  1
  Te  Te114  1  0.17105584  0.83483914  0.16543865  1
  Te  Te115  1  0.17116707  0.82959516  0.50412111  1
  Te  Te116  1  0.16850394  0.83557365  0.82880212  1
  Te  Te117  1  0.50324416  0.16828378  0.16096073  1
  Te  Te118  1  0.49681497  0.17413917  0.49881124  1
  Te  Te119  1  0.49619492  0.16960457  0.83658835  1
  Te  Te120  1  0.49453817  0.49938789  0.16646429  1
  Te  Te121  1  0.49641752  0.49488243  0.50005618  1
  Te  Te122  1  0.49705980  0.49676975  0.83694809  1
  Te  Te123  1  0.49507505  0.83284193  0.16531426  1
  Te  Te124  1  0.49224385  0.83280948  0.50293735  1
  Te  Te125  1  0.49702422  0.83344957  0.83110741  1
  Te  Te126  1  0.83174182  0.16799587  0.16624489  1
  Te  Te127  1  0.83473686  0.17089725  0.50461120  1
  Te  Te128  1  0.83126676  0.16624696  0.82973520  1
  Te  Te129  1  0.83445607  0.49728848  0.16320749  1
  Te  Te130  1  0.83256336  0.49914211  0.50070078  1
  Te  Te131  1  0.83255774  0.49500487  0.83018407  1
  Te  Te132  1  0.83261412  0.84010044  0.16553110  1
  Te  Te133  1  0.83219873  0.82908615  0.50702041  1
  Te  Te134  1  0.83651693  0.83520644  0.82963320  1
  Te  Te135  1  0.16626186  0.00160911  0.00621768  1
  Te  Te136  1  0.16082339  0.00054522  0.32826759  1
  Te  Te137  1  0.16636584  -0.00037095  0.66657464  1
  Te  Te138  1  0.16503943  0.33450330  -0.00261895  1
  Te  Te139  1  0.16532079  0.33962713  0.32550292  1
  Te  Te140  1  0.16565906  0.33371347  0.66849996  1
  Te  Te141  1  0.17122628  0.66078288  0.00195807  1
  Te  Te142  1  0.15955937  0.66212227  0.33858321  1
  Te  Te143  1  0.16158390  0.66569820  0.66320529  1
  Te  Te144  1  0.49949633  -0.00198294  -0.00796925  1
  Te  Te145  1  0.50242352  -0.00020664  0.33312630  1
  Te  Te146  1  0.49314908  -0.00248223  0.67210623  1
  Te  Te147  1  0.50143059  0.33330227  -0.00522143  1
  Te  Te148  1  0.49963004  0.34012195  0.33672293  1
  Te  Te149  1  0.50097855  0.33387185  0.67002890  1
  Te  Te150  1  0.49599621  0.66498470  -0.00024150  1
  Te  Te151  1  0.50215148  0.65817033  0.33497158  1
  Te  Te152  1  0.50855914  0.67310139  0.66511051  1
  Te  Te153  1  0.83468554  0.00122056  0.00311384  1
  Te  Te154  1  0.83947800  0.00053607  0.33098464  1
  Te  Te155  1  0.83785589  -0.00148633  0.66712273  1
  Te  Te156  1  0.83989627  0.33271571  0.00254298  1
  Te  Te157  1  0.83415551  0.33958079  0.32677801  1
  Te  Te158  1  0.83206165  0.33470782  0.66842964  1
  Te  Te159  1  0.83397172  0.66686056  0.00823156  1
  Te  Te160  1  0.83923661  0.66296310  0.33423186  1
  Te  Te161  1  0.83723287  0.66493681  0.66729798  1
  Te  Te162  1  0.00756481  0.17352711  0.00149449  1
  Te  Te163  1  0.00022781  0.16021052  0.34267164  1
  Te  Te164  1  0.00231163  0.16690016  0.66616038  1
  Te  Te165  1  0.00540669  0.49566191  -0.00771952  1
  Te  Te166  1  -0.00065761  0.50372812  0.33268696  1
  Te  Te167  1  0.00115718  0.49768966  0.66845148  1
  Te  Te168  1  0.00080094  0.83210716  -0.01050325  1
  Te  Te169  1  0.00042711  0.83524871  0.33119024  1
  Te  Te170  1  0.00198306  0.83419149  0.66809927  1
  Te  Te171  1  0.33149113  0.16405444  -0.00511337  1
  Te  Te172  1  0.33336968  0.16614719  0.34344247  1
  Te  Te173  1  0.33335795  0.16771441  0.66910623  1
  Te  Te174  1  0.33182551  0.50065420  -0.00225868  1
  Te  Te175  1  0.33166722  0.50060195  0.33532621  1
  Te  Te176  1  0.33200653  0.50126284  0.66890222  1
  Te  Te177  1  0.33600276  0.83081413  0.00005314  1
  Te  Te178  1  0.33340918  0.83219281  0.32548790  1
  Te  Te179  1  0.33052217  0.82828635  0.67018536  1
  Te  Te180  1  0.66337615  0.16640102  0.00469801  1
  Te  Te181  1  0.66680782  0.16541554  0.32490735  1
  Te  Te182  1  0.67298301  0.16037519  0.66613707  1
  Te  Te183  1  0.65982422  0.50078129  0.00511247  1
  Te  Te184  1  0.67087838  0.50108016  0.32632776  1
  Te  Te185  1  0.67025063  0.50443061  0.66825584  1
  Te  Te186  1  0.65804948  0.83256610  -0.00814704  1
  Te  Te187  1  0.66577031  0.83298974  0.33203037  1
  Te  Te188  1  0.66889245  0.83557400  0.66994801  1
  Te  Te189  1  0.00015815  0.00010938  0.16336737  1
  Te  Te190  1  0.00042985  0.00321415  0.50247001  1
  Te  Te191  1  -0.00318690  -0.00242386  0.82855900  1
  Te  Te192  1  0.00050627  0.33330400  0.17067815  1
  Te  Te193  1  -0.00410679  0.32853616  0.50503124  1
  Te  Te194  1  0.00112150  0.33370274  0.82984705  1
  Te  Te195  1  -0.00569752  0.66787587  0.16585220  1
  Te  Te196  1  0.00056352  0.66726243  0.50286724  1
  Te  Te197  1  0.00042023  0.66708407  0.82824208  1
  Te  Te198  1  0.32968614  0.00147956  0.16928595  1
  Te  Te199  1  0.33230880  -0.00514449  0.50615996  1
  Te  Te200  1  0.33369983  -0.00380673  0.82835409  1
  Te  Te201  1  0.32909169  0.33728421  0.16948227  1
  Te  Te202  1  0.33222493  0.33653762  0.50687705  1
  Te  Te203  1  0.33061404  0.33509164  0.82897396  1
  Te  Te204  1  0.33280217  0.66394346  0.16405063  1
  Te  Te205  1  0.32938350  0.66456250  0.49977315  1
  Te  Te206  1  0.33247733  0.66760755  0.83840731  1
  Te  Te207  1  0.67047467  0.00106998  0.16707720  1
  Te  Te208  1  0.66513478  -0.00039454  0.50752441  1
  Te  Te209  1  0.66897720  -0.00287595  0.82839858  1
  Te  Te210  1  0.66860699  0.33593973  0.16563542  1
  Te  Te211  1  0.67177948  0.33263413  0.49964887  1
  Te  Te212  1  0.66947375  0.33299331  0.83409396  1
  Te  Te213  1  0.67365785  0.66293382  0.16690187  1
  Te  Te214  1  0.67332797  0.66591226  0.50610894  1
  Te  Te215  1  0.66754664  0.67244852  0.82849847  1
