# generated using pymatgen
data_AgSbTe2
_symmetry_space_group_name_H-M   'P 1'
_cell_length_a   18.32117767
_cell_length_b   18.32711256
_cell_length_c   18.31992723
_cell_angle_alpha   90.00153639
_cell_angle_beta   90.00100653
_cell_angle_gamma   90.00030100
_symmetry_Int_Tables_number   1
_chemical_formula_structural   AgSbTe2
_chemical_formula_sum   'Ag54 Sb54 Te108'
_cell_volume   6151.36047224
_cell_formula_units_Z   54
loop_
 _symmetry_equiv_pos_site_id
 _symmetry_equiv_pos_as_xyz
  1  'x, y, z'
loop_
 _atom_site_type_symbol
 _atom_site_label
 _atom_site_symmetry_multiplicity
 _atom_site_fract_x
 _atom_site_fract_y
 _atom_site_fract_z
 _atom_site_occupancy
  Ag  Ag0  1  0.84371031  0.66414055  0.50431149  1
  Ag  Ag1  1  0.17035888  0.50702545  0.67011110  1
  Ag  Ag2  1  -0.00334386  -0.00838260  0.66732263  1
  Ag  Ag3  1  0.84095669  0.82908654  0.67099822  1
  Ag  Ag4  1  0.00467946  0.82822092  0.50440667  1
  Ag  Ag5  1  -0.00244020  0.66259474  -0.00804843  1
  Ag  Ag6  1  0.00049649  0.16938513  0.83418687  1
  Ag  Ag7  1  0.00098735  0.33182879  0.33439176  1
  Ag  Ag8  1  0.49742773  0.00418747  0.83130117  1
  Ag  Ag9  1  0.84076842  -0.00546181  0.83015044  1
  Ag  Ag10  1  0.66547763  -0.00551651  0.66564665  1
  Ag  Ag11  1  0.49979872  0.33273608  0.83631229  1
  Ag  Ag12  1  0.49774865  -0.00027886  0.50259559  1
  Ag  Ag13  1  0.83925493  0.67012232  0.83277863  1
  Ag  Ag14  1  0.84348713  0.16847283  0.33305168  1
  Ag  Ag15  1  0.65892472  0.00240188  0.33851984  1
  Ag  Ag16  1  0.33344114  0.00315375  0.33586917  1
  Ag  Ag17  1  0.49630022  0.83422279  -0.00378254  1
  Ag  Ag18  1  0.33551987  0.16742692  0.16896463  1
  Ag  Ag19  1  0.16414693  0.83099695  -0.01005869  1
  Ag  Ag20  1  0.16778180  0.16861898  0.00000664  1
  Ag  Ag21  1  0.49457752  0.49829199  0.67013030  1
  Ag  Ag22  1  0.16622948  0.66435635  0.50145541  1
  Ag  Ag23  1  0.49838409  0.49586650  -0.00714889  1
  Ag  Ag24  1  0.49318006  0.16996412  -0.00388699  1
  Ag  Ag25  1  0.67426887  0.66990120  0.66414132  1
  Ag  Ag26  1  0.33044980  0.50391457  0.82934024  1
  Ag  Ag27  1  0.84090910  0.50465372  -0.00323593  1
  Ag  Ag28  1  0.32904157  0.82331916  0.50379588  1
  Ag  Ag29  1  0.49889147  0.00767543  0.16479292  1
  Ag  Ag30  1  0.49508472  0.33546052  0.50140731  1
  Ag  Ag31  1  0.32679953  0.66560166  0.34098611  1
  Ag  Ag32  1  0.00174383  0.49853038  0.83495575  1
  Ag  Ag33  1  0.00134111  0.00708846  0.33974304  1
  Ag  Ag34  1  0.16448241  0.16799012  0.33144096  1
  Ag  Ag35  1  0.32959503  0.33168452  0.33568430  1
  Ag  Ag36  1  0.83950218  0.33665933  0.83610982  1
  Ag  Ag37  1  0.84303574  0.82239017  -0.00911277  1
  Ag  Ag38  1  0.50012494  0.16840187  0.67169160  1
  Ag  Ag39  1  0.50098101  0.32974643  0.16120137  1
  Ag  Ag40  1  0.16556456  -0.00369605  0.83221713  1
  Ag  Ag41  1  0.66753655  0.49967403  0.16490800  1
  Ag  Ag42  1  -0.00108002  0.34129873  -0.00396326  1
  Ag  Ag43  1  0.84098459  0.33915573  0.49736272  1
  Ag  Ag44  1  0.83322287  0.33799398  0.16456173  1
  Ag  Ag45  1  0.16665391  0.33979659  0.49738914  1
  Ag  Ag46  1  -0.00388637  0.67238603  0.66305047  1
  Ag  Ag47  1  0.15722861  0.50005910  -0.00885239  1
  Ag  Ag48  1  0.33359701  0.50596159  0.50438906  1
  Ag  Ag49  1  0.33065639  0.82969808  0.82995931  1
  Ag  Ag50  1  0.16061931  0.82859199  0.66819170  1
  Ag  Ag51  1  0.00056382  0.66450238  0.34395077  1
  Ag  Ag52  1  0.48795448  0.66594678  0.50282856  1
  Ag  Ag53  1  0.83503370  0.65893960  0.15715783  1
  Sb  Sb54  1  0.66793466  0.16502418  0.83259266  1
  Sb  Sb55  1  0.66884180  0.32810946  0.33298824  1
  Sb  Sb56  1  0.49740693  0.83600136  0.33300543  1
  Sb  Sb57  1  0.49752388  0.83245235  0.66913925  1
  Sb  Sb58  1  0.50443456  0.66429526  0.16777064  1
  Sb  Sb59  1  0.66300872  0.50139583  0.49858441  1
  Sb  Sb60  1  -0.00072038  0.33530023  0.66747326  1
  Sb  Sb61  1  0.33193213  0.33446897  0.00297198  1
  Sb  Sb62  1  0.66597167  0.83282687  0.50296766  1
  Sb  Sb63  1  0.67043421  0.67002420  0.33844641  1
  Sb  Sb64  1  0.49858034  0.49790443  0.33631295  1
  Sb  Sb65  1  0.83401613  0.50677104  0.67170470  1
  Sb  Sb66  1  0.83687030  0.83579885  0.33689855  1
  Sb  Sb67  1  0.83080167  0.16347029  0.66506240  1
  Sb  Sb68  1  0.50235449  0.66565704  0.82906949  1
  Sb  Sb69  1  0.32769234  0.66571463  0.00339312  1
  Sb  Sb70  1  0.00036573  0.16477222  0.50117636  1
  Sb  Sb71  1  -0.00352343  0.49938685  0.15878131  1
  Sb  Sb72  1  0.00324071  0.16823475  0.16532288  1
  Sb  Sb73  1  0.32968093  0.66649032  0.66120628  1
  Sb  Sb74  1  0.49568222  0.16584186  0.33245333  1
  Sb  Sb75  1  0.33754750  0.49670869  0.16740145  1
  Sb  Sb76  1  0.16603573  0.49683155  0.33657759  1
  Sb  Sb77  1  0.00125570  -0.00203400  -0.00397590  1
  Sb  Sb78  1  0.16894590  0.16619368  0.66724699  1
  Sb  Sb79  1  0.66197850  0.16929464  0.16765657  1
  Sb  Sb80  1  0.83172313  -0.00235513  0.50353424  1
  Sb  Sb81  1  0.66575067  0.16561512  0.49971274  1
  Sb  Sb82  1  0.66712184  0.83021483  0.16606751  1
  Sb  Sb83  1  0.33226582  0.16678123  0.83765069  1
  Sb  Sb84  1  0.33419418  0.83604902  0.16690872  1
  Sb  Sb85  1  0.16101953  0.66834261  0.82754154  1
  Sb  Sb86  1  -0.00048900  0.83202007  0.16865855  1
  Sb  Sb87  1  0.66918234  0.33556475  0.00072740  1
  Sb  Sb88  1  0.16755583  0.33455607  0.83147695  1
  Sb  Sb89  1  0.66424686  0.33502079  0.66686086  1
  Sb  Sb90  1  0.33466112  -0.00096821  0.00081033  1
  Sb  Sb91  1  0.16605835  0.33346964  0.16916077  1
  Sb  Sb92  1  0.66695399  0.83349032  0.83190369  1
  Sb  Sb93  1  0.17052041  0.00105711  0.16460147  1
  Sb  Sb94  1  0.33493478  0.33676933  0.66140139  1
  Sb  Sb95  1  0.16941286  -0.00238110  0.50323760  1
  Sb  Sb96  1  0.82913779  0.00092176  0.16518126  1
  Sb  Sb97  1  0.66345985  -0.00065594  -0.00241759  1
  Sb  Sb98  1  0.83622230  0.49648896  0.32940246  1
  Sb  Sb99  1  0.00293611  0.83247600  0.82686775  1
  Sb  Sb100  1  0.83626544  0.16955996  0.00040750  1
  Sb  Sb101  1  0.16627707  0.83627774  0.33641117  1
  Sb  Sb102  1  0.33380526  0.16905124  0.49494219  1
  Sb  Sb103  1  0.33466165  -0.00217840  0.66414939  1
  Sb  Sb104  1  0.00480835  0.50485200  0.50700845  1
  Sb  Sb105  1  0.67356469  0.66477149  -0.00559314  1
  Sb  Sb106  1  0.66752207  0.50028706  0.83487489  1
  Sb  Sb107  1  0.16057578  0.66528267  0.17003182  1
  Te  Te108  1  0.17253078  0.16690826  0.16468017  1
  Te  Te109  1  0.16673147  0.17261224  0.49734291  1
  Te  Te110  1  0.16491832  0.16440078  0.83548783  1
  Te  Te111  1  0.16915041  0.50038722  0.15345312  1
  Te  Te112  1  0.17060361  0.50040769  0.50251556  1
  Te  Te113  1  0.16880259  0.50002170  0.83131475  1
  Te  Te114  1  0.16761950  0.83320514  0.15326130  1
  Te  Te115  1  0.16794815  0.83129268  0.50262008  1
  Te  Te116  1  0.16908413  0.83406583  0.83116976  1
  Te  Te117  1  0.49691696  0.16817166  0.16586325  1
  Te  Te118  1  0.49914263  0.16652660  0.50363639  1
  Te  Te119  1  0.49892614  0.16732793  0.83405255  1
  Te  Te120  1  0.50322665  0.49644299  0.16313702  1
  Te  Te121  1  0.49660986  0.49939399  0.50297398  1
  Te  Te122  1  0.50004193  0.49891392  0.83164736  1
  Te  Te123  1  0.49935388  0.83596241  0.15937308  1
  Te  Te124  1  0.49468192  0.83265905  0.50099991  1
  Te  Te125  1  0.49506923  0.83376122  0.83567978  1
  Te  Te126  1  0.83250679  0.17078450  0.16934883  1
  Te  Te127  1  0.83352565  0.17336931  0.49587967  1
  Te  Te128  1  0.83817390  0.16922877  0.83360849  1
  Te  Te129  1  0.83131511  0.49820867  0.16261055  1
  Te  Te130  1  0.83227362  0.49929159  0.50116727  1
  Te  Te131  1  0.83409921  0.49609542  0.83711243  1
  Te  Te132  1  0.83292523  0.83078543  0.15949781  1
  Te  Te133  1  0.83726124  0.82969822  0.50453041  1
  Te  Te134  1  0.83359744  0.83454128  0.83306157  1
  Te  Te135  1  0.16701647  0.00106643  -0.00421864  1
  Te  Te136  1  0.16590486  0.00372764  0.33313588  1
  Te  Te137  1  0.16296425  -0.00109744  0.67096369  1
  Te  Te138  1  0.16172569  0.33332242  -0.00027588  1
  Te  Te139  1  0.16524809  0.33127062  0.33508845  1
  Te  Te140  1  0.16702072  0.33581984  0.65944456  1
  Te  Te141  1  0.16079910  0.66545098  0.00241662  1
  Te  Te142  1  0.16423002  0.66703967  0.33728517  1
  Te  Te143  1  0.16233825  0.66619405  0.66199893  1
  Te  Te144  1  0.49951322  -0.00010591  -0.00340644  1
  Te  Te145  1  0.49758315  0.00109834  0.33680402  1
  Te  Te146  1  0.50126810  -0.00264816  0.66759457  1
  Te  Te147  1  0.49907008  0.33369921  -0.00043241  1
  Te  Te148  1  0.49866566  0.33166924  0.33586327  1
  Te  Te149  1  0.50079921  0.33441527  0.66696026  1
  Te  Te150  1  0.50077797  0.66695124  0.00048661  1
  Te  Te151  1  0.50097208  0.66746476  0.33874311  1
  Te  Te152  1  0.50327636  0.66466144  0.66317142  1
  Te  Te153  1  0.83183014  -0.00056371  -0.00546704  1
  Te  Te154  1  0.84033442  0.00355649  0.33402027  1
  Te  Te155  1  0.83476673  -0.00169841  0.66923391  1
  Te  Te156  1  0.83719044  0.33404983  -0.00116721  1
  Te  Te157  1  0.83572421  0.33081129  0.33447288  1
  Te  Te158  1  0.83144592  0.33302624  0.66736151  1
  Te  Te159  1  0.83523114  0.66541062  -0.00192999  1
  Te  Te160  1  0.83684837  0.66750547  0.34017169  1
  Te  Te161  1  0.83589091  0.66750904  0.66608995  1
  Te  Te162  1  0.00446253  0.16753344  -0.00285392  1
  Te  Te163  1  0.00337618  0.16931878  0.33382686  1
  Te  Te164  1  -0.00001525  0.16253453  0.67264629  1
  Te  Te165  1  -0.00063713  0.49999099  -0.00397155  1
  Te  Te166  1  0.00175516  0.49944842  0.33349538  1
  Te  Te167  1  0.00368766  0.50285967  0.67387557  1
  Te  Te168  1  0.00053403  0.83038150  0.00131227  1
  Te  Te169  1  0.00133299  0.82916548  0.33951635  1
  Te  Te170  1  0.00093735  0.83358110  0.66487734  1
  Te  Te171  1  0.33154189  0.16746217  0.00505699  1
  Te  Te172  1  0.32958162  0.16715706  0.32987525  1
  Te  Te173  1  0.34057967  0.16614622  0.66783287  1
  Te  Te174  1  0.33816094  0.50104199  -0.00352210  1
  Te  Te175  1  0.33145026  0.49910907  0.33777160  1
  Te  Te176  1  0.33287843  0.50131679  0.66710570  1
  Te  Te177  1  0.33138282  0.83153339  -0.00357714  1
  Te  Te178  1  0.33141390  0.83324246  0.33760997  1
  Te  Te179  1  0.32690062  0.83245007  0.66733402  1
  Te  Te180  1  0.65522630  0.16660863  0.00020874  1
  Te  Te181  1  0.67397220  0.15984088  0.33289108  1
  Te  Te182  1  0.65987788  0.15883289  0.66630175  1
  Te  Te183  1  0.66118576  0.50089963  0.00381188  1
  Te  Te184  1  0.66713973  0.50053165  0.32635947  1
  Te  Te185  1  0.65966078  0.50480018  0.66651254  1
  Te  Te186  1  0.66206474  0.83194071  -0.00017924  1
  Te  Te187  1  0.66811574  0.84340775  0.33395745  1
  Te  Te188  1  0.67332601  0.83368454  0.66641164  1
  Te  Te189  1  -0.00089305  0.00031809  0.17638506  1
  Te  Te190  1  0.00062923  -0.00364157  0.50121325  1
  Te  Te191  1  0.00029358  0.00203734  0.83228234  1
  Te  Te192  1  -0.00454490  0.33335043  0.16971296  1
  Te  Te193  1  -0.00013291  0.33499040  0.49805894  1
  Te  Te194  1  0.00070081  0.33406956  0.83446182  1
  Te  Te195  1  -0.00703411  0.66581376  0.17090142  1
  Te  Te196  1  0.00278979  0.66627066  0.50247702  1
  Te  Te197  1  -0.00292659  0.66315559  0.83437510  1
  Te  Te198  1  0.33886929  0.00263524  0.17348882  1
  Te  Te199  1  0.33661533  -0.00107630  0.49627604  1
  Te  Te200  1  0.33404875  -0.00247350  0.83277804  1
  Te  Te201  1  0.33737362  0.33098943  0.17281130  1
  Te  Te202  1  0.33448255  0.33518331  0.49558872  1
  Te  Te203  1  0.33832887  0.33864023  0.83401726  1
  Te  Te204  1  0.33397045  0.66648075  0.17831353  1
  Te  Te205  1  0.33144818  0.66598644  0.49766379  1
  Te  Te206  1  0.33426300  0.66625186  0.83551427  1
  Te  Te207  1  0.65957869  -0.00090442  0.17126117  1
  Te  Te208  1  0.66177550  -0.00098068  0.50148032  1
  Te  Te209  1  0.66247756  -0.00023569  0.82788773  1
  Te  Te210  1  0.66522894  0.33730273  0.16746529  1
  Te  Te211  1  0.66221698  0.33387371  0.49952878  1
  Te  Te212  1  0.66455490  0.33236896  0.83298880  1
  Te  Te213  1  0.67396585  0.66215096  0.16955242  1
  Te  Te214  1  0.66879606  0.66749008  0.50417483  1
  Te  Te215  1  0.67636196  0.66695770  0.82499201  1
