# generated using pymatgen
data_AgSbTe2
_symmetry_space_group_name_H-M   'P 1'
_cell_length_a   18.33248817
_cell_length_b   18.33695294
_cell_length_c   18.33687283
_cell_angle_alpha   90.00260372
_cell_angle_beta   90.00321453
_cell_angle_gamma   89.99990255
_symmetry_Int_Tables_number   1
_chemical_formula_structural   AgSbTe2
_chemical_formula_sum   'Ag54 Sb54 Te108'
_cell_volume   6164.15932780
_cell_formula_units_Z   54
loop_
 _symmetry_equiv_pos_site_id
 _symmetry_equiv_pos_as_xyz
  1  'x, y, z'
loop_
 _atom_site_type_symbol
 _atom_site_label
 _atom_site_symmetry_multiplicity
 _atom_site_fract_x
 _atom_site_fract_y
 _atom_site_fract_z
 _atom_site_occupancy
  Ag  Ag0  1  0.15864618  0.15998980  0.66122318  1
  Ag  Ag1  1  0.32993511  -0.00342678  0.34486821  1
  Ag  Ag2  1  0.32875302  0.83408990  0.16571035  1
  Ag  Ag3  1  0.67490668  0.16659301  0.50613324  1
  Ag  Ag4  1  0.66770479  0.34614859  -0.00611635  1
  Ag  Ag5  1  0.67008869  0.50016767  0.50323958  1
  Ag  Ag6  1  0.67530258  0.66883761  0.33016032  1
  Ag  Ag7  1  0.83330385  0.67133644  0.16748798  1
  Ag  Ag8  1  0.83568690  0.16366890  -0.00271668  1
  Ag  Ag9  1  0.00089075  0.15738001  0.50211201  1
  Ag  Ag10  1  0.83211654  0.15775530  0.66247687  1
  Ag  Ag11  1  0.83404991  0.82790415  0.33542559  1
  Ag  Ag12  1  0.66703646  0.33222662  0.66660814  1
  Ag  Ag13  1  0.66797246  0.17109275  0.82310006  1
  Ag  Ag14  1  -0.00617938  0.67019464  0.33663736  1
  Ag  Ag15  1  -0.00536214  0.67392080  0.66120304  1
  Ag  Ag16  1  0.32725815  -0.00618781  0.66215142  1
  Ag  Ag17  1  0.67286317  0.65913853  0.00459660  1
  Ag  Ag18  1  0.16408841  -0.00165082  0.17163065  1
  Ag  Ag19  1  0.84119671  -0.00927194  0.50431663  1
  Ag  Ag20  1  0.83829891  0.83622472  0.65987227  1
  Ag  Ag21  1  0.16267540  0.16153928  0.34503528  1
  Ag  Ag22  1  -0.00257356  0.51012630  0.50027314  1
  Ag  Ag23  1  0.16648264  0.32496190  0.50502276  1
  Ag  Ag24  1  0.33348307  0.83351725  0.82763337  1
  Ag  Ag25  1  0.51187379  0.50121742  0.00045178  1
  Ag  Ag26  1  0.67182141  0.66633011  0.66608466  1
  Ag  Ag27  1  0.00228778  0.15988108  0.16982713  1
  Ag  Ag28  1  0.67195483  0.00093338  0.66285045  1
  Ag  Ag29  1  0.16047229  0.00418640  0.50341227  1
  Ag  Ag30  1  0.00095112  -0.00725759  0.66035594  1
  Ag  Ag31  1  0.67513865  0.50870863  0.15349604  1
  Ag  Ag32  1  0.15962529  0.83682654  -0.00029679  1
  Ag  Ag33  1  0.83785843  0.82709507  0.00439359  1
  Ag  Ag34  1  -0.00316515  0.83133587  0.17039507  1
  Ag  Ag35  1  0.50388165  0.33587221  0.16919921  1
  Ag  Ag36  1  0.32729934  0.67427579  0.66568392  1
  Ag  Ag37  1  -0.00539818  0.51343246  0.16839053  1
  Ag  Ag38  1  0.16828101  0.33081935  0.82201547  1
  Ag  Ag39  1  0.16397629  0.50033335  0.66309599  1
  Ag  Ag40  1  0.50865523  0.83398538  0.33310828  1
  Ag  Ag41  1  0.15811936  0.83674505  0.66676018  1
  Ag  Ag42  1  0.83468895  0.67190939  0.49734475  1
  Ag  Ag43  1  0.67888682  0.82641831  0.16753675  1
  Ag  Ag44  1  0.66562762  0.50059054  0.84064816  1
  Ag  Ag45  1  0.15815355  0.15993768  -0.00171992  1
  Ag  Ag46  1  -0.00300298  0.83325915  0.50438568  1
  Ag  Ag47  1  0.50054595  0.00107033  0.50519933  1
  Ag  Ag48  1  0.50386960  0.67035782  0.83189602  1
  Ag  Ag49  1  0.82370846  0.51311828  0.00253827  1
  Ag  Ag50  1  0.32822156  0.50185230  0.50384021  1
  Ag  Ag51  1  0.50296234  0.33253616  0.49882410  1
  Ag  Ag52  1  -0.01107222  0.66957561  0.00670321  1
  Ag  Ag53  1  0.50120369  -0.00625586  0.82353865  1
  Sb  Sb54  1  0.50483652  0.16995173  -0.00009041  1
  Sb  Sb55  1  0.83293762  0.50896014  0.33016620  1
  Sb  Sb56  1  0.66546180  0.34017534  0.33599345  1
  Sb  Sb57  1  0.50273294  0.50646752  0.33237445  1
  Sb  Sb58  1  -0.00434665  0.50229675  0.83207690  1
  Sb  Sb59  1  0.32759452  0.83298438  0.50301297  1
  Sb  Sb60  1  0.66382732  -0.00721663  0.34099065  1
  Sb  Sb61  1  0.32910548  0.16435799  0.50230081  1
  Sb  Sb62  1  0.49834929  0.16170061  0.33598067  1
  Sb  Sb63  1  0.16209180  0.83759182  0.33425874  1
  Sb  Sb64  1  0.50205239  0.83490063  0.66208983  1
  Sb  Sb65  1  -0.00168842  0.33318087  0.66336323  1
  Sb  Sb66  1  0.83265735  0.33250180  0.83230936  1
  Sb  Sb67  1  0.33716985  0.50518117  0.82632359  1
  Sb  Sb68  1  0.16405449  0.49596135  0.34167787  1
  Sb  Sb69  1  0.16777400  0.32789483  0.16844121  1
  Sb  Sb70  1  0.00376561  -0.00592098  0.33999297  1
  Sb  Sb71  1  0.50278805  0.50169290  0.66714234  1
  Sb  Sb72  1  0.33327532  0.33216546  0.66398993  1
  Sb  Sb73  1  0.33593757  0.16121925  0.83036320  1
  Sb  Sb74  1  0.33105097  -0.00274793  -0.00298156  1
  Sb  Sb75  1  0.83899795  -0.00705627  0.17133825  1
  Sb  Sb76  1  0.82738582  0.66807451  0.83395405  1
  Sb  Sb77  1  -0.00064758  0.33600724  0.33566370  1
  Sb  Sb78  1  0.66918395  -0.00306164  -0.00485564  1
  Sb  Sb79  1  0.50286452  0.82937069  0.00227192  1
  Sb  Sb80  1  0.83836903  0.15642794  0.33875243  1
  Sb  Sb81  1  -0.00018205  -0.00434512  -0.00266028  1
  Sb  Sb82  1  0.16985323  0.66677601  0.82916728  1
  Sb  Sb83  1  0.83347361  0.50464903  0.66771387  1
  Sb  Sb84  1  0.50783969  0.66930853  0.50343379  1
  Sb  Sb85  1  0.32610737  0.16042632  0.16800709  1
  Sb  Sb86  1  0.33321545  0.32823760  0.33656141  1
  Sb  Sb87  1  -0.00272645  0.16583293  0.82946168  1
  Sb  Sb88  1  -0.00514172  0.33519548  0.00125379  1
  Sb  Sb89  1  0.50190856  0.33417616  0.82997425  1
  Sb  Sb90  1  0.67502108  0.83279473  0.49866948  1
  Sb  Sb91  1  0.33328347  0.50687122  0.17138513  1
  Sb  Sb92  1  0.00238746  0.83239527  0.83075926  1
  Sb  Sb93  1  0.50983221  0.66618902  0.16265137  1
  Sb  Sb94  1  0.67408396  0.16678667  0.16748542  1
  Sb  Sb95  1  0.33327503  0.67408320  0.33975884  1
  Sb  Sb96  1  0.83276960  0.33396518  0.50219191  1
  Sb  Sb97  1  0.17051987  0.00196516  0.82645146  1
  Sb  Sb98  1  0.83005576  0.33983983  0.16305033  1
  Sb  Sb99  1  0.33539810  0.66891136  -0.00360136  1
  Sb  Sb100  1  0.50531114  0.16379782  0.66477879  1
  Sb  Sb101  1  0.15647166  0.67446978  0.16491776  1
  Sb  Sb102  1  0.66368431  0.82986157  0.83413714  1
  Sb  Sb103  1  0.16200839  0.50168594  -0.00408974  1
  Sb  Sb104  1  0.49636454  -0.00034706  0.16845152  1
  Sb  Sb105  1  0.15714266  0.66897531  0.50304143  1
  Sb  Sb106  1  0.33702475  0.33392914  -0.00032046  1
  Sb  Sb107  1  0.82757446  -0.00014223  0.82371150  1
  Te  Te108  1  0.16186549  0.16329649  0.16009644  1
  Te  Te109  1  0.16614296  0.16526794  0.50277639  1
  Te  Te110  1  0.16725085  0.16877642  0.83661523  1
  Te  Te111  1  0.16248709  0.49812995  0.16714662  1
  Te  Te112  1  0.16225734  0.50074331  0.50424755  1
  Te  Te113  1  0.16807576  0.49517689  0.82671928  1
  Te  Te114  1  0.16242291  0.83763596  0.16580963  1
  Te  Te115  1  0.16056049  0.83877219  0.50431999  1
  Te  Te116  1  0.17276298  0.83447639  0.83264093  1
  Te  Te117  1  0.49985816  0.17231468  0.16729454  1
  Te  Te118  1  0.50282730  0.16607520  0.49875984  1
  Te  Te119  1  0.50601666  0.16405117  0.83470227  1
  Te  Te120  1  0.50098129  0.49747566  0.16432584  1
  Te  Te121  1  0.50574998  0.49855270  0.49966349  1
  Te  Te122  1  0.50413819  0.50184827  0.83649243  1
  Te  Te123  1  0.49697668  0.83437737  0.17004493  1
  Te  Te124  1  0.49799110  0.83754927  0.49493337  1
  Te  Te125  1  0.49610895  0.83317375  0.83510512  1
  Te  Te126  1  0.84058047  0.16497699  0.16782881  1
  Te  Te127  1  0.83565805  0.16671007  0.50292510  1
  Te  Te128  1  0.82808693  0.16617123  0.83332217  1
  Te  Te129  1  0.83352636  0.50462510  0.16339367  1
  Te  Te130  1  0.83606634  0.50200693  0.50026063  1
  Te  Te131  1  0.82709837  0.49797360  0.84027830  1
  Te  Te132  1  0.83584390  0.83187224  0.16516769  1
  Te  Te133  1  0.83628225  0.83171087  0.50188696  1
  Te  Te134  1  0.83279444  0.83554826  0.83953819  1
  Te  Te135  1  0.16511933  -0.00188825  0.00094634  1
  Te  Te136  1  0.16884141  0.00221951  0.33484436  1
  Te  Te137  1  0.16575553  -0.00114050  0.66496363  1
  Te  Te138  1  0.16749348  0.33177811  0.00087752  1
  Te  Te139  1  0.16687292  0.32424123  0.33976075  1
  Te  Te140  1  0.16654028  0.33392875  0.66275501  1
  Te  Te141  1  0.16448905  0.67184180  -0.00273065  1
  Te  Te142  1  0.16180911  0.66553707  0.33357058  1
  Te  Te143  1  0.16747240  0.66973165  0.66658379  1
  Te  Te144  1  0.49996309  0.00018070  -0.00386177  1
  Te  Te145  1  0.49345120  -0.00512199  0.33640520  1
  Te  Te146  1  0.50027069  -0.00039965  0.66464153  1
  Te  Te147  1  0.50489131  0.33736101  0.00018378  1
  Te  Te148  1  0.49907664  0.33342288  0.33717234  1
  Te  Te149  1  0.50442931  0.33334913  0.66068974  1
  Te  Te150  1  0.50420317  0.66287019  -0.00450738  1
  Te  Te151  1  0.50250392  0.67437444  0.33312321  1
  Te  Te152  1  0.50470263  0.66779556  0.67047513  1
  Te  Te153  1  0.83424291  0.00371717  0.00068693  1
  Te  Te154  1  0.83193684  -0.01034345  0.34218451  1
  Te  Te155  1  0.83194192  -0.00182325  0.66262867  1
  Te  Te156  1  0.82724626  0.32458110  -0.00084388  1
  Te  Te157  1  0.83186819  0.33017819  0.33203466  1
  Te  Te158  1  0.82698579  0.32620119  0.66758775  1
  Te  Te159  1  0.83265316  0.66897278  -0.00239250  1
  Te  Te160  1  0.83321329  0.67011471  0.33427829  1
  Te  Te161  1  0.83461193  0.66908450  0.66654176  1
  Te  Te162  1  -0.00134742  0.16691381  0.00009816  1
  Te  Te163  1  0.00356433  0.16631681  0.33520074  1
  Te  Te164  1  -0.00154775  0.16725718  0.66298926  1
  Te  Te165  1  -0.00347972  0.50431295  0.00297140  1
  Te  Te166  1  -0.00056157  0.50563338  0.33233412  1
  Te  Te167  1  0.00135325  0.50253392  0.66435259  1
  Te  Te168  1  -0.00006149  0.83066246  -0.00193788  1
  Te  Te169  1  -0.00297321  0.82976109  0.33152051  1
  Te  Te170  1  -0.00089416  0.83294587  0.66686064  1
  Te  Te171  1  0.32675929  0.16645772  -0.00044270  1
  Te  Te172  1  0.32667233  0.15767223  0.33274691  1
  Te  Te173  1  0.32387820  0.16068337  0.66782304  1
  Te  Te174  1  0.33520042  0.50137169  0.00059314  1
  Te  Te175  1  0.33307995  0.50165118  0.34171457  1
  Te  Te176  1  0.33010032  0.50162156  0.66219478  1
  Te  Te177  1  0.33021169  0.83233122  0.00344910  1
  Te  Te178  1  0.33108678  0.83665431  0.33076379  1
  Te  Te179  1  0.33547649  0.83304966  0.66725655  1
  Te  Te180  1  0.67175794  0.16561400  0.00106659  1
  Te  Te181  1  0.66805242  0.16652259  0.33891663  1
  Te  Te182  1  0.66676155  0.16452938  0.66398017  1
  Te  Te183  1  0.66821076  0.50159617  -0.00136954  1
  Te  Te184  1  0.66685633  0.50777983  0.34132393  1
  Te  Te185  1  0.66859318  0.50199608  0.66329488  1
  Te  Te186  1  0.67031564  0.82973752  0.00443995  1
  Te  Te187  1  0.66930026  0.82868681  0.33024860  1
  Te  Te188  1  0.67086992  0.83288575  0.66747502  1
  Te  Te189  1  0.00430070  -0.00125546  0.16585869  1
  Te  Te190  1  0.00036369  -0.00067929  0.50180344  1
  Te  Te191  1  0.00027220  0.00078112  0.82230763  1
  Te  Te192  1  0.00049441  0.33172207  0.16755789  1
  Te  Te193  1  0.00489963  0.33597931  0.49948645  1
  Te  Te194  1  0.00953874  0.33408646  0.83353574  1
  Te  Te195  1  -0.00445884  0.67008378  0.16537461  1
  Te  Te196  1  -0.00370128  0.66933893  0.50068209  1
  Te  Te197  1  0.00129583  0.66487558  0.82952527  1
  Te  Te198  1  0.32850832  -0.00572793  0.16617467  1
  Te  Te199  1  0.33497791  -0.00096529  0.50290108  1
  Te  Te200  1  0.33968605  -0.00512683  0.82769287  1
  Te  Te201  1  0.34074834  0.33581422  0.16825025  1
  Te  Te202  1  0.33449202  0.33888025  0.50017299  1
  Te  Te203  1  0.32962168  0.33362170  0.83246988  1
  Te  Te204  1  0.33234816  0.67283856  0.16907223  1
  Te  Te205  1  0.33630649  0.66301538  0.50563474  1
  Te  Te206  1  0.33976463  0.67150513  0.82805419  1
  Te  Te207  1  0.66628058  -0.00395946  0.16779856  1
  Te  Te208  1  0.66277841  0.00092350  0.50344523  1
  Te  Te209  1  0.66112605  0.00250097  0.82774295  1
  Te  Te210  1  0.66349583  0.33567344  0.16635733  1
  Te  Te211  1  0.66594599  0.33362912  0.50184731  1
  Te  Te212  1  0.66551170  0.33377253  0.83091994  1
  Te  Te213  1  0.67082518  0.66596095  0.16607437  1
  Te  Te214  1  0.67163127  0.66638129  0.50396470  1
  Te  Te215  1  0.66252413  0.66438067  0.82924747  1
