# generated using pymatgen
data_AgSbTe2
_symmetry_space_group_name_H-M   'P 1'
_cell_length_a   18.31366908
_cell_length_b   18.31392008
_cell_length_c   18.31595228
_cell_angle_alpha   89.99983736
_cell_angle_beta   90.00160832
_cell_angle_gamma   90.00189229
_symmetry_Int_Tables_number   1
_chemical_formula_structural   AgSbTe2
_chemical_formula_sum   'Ag54 Sb54 Te108'
_cell_volume   6143.08012482
_cell_formula_units_Z   54
loop_
 _symmetry_equiv_pos_site_id
 _symmetry_equiv_pos_as_xyz
  1  'x, y, z'
loop_
 _atom_site_type_symbol
 _atom_site_label
 _atom_site_symmetry_multiplicity
 _atom_site_fract_x
 _atom_site_fract_y
 _atom_site_fract_z
 _atom_site_occupancy
  Ag  Ag0  1  0.00543321  -0.01084992  0.00066450  1
  Ag  Ag1  1  0.34242470  0.67022887  0.33664996  1
  Ag  Ag2  1  0.49983933  0.33608040  0.83046120  1
  Ag  Ag3  1  0.83239108  0.16244688  0.00208616  1
  Ag  Ag4  1  0.50057766  0.82468263  0.65783036  1
  Ag  Ag5  1  0.33776993  0.83892713  0.49873051  1
  Ag  Ag6  1  -0.00891069  0.67239537  0.00115260  1
  Ag  Ag7  1  0.33187219  -0.00225876  0.65710339  1
  Ag  Ag8  1  0.16655046  0.66587161  0.83303721  1
  Ag  Ag9  1  0.65987535  0.66671027  0.67134955  1
  Ag  Ag10  1  -0.00486236  0.83686983  0.49495791  1
  Ag  Ag11  1  0.49987227  0.66555907  0.17340867  1
  Ag  Ag12  1  0.33706583  0.32642506  0.32985658  1
  Ag  Ag13  1  0.16793916  -0.00113608  0.83565541  1
  Ag  Ag14  1  0.49526350  0.16669563  0.66126511  1
  Ag  Ag15  1  -0.00245008  0.50385817  0.83480753  1
  Ag  Ag16  1  0.33877684  0.49616398  0.16927863  1
  Ag  Ag17  1  0.66059854  0.33848943  0.66931025  1
  Ag  Ag18  1  0.00525915  0.15723969  0.49876591  1
  Ag  Ag19  1  0.17649604  0.16498156  0.66581067  1
  Ag  Ag20  1  0.17531770  0.32915918  0.16291194  1
  Ag  Ag21  1  0.49391524  0.33839091  0.17247494  1
  Ag  Ag22  1  0.83815199  0.82939742  0.00129459  1
  Ag  Ag23  1  0.82726090  0.83179050  0.65599168  1
  Ag  Ag24  1  0.16410902  0.83684510  -0.00023647  1
  Ag  Ag25  1  0.33373473  0.16889075  0.17562552  1
  Ag  Ag26  1  0.84110366  -0.00500476  0.49849397  1
  Ag  Ag27  1  0.32430828  -0.00274003  0.00194393  1
  Ag  Ag28  1  0.67105950  0.66689727  -0.00666123  1
  Ag  Ag29  1  0.17313305  0.33486377  0.83339451  1
  Ag  Ag30  1  0.17025495  0.00112629  0.16233694  1
  Ag  Ag31  1  0.50475901  0.66555541  0.82937873  1
  Ag  Ag32  1  0.49858122  0.33200809  0.49985836  1
  Ag  Ag33  1  0.83147113  0.51190278  0.00023007  1
  Ag  Ag34  1  0.49997191  0.83023819  0.00153017  1
  Ag  Ag35  1  0.83197240  0.51404920  0.32880110  1
  Ag  Ag36  1  0.66193946  0.50395527  0.16298379  1
  Ag  Ag37  1  0.66276005  0.66828209  0.33348801  1
  Ag  Ag38  1  -0.00025695  0.83113560  0.16530983  1
  Ag  Ag39  1  0.33515460  0.15812474  0.49579018  1
  Ag  Ag40  1  0.16923867  -0.00023501  0.50132068  1
  Ag  Ag41  1  0.33369025  0.00234166  0.33816121  1
  Ag  Ag42  1  -0.00909509  0.67266691  0.32912577  1
  Ag  Ag43  1  0.49924896  0.82683016  0.33911305  1
  Ag  Ag44  1  0.82831981  0.16195212  0.33369876  1
  Ag  Ag45  1  0.34245954  0.67277077  0.66284990  1
  Ag  Ag46  1  0.66891481  0.50462636  0.83592317  1
  Ag  Ag47  1  0.66120068  0.83095596  0.49931783  1
  Ag  Ag48  1  0.83200377  0.83153448  0.33840075  1
  Ag  Ag49  1  0.49933425  0.67448302  0.49906562  1
  Ag  Ag50  1  0.49387256  0.16626296  0.33913982  1
  Ag  Ag51  1  0.66497488  0.17374318  0.83194098  1
  Ag  Ag52  1  0.82799372  0.66618466  0.83925517  1
  Ag  Ag53  1  0.16853890  0.49860288  0.67164251  1
  Sb  Sb54  1  0.00496352  0.16172126  0.16998791  1
  Sb  Sb55  1  0.33195023  0.83433150  0.17162474  1
  Sb  Sb56  1  0.00071768  0.82768369  0.83735652  1
  Sb  Sb57  1  -0.00101309  0.16933082  0.83130650  1
  Sb  Sb58  1  0.49698653  0.50386083  0.66810315  1
  Sb  Sb59  1  0.33381150  0.50213971  0.49633223  1
  Sb  Sb60  1  0.66838660  0.82653638  0.17021110  1
  Sb  Sb61  1  0.66147678  0.17346716  0.16458710  1
  Sb  Sb62  1  0.49197584  -0.00221764  0.16789797  1
  Sb  Sb63  1  0.17178365  0.67287826  0.50450546  1
  Sb  Sb64  1  0.17255589  0.16490652  0.33717418  1
  Sb  Sb65  1  0.66493455  0.33974685  -0.00431898  1
  Sb  Sb66  1  0.33442727  0.50184447  0.83661892  1
  Sb  Sb67  1  0.82680534  0.32794918  0.49879322  1
  Sb  Sb68  1  0.50217558  0.16219996  -0.00034947  1
  Sb  Sb69  1  0.66002497  -0.00485771  0.66522584  1
  Sb  Sb70  1  0.33619454  0.67286170  -0.00034196  1
  Sb  Sb71  1  0.83319074  0.50765792  0.66892947  1
  Sb  Sb72  1  0.00737661  -0.00204042  0.66684727  1
  Sb  Sb73  1  0.82845023  0.67487345  0.49968877  1
  Sb  Sb74  1  0.83038866  0.33909965  0.83346465  1
  Sb  Sb75  1  0.50472758  0.50863961  0.00127686  1
  Sb  Sb76  1  0.82948834  0.16035507  0.66526613  1
  Sb  Sb77  1  0.17157422  0.66840435  0.16264455  1
  Sb  Sb78  1  0.82607969  0.66717265  0.16426235  1
  Sb  Sb79  1  0.49574923  -0.00256659  0.83163617  1
  Sb  Sb80  1  0.33635912  0.16551343  0.83089841  1
  Sb  Sb81  1  -0.00049678  0.33318397  0.66651773  1
  Sb  Sb82  1  0.66295367  -0.00634500  0.33521914  1
  Sb  Sb83  1  0.49403002  -0.00435216  0.50013209  1
  Sb  Sb84  1  0.00080216  0.33481751  -0.00040703  1
  Sb  Sb85  1  0.66702916  0.82738166  0.82884698  1
  Sb  Sb86  1  -0.00028369  0.50725493  0.16307825  1
  Sb  Sb87  1  -0.00023227  0.50548394  0.50219848  1
  Sb  Sb88  1  0.66104459  0.16096856  0.50237347  1
  Sb  Sb89  1  0.16573275  0.50123519  0.33453250  1
  Sb  Sb90  1  0.66569784  0.50699393  0.50103542  1
  Sb  Sb91  1  0.66871097  -0.00752129  -0.00175617  1
  Sb  Sb92  1  0.16281611  0.50536090  -0.00438130  1
  Sb  Sb93  1  0.16494177  0.15922145  -0.00328102  1
  Sb  Sb94  1  0.83766649  -0.00549256  0.83176744  1
  Sb  Sb95  1  0.33422339  0.83326355  0.82816170  1
  Sb  Sb96  1  0.33850425  0.33304182  0.66267276  1
  Sb  Sb97  1  0.83152772  0.33456981  0.16719526  1
  Sb  Sb98  1  0.00372203  -0.00516350  0.33402705  1
  Sb  Sb99  1  0.16826037  0.83372009  0.33160196  1
  Sb  Sb100  1  0.65956343  0.33825778  0.33678265  1
  Sb  Sb101  1  0.17057166  0.83527544  0.66953605  1
  Sb  Sb102  1  0.33399049  0.32861992  0.00647932  1
  Sb  Sb103  1  0.00300775  0.33419774  0.33342067  1
  Sb  Sb104  1  -0.00001702  0.67007835  0.66901477  1
  Sb  Sb105  1  0.17380206  0.32583868  0.50179484  1
  Sb  Sb106  1  0.83919781  -0.00231238  0.16938883  1
  Sb  Sb107  1  0.50262324  0.50558431  0.33077144  1
  Te  Te108  1  0.17130453  0.16636399  0.16611243  1
  Te  Te109  1  0.16849916  0.16252866  0.50437646  1
  Te  Te110  1  0.16585604  0.16724750  0.82768447  1
  Te  Te111  1  0.16930029  0.49585952  0.16556061  1
  Te  Te112  1  0.16526328  0.49871415  0.50833585  1
  Te  Te113  1  0.16752737  0.50085419  0.83168372  1
  Te  Te114  1  0.16291027  0.83598160  0.16156640  1
  Te  Te115  1  0.16846428  0.83932787  0.50115475  1
  Te  Te116  1  0.16692989  0.83342527  0.83736489  1
  Te  Te117  1  0.49490336  0.17019820  0.16831489  1
  Te  Te118  1  0.49693388  0.16642793  0.49973022  1
  Te  Te119  1  0.50350921  0.16866863  0.83173151  1
  Te  Te120  1  0.50020727  0.50022897  0.16596288  1
  Te  Te121  1  0.49986056  0.49520678  0.49964485  1
  Te  Te122  1  0.50417528  0.49980873  0.83516193  1
  Te  Te123  1  0.50052258  0.82946227  0.16887931  1
  Te  Te124  1  0.49900314  0.83235344  0.49896317  1
  Te  Te125  1  0.50093562  0.82902565  0.83460983  1
  Te  Te126  1  0.83343311  0.16660473  0.16777465  1
  Te  Te127  1  0.83286590  0.16017058  0.49719692  1
  Te  Te128  1  0.82975091  0.16719723  0.83500991  1
  Te  Te129  1  0.83106017  0.49838689  0.16581100  1
  Te  Te130  1  0.83428355  0.49766555  0.49367996  1
  Te  Te131  1  0.83192655  0.50469459  0.83521107  1
  Te  Te132  1  0.83769082  0.83347195  0.16674562  1
  Te  Te133  1  0.83493818  0.83437139  0.49758057  1
  Te  Te134  1  0.83388126  0.82807584  0.83815895  1
  Te  Te135  1  0.16531084  -0.00163535  -0.00088377  1
  Te  Te136  1  0.17226569  -0.00000234  0.33371504  1
  Te  Te137  1  0.17231398  0.00266876  0.66777094  1
  Te  Te138  1  0.16649563  0.33296375  -0.00264181  1
  Te  Te139  1  0.17314392  0.33437591  0.32990242  1
  Te  Te140  1  0.16729633  0.33128575  0.67015279  1
  Te  Te141  1  0.16554701  0.67262381  -0.00504224  1
  Te  Te142  1  0.16925568  0.66531891  0.33392779  1
  Te  Te143  1  0.16799292  0.66608304  0.67172783  1
  Te  Te144  1  0.49819997  -0.00819767  -0.00035638  1
  Te  Te145  1  0.49531914  0.00258639  0.33318240  1
  Te  Te146  1  0.49235541  0.00265071  0.66801738  1
  Te  Te147  1  0.50007856  0.33158983  -0.00446936  1
  Te  Te148  1  0.49672457  0.33172541  0.33270072  1
  Te  Te149  1  0.50225388  0.33292640  0.66915643  1
  Te  Te150  1  0.50207647  0.67162847  -0.00397656  1
  Te  Te151  1  0.50189005  0.66748618  0.33516788  1
  Te  Te152  1  0.49952337  0.66666359  0.66681536  1
  Te  Te153  1  0.83745248  -0.00322780  0.00005232  1
  Te  Te154  1  0.83310202  -0.00346602  0.33600213  1
  Te  Te155  1  0.83258184  -0.00779525  0.66322275  1
  Te  Te156  1  0.83298386  0.32745279  0.00073789  1
  Te  Te157  1  0.83263900  0.32715217  0.33343959  1
  Te  Te158  1  0.82602562  0.33384610  0.66556824  1
  Te  Te159  1  0.83272585  0.66761366  0.00069802  1
  Te  Te160  1  0.83219221  0.67089328  0.33284752  1
  Te  Te161  1  0.82906464  0.67201906  0.67008960  1
  Te  Te162  1  -0.00675434  0.16509618  0.00076259  1
  Te  Te163  1  -0.00549431  0.16567161  0.33853873  1
  Te  Te164  1  0.00088910  0.16645825  0.66088482  1
  Te  Te165  1  -0.00582792  0.50432856  -0.00445953  1
  Te  Te166  1  -0.00640596  0.50539998  0.33296718  1
  Te  Te167  1  0.00440592  0.50085725  0.67198255  1
  Te  Te168  1  -0.00105778  0.83167442  -0.00104861  1
  Te  Te169  1  0.00020538  0.83097167  0.33313376  1
  Te  Te170  1  -0.00606150  0.83410552  0.65986870  1
  Te  Te171  1  0.33355652  0.15835023  0.00366426  1
  Te  Te172  1  0.33415950  0.16514904  0.33484159  1
  Te  Te173  1  0.33535420  0.16625004  0.66448930  1
  Te  Te174  1  0.33227035  0.50033959  0.00871247  1
  Te  Te175  1  0.33211636  0.50512992  0.32906973  1
  Te  Te176  1  0.32708246  0.50415625  0.66649842  1
  Te  Te177  1  0.33393052  0.83808162  0.00161623  1
  Te  Te178  1  0.33486442  0.83108181  0.33697696  1
  Te  Te179  1  0.33669047  0.83295987  0.66223973  1
  Te  Te180  1  0.67097204  0.16510340  -0.00310220  1
  Te  Te181  1  0.66697614  0.16641875  0.33308102  1
  Te  Te182  1  0.66162405  0.16616321  0.66980879  1
  Te  Te183  1  0.67069016  0.50547507  -0.00113090  1
  Te  Te184  1  0.67301366  0.50494415  0.33219937  1
  Te  Te185  1  0.66718864  0.50282763  0.67001034  1
  Te  Te186  1  0.66666510  0.82727935  0.00123086  1
  Te  Te187  1  0.66522099  0.82908177  0.33626916  1
  Te  Te188  1  0.66330531  0.82971921  0.66325175  1
  Te  Te189  1  0.00683949  -0.00458585  0.16328941  1
  Te  Te190  1  0.00316700  -0.00110089  0.49994149  1
  Te  Te191  1  0.00575872  0.00190280  0.83888321  1
  Te  Te192  1  0.00799551  0.33289168  0.16770879  1
  Te  Te193  1  0.00041465  0.32893301  0.49928550  1
  Te  Te194  1  0.00537447  0.33950090  0.83270972  1
  Te  Te195  1  0.00316179  0.67098001  0.16675390  1
  Te  Te196  1  0.00206253  0.67263261  0.49515831  1
  Te  Te197  1  0.00207987  0.66339211  0.83519377  1
  Te  Te198  1  0.32875446  0.00156931  0.16844596  1
  Te  Te199  1  0.33185361  -0.00076725  0.49910224  1
  Te  Te200  1  0.32777127  0.00001103  0.83692512  1
  Te  Te201  1  0.33426887  0.33236033  0.16876736  1
  Te  Te202  1  0.33914451  0.33154405  0.49390733  1
  Te  Te203  1  0.33398783  0.33375656  0.83366051  1
  Te  Te204  1  0.33863548  0.66498332  0.16984630  1
  Te  Te205  1  0.33727987  0.66840072  0.49964552  1
  Te  Te206  1  0.33468437  0.66619181  0.82961321  1
  Te  Te207  1  0.66602401  0.00271381  0.16583550  1
  Te  Te208  1  0.67631009  -0.00775149  0.50052122  1
  Te  Te209  1  0.66829348  0.00862559  0.83305675  1
  Te  Te210  1  0.66054290  0.34167885  0.16710390  1
  Te  Te211  1  0.65923793  0.33206068  0.50600085  1
  Te  Te212  1  0.66420398  0.33610660  0.83015245  1
  Te  Te213  1  0.65985369  0.66288607  0.16945123  1
  Te  Te214  1  0.66205067  0.67054915  0.49998351  1
  Te  Te215  1  0.66581064  0.66628508  0.83273784  1
