# generated using pymatgen
data_AgSbTe2
_symmetry_space_group_name_H-M   'P 1'
_cell_length_a   18.36484569
_cell_length_b   18.35467825
_cell_length_c   18.37083656
_cell_angle_alpha   90.00433963
_cell_angle_beta   90.00089986
_cell_angle_gamma   90.00903173
_symmetry_Int_Tables_number   1
_chemical_formula_structural   AgSbTe2
_chemical_formula_sum   'Ag54 Sb54 Te108'
_cell_volume   6192.45681042
_cell_formula_units_Z   54
loop_
 _symmetry_equiv_pos_site_id
 _symmetry_equiv_pos_as_xyz
  1  'x, y, z'
loop_
 _atom_site_type_symbol
 _atom_site_label
 _atom_site_symmetry_multiplicity
 _atom_site_fract_x
 _atom_site_fract_y
 _atom_site_fract_z
 _atom_site_occupancy
  Ag  Ag0  1  0.82553488  0.33538644  0.16606393  1
  Ag  Ag1  1  0.00244770  0.83271140  0.83428108  1
  Ag  Ag2  1  0.66507609  0.00487590  0.32757196  1
  Ag  Ag3  1  0.33315123  0.16896674  0.48549596  1
  Ag  Ag4  1  0.65975614  0.00129165  0.00717522  1
  Ag  Ag5  1  0.16628592  -0.00078029  0.48540056  1
  Ag  Ag6  1  -0.00104778  0.49051842  0.16750727  1
  Ag  Ag7  1  0.65987320  0.49215983  0.83709994  1
  Ag  Ag8  1  0.00099603  0.65851621  0.67035669  1
  Ag  Ag9  1  -0.00163612  0.33703182  0.66776990  1
  Ag  Ag10  1  0.00034869  0.83411188  0.48850627  1
  Ag  Ag11  1  0.34205654  0.17050997  0.16738228  1
  Ag  Ag12  1  0.50501558  0.34018001  0.16527548  1
  Ag  Ag13  1  0.17167496  0.65654761  0.83119409  1
  Ag  Ag14  1  0.16766763  0.33181611  0.16426882  1
  Ag  Ag15  1  0.66002484  0.49323093  0.16641185  1
  Ag  Ag16  1  0.00144779  0.33431023  0.00888449  1
  Ag  Ag17  1  0.33311826  0.33016916  0.00671838  1
  Ag  Ag18  1  0.50129500  0.65393628  0.83990709  1
  Ag  Ag19  1  0.66318062  0.01042907  0.67512743  1
  Ag  Ag20  1  0.50204441  0.49594038  0.00491751  1
  Ag  Ag21  1  0.34226527  0.00755188  0.00959260  1
  Ag  Ag22  1  0.32821272  -0.00024249  0.32521478  1
  Ag  Ag23  1  0.82466935  0.33397230  0.48420526  1
  Ag  Ag24  1  0.66838831  0.33265634  0.32538284  1
  Ag  Ag25  1  0.66675484  0.17326979  0.84255814  1
  Ag  Ag26  1  0.83798535  0.84022773  0.32962014  1
  Ag  Ag27  1  0.66443581  0.66178358  0.00855062  1
  Ag  Ag28  1  0.34120702  0.66952782  0.32938886  1
  Ag  Ag29  1  0.17445633  0.00851227  0.16906095  1
  Ag  Ag30  1  0.50782658  0.65369971  0.16284784  1
  Ag  Ag31  1  0.82860157  0.17075834  0.01011668  1
  Ag  Ag32  1  0.16811057  0.33353636  0.83779651  1
  Ag  Ag33  1  0.15865750  0.83812342  0.33073653  1
  Ag  Ag34  1  0.00000065  0.82977051  0.17135856  1
  Ag  Ag35  1  0.66563507  0.33339542  0.67007014  1
  Ag  Ag36  1  0.49858736  0.00097887  0.16542615  1
  Ag  Ag37  1  0.82209998  0.33199739  0.83773642  1
  Ag  Ag38  1  0.34577367  0.33545221  0.67668888  1
  Ag  Ag39  1  0.50175786  0.49460583  0.67196413  1
  Ag  Ag40  1  0.17235919  0.00178692  0.83724028  1
  Ag  Ag41  1  0.66316477  0.17416903  0.16451973  1
  Ag  Ag42  1  0.50785825  0.33621417  0.50067032  1
  Ag  Ag43  1  0.66324917  0.49245411  0.48479375  1
  Ag  Ag44  1  0.50204899  0.00188077  0.84502815  1
  Ag  Ag45  1  0.00533497  -0.00272142  0.33040066  1
  Ag  Ag46  1  0.82171908  0.65394136  0.16877223  1
  Ag  Ag47  1  0.83068659  0.17025760  0.33008460  1
  Ag  Ag48  1  -0.01036848  0.33188797  0.32543008  1
  Ag  Ag49  1  0.34783967  0.48632071  0.16748779  1
  Ag  Ag50  1  0.50511687  0.33695254  0.83434194  1
  Ag  Ag51  1  0.16968476  0.49470671  0.66826754  1
  Ag  Ag52  1  0.66378078  0.65058641  0.32397969  1
  Ag  Ag53  1  0.50176471  0.49859410  0.32001853  1
  Sb  Sb54  1  0.83055803  0.49555321  0.66725740  1
  Sb  Sb55  1  0.33972484  0.49570184  0.83814645  1
  Sb  Sb56  1  -0.00029788  0.00127867  0.66447889  1
  Sb  Sb57  1  -0.00318428  0.66214209  -0.00074804  1
  Sb  Sb58  1  0.16531151  0.83488388  0.00377150  1
  Sb  Sb59  1  0.16744700  0.33002292  0.49822728  1
  Sb  Sb60  1  0.66914529  0.65898958  0.66770822  1
  Sb  Sb61  1  0.33709844  0.00709553  0.66745901  1
  Sb  Sb62  1  -0.00386767  0.17065338  0.16810508  1
  Sb  Sb63  1  -0.00269756  0.66784155  0.33232609  1
  Sb  Sb64  1  0.67135587  0.83279335  0.49572601  1
  Sb  Sb65  1  0.82634504  0.49212062  0.00331517  1
  Sb  Sb66  1  0.16785489  0.17262954  0.66744008  1
  Sb  Sb67  1  0.83319658  0.83696242  0.00563787  1
  Sb  Sb68  1  0.83534826  0.00417450  0.49556665  1
  Sb  Sb69  1  0.50181100  0.82898283  0.66924739  1
  Sb  Sb70  1  0.82629481  0.49561795  0.32970619  1
  Sb  Sb71  1  0.17074584  0.49694754  -0.00176257  1
  Sb  Sb72  1  0.50120300  0.83081971  0.33168684  1
  Sb  Sb73  1  0.17067323  0.50129063  0.33349216  1
  Sb  Sb74  1  0.16542752  0.67030271  0.50141763  1
  Sb  Sb75  1  0.50336664  0.17222576  0.32850394  1
  Sb  Sb76  1  0.00218318  0.16627401  0.49698568  1
  Sb  Sb77  1  0.83015799  0.17160351  0.66396762  1
  Sb  Sb78  1  0.50082930  0.65684344  0.49640240  1
  Sb  Sb79  1  0.50156867  0.17556519  0.66834270  1
  Sb  Sb80  1  0.33665098  0.33135237  0.32731539  1
  Sb  Sb81  1  -0.00004665  0.00397533  0.00505470  1
  Sb  Sb82  1  0.32902746  0.83518504  0.83374520  1
  Sb  Sb83  1  0.16459835  0.16878731  0.00177918  1
  Sb  Sb84  1  0.16357499  0.83124356  0.66526874  1
  Sb  Sb85  1  0.16916558  0.66456478  0.16429646  1
  Sb  Sb86  1  0.50102639  0.83290154  0.00241074  1
  Sb  Sb87  1  0.66413311  0.33300093  0.00132297  1
  Sb  Sb88  1  0.49698850  0.00791457  0.49567024  1
  Sb  Sb89  1  0.83149899  0.00471458  0.17004458  1
  Sb  Sb90  1  0.50504410  0.17205774  0.00182498  1
  Sb  Sb91  1  0.83296185  0.66233971  0.49326666  1
  Sb  Sb92  1  -0.00100673  0.49728825  0.83550600  1
  Sb  Sb93  1  0.83018224  0.00467252  0.83437544  1
  Sb  Sb94  1  0.83599919  0.83345592  0.66306990  1
  Sb  Sb95  1  0.83023838  0.66146762  0.83879252  1
  Sb  Sb96  1  0.33826576  0.66471234  0.00402703  1
  Sb  Sb97  1  -0.00313435  0.16946045  0.83464145  1
  Sb  Sb98  1  0.66384120  0.17472585  0.49500458  1
  Sb  Sb99  1  0.33989377  0.49321814  0.49581314  1
  Sb  Sb100  1  0.67123248  0.83171097  0.16937914  1
  Sb  Sb101  1  0.32940231  0.83716312  0.16831706  1
  Sb  Sb102  1  0.33862092  0.16963180  0.83863797  1
  Sb  Sb103  1  -0.00324162  0.49977862  0.49798503  1
  Sb  Sb104  1  0.16518795  0.16361742  0.33097498  1
  Sb  Sb105  1  0.33128628  0.65714152  0.66475531  1
  Sb  Sb106  1  0.66885759  0.83454100  0.83354844  1
  Sb  Sb107  1  0.32840630  0.83934431  0.49587836  1
  Te  Te108  1  0.17075102  0.16702596  0.16619450  1
  Te  Te109  1  0.17189558  0.15943229  0.50057145  1
  Te  Te110  1  0.16703479  0.16795319  0.83447997  1
  Te  Te111  1  0.16014885  0.49611616  0.16642956  1
  Te  Te112  1  0.16790156  0.50107376  0.50580852  1
  Te  Te113  1  0.16660594  0.49869799  0.83030430  1
  Te  Te114  1  0.16032119  0.83268463  0.17017227  1
  Te  Te115  1  0.16219977  0.83837790  0.49648176  1
  Te  Te116  1  0.16365871  0.83589577  0.83374396  1
  Te  Te117  1  0.50256552  0.16092758  0.16711446  1
  Te  Te118  1  0.49374859  0.17535498  0.49926668  1
  Te  Te119  1  0.50512063  0.16114982  0.83347127  1
  Te  Te120  1  0.50215028  0.49975344  0.16592246  1
  Te  Te121  1  0.50453168  0.49394314  0.50737706  1
  Te  Te122  1  0.49917827  0.49691443  0.83372552  1
  Te  Te123  1  0.49834780  0.84223137  0.16816787  1
  Te  Te124  1  0.50000029  0.83154125  0.50091033  1
  Te  Te125  1  0.49956444  0.84218547  0.83310540  1
  Te  Te126  1  0.82951920  0.17080241  0.16943114  1
  Te  Te127  1  0.83376550  0.17394197  0.49345539  1
  Te  Te128  1  0.82793728  0.17065980  0.83185375  1
  Te  Te129  1  0.83876062  0.49743107  0.16545126  1
  Te  Te130  1  0.82687501  0.49350838  0.50098811  1
  Te  Te131  1  0.82709622  0.49562810  0.83489374  1
  Te  Te132  1  0.84095226  0.83653779  0.17037693  1
  Te  Te133  1  0.83929953  0.83179650  0.49430600  1
  Te  Te134  1  0.83990208  0.83160165  0.83236775  1
  Te  Te135  1  0.16610042  0.00141572  -0.00232898  1
  Te  Te136  1  0.16547284  0.00033677  0.32955899  1
  Te  Te137  1  0.16772219  0.00018246  0.67713633  1
  Te  Te138  1  0.16794525  0.33378893  0.00156222  1
  Te  Te139  1  0.16186459  0.33370652  0.32950684  1
  Te  Te140  1  0.16146478  0.33650001  0.66324762  1
  Te  Te141  1  0.16833321  0.66701380  -0.00907511  1
  Te  Te142  1  0.17012988  0.67037944  0.33380264  1
  Te  Te143  1  0.16397679  0.66267098  0.67102991  1
  Te  Te144  1  0.49939053  -0.00103300  0.00184138  1
  Te  Te145  1  0.49966117  -0.00023764  0.33174910  1
  Te  Te146  1  0.50437109  -0.00270882  0.66246502  1
  Te  Te147  1  0.49583391  0.33569709  0.00008242  1
  Te  Te148  1  0.50157298  0.33763993  0.32611465  1
  Te  Te149  1  0.50268795  0.33563061  0.67354187  1
  Te  Te150  1  0.50228979  0.66582484  0.00095318  1
  Te  Te151  1  0.50281828  0.66437737  0.33009889  1
  Te  Te152  1  0.49979951  0.66073859  0.67124679  1
  Te  Te153  1  0.83111592  0.00704826  -0.00001887  1
  Te  Te154  1  0.83414668  0.00120430  0.33510033  1
  Te  Te155  1  0.82600648  0.00124631  0.66458499  1
  Te  Te156  1  0.83624986  0.33110963  0.00120037  1
  Te  Te157  1  0.83205555  0.33417847  0.32846333  1
  Te  Te158  1  0.83100926  0.33340866  0.67830927  1
  Te  Te159  1  0.82781631  0.66899491  0.00691682  1
  Te  Te160  1  0.82941768  0.66961517  0.32795302  1
  Te  Te161  1  0.83971969  0.66726185  0.66684736  1
  Te  Te162  1  -0.01002768  0.17383729  -0.00082401  1
  Te  Te163  1  -0.00543520  0.16667387  0.33468336  1
  Te  Te164  1  -0.00068913  0.17346579  0.66594343  1
  Te  Te165  1  0.00126377  0.49413869  0.00463115  1
  Te  Te166  1  0.00174975  0.49645414  0.33039038  1
  Te  Te167  1  0.00273349  0.49866768  0.66621031  1
  Te  Te168  1  -0.00085708  0.83220989  -0.00356559  1
  Te  Te169  1  -0.00015195  0.83090409  0.33169805  1
  Te  Te170  1  -0.00043714  0.83508438  0.67437462  1
  Te  Te171  1  0.33101711  0.16693412  0.00563944  1
  Te  Te172  1  0.33273723  0.16019271  0.32764598  1
  Te  Te173  1  0.33390912  0.17595002  0.66840333  1
  Te  Te174  1  0.33815462  0.49810530  0.00843145  1
  Te  Te175  1  0.33750511  0.50378501  0.32911563  1
  Te  Te176  1  0.33269466  0.49346824  0.66452920  1
  Te  Te177  1  0.33202177  0.84456077  -0.00183255  1
  Te  Te178  1  0.33118903  0.83557285  0.33477177  1
  Te  Te179  1  0.33343274  0.83052639  0.66447733  1
  Te  Te180  1  0.66907541  0.16277083  0.00226201  1
  Te  Te181  1  0.66928818  0.16846634  0.33072530  1
  Te  Te182  1  0.66616058  0.16899906  0.66895245  1
  Te  Te183  1  0.66241305  0.50340956  0.00290802  1
  Te  Te184  1  0.66345007  0.49517820  0.32890010  1
  Te  Te185  1  0.66429093  0.49583586  0.67674979  1
  Te  Te186  1  0.66858215  0.83955335  -0.00154894  1
  Te  Te187  1  0.67161722  0.84450426  0.33523425  1
  Te  Te188  1  0.66832071  0.83764727  0.66451215  1
  Te  Te189  1  0.00344655  -0.00076896  0.16941332  1
  Te  Te190  1  0.00406191  -0.00436347  0.49823763  1
  Te  Te191  1  0.00037101  -0.00142854  0.83364901  1
  Te  Te192  1  0.00410112  0.33120691  0.16771173  1
  Te  Te193  1  -0.00314002  0.33443975  0.50187012  1
  Te  Te194  1  0.01013398  0.33344222  0.82811354  1
  Te  Te195  1  0.00087606  0.66979004  0.16554047  1
  Te  Te196  1  -0.00099569  0.67075465  0.50682086  1
  Te  Te197  1  -0.00040945  0.66590667  0.83200067  1
  Te  Te198  1  0.33101074  -0.00094411  0.16694528  1
  Te  Te199  1  0.32876825  0.00626883  0.50014832  1
  Te  Te200  1  0.33554911  0.00216587  0.83251014  1
  Te  Te201  1  0.33283011  0.33061764  0.16784522  1
  Te  Te202  1  0.33554483  0.32827327  0.49615361  1
  Te  Te203  1  0.32804997  0.33382916  0.83459026  1
  Te  Te204  1  0.33662140  0.66748619  0.16906905  1
  Te  Te205  1  0.33346855  0.66710067  0.49245809  1
  Te  Te206  1  0.33492237  0.66699631  0.83366828  1
  Te  Te207  1  0.66549087  -0.00194012  0.16675923  1
  Te  Te208  1  0.66639521  0.00138101  0.49618425  1
  Te  Te209  1  0.66474950  0.00034595  0.83194834  1
  Te  Te210  1  0.66571999  0.33399360  0.16514786  1
  Te  Te211  1  0.66534674  0.33397202  0.50180940  1
  Te  Te212  1  0.66454165  0.33199059  0.83774562  1
  Te  Te213  1  0.66601033  0.67029830  0.16854953  1
  Te  Te214  1  0.66766936  0.65961906  0.49691829  1
  Te  Te215  1  0.66182027  0.66576081  0.83473043  1
