# generated using pymatgen
data_AgSbTe2
_symmetry_space_group_name_H-M   'P 1'
_cell_length_a   18.32758999
_cell_length_b   18.32072962
_cell_length_c   18.32138041
_cell_angle_alpha   89.99642206
_cell_angle_beta   90.00179121
_cell_angle_gamma   89.99990992
_symmetry_Int_Tables_number   1
_chemical_formula_structural   AgSbTe2
_chemical_formula_sum   'Ag54 Sb54 Te108'
_cell_volume   6151.85821236
_cell_formula_units_Z   54
loop_
 _symmetry_equiv_pos_site_id
 _symmetry_equiv_pos_as_xyz
  1  'x, y, z'
loop_
 _atom_site_type_symbol
 _atom_site_label
 _atom_site_symmetry_multiplicity
 _atom_site_fract_x
 _atom_site_fract_y
 _atom_site_fract_z
 _atom_site_occupancy
  Ag  Ag0  1  0.66493729  0.16483692  0.50459153  1
  Ag  Ag1  1  0.34658549  0.16033075  0.15970403  1
  Ag  Ag2  1  0.83153696  -0.00211916  0.83507885  1
  Ag  Ag3  1  0.83796622  0.50416588  0.00192502  1
  Ag  Ag4  1  0.49881356  0.82995362  0.32725029  1
  Ag  Ag5  1  0.16809506  0.16588541  0.66532133  1
  Ag  Ag6  1  0.15630806  0.83164990  -0.00104411  1
  Ag  Ag7  1  0.33598679  0.50272541  0.49504390  1
  Ag  Ag8  1  0.50208123  0.00406633  0.49816033  1
  Ag  Ag9  1  -0.00141141  0.49756917  0.49832467  1
  Ag  Ag10  1  0.66048425  0.16040730  0.83177549  1
  Ag  Ag11  1  0.50014536  0.66951952  0.16479567  1
  Ag  Ag12  1  0.33225646  -0.00781715  0.00042719  1
  Ag  Ag13  1  0.50213507  0.00733558  0.16905572  1
  Ag  Ag14  1  -0.00360678  0.16318751  0.16394023  1
  Ag  Ag15  1  0.66463578  0.84029238  0.83386180  1
  Ag  Ag16  1  0.17434585  0.49680574  0.33096179  1
  Ag  Ag17  1  0.16221042  0.50515506  0.00459504  1
  Ag  Ag18  1  0.65881121  0.66857528  0.00295155  1
  Ag  Ag19  1  0.33774746  0.83713450  0.15690168  1
  Ag  Ag20  1  0.82500917  0.16100947  0.66473469  1
  Ag  Ag21  1  0.66348732  0.49831149  0.16947579  1
  Ag  Ag22  1  -0.00019603  0.67852340  0.00041199  1
  Ag  Ag23  1  0.00004946  -0.00861149  0.00231534  1
  Ag  Ag24  1  0.50504717  0.32036529  0.16273413  1
  Ag  Ag25  1  0.65958064  0.16772173  0.16543529  1
  Ag  Ag26  1  0.82962592  0.00485149  0.15972802  1
  Ag  Ag27  1  0.83333032  0.32836980  0.49939818  1
  Ag  Ag28  1  0.66534940  0.49571782  0.49299208  1
  Ag  Ag29  1  0.34023715  0.66531853  0.32778105  1
  Ag  Ag30  1  0.49742545  0.16469656  0.31925567  1
  Ag  Ag31  1  0.16888054  0.33020731  0.83545683  1
  Ag  Ag32  1  0.82831401  0.32442515  0.16560824  1
  Ag  Ag33  1  0.82787199  0.00581729  0.50970752  1
  Ag  Ag34  1  0.34364331  0.16159684  0.83825337  1
  Ag  Ag35  1  0.49843852  0.31986088  0.83793327  1
  Ag  Ag36  1  0.50466529  0.16054519  0.67191419  1
  Ag  Ag37  1  0.49854172  0.50876167  0.33129293  1
  Ag  Ag38  1  0.49912135  0.16667700  0.00532747  1
  Ag  Ag39  1  -0.00013908  0.33246895  -0.00123131  1
  Ag  Ag40  1  0.33947818  0.67506030  0.00166871  1
  Ag  Ag41  1  0.33689948  0.66988925  0.67301492  1
  Ag  Ag42  1  0.82618071  0.84348005  0.67838155  1
  Ag  Ag43  1  0.17070990  0.00354434  0.50129691  1
  Ag  Ag44  1  -0.00092254  0.32932802  0.67269564  1
  Ag  Ag45  1  0.33798590  0.83613677  0.84111619  1
  Ag  Ag46  1  0.17380002  0.16875054  0.33357642  1
  Ag  Ag47  1  0.50308432  0.84019347  0.67018002  1
  Ag  Ag48  1  0.84239071  0.83549826  -0.00339724  1
  Ag  Ag49  1  0.00016714  0.83984944  0.15614295  1
  Ag  Ag50  1  -0.00944138  0.83465843  0.84379472  1
  Ag  Ag51  1  0.66763230  0.00258734  0.66726632  1
  Ag  Ag52  1  0.49807581  0.67450826  0.84171067  1
  Ag  Ag53  1  0.65706499  0.66446906  0.32335034  1
  Sb  Sb54  1  0.00269235  0.66525730  0.32549724  1
  Sb  Sb55  1  0.33148555  0.33330663  -0.00022186  1
  Sb  Sb56  1  0.66933236  0.32389441  0.66660975  1
  Sb  Sb57  1  0.34057557  -0.00201827  0.67206780  1
  Sb  Sb58  1  0.66456203  0.83712179  0.50384952  1
  Sb  Sb59  1  0.33199936  0.33308173  0.66866209  1
  Sb  Sb60  1  0.33875982  0.16848286  0.49954983  1
  Sb  Sb61  1  0.66490257  0.50042429  0.83570810  1
  Sb  Sb62  1  0.16870478  0.66756998  0.49904184  1
  Sb  Sb63  1  0.82693434  0.66806795  0.16150252  1
  Sb  Sb64  1  0.66239897  -0.00162879  0.33574034  1
  Sb  Sb65  1  0.66304828  0.83502064  0.16070976  1
  Sb  Sb66  1  0.82575478  0.67649277  0.83756364  1
  Sb  Sb67  1  0.66448928  0.33605730  0.33111908  1
  Sb  Sb68  1  0.33539129  0.33608817  0.33237838  1
  Sb  Sb69  1  0.66922445  0.33529691  0.00264591  1
  Sb  Sb70  1  0.16386144  0.00331063  0.83180154  1
  Sb  Sb71  1  -0.00711226  0.00441907  0.67131500  1
  Sb  Sb72  1  -0.00095101  0.16349781  0.83666259  1
  Sb  Sb73  1  0.16164672  0.33048698  0.50384165  1
  Sb  Sb74  1  0.33614426  -0.00223802  0.32718141  1
  Sb  Sb75  1  0.33550951  0.83152785  0.50040194  1
  Sb  Sb76  1  0.16738204  0.33156526  0.16241748  1
  Sb  Sb77  1  0.00032093  0.33258707  0.33040851  1
  Sb  Sb78  1  -0.00418078  0.16856858  0.49861160  1
  Sb  Sb79  1  0.17332701  0.66539622  0.83803958  1
  Sb  Sb80  1  -0.00506940  0.49893056  0.16543847  1
  Sb  Sb81  1  0.50026927  0.49977364  0.66136181  1
  Sb  Sb82  1  0.16822094  0.00164600  0.16658487  1
  Sb  Sb83  1  -0.00201227  0.83339670  0.50188717  1
  Sb  Sb84  1  0.50533467  0.32854503  0.49812912  1
  Sb  Sb85  1  0.66039218  0.67330301  0.66897171  1
  Sb  Sb86  1  0.00330213  0.66524865  0.67311289  1
  Sb  Sb87  1  0.17400066  0.83432706  0.32682956  1
  Sb  Sb88  1  0.83185959  0.32650221  0.83530699  1
  Sb  Sb89  1  0.82979442  0.16357641  0.00018841  1
  Sb  Sb90  1  0.17408582  0.66667729  0.16289770  1
  Sb  Sb91  1  0.50426629  0.00078363  0.83612528  1
  Sb  Sb92  1  0.82758710  0.16554360  0.33375470  1
  Sb  Sb93  1  0.49828348  0.83616782  -0.00058535  1
  Sb  Sb94  1  0.33992738  0.50105348  0.16895587  1
  Sb  Sb95  1  0.83254436  0.49697291  0.66895802  1
  Sb  Sb96  1  0.17012076  0.16557003  0.00020069  1
  Sb  Sb97  1  0.00100818  0.00092062  0.32732354  1
  Sb  Sb98  1  0.49971597  0.66893801  0.49624861  1
  Sb  Sb99  1  0.82692064  0.83505994  0.32903228  1
  Sb  Sb100  1  0.33538547  0.50162720  0.83377826  1
  Sb  Sb101  1  0.16776311  0.49553193  0.66670901  1
  Sb  Sb102  1  0.66670814  -0.00334231  -0.00254559  1
  Sb  Sb103  1  0.50047255  0.49963744  0.00586600  1
  Sb  Sb104  1  0.83054618  0.66585507  0.50147608  1
  Sb  Sb105  1  0.82921805  0.49991141  0.32965313  1
  Sb  Sb106  1  -0.00013622  0.50215152  0.83593729  1
  Sb  Sb107  1  0.16857151  0.83975411  0.67327265  1
  Te  Te108  1  0.16168325  0.16793177  0.17132552  1
  Te  Te109  1  0.16755761  0.16409166  0.49887762  1
  Te  Te110  1  0.16707749  0.17011439  0.83099052  1
  Te  Te111  1  0.16637411  0.49868862  0.16751878  1
  Te  Te112  1  0.16680634  0.49938158  0.49785515  1
  Te  Te113  1  0.16732440  0.49252812  0.83658296  1
  Te  Te114  1  0.16926457  0.83376081  0.16127883  1
  Te  Te115  1  0.16609636  0.84107831  0.49974388  1
  Te  Te116  1  0.17411498  0.83316811  0.83844702  1
  Te  Te117  1  0.50186723  0.16449877  0.16352261  1
  Te  Te118  1  0.50386879  0.16466040  0.50824101  1
  Te  Te119  1  0.50007555  0.16323106  0.83088861  1
  Te  Te120  1  0.50454888  0.50623875  0.17147895  1
  Te  Te121  1  0.50235161  0.49668324  0.49369020  1
  Te  Te122  1  0.50078137  0.49850043  0.83175638  1
  Te  Te123  1  0.49781550  0.83075221  0.16749467  1
  Te  Te124  1  0.49931025  0.84038807  0.50399958  1
  Te  Te125  1  0.49990253  0.83446926  0.83229995  1
  Te  Te126  1  0.83434613  0.16494871  0.16732112  1
  Te  Te127  1  0.82919206  0.16671996  0.50016333  1
  Te  Te128  1  0.82969882  0.16104232  0.82945231  1
  Te  Te129  1  0.82705667  0.49797847  0.16256836  1
  Te  Te130  1  0.83172499  0.49701585  0.50021934  1
  Te  Te131  1  0.83183256  0.49922373  0.84039099  1
  Te  Te132  1  0.83406698  0.83850948  0.16288795  1
  Te  Te133  1  0.83314666  0.83874534  0.50116896  1
  Te  Te134  1  0.83117642  0.83634858  0.83522513  1
  Te  Te135  1  0.16637720  -0.00379570  -0.00033362  1
  Te  Te136  1  0.16875998  0.00309981  0.34039019  1
  Te  Te137  1  0.16553397  0.00586758  0.66182879  1
  Te  Te138  1  0.16333965  0.33611011  -0.00398830  1
  Te  Te139  1  0.16794908  0.33414614  0.33406066  1
  Te  Te140  1  0.16248309  0.32810964  0.67139048  1
  Te  Te141  1  0.16558946  0.66640427  -0.00028963  1
  Te  Te142  1  0.17169296  0.66185437  0.33239520  1
  Te  Te143  1  0.17408205  0.66731090  0.66764067  1
  Te  Te144  1  0.49780827  0.00465559  0.00657283  1
  Te  Te145  1  0.49931583  0.00084684  0.33132882  1
  Te  Te146  1  0.50383923  -0.00021396  0.66464076  1
  Te  Te147  1  0.50005538  0.33175786  0.00028583  1
  Te  Te148  1  0.49981479  0.32665184  0.32878656  1
  Te  Te149  1  0.50034305  0.32970996  0.67074905  1
  Te  Te150  1  0.49941783  0.66518738  0.00064274  1
  Te  Te151  1  0.49989295  0.66779862  0.33500020  1
  Te  Te152  1  0.49523553  0.66840793  0.66748204  1
  Te  Te153  1  0.83386296  -0.00212901  0.00088908  1
  Te  Te154  1  0.83246771  -0.00081269  0.33122523  1
  Te  Te155  1  0.83177449  0.00057879  0.66762389  1
  Te  Te156  1  0.83723949  0.33422331  0.00303035  1
  Te  Te157  1  0.83356887  0.33335439  0.33112365  1
  Te  Te158  1  0.83881457  0.32909712  0.66554622  1
  Te  Te159  1  0.83655929  0.66597415  -0.00040629  1
  Te  Te160  1  0.82844549  0.66756242  0.33239862  1
  Te  Te161  1  0.83384482  0.67284840  0.66872018  1
  Te  Te162  1  0.00091786  0.17005484  0.00298489  1
  Te  Te163  1  0.00588179  0.16713387  0.32759202  1
  Te  Te164  1  0.00264255  0.17085531  0.66670883  1
  Te  Te165  1  0.00095853  0.49476094  0.00103045  1
  Te  Te166  1  0.00375908  0.50068923  0.33720464  1
  Te  Te167  1  0.00004666  0.49634331  0.66208432  1
  Te  Te168  1  0.00034223  0.83476103  -0.00008525  1
  Te  Te169  1  0.00215883  0.83136368  0.32690038  1
  Te  Te170  1  -0.00241275  0.83212894  0.67175354  1
  Te  Te171  1  0.33523111  0.16708735  -0.00076363  1
  Te  Te172  1  0.33462168  0.16579779  0.33149200  1
  Te  Te173  1  0.33285415  0.16609811  0.66912862  1
  Te  Te174  1  0.32706813  0.50558170  0.00060027  1
  Te  Te175  1  0.33475602  0.50300861  0.33431769  1
  Te  Te176  1  0.33302788  0.50633450  0.66133023  1
  Te  Te177  1  0.33763386  0.83375070  -0.00008205  1
  Te  Te178  1  0.33835395  0.82755843  0.33038294  1
  Te  Te179  1  0.33640410  0.83032987  0.67038035  1
  Te  Te180  1  0.66221856  0.16624710  0.00040876  1
  Te  Te181  1  0.66015576  0.16550037  0.33023956  1
  Te  Te182  1  0.66666284  0.16321217  0.66694682  1
  Te  Te183  1  0.66963376  0.50570085  0.00378289  1
  Te  Te184  1  0.66399378  0.50358036  0.33155694  1
  Te  Te185  1  0.66786179  0.50085255  0.65998669  1
  Te  Te186  1  0.67146220  0.82952990  -0.00586412  1
  Te  Te187  1  0.65914391  0.82616704  0.33401022  1
  Te  Te188  1  0.66596490  0.83797423  0.67069762  1
  Te  Te189  1  0.00084099  0.00005382  0.16238138  1
  Te  Te190  1  -0.00583068  -0.00053855  0.49966749  1
  Te  Te191  1  -0.00402466  -0.00434728  0.83924894  1
  Te  Te192  1  -0.00377009  0.33133672  0.16270735  1
  Te  Te193  1  -0.00545530  0.33620813  0.50099765  1
  Te  Te194  1  0.00005519  0.33361828  0.83436802  1
  Te  Te195  1  -0.00156991  0.67069887  0.15989462  1
  Te  Te196  1  -0.00009837  0.66083036  0.50030435  1
  Te  Te197  1  0.00132164  0.67198505  0.83925351  1
  Te  Te198  1  0.33484078  0.00028886  0.16237552  1
  Te  Te199  1  0.33678947  0.00036249  0.50112315  1
  Te  Te200  1  0.33183236  0.00089161  0.83868599  1
  Te  Te201  1  0.33989528  0.32537774  0.16584561  1
  Te  Te202  1  0.33331843  0.34152717  0.50100980  1
  Te  Te203  1  0.33588659  0.32899161  0.83301995  1
  Te  Te204  1  0.33879341  0.66792645  0.16487128  1
  Te  Te205  1  0.33281266  0.66322103  0.49687601  1
  Te  Te206  1  0.33834953  0.66841057  0.83695713  1
  Te  Te207  1  0.66645031  0.00340706  0.16672954  1
  Te  Te208  1  0.66609773  0.00340712  0.50194903  1
  Te  Te209  1  0.67019050  0.00030038  0.83146708  1
  Te  Te210  1  0.66657078  0.33083010  0.16567978  1
  Te  Te211  1  0.67273221  0.33182786  0.49935623  1
  Te  Te212  1  0.66146442  0.32839985  0.83459275  1
  Te  Te213  1  0.66229070  0.66756978  0.16451583  1
  Te  Te214  1  0.66701949  0.66134389  0.49955043  1
  Te  Te215  1  0.65794520  0.66841627  0.83680266  1
