# generated using pymatgen
data_AgSbTe2
_symmetry_space_group_name_H-M   'P 1'
_cell_length_a   18.33907744
_cell_length_b   18.33170862
_cell_length_c   18.33853329
_cell_angle_alpha   90.00072266
_cell_angle_beta   89.99957152
_cell_angle_gamma   89.99829046
_symmetry_Int_Tables_number   1
_chemical_formula_structural   AgSbTe2
_chemical_formula_sum   'Ag54 Sb54 Te108'
_cell_volume   6165.16959161
_cell_formula_units_Z   54
loop_
 _symmetry_equiv_pos_site_id
 _symmetry_equiv_pos_as_xyz
  1  'x, y, z'
loop_
 _atom_site_type_symbol
 _atom_site_label
 _atom_site_symmetry_multiplicity
 _atom_site_fract_x
 _atom_site_fract_y
 _atom_site_fract_z
 _atom_site_occupancy
  Ag  Ag0  1  0.33830333  0.49525394  0.50233138  1
  Ag  Ag1  1  0.83180392  0.67780158  0.16358477  1
  Ag  Ag2  1  0.33142722  0.00446223  0.00262812  1
  Ag  Ag3  1  0.83986968  0.83333228  0.00615261  1
  Ag  Ag4  1  0.66972639  0.00144415  0.32832580  1
  Ag  Ag5  1  0.66918438  0.83470566  0.16654167  1
  Ag  Ag6  1  0.16648257  0.67903368  0.16407005  1
  Ag  Ag7  1  0.33491375  0.83521416  0.49067254  1
  Ag  Ag8  1  0.32525991  0.17571502  0.84259837  1
  Ag  Ag9  1  0.00748243  0.32059123  0.33198058  1
  Ag  Ag10  1  0.83606953  0.33479941  0.83515878  1
  Ag  Ag11  1  0.32976506  0.16847810  0.49095682  1
  Ag  Ag12  1  0.33128620  0.32143438  0.33310922  1
  Ag  Ag13  1  0.00623349  0.32529235  -0.00733084  1
  Ag  Ag14  1  0.16321900  -0.00566572  0.16748840  1
  Ag  Ag15  1  0.00219201  0.83964392  0.84448214  1
  Ag  Ag16  1  0.66891795  0.50036585  0.16645630  1
  Ag  Ag17  1  0.16490037  0.16386388  0.32538444  1
  Ag  Ag18  1  0.16798326  0.83936174  0.00791413  1
  Ag  Ag19  1  0.84986702  0.16566829  0.32877075  1
  Ag  Ag20  1  0.65882596  0.49865236  0.50329543  1
  Ag  Ag21  1  0.33248000  0.32634707  -0.01076047  1
  Ag  Ag22  1  0.00126683  0.00844973  0.66411282  1
  Ag  Ag23  1  0.32187088  0.83972346  0.16792259  1
  Ag  Ag24  1  0.49246793  0.16638359  0.33387441  1
  Ag  Ag25  1  0.49516222  0.33608543  0.83097759  1
  Ag  Ag26  1  0.32428374  0.16203745  0.16961336  1
  Ag  Ag27  1  0.49702097  0.00486374  0.49769979  1
  Ag  Ag28  1  0.84300750  -0.00372106  0.16749558  1
  Ag  Ag29  1  0.33532403  0.66834243  0.33565303  1
  Ag  Ag30  1  0.49472854  0.83351916  -0.00050689  1
  Ag  Ag31  1  0.66121619  0.49759001  0.83235461  1
  Ag  Ag32  1  0.16424038  0.16743186  0.67780141  1
  Ag  Ag33  1  0.49772094  0.32858436  0.50369591  1
  Ag  Ag34  1  0.17373798  0.66617856  0.83679639  1
  Ag  Ag35  1  0.00973512  0.84251281  0.16257579  1
  Ag  Ag36  1  -0.00074803  0.32566577  0.67606372  1
  Ag  Ag37  1  0.65965916  0.66012676  0.67044475  1
  Ag  Ag38  1  0.33717505  0.49440468  0.83104852  1
  Ag  Ag39  1  -0.00075936  0.00618309  0.32801936  1
  Ag  Ag40  1  0.00724667  0.16072728  0.17435404  1
  Ag  Ag41  1  0.66465917  0.33238533  -0.00507646  1
  Ag  Ag42  1  0.66865344  0.16307792  0.17151007  1
  Ag  Ag43  1  0.16978229  0.84057215  0.31924847  1
  Ag  Ag44  1  0.49665540  0.66283357  0.82999185  1
  Ag  Ag45  1  0.66164110  0.66988941  0.32617423  1
  Ag  Ag46  1  0.16870310  0.16430845  0.00224292  1
  Ag  Ag47  1  0.33701122  0.66942142  0.66982600  1
  Ag  Ag48  1  0.00864107  0.16675637  0.48636084  1
  Ag  Ag49  1  0.83078285  0.66244808  0.83826814  1
  Ag  Ag50  1  0.49819993  0.83156786  0.67045254  1
  Ag  Ag51  1  0.66610708  0.33719881  0.67593345  1
  Ag  Ag52  1  0.00779082  0.17043710  0.83392777  1
  Ag  Ag53  1  0.16911501  0.32417071  0.83535705  1
  Sb  Sb54  1  0.49690729  0.66598536  0.50454632  1
  Sb  Sb55  1  0.83338945  0.32887425  0.16271539  1
  Sb  Sb56  1  0.33520029  0.33428482  0.66808010  1
  Sb  Sb57  1  0.50055538  0.67017588  0.16320483  1
  Sb  Sb58  1  0.83626028  0.83824379  0.32411699  1
  Sb  Sb59  1  0.17168362  0.00397608  0.49347839  1
  Sb  Sb60  1  0.16640544  0.32803221  0.16191979  1
  Sb  Sb61  1  0.49949217  0.50353236  0.66790921  1
  Sb  Sb62  1  0.83004405  0.83178674  0.67569973  1
  Sb  Sb63  1  0.00139377  0.49464161  0.83333206  1
  Sb  Sb64  1  0.82980237  0.49517427  0.33093527  1
  Sb  Sb65  1  0.83792681  0.00145051  0.84069398  1
  Sb  Sb66  1  0.83184438  0.00282270  0.49141473  1
  Sb  Sb67  1  0.00211993  0.67064089  0.33017848  1
  Sb  Sb68  1  0.83150459  0.50062596  -0.00056683  1
  Sb  Sb69  1  0.50051841  0.50163836  -0.00306066  1
  Sb  Sb70  1  0.66271388  0.17082403  0.49430031  1
  Sb  Sb71  1  0.00623667  0.00235594  0.00563607  1
  Sb  Sb72  1  0.66174922  0.00286231  0.00733705  1
  Sb  Sb73  1  0.82862659  0.66740026  0.49778194  1
  Sb  Sb74  1  0.33556848  0.49963027  0.16617546  1
  Sb  Sb75  1  0.84263225  0.16736574  0.66550835  1
  Sb  Sb76  1  0.16820925  0.49709616  -0.00089236  1
  Sb  Sb77  1  0.66641124  0.17630185  0.83860279  1
  Sb  Sb78  1  0.00070701  0.66824003  -0.00015753  1
  Sb  Sb79  1  0.65971340  0.82929859  0.49499043  1
  Sb  Sb80  1  0.66738260  0.66474840  0.00086227  1
  Sb  Sb81  1  0.83993154  0.16410769  0.00586631  1
  Sb  Sb82  1  0.16590631  0.00318165  0.83990676  1
  Sb  Sb83  1  -0.00303879  0.49807994  0.16647849  1
  Sb  Sb84  1  0.16949877  0.83762926  0.66983789  1
  Sb  Sb85  1  0.82997335  0.33103185  0.50271885  1
  Sb  Sb86  1  0.66934296  0.00138151  0.66026437  1
  Sb  Sb87  1  0.49214580  0.16499470  0.00365482  1
  Sb  Sb88  1  0.82879448  0.49899429  0.66946661  1
  Sb  Sb89  1  0.17269850  0.32814634  0.50332380  1
  Sb  Sb90  1  0.00716165  0.84100647  0.49559772  1
  Sb  Sb91  1  0.49974127  0.49597668  0.33519649  1
  Sb  Sb92  1  0.33010787  0.00246007  0.32870422  1
  Sb  Sb93  1  0.66811256  0.82608168  0.83938181  1
  Sb  Sb94  1  0.49428897  0.83738383  0.33132464  1
  Sb  Sb95  1  0.17090357  0.66766027  0.49935722  1
  Sb  Sb96  1  0.49668026  0.00021568  0.17210417  1
  Sb  Sb97  1  0.17018218  0.49451644  0.66957227  1
  Sb  Sb98  1  0.33202534  0.66838602  -0.00012636  1
  Sb  Sb99  1  0.49866873  0.00082115  0.83019789  1
  Sb  Sb100  1  0.49961139  0.33115522  0.16481181  1
  Sb  Sb101  1  0.66369926  0.33034894  0.33199041  1
  Sb  Sb102  1  0.00211639  0.48954576  0.49985939  1
  Sb  Sb103  1  0.32833831  -0.00101009  0.66869069  1
  Sb  Sb104  1  0.00224627  0.66705582  0.67170322  1
  Sb  Sb105  1  0.49469505  0.16540733  0.66315950  1
  Sb  Sb106  1  0.16967120  0.49679075  0.33167833  1
  Sb  Sb107  1  0.32955504  0.83229128  0.83826064  1
  Te  Te108  1  0.16619848  0.16858471  0.16417040  1
  Te  Te109  1  0.16864401  0.16683896  0.49504673  1
  Te  Te110  1  0.16781109  0.16567277  0.83660685  1
  Te  Te111  1  0.16593765  0.51439667  0.16611253  1
  Te  Te112  1  0.17521975  0.49919337  0.50063881  1
  Te  Te113  1  0.17162342  0.50618345  0.83388635  1
  Te  Te114  1  0.16588282  0.83486432  0.16403321  1
  Te  Te115  1  0.17504472  0.83486553  0.49911011  1
  Te  Te116  1  0.16198055  0.83144886  0.83571225  1
  Te  Te117  1  0.50212540  0.16687446  0.17135695  1
  Te  Te118  1  0.49614487  0.16811752  0.49798116  1
  Te  Te119  1  0.49679360  0.17089036  0.83203111  1
  Te  Te120  1  0.50864483  0.50137563  0.16579620  1
  Te  Te121  1  0.49825172  0.49403110  0.50037868  1
  Te  Te122  1  0.49894271  0.49911694  0.83335888  1
  Te  Te123  1  0.50546568  0.83396173  0.16190955  1
  Te  Te124  1  0.49376188  0.83557074  0.50149791  1
  Te  Te125  1  0.50000533  0.83253663  0.83426017  1
  Te  Te126  1  0.83159617  0.16343189  0.16990519  1
  Te  Te127  1  0.83836080  0.16683560  0.49271027  1
  Te  Te128  1  0.83502801  0.17156630  0.83463541  1
  Te  Te129  1  0.82842867  0.50798130  0.16565969  1
  Te  Te130  1  0.82610247  0.49973289  0.49938196  1
  Te  Te131  1  0.82919097  0.50032715  0.83431390  1
  Te  Te132  1  0.82984187  0.83531428  0.16529623  1
  Te  Te133  1  0.83535451  0.83402665  0.50056987  1
  Te  Te134  1  0.83816941  0.83053679  0.84154337  1
  Te  Te135  1  0.17150702  0.00051697  0.00517940  1
  Te  Te136  1  0.16400072  0.00111807  0.32875436  1
  Te  Te137  1  0.16061394  0.00596214  0.66553364  1
  Te  Te138  1  0.16928910  0.33055749  -0.00361989  1
  Te  Te139  1  0.16966703  0.32994541  0.33323125  1
  Te  Te140  1  0.16334252  0.32794243  0.67221308  1
  Te  Te141  1  0.16600570  0.66926503  -0.00190820  1
  Te  Te142  1  0.16934679  0.66889793  0.33160571  1
  Te  Te143  1  0.17063733  0.66807248  0.67223173  1
  Te  Te144  1  0.49403914  -0.00607806  -0.00179646  1
  Te  Te145  1  0.50418797  0.00344420  0.33811928  1
  Te  Te146  1  0.50107995  -0.00592430  0.66121639  1
  Te  Te147  1  0.49805840  0.33288123  -0.00512510  1
  Te  Te148  1  0.49526906  0.32907152  0.33604716  1
  Te  Te149  1  0.50434945  0.33057964  0.66867743  1
  Te  Te150  1  0.49981476  0.67247336  -0.00824885  1
  Te  Te151  1  0.50006775  0.66775095  0.33395697  1
  Te  Te152  1  0.49961983  0.67107968  0.66995859  1
  Te  Te153  1  0.83006653  -0.00567535  0.00719984  1
  Te  Te154  1  0.83264289  0.00413779  0.32701670  1
  Te  Te155  1  0.83887673  -0.00094525  0.66603123  1
  Te  Te156  1  0.83051383  0.33255600  -0.00438459  1
  Te  Te157  1  0.83462403  0.32738287  0.33312354  1
  Te  Te158  1  0.83198117  0.33264733  0.67239877  1
  Te  Te159  1  0.83421055  0.67139921  -0.00063144  1
  Te  Te160  1  0.82975573  0.66615712  0.32969547  1
  Te  Te161  1  0.82879777  0.66682500  0.67228470  1
  Te  Te162  1  0.00356259  0.16784996  -0.00455961  1
  Te  Te163  1  0.00450134  0.16501658  0.33081335  1
  Te  Te164  1  0.00258659  0.16849385  0.67515779  1
  Te  Te165  1  -0.00024137  0.48549455  0.00108418  1
  Te  Te166  1  -0.00008447  0.49216909  0.33492404  1
  Te  Te167  1  0.00059479  0.49136712  0.66430204  1
  Te  Te168  1  0.00235638  0.83379434  0.00213047  1
  Te  Te169  1  0.00678657  0.83853288  0.32943666  1
  Te  Te170  1  -0.00029731  0.83590002  0.66552714  1
  Te  Te171  1  0.33172042  0.16783967  0.00266350  1
  Te  Te172  1  0.33221002  0.16402853  0.33127304  1
  Te  Te173  1  0.32723810  0.16574737  0.66402316  1
  Te  Te174  1  0.33416194  0.49038019  -0.00322183  1
  Te  Te175  1  0.33407599  0.50605956  0.33572882  1
  Te  Te176  1  0.33344525  0.50732664  0.66690267  1
  Te  Te177  1  0.33048503  0.83331201  0.00394930  1
  Te  Te178  1  0.33115842  0.83291053  0.33022304  1
  Te  Te179  1  0.33672363  0.83091871  0.66856615  1
  Te  Te180  1  0.66578753  0.17116648  0.00667538  1
  Te  Te181  1  0.65822758  0.16540216  0.33082093  1
  Te  Te182  1  0.66824904  0.17042915  0.66486482  1
  Te  Te183  1  0.66627004  0.49419576  -0.00160132  1
  Te  Te184  1  0.66567806  0.50404572  0.33170140  1
  Te  Te185  1  0.66519510  0.50007258  0.66859165  1
  Te  Te186  1  0.66457666  0.83479649  0.00495887  1
  Te  Te187  1  0.66637048  0.83163334  0.32967631  1
  Te  Te188  1  0.66181534  0.83079540  0.66599162  1
  Te  Te189  1  0.00173664  0.00121682  0.16658514  1
  Te  Te190  1  -0.00057172  0.00576170  0.49794756  1
  Te  Te191  1  -0.00060135  -0.00119565  0.83052090  1
  Te  Te192  1  -0.00041972  0.32982998  0.16986014  1
  Te  Te193  1  -0.00030069  0.32720102  0.49705698  1
  Te  Te194  1  0.00175130  0.33382096  0.83400899  1
  Te  Te195  1  -0.00270706  0.66883017  0.16699386  1
  Te  Te196  1  -0.00085560  0.66309901  0.50091747  1
  Te  Te197  1  -0.00345587  0.66621385  0.83285054  1
  Te  Te198  1  0.33129431  0.00017226  0.16356478  1
  Te  Te199  1  0.33718721  0.00113082  0.50158509  1
  Te  Te200  1  0.33387661  0.00671468  0.83767485  1
  Te  Te201  1  0.33315834  0.33230407  0.17349259  1
  Te  Te202  1  0.33700824  0.33225979  0.50114196  1
  Te  Te203  1  0.33234809  0.33417168  0.82947652  1
  Te  Te204  1  0.33218519  0.66719335  0.16902339  1
  Te  Te205  1  0.33354047  0.66757781  0.49730744  1
  Te  Te206  1  0.33456777  0.66676017  0.83309597  1
  Te  Te207  1  0.66364068  0.00187820  0.17000755  1
  Te  Te208  1  0.66174025  -0.00072542  0.49279099  1
  Te  Te209  1  0.66840975  0.00083750  0.83097449  1
  Te  Te210  1  0.66735929  0.33491974  0.16350169  1
  Te  Te211  1  0.66208883  0.33814413  0.50067444  1
  Te  Te212  1  0.66570048  0.33654656  0.83412849  1
  Te  Te213  1  0.66754449  0.66797315  0.16696307  1
  Te  Te214  1  0.66467573  0.66102248  0.50262360  1
  Te  Te215  1  0.66667782  0.66274324  0.83221431  1
