# generated using pymatgen
data_AgSbTe2
_symmetry_space_group_name_H-M   'P 1'
_cell_length_a   18.34753569
_cell_length_b   18.34408175
_cell_length_c   18.34983598
_cell_angle_alpha   89.99976892
_cell_angle_beta   89.99872276
_cell_angle_gamma   89.99802248
_symmetry_Int_Tables_number   1
_chemical_formula_structural   AgSbTe2
_chemical_formula_sum   'Ag54 Sb54 Te108'
_cell_volume   6175.98033851
_cell_formula_units_Z   54
loop_
 _symmetry_equiv_pos_site_id
 _symmetry_equiv_pos_as_xyz
  1  'x, y, z'
loop_
 _atom_site_type_symbol
 _atom_site_label
 _atom_site_symmetry_multiplicity
 _atom_site_fract_x
 _atom_site_fract_y
 _atom_site_fract_z
 _atom_site_occupancy
  Ag  Ag0  1  0.83869653  0.33957515  0.83289212  1
  Ag  Ag1  1  0.00450494  0.51139366  0.50738590  1
  Ag  Ag2  1  0.16001192  0.82736375  -0.01196868  1
  Ag  Ag3  1  0.49830608  0.00450744  0.83042470  1
  Ag  Ag4  1  0.48742760  0.83608929  0.66395499  1
  Ag  Ag5  1  0.00891980  0.66931324  0.66427384  1
  Ag  Ag6  1  0.16172960  0.33046177  0.82517621  1
  Ag  Ag7  1  0.84288025  0.50656784  0.33023686  1
  Ag  Ag8  1  0.67055046  0.83383020  0.83386774  1
  Ag  Ag9  1  0.16419163  0.66251315  0.51174381  1
  Ag  Ag10  1  0.67079557  0.67070530  -0.00546558  1
  Ag  Ag11  1  0.00023100  0.15761638  0.15452816  1
  Ag  Ag12  1  0.83607032  0.16127988  -0.00554701  1
  Ag  Ag13  1  0.16176844  0.66567252  0.82712899  1
  Ag  Ag14  1  0.15783807  0.50834002  -0.01446585  1
  Ag  Ag15  1  0.50675090  0.83355472  0.34395260  1
  Ag  Ag16  1  0.00379938  0.82825170  0.50244673  1
  Ag  Ag17  1  0.66789469  -0.00363400  0.33343747  1
  Ag  Ag18  1  0.16671713  0.33413715  0.50872318  1
  Ag  Ag19  1  0.67846786  0.83379764  0.15768359  1
  Ag  Ag20  1  0.16471004  0.17295715  0.34995882  1
  Ag  Ag21  1  0.48463227  0.15996671  0.66897572  1
  Ag  Ag22  1  0.83507505  0.83021455  0.33033190  1
  Ag  Ag23  1  0.83917995  0.51020642  -0.00811536  1
  Ag  Ag24  1  0.66280767  0.32801793  0.67163181  1
  Ag  Ag25  1  0.50518209  0.16421029  -0.01575697  1
  Ag  Ag26  1  0.32593769  0.16505242  0.51508047  1
  Ag  Ag27  1  0.32003277  0.66855792  -0.01028586  1
  Ag  Ag28  1  0.16516421  0.50765983  0.66781291  1
  Ag  Ag29  1  0.15979173  0.50170746  0.34610088  1
  Ag  Ag30  1  0.32334036  0.83160130  0.50582479  1
  Ag  Ag31  1  -0.00368087  0.83407173  0.16559988  1
  Ag  Ag32  1  0.16933991  0.82174363  0.66939664  1
  Ag  Ag33  1  0.48931288  0.67215070  0.50314473  1
  Ag  Ag34  1  0.32132717  0.67039174  0.66854670  1
  Ag  Ag35  1  0.66484463  0.16523590  0.83028413  1
  Ag  Ag36  1  0.16359470  0.66792942  0.15632864  1
  Ag  Ag37  1  0.00141352  0.50110030  0.83082547  1
  Ag  Ag38  1  0.32581200  0.16564171  0.82599288  1
  Ag  Ag39  1  0.83660580  0.83032426  0.67597153  1
  Ag  Ag40  1  -0.00210100  -0.00188381  -0.00142566  1
  Ag  Ag41  1  0.33091325  0.00497952  0.66892267  1
  Ag  Ag42  1  0.00986389  0.16424200  0.50506903  1
  Ag  Ag43  1  0.83590223  -0.00605420  0.16442705  1
  Ag  Ag44  1  0.84024940  0.66336796  0.83522692  1
  Ag  Ag45  1  0.67762670  0.50729220  0.83234898  1
  Ag  Ag46  1  0.32626410  0.33174726  0.34506327  1
  Ag  Ag47  1  0.16692013  0.00078593  0.83011538  1
  Ag  Ag48  1  0.00378905  0.17027346  0.83007181  1
  Ag  Ag49  1  0.32651979  0.31948757  0.66490179  1
  Ag  Ag50  1  0.66517147  0.16744799  0.51397741  1
  Ag  Ag51  1  0.17012263  0.16870772  0.66635103  1
  Ag  Ag52  1  0.00281922  0.66779471  0.34084161  1
  Ag  Ag53  1  0.83999528  0.83249535  -0.00156931  1
  Sb  Sb54  1  0.32875883  0.83214756  0.17195044  1
  Sb  Sb55  1  0.32429591  0.66449680  0.33962573  1
  Sb  Sb56  1  0.00709562  0.33705583  0.66815319  1
  Sb  Sb57  1  0.49479516  0.50196180  0.66832433  1
  Sb  Sb58  1  0.49938223  0.83624894  -0.00533980  1
  Sb  Sb59  1  -0.00179536  -0.00369121  0.33084357  1
  Sb  Sb60  1  0.33451052  0.00194954  0.34194818  1
  Sb  Sb61  1  0.84072510  0.50368339  0.67258130  1
  Sb  Sb62  1  0.32444881  0.49748278  0.83073000  1
  Sb  Sb63  1  0.66478207  0.32829786  0.34215043  1
  Sb  Sb64  1  0.33176073  0.83640436  0.82440187  1
  Sb  Sb65  1  0.66696401  0.66612721  0.67136934  1
  Sb  Sb66  1  0.83851634  0.16332486  0.67306085  1
  Sb  Sb67  1  0.67538251  0.49699402  0.50664326  1
  Sb  Sb68  1  0.66935518  0.83556290  0.50348330  1
  Sb  Sb69  1  0.83642355  -0.00169066  0.83685837  1
  Sb  Sb70  1  0.16327302  0.16462544  -0.00856367  1
  Sb  Sb71  1  0.00481214  0.33805873  0.33665447  1
  Sb  Sb72  1  0.16247822  0.83151817  0.33821319  1
  Sb  Sb73  1  0.50072877  0.33021895  0.16743452  1
  Sb  Sb74  1  0.49831661  0.67203329  0.82940642  1
  Sb  Sb75  1  0.32545159  0.16568524  0.16467959  1
  Sb  Sb76  1  -0.00029204  0.83065188  0.83211517  1
  Sb  Sb77  1  0.32252656  0.50023023  0.50282378  1
  Sb  Sb78  1  0.83359755  -0.00022568  0.49793478  1
  Sb  Sb79  1  0.83491498  0.33017944  0.16046401  1
  Sb  Sb80  1  0.66897692  0.33550534  -0.00911164  1
  Sb  Sb81  1  0.00118751  0.67165068  -0.00451817  1
  Sb  Sb82  1  0.49790735  0.50652547  0.33766138  1
  Sb  Sb83  1  0.00015787  0.33016272  -0.00360297  1
  Sb  Sb84  1  0.50645313  -0.00234829  0.16128823  1
  Sb  Sb85  1  0.67290116  -0.00421898  -0.00087964  1
  Sb  Sb86  1  0.16426471  0.33742825  0.16671722  1
  Sb  Sb87  1  0.66347061  0.00227217  0.66696401  1
  Sb  Sb88  1  0.83875963  0.66797274  0.50450459  1
  Sb  Sb89  1  0.49958282  -0.00407031  0.50747871  1
  Sb  Sb90  1  0.84077284  0.33337486  0.50751243  1
  Sb  Sb91  1  0.49581471  0.67023743  0.16953961  1
  Sb  Sb92  1  0.32799571  -0.00375403  -0.00867791  1
  Sb  Sb93  1  0.32866992  0.50175580  0.16670187  1
  Sb  Sb94  1  0.49944488  0.32544540  0.83006859  1
  Sb  Sb95  1  0.16644015  0.00004977  0.50682036  1
  Sb  Sb96  1  0.49591040  0.16087615  0.34075176  1
  Sb  Sb97  1  0.00156618  0.50465702  0.16438470  1
  Sb  Sb98  1  0.84080643  0.16569075  0.33016795  1
  Sb  Sb99  1  0.67309876  0.67343759  0.32957224  1
  Sb  Sb100  1  0.67287863  0.16053305  0.16166041  1
  Sb  Sb101  1  0.15967239  -0.00427595  0.16051370  1
  Sb  Sb102  1  0.50119425  0.49892484  -0.00543125  1
  Sb  Sb103  1  0.32948943  0.33497596  -0.00692495  1
  Sb  Sb104  1  0.67245488  0.50855720  0.15942005  1
  Sb  Sb105  1  0.49052350  0.33500710  0.50372786  1
  Sb  Sb106  1  0.84152501  0.67483705  0.16100232  1
  Sb  Sb107  1  0.00655041  -0.00469941  0.67175871  1
  Te  Te108  1  0.15926432  0.16604972  0.16071368  1
  Te  Te109  1  0.16986329  0.16388847  0.50487560  1
  Te  Te110  1  0.16574076  0.16909138  0.83286144  1
  Te  Te111  1  0.16541605  0.50567110  0.16541285  1
  Te  Te112  1  0.16155530  0.49983973  0.50283551  1
  Te  Te113  1  0.16426756  0.50222742  0.82912361  1
  Te  Te114  1  0.16171777  0.82943793  0.16836105  1
  Te  Te115  1  0.16468558  0.83351855  0.50241167  1
  Te  Te116  1  0.16688574  0.83134803  0.83034970  1
  Te  Te117  1  0.50001014  0.16458987  0.16681313  1
  Te  Te118  1  0.50160398  0.16717054  0.50550272  1
  Te  Te119  1  0.50287209  0.16552090  0.82769497  1
  Te  Te120  1  0.50191212  0.49979117  0.16683677  1
  Te  Te121  1  0.50356996  0.50866104  0.50103365  1
  Te  Te122  1  0.51191110  0.49884672  0.83272878  1
  Te  Te123  1  0.50179793  0.83364034  0.16957521  1
  Te  Te124  1  0.50309854  0.83125248  0.50421024  1
  Te  Te125  1  0.50319533  0.83870316  0.82787985  1
  Te  Te126  1  0.83968036  0.16233532  0.16106059  1
  Te  Te127  1  0.82906730  0.16790201  0.49998343  1
  Te  Te128  1  0.83625944  0.16451614  0.83605108  1
  Te  Te129  1  0.83494771  0.49901793  0.16603722  1
  Te  Te130  1  0.84293580  0.49915204  0.49407234  1
  Te  Te131  1  0.83688072  0.50137671  0.83396017  1
  Te  Te132  1  0.83583217  0.83403727  0.16533332  1
  Te  Te133  1  0.83821145  0.83319883  0.49480485  1
  Te  Te134  1  0.83269773  0.83246041  0.83653362  1
  Te  Te135  1  0.16193257  -0.00668775  -0.00667326  1
  Te  Te136  1  0.16829872  0.00758511  0.32882441  1
  Te  Te137  1  0.17022556  0.00604031  0.67220970  1
  Te  Te138  1  0.16754179  0.34318830  -0.00278208  1
  Te  Te139  1  0.16885753  0.33425115  0.33247807  1
  Te  Te140  1  0.16715737  0.32918843  0.66782586  1
  Te  Te141  1  0.16317611  0.66722291  -0.00347789  1
  Te  Te142  1  0.16277440  0.66399114  0.33744256  1
  Te  Te143  1  0.16476564  0.66697630  0.66727133  1
  Te  Te144  1  0.49855001  0.00520396  -0.00615280  1
  Te  Te145  1  0.50343339  -0.00635953  0.33159681  1
  Te  Te146  1  0.49737483  -0.00094451  0.67117043  1
  Te  Te147  1  0.49892333  0.32512310  0.00146443  1
  Te  Te148  1  0.49339762  0.33401611  0.33510729  1
  Te  Te149  1  0.49719790  0.33117473  0.66581201  1
  Te  Te150  1  0.50215031  0.66685587  0.00065675  1
  Te  Te151  1  0.49854630  0.67302773  0.33822074  1
  Te  Te152  1  0.49937739  0.67027154  0.66283425  1
  Te  Te153  1  0.83697023  -0.00290809  0.00280001  1
  Te  Te154  1  0.83020589  -0.00336505  0.32749219  1
  Te  Te155  1  0.83390698  -0.00983563  0.66666965  1
  Te  Te156  1  0.83324938  0.33239532  -0.00686551  1
  Te  Te157  1  0.83168488  0.33902461  0.33363209  1
  Te  Te158  1  0.82813553  0.33426955  0.67353947  1
  Te  Te159  1  0.83275602  0.66927533  -0.00310957  1
  Te  Te160  1  0.83830308  0.66729045  0.33209510  1
  Te  Te161  1  0.83421970  0.67101506  0.67284169  1
  Te  Te162  1  -0.00224437  0.16352975  -0.00464448  1
  Te  Te163  1  0.00423426  0.16672920  0.34297976  1
  Te  Te164  1  0.00353429  0.16429428  0.66783833  1
  Te  Te165  1  -0.00142603  0.49887220  -0.00247053  1
  Te  Te166  1  0.00214452  0.50321255  0.33099531  1
  Te  Te167  1  0.00421262  0.50314670  0.66721379  1
  Te  Te168  1  0.00031026  0.83587106  0.00026501  1
  Te  Te169  1  -0.00224667  0.83145834  0.33609891  1
  Te  Te170  1  0.00182707  0.83140623  0.66460739  1
  Te  Te171  1  0.33604465  0.16571815  -0.00369770  1
  Te  Te172  1  0.32837861  0.16959079  0.33370453  1
  Te  Te173  1  0.33050304  0.16481013  0.66955530  1
  Te  Te174  1  0.33220968  0.50661941  -0.00118580  1
  Te  Te175  1  0.32917734  0.49423005  0.33416944  1
  Te  Te176  1  0.32838971  0.50864228  0.66662904  1
  Te  Te177  1  0.33071823  0.82839329  0.00220403  1
  Te  Te178  1  0.33642503  0.83339885  0.34096638  1
  Te  Te179  1  0.33095808  0.83056517  0.66437845  1
  Te  Te180  1  0.66920704  0.16590948  -0.00374154  1
  Te  Te181  1  0.66634744  0.16169222  0.33102175  1
  Te  Te182  1  0.67232745  0.16686023  0.67039764  1
  Te  Te183  1  0.67112891  0.50491212  -0.00666820  1
  Te  Te184  1  0.66876352  0.49943647  0.33325025  1
  Te  Te185  1  0.66644697  0.49429573  0.67182842  1
  Te  Te186  1  0.66561915  0.83173283  -0.00249588  1
  Te  Te187  1  0.67021715  0.83555188  0.33568123  1
  Te  Te188  1  0.67315279  0.83425073  0.67063805  1
  Te  Te189  1  -0.00380358  -0.00333721  0.16375810  1
  Te  Te190  1  -0.00112995  0.00321978  0.50009459  1
  Te  Te191  1  0.00378734  0.00527172  0.83736126  1
  Te  Te192  1  -0.00075433  0.32114091  0.16798155  1
  Te  Te193  1  0.00684639  0.32493827  0.50154697  1
  Te  Te194  1  0.00000592  0.33414074  0.83305229  1
  Te  Te195  1  0.00521378  0.67119308  0.17224510  1
  Te  Te196  1  0.00093038  0.66804349  0.50185352  1
  Te  Te197  1  0.00010559  0.66428577  0.82981260  1
  Te  Te198  1  0.33441593  -0.00070136  0.16667789  1
  Te  Te199  1  0.33437023  -0.00027781  0.50691253  1
  Te  Te200  1  0.33128140  0.00338049  0.82919984  1
  Te  Te201  1  0.33281296  0.33323283  0.16993390  1
  Te  Te202  1  0.32700410  0.33151037  0.50434232  1
  Te  Te203  1  0.32874111  0.32991636  0.82775319  1
  Te  Te204  1  0.32640456  0.66751439  0.16293475  1
  Te  Te205  1  0.32910666  0.66837828  0.50289952  1
  Te  Te206  1  0.33141915  0.66605650  0.83156073  1
  Te  Te207  1  0.67254724  -0.00674529  0.16985106  1
  Te  Te208  1  0.66637249  0.00675519  0.49512380  1
  Te  Te209  1  0.66501688  0.00048505  0.83356524  1
  Te  Te210  1  0.66719982  0.33475948  0.16865934  1
  Te  Te211  1  0.66732663  0.32825059  0.50753521  1
  Te  Te212  1  0.66777597  0.32637321  0.83048678  1
  Te  Te213  1  0.66472476  0.67521285  0.16114453  1
  Te  Te214  1  0.66551660  0.66520394  0.49943626  1
  Te  Te215  1  0.66569778  0.66953274  0.83537923  1
