# generated using pymatgen
data_AgSbTe2
_symmetry_space_group_name_H-M   'P 1'
_cell_length_a   18.31779850
_cell_length_b   18.31954846
_cell_length_c   18.32522495
_cell_angle_alpha   90.00147221
_cell_angle_beta   90.00425980
_cell_angle_gamma   89.99893097
_symmetry_Int_Tables_number   1
_chemical_formula_structural   AgSbTe2
_chemical_formula_sum   'Ag54 Sb54 Te108'
_cell_volume   6149.46530451
_cell_formula_units_Z   54
loop_
 _symmetry_equiv_pos_site_id
 _symmetry_equiv_pos_as_xyz
  1  'x, y, z'
loop_
 _atom_site_type_symbol
 _atom_site_label
 _atom_site_symmetry_multiplicity
 _atom_site_fract_x
 _atom_site_fract_y
 _atom_site_fract_z
 _atom_site_occupancy
  Ag  Ag0  1  0.82966058  -0.00113845  0.50367393  1
  Ag  Ag1  1  0.66453677  0.32339040  0.67125724  1
  Ag  Ag2  1  -0.00071480  0.49423811  0.50377037  1
  Ag  Ag3  1  -0.00811518  0.33357815  0.33762841  1
  Ag  Ag4  1  0.66619265  0.84369241  0.15750777  1
  Ag  Ag5  1  0.66626944  0.16784064  0.16250417  1
  Ag  Ag6  1  0.66528326  -0.00151346  -0.00277145  1
  Ag  Ag7  1  -0.00570283  0.16670803  0.83094160  1
  Ag  Ag8  1  0.00181052  0.66818441  0.67063477  1
  Ag  Ag9  1  0.67092311  0.16490815  0.50859054  1
  Ag  Ag10  1  -0.00207648  0.83387355  0.82964396  1
  Ag  Ag11  1  0.82147504  0.32789422  0.16805059  1
  Ag  Ag12  1  0.50171711  0.49848922  -0.00064519  1
  Ag  Ag13  1  0.66715141  0.48587869  0.16036240  1
  Ag  Ag14  1  0.66983932  0.16255991  0.83279972  1
  Ag  Ag15  1  -0.00121963  0.33398898  0.66514262  1
  Ag  Ag16  1  0.66448874  0.00434573  0.67381835  1
  Ag  Ag17  1  0.66494893  0.49236710  0.84029847  1
  Ag  Ag18  1  -0.00688099  0.17108250  0.50913053  1
  Ag  Ag19  1  0.50670072  0.83157279  0.33454749  1
  Ag  Ag20  1  0.17271444  0.33593020  0.83699517  1
  Ag  Ag21  1  0.17110581  0.49355387  -0.00514627  1
  Ag  Ag22  1  0.82745388  0.16514586  -0.00036889  1
  Ag  Ag23  1  0.83169060  0.49578578  0.33282886  1
  Ag  Ag24  1  0.17211760  0.83335466  -0.00422588  1
  Ag  Ag25  1  0.33532083  0.66787587  0.33547789  1
  Ag  Ag26  1  0.82880290  -0.00085260  0.83322039  1
  Ag  Ag27  1  0.16706928  0.17371951  -0.00165741  1
  Ag  Ag28  1  0.50464612  0.83114110  -0.00462381  1
  Ag  Ag29  1  0.34151385  -0.00058208  0.67552366  1
  Ag  Ag30  1  0.50019882  0.67187216  0.50092877  1
  Ag  Ag31  1  0.33722264  0.33378975  0.32370656  1
  Ag  Ag32  1  0.33163472  0.32820788  0.00054852  1
  Ag  Ag33  1  0.66476830  0.84104452  0.83743231  1
  Ag  Ag34  1  0.16384733  0.49578390  0.67589001  1
  Ag  Ag35  1  -0.00210373  0.83301800  0.50977341  1
  Ag  Ag36  1  0.50508811  0.16432866  0.66880665  1
  Ag  Ag37  1  0.66749364  0.32825475  0.32214765  1
  Ag  Ag38  1  0.33957737  0.83665563  0.83202207  1
  Ag  Ag39  1  0.82930730  0.83765236  0.66686564  1
  Ag  Ag40  1  0.16456024  0.66357234  0.83570754  1
  Ag  Ag41  1  0.33892432  0.00253586  -0.00497987  1
  Ag  Ag42  1  -0.00060088  0.66894266  -0.00948268  1
  Ag  Ag43  1  0.82595194  0.83560616  0.33773330  1
  Ag  Ag44  1  0.33901437  0.83455880  0.50753505  1
  Ag  Ag45  1  0.66775426  0.67450559  -0.00141787  1
  Ag  Ag46  1  0.66976336  0.00236800  0.32722769  1
  Ag  Ag47  1  0.50298033  0.33182644  0.16165843  1
  Ag  Ag48  1  0.17428693  0.33188514  0.15755885  1
  Ag  Ag49  1  0.33649872  0.32799770  0.67504989  1
  Ag  Ag50  1  0.50372005  0.83813947  0.67125869  1
  Ag  Ag51  1  0.34068835  0.17143423  0.16087438  1
  Ag  Ag52  1  0.49868788  0.33442806  0.83689306  1
  Ag  Ag53  1  0.82615475  0.00475506  0.16361344  1
  Sb  Sb54  1  0.50104457  0.33554370  0.50129375  1
  Sb  Sb55  1  -0.00999691  0.00526255  0.33583472  1
  Sb  Sb56  1  0.16445094  0.00113099  0.83472298  1
  Sb  Sb57  1  0.83424254  0.32621961  0.49650859  1
  Sb  Sb58  1  0.50795706  0.00537944  0.16384331  1
  Sb  Sb59  1  0.00682284  0.33445340  -0.00308834  1
  Sb  Sb60  1  0.83011348  0.66754862  0.16519410  1
  Sb  Sb61  1  -0.00411231  0.00051866  0.66838481  1
  Sb  Sb62  1  0.33807174  0.49172873  0.16488689  1
  Sb  Sb63  1  0.16175713  -0.00118092  0.50194436  1
  Sb  Sb64  1  0.49798274  0.66721011  0.83160073  1
  Sb  Sb65  1  0.16792685  0.66055850  0.15806139  1
  Sb  Sb66  1  0.50700456  -0.00378004  0.50337579  1
  Sb  Sb67  1  0.32974299  0.50238469  0.50078623  1
  Sb  Sb68  1  0.83145537  0.32773320  0.83697734  1
  Sb  Sb69  1  -0.00460155  -0.00197886  -0.00231122  1
  Sb  Sb70  1  0.16691781  0.83145955  0.67489680  1
  Sb  Sb71  1  0.50462819  0.16554128  0.33560429  1
  Sb  Sb72  1  0.16771598  0.83190236  0.32802286  1
  Sb  Sb73  1  0.50113729  0.66482082  0.16674294  1
  Sb  Sb74  1  0.83650630  0.50197820  0.66399404  1
  Sb  Sb75  1  0.67044880  0.49334156  0.49975551  1
  Sb  Sb76  1  0.33620585  0.16514873  0.83648498  1
  Sb  Sb77  1  -0.00084696  0.49966581  0.83039430  1
  Sb  Sb78  1  0.66889250  0.67054100  0.67242195  1
  Sb  Sb79  1  0.66416110  0.66899099  0.32890416  1
  Sb  Sb80  1  0.66054411  0.33004940  -0.00053803  1
  Sb  Sb81  1  0.50688285  0.00167356  0.83337376  1
  Sb  Sb82  1  0.16347808  0.49644758  0.33020633  1
  Sb  Sb83  1  0.83690982  0.67306361  0.83370154  1
  Sb  Sb84  1  0.82693193  0.16167319  0.67142415  1
  Sb  Sb85  1  -0.00530028  0.49613306  0.16783167  1
  Sb  Sb86  1  0.16447555  0.33354351  0.50358263  1
  Sb  Sb87  1  0.82799180  0.83908581  -0.00244854  1
  Sb  Sb88  1  -0.00676298  0.83404387  0.16327745  1
  Sb  Sb89  1  0.50179824  0.16789957  -0.00503345  1
  Sb  Sb90  1  0.83045257  0.49411967  0.00261933  1
  Sb  Sb91  1  0.49804061  0.49845529  0.67144086  1
  Sb  Sb92  1  -0.00398332  0.17076974  0.16253981  1
  Sb  Sb93  1  0.82990946  0.16621354  0.32868932  1
  Sb  Sb94  1  0.83034709  0.67274051  0.50018697  1
  Sb  Sb95  1  0.33458309  0.16313393  0.50054259  1
  Sb  Sb96  1  0.16715143  0.66750400  0.50613725  1
  Sb  Sb97  1  0.33523908  0.66740102  0.00151249  1
  Sb  Sb98  1  0.33031842  0.66886425  0.66581517  1
  Sb  Sb99  1  0.33328847  0.49857443  0.83431417  1
  Sb  Sb100  1  0.16794447  0.17153981  0.67398379  1
  Sb  Sb101  1  0.50471370  0.50130753  0.32854889  1
  Sb  Sb102  1  0.16438828  0.00416815  0.16143658  1
  Sb  Sb103  1  0.00234156  0.66385613  0.33663255  1
  Sb  Sb104  1  0.66610484  0.83974382  0.50227438  1
  Sb  Sb105  1  0.34269867  0.00062148  0.33161223  1
  Sb  Sb106  1  0.34070035  0.84023292  0.16211484  1
  Sb  Sb107  1  0.16546919  0.17059902  0.32721693  1
  Te  Te108  1  0.16614364  0.17142493  0.15982180  1
  Te  Te109  1  0.15967711  0.16525084  0.49997192  1
  Te  Te110  1  0.16325866  0.17041198  0.83923986  1
  Te  Te111  1  0.16638487  0.49296726  0.16025385  1
  Te  Te112  1  0.15962937  0.50106094  0.50200447  1
  Te  Te113  1  0.16624202  0.49797725  0.83482466  1
  Te  Te114  1  0.16632399  0.83338209  0.15837728  1
  Te  Te115  1  0.16275790  0.83302228  0.49749775  1
  Te  Te116  1  0.16165411  0.83420208  0.83798576  1
  Te  Te117  1  0.50212290  0.17206822  0.16793131  1
  Te  Te118  1  0.50404288  0.16718992  0.50743868  1
  Te  Te119  1  0.50370125  0.17420345  0.82852391  1
  Te  Te120  1  0.50660804  0.49524212  0.16121246  1
  Te  Te121  1  0.49921483  0.50768958  0.50000803  1
  Te  Te122  1  0.50366368  0.49723129  0.83768193  1
  Te  Te123  1  0.50583116  0.83293507  0.16493401  1
  Te  Te124  1  0.49875925  0.83218597  0.50174393  1
  Te  Te125  1  0.50056659  0.83252612  0.83307833  1
  Te  Te126  1  0.83031075  0.16714243  0.16207290  1
  Te  Te127  1  0.83284987  0.16036156  0.50022525  1
  Te  Te128  1  0.83254337  0.16239057  0.83751890  1
  Te  Te129  1  0.82739266  0.49581226  0.17086809  1
  Te  Te130  1  0.83880026  0.50111012  0.49540185  1
  Te  Te131  1  0.82469211  0.50042168  0.83322697  1
  Te  Te132  1  0.82696250  0.83669367  0.17032671  1
  Te  Te133  1  0.83442314  0.83743082  0.50039739  1
  Te  Te134  1  0.83331144  0.83759473  0.83121956  1
  Te  Te135  1  0.17178171  -0.00200401  0.00043225  1
  Te  Te136  1  0.16622336  0.00077977  0.33144586  1
  Te  Te137  1  0.17833300  0.00153073  0.66683377  1
  Te  Te138  1  0.16842661  0.33382657  -0.00212888  1
  Te  Te139  1  0.17192523  0.33383609  0.32943521  1
  Te  Te140  1  0.16581482  0.33567622  0.67016041  1
  Te  Te141  1  0.16682478  0.66722073  -0.00450485  1
  Te  Te142  1  0.17277345  0.66469178  0.33154505  1
  Te  Te143  1  0.16261267  0.66148559  0.67297609  1
  Te  Te144  1  0.49965799  -0.00529481  -0.00040706  1
  Te  Te145  1  0.50856192  -0.00738880  0.33326879  1
  Te  Te146  1  0.50127813  -0.00139906  0.66803286  1
  Te  Te147  1  0.49432595  0.33362630  -0.00118714  1
  Te  Te148  1  0.50230659  0.33374176  0.33158765  1
  Te  Te149  1  0.50171786  0.33416034  0.66854715  1
  Te  Te150  1  0.50415836  0.66597289  -0.00060540  1
  Te  Te151  1  0.49661695  0.67009391  0.33598596  1
  Te  Te152  1  0.49940594  0.67080919  0.66317487  1
  Te  Te153  1  0.82877104  0.00462276  -0.00053912  1
  Te  Te154  1  0.82748309  -0.00294752  0.33230150  1
  Te  Te155  1  0.82955606  -0.00386120  0.66796185  1
  Te  Te156  1  0.83880792  0.32679401  0.00607312  1
  Te  Te157  1  0.83038653  0.33389220  0.33119525  1
  Te  Te158  1  0.83373351  0.33340954  0.66681132  1
  Te  Te159  1  0.83256605  0.66435071  0.00003000  1
  Te  Te160  1  0.83515615  0.66951011  0.33270086  1
  Te  Te161  1  0.84038381  0.67421032  0.66635257  1
  Te  Te162  1  0.00382188  0.16614815  -0.00519653  1
  Te  Te163  1  -0.00056270  0.17367811  0.33865616  1
  Te  Te164  1  0.00079131  0.16847011  0.66879017  1
  Te  Te165  1  0.00216255  0.50640708  -0.00095918  1
  Te  Te166  1  -0.00423058  0.49591106  0.33836645  1
  Te  Te167  1  0.00155078  0.49784101  0.66392666  1
  Te  Te168  1  -0.00026001  0.83015305  -0.00382167  1
  Te  Te169  1  -0.00263835  0.83374473  0.33385793  1
  Te  Te170  1  0.00058003  0.83479259  0.66958611  1
  Te  Te171  1  0.33527343  0.16619080  0.00072273  1
  Te  Te172  1  0.33479159  0.17098182  0.33069373  1
  Te  Te173  1  0.33836403  0.16723366  0.66648719  1
  Te  Te174  1  0.33510571  0.49748567  -0.00058070  1
  Te  Te175  1  0.33450228  0.49558834  0.33396964  1
  Te  Te176  1  0.32790131  0.49306735  0.66678245  1
  Te  Te177  1  0.33616284  0.83480709  -0.00226416  1
  Te  Te178  1  0.33612553  0.83377601  0.33314948  1
  Te  Te179  1  0.33409487  0.83487346  0.66820102  1
  Te  Te180  1  0.66574395  0.16243498  -0.00088075  1
  Te  Te181  1  0.66599252  0.16767322  0.32912591  1
  Te  Te182  1  0.66608152  0.16563848  0.66984096  1
  Te  Te183  1  0.66547763  0.49766846  -0.00012324  1
  Te  Te184  1  0.67149205  0.49748596  0.33083988  1
  Te  Te185  1  0.66746040  0.49796745  0.67009426  1
  Te  Te186  1  0.66689315  0.83601579  -0.00199532  1
  Te  Te187  1  0.66651554  0.83313582  0.33538797  1
  Te  Te188  1  0.66562556  0.83491333  0.67001694  1
  Te  Te189  1  -0.00989361  0.00185548  0.16694811  1
  Te  Te190  1  -0.00608703  -0.00278820  0.50121111  1
  Te  Te191  1  -0.00612558  0.00051261  0.83342200  1
  Te  Te192  1  0.00046342  0.33326692  0.17317410  1
  Te  Te193  1  -0.00042252  0.33190688  0.50135629  1
  Te  Te194  1  -0.00009282  0.33088784  0.82857382  1
  Te  Te195  1  0.00014619  0.66549643  0.16189873  1
  Te  Te196  1  -0.00055123  0.67236447  0.50422074  1
  Te  Te197  1  0.00262061  0.66729183  0.83192702  1
  Te  Te198  1  0.33308131  0.00912107  0.16276838  1
  Te  Te199  1  0.33241558  -0.00595484  0.50017637  1
  Te  Te200  1  0.33155381  -0.00274179  0.83474690  1
  Te  Te201  1  0.33500002  0.33071721  0.16446568  1
  Te  Te202  1  0.33288219  0.33261945  0.49988686  1
  Te  Te203  1  0.33340991  0.33206179  0.83365271  1
  Te  Te204  1  0.33322133  0.66769105  0.17409776  1
  Te  Te205  1  0.33486720  0.67178762  0.49777657  1
  Te  Te206  1  0.32681289  0.67413070  0.83375117  1
  Te  Te207  1  0.66830333  0.00184585  0.16539000  1
  Te  Te208  1  0.67074189  0.00526642  0.50162757  1
  Te  Te209  1  0.66792853  0.00091980  0.83353547  1
  Te  Te210  1  0.66435033  0.33003302  0.16407374  1
  Te  Te211  1  0.66743572  0.32658585  0.50466473  1
  Te  Te212  1  0.66537982  0.33059202  0.83276755  1
  Te  Te213  1  0.66581786  0.66974566  0.16015761  1
  Te  Te214  1  0.66192084  0.66354684  0.50080808  1
  Te  Te215  1  0.66611518  0.67012161  0.83848492  1
