# generated using pymatgen
data_AgSbTe2
_symmetry_space_group_name_H-M   'P 1'
_cell_length_a   18.32373948
_cell_length_b   18.32233348
_cell_length_c   18.32389665
_cell_angle_alpha   90.00083068
_cell_angle_beta   90.00102188
_cell_angle_gamma   90.00189995
_symmetry_Int_Tables_number   1
_chemical_formula_structural   AgSbTe2
_chemical_formula_sum   'Ag54 Sb54 Te108'
_cell_volume   6151.94897979
_cell_formula_units_Z   54
loop_
 _symmetry_equiv_pos_site_id
 _symmetry_equiv_pos_as_xyz
  1  'x, y, z'
loop_
 _atom_site_type_symbol
 _atom_site_label
 _atom_site_symmetry_multiplicity
 _atom_site_fract_x
 _atom_site_fract_y
 _atom_site_fract_z
 _atom_site_occupancy
  Ag  Ag0  1  0.83232944  0.49821267  0.67715330  1
  Ag  Ag1  1  -0.00026602  0.16643561  0.83032000  1
  Ag  Ag2  1  0.50575989  0.00458136  0.49632827  1
  Ag  Ag3  1  0.83215008  0.50459877  -0.01012490  1
  Ag  Ag4  1  -0.00217348  0.83642068  0.83565769  1
  Ag  Ag5  1  0.50483368  0.33812351  0.82943130  1
  Ag  Ag6  1  0.15851108  0.00510740  0.50060815  1
  Ag  Ag7  1  -0.01059451  0.49877457  0.82952703  1
  Ag  Ag8  1  0.83370243  0.34375372  0.82765518  1
  Ag  Ag9  1  0.32728159  0.66218134  0.00061701  1
  Ag  Ag10  1  0.83635565  0.65443053  0.84329476  1
  Ag  Ag11  1  0.50718421  0.16454313  0.33929450  1
  Ag  Ag12  1  0.31981802  0.16870947  0.16684319  1
  Ag  Ag13  1  0.83900434  0.33316947  0.49887099  1
  Ag  Ag14  1  0.15818608  0.83822397  0.00139026  1
  Ag  Ag15  1  0.16416209  0.84507414  0.66020627  1
  Ag  Ag16  1  0.50304586  0.66254712  0.49861785  1
  Ag  Ag17  1  0.83832910  0.00635922  0.49562943  1
  Ag  Ag18  1  0.16229653  0.83847499  0.33522571  1
  Ag  Ag19  1  -0.00403542  0.00493594  0.33759375  1
  Ag  Ag20  1  0.33256156  0.49713288  0.50303222  1
  Ag  Ag21  1  0.66974157  0.49565616  0.16711907  1
  Ag  Ag22  1  0.50410900  0.50042811  -0.00693126  1
  Ag  Ag23  1  0.83302684  0.50059147  0.33309185  1
  Ag  Ag24  1  0.67514635  0.66335837  0.33430041  1
  Ag  Ag25  1  0.67070274  0.16370040  0.49412410  1
  Ag  Ag26  1  0.00260999  0.16453981  0.17307890  1
  Ag  Ag27  1  0.67352486  0.32559047  0.33440130  1
  Ag  Ag28  1  0.83676606  0.00183274  0.17391539  1
  Ag  Ag29  1  0.33761131  0.49812360  0.83262996  1
  Ag  Ag30  1  0.83812746  0.00046457  0.83194896  1
  Ag  Ag31  1  0.67504690  0.00679426  0.33568485  1
  Ag  Ag32  1  0.16501115  0.32511941  0.17182505  1
  Ag  Ag33  1  0.16348151  0.16276526  0.01116501  1
  Ag  Ag34  1  0.83514037  0.66336964  0.16304385  1
  Ag  Ag35  1  0.49397112  0.17044080  0.65928912  1
  Ag  Ag36  1  0.50138615  0.00674598  0.17625815  1
  Ag  Ag37  1  0.16196307  0.00583005  0.17338293  1
  Ag  Ag38  1  0.15700945  0.32545806  0.49680065  1
  Ag  Ag39  1  0.83969032  0.82541824  -0.00203449  1
  Ag  Ag40  1  0.66814416  0.84579328  0.49699994  1
  Ag  Ag41  1  -0.00323420  0.66691714  0.00245719  1
  Ag  Ag42  1  -0.00112682  0.16711029  0.49669381  1
  Ag  Ag43  1  0.33474461  0.33103304  0.66557513  1
  Ag  Ag44  1  -0.00679210  0.66462398  0.33055723  1
  Ag  Ag45  1  -0.00353870  0.49139788  0.50010022  1
  Ag  Ag46  1  0.66810577  0.16667384  0.17575440  1
  Ag  Ag47  1  0.50056351  0.49326261  0.67137618  1
  Ag  Ag48  1  -0.00493952  0.32878843  0.33810771  1
  Ag  Ag49  1  0.16657214  0.16398407  0.66373785  1
  Ag  Ag50  1  0.33752475  0.49488586  0.16414912  1
  Ag  Ag51  1  0.00300427  0.00327362  0.65752900  1
  Ag  Ag52  1  0.32238385  0.00985649  0.66378931  1
  Ag  Ag53  1  0.67612888  0.49779782  0.83758938  1
  Sb  Sb54  1  0.50440839  0.66603877  0.16979035  1
  Sb  Sb55  1  -0.00285187  0.83847538  0.50113180  1
  Sb  Sb56  1  0.16680390  0.66709038  0.49898831  1
  Sb  Sb57  1  0.15894995  0.50087029  0.33357528  1
  Sb  Sb58  1  0.49733275  0.32972976  0.16533165  1
  Sb  Sb59  1  0.49886472  0.83849464  0.33506413  1
  Sb  Sb60  1  0.83046404  0.16916829  0.33610201  1
  Sb  Sb61  1  0.33032394  0.83548963  0.16599717  1
  Sb  Sb62  1  0.33105956  0.00361613  0.33680291  1
  Sb  Sb63  1  0.50125123  0.33142241  0.50278084  1
  Sb  Sb64  1  0.83906747  0.83249261  0.66951590  1
  Sb  Sb65  1  0.33420623  0.83266525  0.50138016  1
  Sb  Sb66  1  0.67197875  0.00274710  0.65695489  1
  Sb  Sb67  1  0.67575868  0.82918425  0.82847799  1
  Sb  Sb68  1  0.67069428  0.49531291  0.49789472  1
  Sb  Sb69  1  0.32814413  0.17022094  0.83280794  1
  Sb  Sb70  1  0.67038625  0.83498770  0.17290794  1
  Sb  Sb71  1  0.16470936  0.16355922  0.33395750  1
  Sb  Sb72  1  0.83633718  0.33257041  0.17129784  1
  Sb  Sb73  1  0.33057234  0.16904291  0.49921180  1
  Sb  Sb74  1  0.50068439  0.82763507  0.00017062  1
  Sb  Sb75  1  0.15896083  0.66634451  0.83503468  1
  Sb  Sb76  1  0.83653175  0.83274725  0.33072995  1
  Sb  Sb77  1  0.67364948  0.66315501  0.00567656  1
  Sb  Sb78  1  0.33001598  -0.00211516  -0.00225792  1
  Sb  Sb79  1  -0.00079236  0.66783298  0.66603917  1
  Sb  Sb80  1  0.50672958  0.49528467  0.33472263  1
  Sb  Sb81  1  0.66486127  0.33371379  0.66131815  1
  Sb  Sb82  1  0.15944058  0.00028391  0.82855561  1
  Sb  Sb83  1  0.16171660  0.66689836  0.16612263  1
  Sb  Sb84  1  -0.00062703  0.83931604  0.16351606  1
  Sb  Sb85  1  0.33220926  0.33890462  -0.00292996  1
  Sb  Sb86  1  0.49517279  0.17118619  0.00175581  1
  Sb  Sb87  1  0.16545204  0.49635033  0.66493243  1
  Sb  Sb88  1  0.33076136  0.33175919  0.33606200  1
  Sb  Sb89  1  0.66981880  0.00038337  0.00891036  1
  Sb  Sb90  1  0.33396090  0.66084141  0.66976362  1
  Sb  Sb91  1  0.83129032  0.66473509  0.49741146  1
  Sb  Sb92  1  -0.00424219  0.49650757  0.16770107  1
  Sb  Sb93  1  0.32485733  0.82892354  0.83285845  1
  Sb  Sb94  1  0.50630159  0.00765142  0.82798490  1
  Sb  Sb95  1  0.33283982  0.66320899  0.33086419  1
  Sb  Sb96  1  0.49475977  0.83629621  0.66451286  1
  Sb  Sb97  1  0.00262661  0.32857889  0.66059507  1
  Sb  Sb98  1  0.83877480  0.16789722  0.00031828  1
  Sb  Sb99  1  0.66708087  0.66315772  0.66129487  1
  Sb  Sb100  1  0.16442496  0.49916719  0.00107574  1
  Sb  Sb101  1  0.50572336  0.65707488  0.83124187  1
  Sb  Sb102  1  0.83713246  0.17039769  0.66426559  1
  Sb  Sb103  1  0.66841758  0.33605961  0.00490952  1
  Sb  Sb104  1  0.67318383  0.17216178  0.83140437  1
  Sb  Sb105  1  0.16268550  0.33192214  0.83169490  1
  Sb  Sb106  1  0.00005433  -0.00307686  0.00152399  1
  Sb  Sb107  1  -0.00100205  0.33625429  0.00219191  1
  Te  Te108  1  0.16399969  0.16562481  0.17047002  1
  Te  Te109  1  0.16492099  0.16561450  0.50112550  1
  Te  Te110  1  0.16038255  0.16729301  0.82923833  1
  Te  Te111  1  0.17174618  0.49673366  0.16654935  1
  Te  Te112  1  0.16481809  0.49883854  0.50033003  1
  Te  Te113  1  0.17110266  0.49891736  0.83284315  1
  Te  Te114  1  0.16660433  0.83770848  0.16384951  1
  Te  Te115  1  0.16632698  0.83771396  0.50013175  1
  Te  Te116  1  0.15863189  0.83348293  0.84052224  1
  Te  Te117  1  0.50778108  0.16397407  0.16401757  1
  Te  Te118  1  0.49726554  0.16499700  0.50050267  1
  Te  Te119  1  0.50071587  0.17484949  0.83221742  1
  Te  Te120  1  0.50118662  0.49990588  0.16509913  1
  Te  Te121  1  0.49953722  0.49960786  0.50245500  1
  Te  Te122  1  0.49733771  0.49728393  0.83163324  1
  Te  Te123  1  0.49965996  0.84230194  0.16624442  1
  Te  Te124  1  0.50311043  0.83723382  0.50093925  1
  Te  Te125  1  0.50245816  0.83331679  0.83325764  1
  Te  Te126  1  0.83452623  0.16377830  0.16405447  1
  Te  Te127  1  0.83559203  0.16662635  0.50199797  1
  Te  Te128  1  0.83892397  0.16142051  0.83240404  1
  Te  Te129  1  0.83106574  0.49920825  0.17161625  1
  Te  Te130  1  0.83598580  0.49856037  0.49445518  1
  Te  Te131  1  0.83280338  0.49944814  0.83327982  1
  Te  Te132  1  0.83289639  0.83340050  0.16025325  1
  Te  Te133  1  0.82913328  0.83631346  0.50122256  1
  Te  Te134  1  0.83808179  0.83917068  0.83637978  1
  Te  Te135  1  0.16750891  0.00062977  0.00425792  1
  Te  Te136  1  0.16511627  -0.00156477  0.33399915  1
  Te  Te137  1  0.16420347  0.00289317  0.66564663  1
  Te  Te138  1  0.16636490  0.32674321  0.00523652  1
  Te  Te139  1  0.16191784  0.33413706  0.33562219  1
  Te  Te140  1  0.17174914  0.32904500  0.66277083  1
  Te  Te141  1  0.16224339  0.67031688  0.00139119  1
  Te  Te142  1  0.16128979  0.67329059  0.33239883  1
  Te  Te143  1  0.16795041  0.67684469  0.66697097  1
  Te  Te144  1  0.49983084  -0.00142212  0.00169438  1
  Te  Te145  1  0.49829955  0.00266908  0.33453243  1
  Te  Te146  1  0.49990544  0.00441474  0.66276927  1
  Te  Te147  1  0.49987341  0.34051976  -0.00645189  1
  Te  Te148  1  0.50574449  0.32704659  0.33396614  1
  Te  Te149  1  0.49814079  0.33358787  0.66785614  1
  Te  Te150  1  0.49692054  0.66061297  0.00045066  1
  Te  Te151  1  0.50177820  0.66817605  0.33863187  1
  Te  Te152  1  0.49949624  0.66290477  0.65994701  1
  Te  Te153  1  0.83277163  -0.00071489  0.00113287  1
  Te  Te154  1  0.83469859  -0.00321835  0.33391260  1
  Te  Te155  1  0.83933770  0.00015830  0.66352425  1
  Te  Te156  1  0.83348902  0.34000679  -0.00687970  1
  Te  Te157  1  0.83454164  0.33704300  0.33589348  1
  Te  Te158  1  0.83290183  0.33752673  0.66467223  1
  Te  Te159  1  0.83552074  0.66510590  0.00271031  1
  Te  Te160  1  0.83461203  0.66700196  0.33131770  1
  Te  Te161  1  0.83357006  0.66102850  0.66972238  1
  Te  Te162  1  0.00511461  0.16870012  -0.00058862  1
  Te  Te163  1  -0.00075239  0.16569525  0.33497075  1
  Te  Te164  1  0.00268953  0.16321575  0.66521861  1
  Te  Te165  1  -0.00320387  0.50480590  -0.00313728  1
  Te  Te166  1  -0.00444125  0.50011956  0.33525469  1
  Te  Te167  1  -0.00229430  0.49960017  0.66659615  1
  Te  Te168  1  -0.00159739  0.82919436  -0.00248921  1
  Te  Te169  1  0.00316253  0.83426903  0.33340390  1
  Te  Te170  1  0.00442327  0.83805546  0.67117256  1
  Te  Te171  1  0.32679226  0.16653860  0.00435026  1
  Te  Te172  1  0.34473946  0.16815589  0.32531885  1
  Te  Te173  1  0.33236617  0.16874149  0.66697051  1
  Te  Te174  1  0.33184003  0.50261750  0.00153569  1
  Te  Te175  1  0.33471014  0.49941521  0.33271177  1
  Te  Te176  1  0.33366419  0.49660722  0.66558167  1
  Te  Te177  1  0.33056698  0.82534085  -0.00155669  1
  Te  Te178  1  0.32388388  0.83144435  0.33351948  1
  Te  Te179  1  0.32565384  0.83734675  0.66837071  1
  Te  Te180  1  0.66593176  0.16821017  0.00499008  1
  Te  Te181  1  0.66759544  0.16523434  0.33367049  1
  Te  Te182  1  0.65832161  0.16706622  0.66315112  1
  Te  Te183  1  0.66681079  0.50067720  0.00198262  1
  Te  Te184  1  0.67005018  0.50191287  0.33083009  1
  Te  Te185  1  0.66620255  0.49914393  0.67032448  1
  Te  Te186  1  0.67152182  0.83165286  -0.00105554  1
  Te  Te187  1  0.66612838  0.83286591  0.33899975  1
  Te  Te188  1  0.66561861  0.83239375  0.65885966  1
  Te  Te189  1  -0.00101546  0.00431202  0.16906949  1
  Te  Te190  1  -0.00097155  0.00018930  0.49804919  1
  Te  Te191  1  -0.00260204  0.00222197  0.83457404  1
  Te  Te192  1  0.00404872  0.32805639  0.17163533  1
  Te  Te193  1  -0.00033478  0.33184093  0.49890224  1
  Te  Te194  1  -0.00417566  0.33430067  0.83285882  1
  Te  Te195  1  -0.00462346  0.66504425  0.16840516  1
  Te  Te196  1  0.00038614  0.66152167  0.49504880  1
  Te  Te197  1  -0.00503394  0.66230077  0.83299221  1
  Te  Te198  1  0.33249605  0.00398863  0.16555544  1
  Te  Te199  1  0.33269174  0.00023869  0.50441070  1
  Te  Te200  1  0.33696697  -0.00050371  0.82563628  1
  Te  Te201  1  0.32941851  0.33344216  0.16697994  1
  Te  Te202  1  0.33070450  0.33721172  0.50295480  1
  Te  Te203  1  0.33324506  0.33678407  0.82874316  1
  Te  Te204  1  0.33441282  0.66225153  0.16249412  1
  Te  Te205  1  0.33749839  0.66036016  0.49993993  1
  Te  Te206  1  0.33504894  0.66105632  0.83781052  1
  Te  Te207  1  0.66951048  0.00197835  0.17403646  1
  Te  Te208  1  0.66690930  0.00413200  0.49581480  1
  Te  Te209  1  0.67437907  0.00013686  0.83308260  1
  Te  Te210  1  0.66674448  0.33304869  0.17299968  1
  Te  Te211  1  0.67228483  0.32705807  0.49469194  1
  Te  Te212  1  0.66955415  0.33732192  0.83380532  1
  Te  Te213  1  0.67103810  0.66404244  0.17347184  1
  Te  Te214  1  0.66376057  0.66503286  0.49423964  1
  Te  Te215  1  0.67382249  0.66146854  0.83343027  1
