# generated using pymatgen
data_AgSbTe2
_symmetry_space_group_name_H-M   'P 1'
_cell_length_a   18.33500655
_cell_length_b   18.33315142
_cell_length_c   18.33030396
_cell_angle_alpha   89.99705662
_cell_angle_beta   89.99839515
_cell_angle_gamma   90.00075747
_symmetry_Int_Tables_number   1
_chemical_formula_structural   AgSbTe2
_chemical_formula_sum   'Ag54 Sb54 Te108'
_cell_volume   6161.51997425
_cell_formula_units_Z   54
loop_
 _symmetry_equiv_pos_site_id
 _symmetry_equiv_pos_as_xyz
  1  'x, y, z'
loop_
 _atom_site_type_symbol
 _atom_site_label
 _atom_site_symmetry_multiplicity
 _atom_site_fract_x
 _atom_site_fract_y
 _atom_site_fract_z
 _atom_site_occupancy
  Ag  Ag0  1  0.49582135  0.50926669  0.33429623  1
  Ag  Ag1  1  0.49498548  0.66511160  0.49340087  1
  Ag  Ag2  1  0.83367750  0.32163514  0.83397900  1
  Ag  Ag3  1  0.83838159  0.50027873  0.33349293  1
  Ag  Ag4  1  0.66018900  0.82681309  0.50300149  1
  Ag  Ag5  1  0.66876752  0.67382741  0.67128441  1
  Ag  Ag6  1  0.34286342  0.83687391  0.83117065  1
  Ag  Ag7  1  0.33760243  0.17327217  0.16087985  1
  Ag  Ag8  1  0.00434690  0.50115370  0.17738983  1
  Ag  Ag9  1  0.66640629  0.67222591  -0.00448155  1
  Ag  Ag10  1  0.00121216  0.65926934  0.33925981  1
  Ag  Ag11  1  -0.00923372  0.49310953  0.83267894  1
  Ag  Ag12  1  0.67612037  0.16219804  0.83507103  1
  Ag  Ag13  1  0.33423961  0.33122958  0.65978163  1
  Ag  Ag14  1  0.17274513  0.66265323  0.49427897  1
  Ag  Ag15  1  0.50193384  0.82202747  0.32865387  1
  Ag  Ag16  1  0.83754433  0.16382139  -0.00946518  1
  Ag  Ag17  1  0.83092211  0.16514660  0.67793245  1
  Ag  Ag18  1  0.17146672  0.34222180  0.49884716  1
  Ag  Ag19  1  0.50490749  0.16605911  0.66950982  1
  Ag  Ag20  1  0.66924665  -0.00424191  0.67245220  1
  Ag  Ag21  1  0.34360183  0.66103688  0.33572523  1
  Ag  Ag22  1  0.50029469  0.67250420  0.18047653  1
  Ag  Ag23  1  0.49148102  0.34127698  0.49640927  1
  Ag  Ag24  1  0.82873272  0.66680583  0.83346888  1
  Ag  Ag25  1  0.33162659  0.49810797  0.17705789  1
  Ag  Ag26  1  0.66025181  0.83296715  0.15738748  1
  Ag  Ag27  1  0.00080299  0.17644039  0.50840889  1
  Ag  Ag28  1  0.17260320  0.66841786  0.17380160  1
  Ag  Ag29  1  -0.01214102  0.16901713  0.83392991  1
  Ag  Ag30  1  0.33188061  0.50264827  0.49418518  1
  Ag  Ag31  1  0.50834738  -0.00042566  0.83597479  1
  Ag  Ag32  1  0.15942895  0.16771121  -0.00019284  1
  Ag  Ag33  1  0.17142177  -0.00177278  0.16307445  1
  Ag  Ag34  1  0.50558528  0.83324692  0.00460182  1
  Ag  Ag35  1  -0.00352260  0.66734375  0.66364107  1
  Ag  Ag36  1  -0.00242094  0.01021684  -0.00725723  1
  Ag  Ag37  1  0.33087789  0.32937202  0.00122947  1
  Ag  Ag38  1  0.33721122  0.34312551  0.33691536  1
  Ag  Ag39  1  0.65483062  0.66312398  0.33369505  1
  Ag  Ag40  1  0.33667503  0.16605709  0.83824001  1
  Ag  Ag41  1  0.34063658  0.82268657  0.50185225  1
  Ag  Ag42  1  -0.00507584  0.00227390  0.67446773  1
  Ag  Ag43  1  0.66075564  0.15891037  0.15822669  1
  Ag  Ag44  1  0.16679781  0.83239991  0.66624798  1
  Ag  Ag45  1  0.67215280  0.51076120  0.83310020  1
  Ag  Ag46  1  0.82454376  0.83529189  -0.00464149  1
  Ag  Ag47  1  0.82626136  0.00926475  0.83373517  1
  Ag  Ag48  1  0.66502789  0.83449327  0.83518689  1
  Ag  Ag49  1  0.50044174  -0.00724413  0.16150906  1
  Ag  Ag50  1  0.00219397  0.32940014  -0.00212268  1
  Ag  Ag51  1  0.00062889  0.34206401  0.33424967  1
  Ag  Ag52  1  0.00558297  0.49760409  0.49311916  1
  Ag  Ag53  1  0.66066249  0.34322329  0.33342236  1
  Sb  Sb54  1  0.83305013  0.17409292  0.33095475  1
  Sb  Sb55  1  0.17315868  0.82787312  0.33632706  1
  Sb  Sb56  1  0.50257071  0.16149505  -0.00347567  1
  Sb  Sb57  1  0.83461459  0.33394606  0.16257707  1
  Sb  Sb58  1  0.66433668  0.33243639  0.66408811  1
  Sb  Sb59  1  0.66678535  0.33390912  0.00165201  1
  Sb  Sb60  1  0.16834755  0.83685005  -0.00243950  1
  Sb  Sb61  1  0.00030203  0.82838469  0.50218812  1
  Sb  Sb62  1  -0.00041646  0.00108611  0.33283623  1
  Sb  Sb63  1  -0.00281556  0.82915680  0.16644832  1
  Sb  Sb64  1  0.83413559  0.49792932  0.66685945  1
  Sb  Sb65  1  0.83386295  0.49918285  -0.00062749  1
  Sb  Sb66  1  0.83481630  0.33471200  0.50249926  1
  Sb  Sb67  1  0.16707362  0.16905136  0.32805680  1
  Sb  Sb68  1  0.16484901  0.16353052  0.67162563  1
  Sb  Sb69  1  0.00133009  0.17051397  0.16100603  1
  Sb  Sb70  1  0.16902168  0.33536731  0.17081445  1
  Sb  Sb71  1  0.66921861  0.16486533  0.50348764  1
  Sb  Sb72  1  0.16278891  0.33137615  0.83047639  1
  Sb  Sb73  1  0.82416706  0.82358136  0.32828391  1
  Sb  Sb74  1  0.50065811  0.83626570  0.66719553  1
  Sb  Sb75  1  0.83262504  0.66573394  0.50316621  1
  Sb  Sb76  1  0.33790231  0.66441239  0.00612495  1
  Sb  Sb77  1  0.32937023  0.17291717  0.50008884  1
  Sb  Sb78  1  0.49752845  0.33434133  0.17147835  1
  Sb  Sb79  1  0.83233165  0.83610326  0.67263663  1
  Sb  Sb80  1  0.16502308  0.49494798  0.00171851  1
  Sb  Sb81  1  0.16868922  0.50140892  0.33410347  1
  Sb  Sb82  1  0.66576320  -0.00385885  0.33465498  1
  Sb  Sb83  1  0.50609474  0.67218444  0.83157261  1
  Sb  Sb84  1  0.50057354  -0.00307151  0.50161054  1
  Sb  Sb85  1  0.33528269  0.49792135  0.83224709  1
  Sb  Sb86  1  0.33135488  0.00447128  -0.00019434  1
  Sb  Sb87  1  0.50071009  0.49792163  0.66117558  1
  Sb  Sb88  1  0.33501422  0.66558181  0.65980501  1
  Sb  Sb89  1  0.50032056  0.16830023  0.33548762  1
  Sb  Sb90  1  0.66487157  0.50473885  0.50003376  1
  Sb  Sb91  1  0.50088217  0.50467378  0.00514726  1
  Sb  Sb92  1  0.82982932  0.00085437  0.15782497  1
  Sb  Sb93  1  0.67051394  -0.00631733  -0.00795615  1
  Sb  Sb94  1  -0.00584104  0.83628987  0.83309173  1
  Sb  Sb95  1  0.33450106  0.00215088  0.66893816  1
  Sb  Sb96  1  0.33953482  0.83127480  0.16640714  1
  Sb  Sb97  1  0.66482698  0.50352572  0.16826701  1
  Sb  Sb98  1  0.00291837  0.33283532  0.66624315  1
  Sb  Sb99  1  -0.00376625  0.66394238  -0.00056850  1
  Sb  Sb100  1  0.16445111  0.00167595  0.83678395  1
  Sb  Sb101  1  0.83342513  0.00024566  0.50878120  1
  Sb  Sb102  1  0.16650313  -0.00189952  0.49832692  1
  Sb  Sb103  1  0.16483520  0.50409525  0.66338239  1
  Sb  Sb104  1  0.82971848  0.66514533  0.16373258  1
  Sb  Sb105  1  0.50346031  0.32702966  0.82934824  1
  Sb  Sb106  1  0.33552715  -0.00206362  0.33063492  1
  Sb  Sb107  1  0.16263150  0.66905747  0.83104033  1
  Te  Te108  1  0.16984619  0.16480583  0.16095870  1
  Te  Te109  1  0.16065654  0.16629144  0.50027960  1
  Te  Te110  1  0.17772668  0.16670747  0.83913760  1
  Te  Te111  1  0.16767478  0.50527551  0.16518864  1
  Te  Te112  1  0.16687328  0.50183860  0.50094470  1
  Te  Te113  1  0.16015722  0.50060448  0.83281467  1
  Te  Te114  1  0.16738850  0.83225409  0.16593832  1
  Te  Te115  1  0.16889826  0.82975803  0.50354939  1
  Te  Te116  1  0.17300217  0.83387540  0.82900395  1
  Te  Te117  1  0.50050002  0.16462491  0.16663050  1
  Te  Te118  1  0.49912489  0.16641168  0.50582752  1
  Te  Te119  1  0.49553868  0.16234240  0.83047036  1
  Te  Te120  1  0.49683718  0.50450394  0.17199103  1
  Te  Te121  1  0.49839323  0.50032224  0.49580260  1
  Te  Te122  1  0.50593291  0.49897081  0.83424321  1
  Te  Te123  1  0.50072817  0.83250491  0.16583981  1
  Te  Te124  1  0.49979674  0.83227602  0.50000032  1
  Te  Te125  1  0.50248077  0.83740255  0.83307000  1
  Te  Te126  1  0.82646132  0.16621117  0.16235854  1
  Te  Te127  1  0.84039707  0.16699512  0.50239637  1
  Te  Te128  1  0.83254422  0.16545070  0.83397603  1
  Te  Te129  1  0.83953834  0.49946953  0.17106421  1
  Te  Te130  1  0.84132925  0.49921145  0.49571349  1
  Te  Te131  1  0.83141062  0.50627471  0.83318935  1
  Te  Te132  1  0.82502571  0.83345208  0.15894828  1
  Te  Te133  1  0.82511105  0.83405493  0.49827523  1
  Te  Te134  1  0.82837105  0.82867130  0.83660446  1
  Te  Te135  1  0.16123244  0.00403446  0.00423942  1
  Te  Te136  1  0.16655605  -0.00207627  0.32365402  1
  Te  Te137  1  0.16105604  -0.00510536  0.66657249  1
  Te  Te138  1  0.16581376  0.32806928  0.00036465  1
  Te  Te139  1  0.16468322  0.33159829  0.33848213  1
  Te  Te140  1  0.17221158  0.33187071  0.66022104  1
  Te  Te141  1  0.16684069  0.66784364  0.00541876  1
  Te  Te142  1  0.16049859  0.66839499  0.33366900  1
  Te  Te143  1  0.16407308  0.67118247  0.66287230  1
  Te  Te144  1  0.49811229  -0.00537049  0.00020642  1
  Te  Te145  1  0.50102255  -0.00314831  0.32778059  1
  Te  Te146  1  0.50263284  0.00478361  0.67063603  1
  Te  Te147  1  0.49461330  0.33485345  0.00074635  1
  Te  Te148  1  0.49909359  0.33401368  0.33662711  1
  Te  Te149  1  0.49609464  0.32929767  0.66079681  1
  Te  Te150  1  0.50517140  0.67215618  0.00115582  1
  Te  Te151  1  0.49871023  0.66635287  0.33663534  1
  Te  Te152  1  0.50514453  0.66598198  0.65975433  1
  Te  Te153  1  0.83759595  0.00042675  -0.00567904  1
  Te  Te154  1  0.83369372  -0.00038853  0.33321514  1
  Te  Te155  1  0.83421782  0.00262614  0.67336071  1
  Te  Te156  1  0.83532433  0.33018287  -0.00468946  1
  Te  Te157  1  0.83645660  0.33976273  0.33340979  1
  Te  Te158  1  0.83274579  0.32760554  0.67231732  1
  Te  Te159  1  0.82887191  0.66977292  -0.00387773  1
  Te  Te160  1  0.84131571  0.66014789  0.33272600  1
  Te  Te161  1  0.83201268  0.66703307  0.67027895  1
  Te  Te162  1  -0.00076490  0.16916975  -0.00103388  1
  Te  Te163  1  -0.00111866  0.17033984  0.33472417  1
  Te  Te164  1  -0.00036956  0.16564587  0.67112150  1
  Te  Te165  1  -0.00125570  0.49436343  -0.00779301  1
  Te  Te166  1  0.00384129  0.49937252  0.33425986  1
  Te  Te167  1  -0.00101608  0.50416126  0.67188246  1
  Te  Te168  1  -0.00097549  0.83595593  0.00055745  1
  Te  Te169  1  -0.00313021  0.82989630  0.33419496  1
  Te  Te170  1  0.00175839  0.83195552  0.66668073  1
  Te  Te171  1  0.33646121  0.16938979  0.00157069  1
  Te  Te172  1  0.33370891  0.16966676  0.32883073  1
  Te  Te173  1  0.33397343  0.16938561  0.66813095  1
  Te  Te174  1  0.33329054  0.49276799  0.00147034  1
  Te  Te175  1  0.33335984  0.50039846  0.33433617  1
  Te  Te176  1  0.33302999  0.49334727  0.66372415  1
  Te  Te177  1  0.33643141  0.83265775  -0.00606449  1
  Te  Te178  1  0.33964932  0.82939189  0.33690884  1
  Te  Te179  1  0.33160129  0.83370630  0.66722019  1
  Te  Te180  1  0.66918069  0.16832544  -0.00052682  1
  Te  Te181  1  0.66797236  0.16905964  0.33317901  1
  Te  Te182  1  0.66707582  0.16537673  0.66816106  1
  Te  Te183  1  0.66716377  0.50504902  -0.00397106  1
  Te  Te184  1  0.66437432  0.50220490  0.33325012  1
  Te  Te185  1  0.66772111  0.50380753  0.67142663  1
  Te  Te186  1  0.66595724  0.83237788  -0.00169924  1
  Te  Te187  1  0.66222831  0.82846644  0.33471758  1
  Te  Te188  1  0.66739962  0.83411076  0.66948259  1
  Te  Te189  1  0.00143292  0.00034809  0.16414304  1
  Te  Te190  1  0.00100928  0.00191685  0.50320084  1
  Te  Te191  1  -0.00121723  0.00256639  0.83366149  1
  Te  Te192  1  0.00184249  0.33863721  0.16780581  1
  Te  Te193  1  0.00157522  0.33597645  0.49941481  1
  Te  Te194  1  -0.00196678  0.33083372  0.83371947  1
  Te  Te195  1  0.00167290  0.66227920  0.16730804  1
  Te  Te196  1  -0.00007477  0.66418376  0.50213090  1
  Te  Te197  1  -0.00337491  0.66773195  0.83027724  1
  Te  Te198  1  0.33470410  0.00356554  0.16633387  1
  Te  Te199  1  0.33251495  -0.00711171  0.49967436  1
  Te  Te200  1  0.33610166  -0.00062433  0.83320987  1
  Te  Te201  1  0.33230503  0.33438030  0.16807168  1
  Te  Te202  1  0.33203905  0.33417424  0.49727352  1
  Te  Te203  1  0.33361439  0.33288130  0.83604616  1
  Te  Te204  1  0.33409089  0.66456120  0.17020772  1
  Te  Te205  1  0.33265723  0.66427851  0.49835021  1
  Te  Te206  1  0.33313021  0.66775915  0.83302439  1
  Te  Te207  1  0.66290500  -0.00063545  0.16778663  1
  Te  Te208  1  0.66625220  -0.00500225  0.50766065  1
  Te  Te209  1  0.66613923  0.00185324  0.83150821  1
  Te  Te210  1  0.66613419  0.33203030  0.17201650  1
  Te  Te211  1  0.66330862  0.33408291  0.49487933  1
  Te  Te212  1  0.67072568  0.32666695  0.83319035  1
  Te  Te213  1  0.66312770  0.66805339  0.17090986  1
  Te  Te214  1  0.66610666  0.66782783  0.49739067  1
  Te  Te215  1  0.66656795  0.66949148  0.83244214  1
