# generated using pymatgen
data_AgSbTe2
_symmetry_space_group_name_H-M   'P 1'
_cell_length_a   18.31953128
_cell_length_b   18.32428201
_cell_length_c   18.32165945
_cell_angle_alpha   89.99853427
_cell_angle_beta   89.99713557
_cell_angle_gamma   89.99998340
_symmetry_Int_Tables_number   1
_chemical_formula_structural   AgSbTe2
_chemical_formula_sum   'Ag54 Sb54 Te108'
_cell_volume   6150.43921105
_cell_formula_units_Z   54
loop_
 _symmetry_equiv_pos_site_id
 _symmetry_equiv_pos_as_xyz
  1  'x, y, z'
loop_
 _atom_site_type_symbol
 _atom_site_label
 _atom_site_symmetry_multiplicity
 _atom_site_fract_x
 _atom_site_fract_y
 _atom_site_fract_z
 _atom_site_occupancy
  Ag  Ag0  1  0.16584875  0.82331091  0.00054236  1
  Ag  Ag1  1  0.00617647  0.66883828  0.66749952  1
  Ag  Ag2  1  0.50060677  0.50603165  0.66630013  1
  Ag  Ag3  1  -0.00250855  0.16295859  0.49785939  1
  Ag  Ag4  1  0.17006320  0.66549328  0.16421893  1
  Ag  Ag5  1  0.66927046  0.50761033  0.16207241  1
  Ag  Ag6  1  0.16889582  0.16573301  0.32818942  1
  Ag  Ag7  1  0.33123503  0.16311220  0.17163929  1
  Ag  Ag8  1  0.50946031  -0.00031814  0.50561110  1
  Ag  Ag9  1  0.32455344  0.67170904  0.66845530  1
  Ag  Ag10  1  0.50035093  0.83525853  0.66725771  1
  Ag  Ag11  1  0.83145282  0.16988997  -0.00415556  1
  Ag  Ag12  1  0.16801773  0.82782471  0.66866256  1
  Ag  Ag13  1  0.51226045  0.00088508  0.82512158  1
  Ag  Ag14  1  0.15943623  0.50724673  0.32520895  1
  Ag  Ag15  1  -0.00485907  0.82891106  0.82780619  1
  Ag  Ag16  1  0.83258624  0.67128468  0.83406723  1
  Ag  Ag17  1  0.66978801  0.66885117  0.32436397  1
  Ag  Ag18  1  0.67055899  0.84188605  0.83440957  1
  Ag  Ag19  1  -0.00042275  0.34234267  0.33077367  1
  Ag  Ag20  1  0.50500144  0.49982943  0.33076350  1
  Ag  Ag21  1  -0.00065115  0.50199885  0.16908397  1
  Ag  Ag22  1  0.66339316  0.82783191  0.16501966  1
  Ag  Ag23  1  0.66697923  0.32761530  0.67631499  1
  Ag  Ag24  1  0.33084712  0.16295402  0.49465378  1
  Ag  Ag25  1  0.00025007  0.66178758  0.33385904  1
  Ag  Ag26  1  -0.00692315  0.33637778  0.00210330  1
  Ag  Ag27  1  0.67242648  0.33790359  -0.00664085  1
  Ag  Ag28  1  0.82992771  0.49536029  0.00457490  1
  Ag  Ag29  1  0.82516227  -0.00416212  0.83200272  1
  Ag  Ag30  1  0.66922337  -0.00338034  -0.01225264  1
  Ag  Ag31  1  0.16052806  0.66856428  0.83272935  1
  Ag  Ag32  1  0.83491104  0.50147458  0.32505864  1
  Ag  Ag33  1  0.66734136  0.49905705  0.84072381  1
  Ag  Ag34  1  0.66825632  0.15630936  0.83437925  1
  Ag  Ag35  1  0.82645730  0.00289031  0.50235882  1
  Ag  Ag36  1  0.66868085  0.66593118  0.00351986  1
  Ag  Ag37  1  0.33452114  0.82834389  0.16802308  1
  Ag  Ag38  1  0.50967011  0.33028002  0.83152698  1
  Ag  Ag39  1  0.33067107  0.50995415  0.16806263  1
  Ag  Ag40  1  0.67009115  0.83900361  0.50180285  1
  Ag  Ag41  1  0.66764997  -0.00713277  0.33693292  1
  Ag  Ag42  1  0.66452067  -0.00093074  0.67367028  1
  Ag  Ag43  1  -0.00314915  0.83571705  0.50455448  1
  Ag  Ag44  1  0.83284827  0.32570835  0.49960003  1
  Ag  Ag45  1  0.34496996  -0.00677772  0.66559609  1
  Ag  Ag46  1  0.16388432  0.82515718  0.33088076  1
  Ag  Ag47  1  0.49907296  0.16836914  0.33399907  1
  Ag  Ag48  1  0.15919903  0.50623259  0.00782734  1
  Ag  Ag49  1  0.50365417  0.66468264  0.16862413  1
  Ag  Ag50  1  0.16948361  0.51004298  0.67081395  1
  Ag  Ag51  1  0.16163019  0.16815179  0.00450899  1
  Ag  Ag52  1  0.82980779  0.16371749  0.66883948  1
  Ag  Ag53  1  0.82653727  -0.00044253  0.16262738  1
  Sb  Sb54  1  0.33974335  0.33410786  0.66581685  1
  Sb  Sb55  1  0.50576166  -0.00435045  0.16794274  1
  Sb  Sb56  1  0.33294354  0.83701731  0.49984563  1
  Sb  Sb57  1  0.33301692  0.66660334  0.00037182  1
  Sb  Sb58  1  0.50308609  0.67092246  0.49821460  1
  Sb  Sb59  1  0.83353971  0.66861406  0.50285642  1
  Sb  Sb60  1  0.16432634  -0.00656130  0.83371684  1
  Sb  Sb61  1  0.83063650  0.66623609  0.16329434  1
  Sb  Sb62  1  0.16497590  0.66803001  0.50054178  1
  Sb  Sb63  1  0.83138504  0.83784718  0.66812134  1
  Sb  Sb64  1  0.83182470  0.49741729  0.66882473  1
  Sb  Sb65  1  0.83323670  0.16833962  0.33363848  1
  Sb  Sb66  1  0.82722243  0.33188406  0.83393873  1
  Sb  Sb67  1  0.66985401  0.15843733  0.50445338  1
  Sb  Sb68  1  0.16909522  0.33956211  0.83587636  1
  Sb  Sb69  1  0.16471559  -0.00486774  0.16653679  1
  Sb  Sb70  1  0.50249656  0.33867773  0.16533829  1
  Sb  Sb71  1  0.33776538  0.16409895  0.83353116  1
  Sb  Sb72  1  0.32785932  0.33271151  0.33319636  1
  Sb  Sb73  1  0.83349136  0.82898843  0.33358811  1
  Sb  Sb74  1  -0.00734968  0.16231780  0.83173205  1
  Sb  Sb75  1  0.33839310  0.00139342  0.33690618  1
  Sb  Sb76  1  -0.00057035  0.82734457  0.16671337  1
  Sb  Sb77  1  0.33181330  0.66638345  0.33313547  1
  Sb  Sb78  1  0.00328257  0.17140469  0.16946614  1
  Sb  Sb79  1  0.50157299  0.83256248  0.33554534  1
  Sb  Sb80  1  0.33716428  -0.00102892  -0.00272500  1
  Sb  Sb81  1  0.33396796  0.83175022  0.83288616  1
  Sb  Sb82  1  -0.00190685  0.66316897  0.00038570  1
  Sb  Sb83  1  0.50506782  0.16120473  0.66390153  1
  Sb  Sb84  1  0.16012659  0.33219909  0.49863058  1
  Sb  Sb85  1  0.66763983  0.50487456  0.49835974  1
  Sb  Sb86  1  0.33324487  0.49692519  0.49710447  1
  Sb  Sb87  1  0.50235836  0.83349097  -0.00304833  1
  Sb  Sb88  1  0.33695340  0.50233878  0.83682061  1
  Sb  Sb89  1  0.16598944  -0.00111383  0.50011044  1
  Sb  Sb90  1  -0.00477657  0.33737038  0.66730970  1
  Sb  Sb91  1  0.83296286  0.33369111  0.16666946  1
  Sb  Sb92  1  -0.00098430  0.50186465  0.49411523  1
  Sb  Sb93  1  0.66780846  0.67071558  0.67064526  1
  Sb  Sb94  1  0.67074325  0.33666818  0.33309871  1
  Sb  Sb95  1  -0.00491826  -0.00699283  0.66531555  1
  Sb  Sb96  1  0.66563312  0.16439967  0.16249671  1
  Sb  Sb97  1  -0.00662209  0.00254984  0.00014150  1
  Sb  Sb98  1  -0.00434040  0.50516627  0.83770342  1
  Sb  Sb99  1  -0.00462807  -0.00205517  0.33460977  1
  Sb  Sb100  1  0.50627554  0.50045249  0.00172541  1
  Sb  Sb101  1  0.16364141  0.16469483  0.66704229  1
  Sb  Sb102  1  0.16585842  0.34270192  0.16617989  1
  Sb  Sb103  1  0.50367953  0.16687536  0.00303557  1
  Sb  Sb104  1  0.50772018  0.32837748  0.50311921  1
  Sb  Sb105  1  0.33398479  0.33472303  0.00164259  1
  Sb  Sb106  1  0.83328168  0.83355972  -0.00194162  1
  Sb  Sb107  1  0.50548174  0.66798956  0.83472609  1
  Te  Te108  1  0.16887096  0.16346777  0.16654950  1
  Te  Te109  1  0.16414417  0.16586651  0.49825638  1
  Te  Te110  1  0.16614797  0.16682348  0.83768886  1
  Te  Te111  1  0.16698114  0.50354259  0.16747942  1
  Te  Te112  1  0.16744088  0.49810027  0.49846223  1
  Te  Te113  1  0.16697519  0.50569531  0.83149502  1
  Te  Te114  1  0.16655985  0.82965943  0.16764860  1
  Te  Te115  1  0.16355329  0.83489661  0.49861431  1
  Te  Te116  1  0.16629482  0.82962341  0.83271944  1
  Te  Te117  1  0.49520170  0.16677781  0.17197836  1
  Te  Te118  1  0.49826412  0.16230205  0.49522439  1
  Te  Te119  1  0.50536513  0.16611248  0.83366063  1
  Te  Te120  1  0.49968383  0.50354343  0.16879687  1
  Te  Te121  1  0.49927711  0.49818295  0.49941335  1
  Te  Te122  1  0.50376595  0.49995656  0.83060851  1
  Te  Te123  1  0.50008068  0.82781927  0.16703783  1
  Te  Te124  1  0.50205888  0.83852392  0.50390023  1
  Te  Te125  1  0.50376248  0.83624627  0.82913836  1
  Te  Te126  1  0.83427129  0.16122072  0.16144945  1
  Te  Te127  1  0.83559331  0.16453101  0.49945594  1
  Te  Te128  1  0.82950525  0.16370495  0.83458322  1
  Te  Te129  1  0.83271833  0.50005840  0.16545473  1
  Te  Te130  1  0.83332500  0.49696923  0.49694690  1
  Te  Te131  1  0.82870712  0.50355084  0.83666638  1
  Te  Te132  1  0.82794874  0.83806734  0.16569248  1
  Te  Te133  1  0.83365014  0.83783054  0.50039255  1
  Te  Te134  1  0.83233137  0.83260163  0.83389219  1
  Te  Te135  1  0.16739940  0.00473580  -0.00051215  1
  Te  Te136  1  0.16631940  0.00455175  0.33268152  1
  Te  Te137  1  0.16946192  -0.00547847  0.66820129  1
  Te  Te138  1  0.16349454  0.33208638  -0.00079715  1
  Te  Te139  1  0.15976338  0.33128659  0.33296611  1
  Te  Te140  1  0.16647747  0.33942582  0.66765171  1
  Te  Te141  1  0.16637857  0.66586897  0.00076017  1
  Te  Te142  1  0.16582478  0.66600395  0.33247098  1
  Te  Te143  1  0.16564914  0.66742360  0.66481349  1
  Te  Te144  1  0.50707776  0.00045604  -0.00484486  1
  Te  Te145  1  0.50559947  0.00191741  0.33600603  1
  Te  Te146  1  0.50273105  -0.00007034  0.66554812  1
  Te  Te147  1  0.50586330  0.33313850  -0.00608796  1
  Te  Te148  1  0.50072393  0.33444351  0.33449692  1
  Te  Te149  1  0.50637884  0.33765004  0.66945384  1
  Te  Te150  1  0.50418060  0.66735610  0.00573316  1
  Te  Te151  1  0.50172689  0.66258486  0.33055462  1
  Te  Te152  1  0.49948623  0.66668945  0.66702606  1
  Te  Te153  1  0.82874362  0.00125654  -0.00244091  1
  Te  Te154  1  0.82809050  -0.00034086  0.33724213  1
  Te  Te155  1  0.82960742  0.00381675  0.66669323  1
  Te  Te156  1  0.83285780  0.33352474  -0.00002616  1
  Te  Te157  1  0.83854323  0.33709267  0.33564913  1
  Te  Te158  1  0.82865384  0.32949040  0.66304482  1
  Te  Te159  1  0.83068676  0.66265269  -0.00376130  1
  Te  Te160  1  0.83398249  0.66159752  0.33355102  1
  Te  Te161  1  0.83892615  0.66561209  0.67207232  1
  Te  Te162  1  -0.00101770  0.17142733  0.00011276  1
  Te  Te163  1  0.00257675  0.16775534  0.33639484  1
  Te  Te164  1  -0.00504874  0.16798728  0.66208801  1
  Te  Te165  1  -0.00064580  0.49730516  0.00291300  1
  Te  Te166  1  0.00014333  0.50093609  0.33231216  1
  Te  Te167  1  0.00269926  0.50610888  0.66642208  1
  Te  Te168  1  0.00603364  0.83370131  -0.00243218  1
  Te  Te169  1  0.00352868  0.82981591  0.33529754  1
  Te  Te170  1  0.00215419  0.82961429  0.66689684  1
  Te  Te171  1  0.32857797  0.16659021  0.00402239  1
  Te  Te172  1  0.33133805  0.16690497  0.33292613  1
  Te  Te173  1  0.33159686  0.16412660  0.66361881  1
  Te  Te174  1  0.32548993  0.49924039  0.00691510  1
  Te  Te175  1  0.33420455  0.49942753  0.32905625  1
  Te  Te176  1  0.33396801  0.50177331  0.66619205  1
  Te  Te177  1  0.32644726  0.83426680  0.00624461  1
  Te  Te178  1  0.32675428  0.83396145  0.32986266  1
  Te  Te179  1  0.33360428  0.83336825  0.66559564  1
  Te  Te180  1  0.66955784  0.16646981  -0.00271498  1
  Te  Te181  1  0.66340504  0.16752427  0.33195247  1
  Te  Te182  1  0.66926732  0.16600934  0.67039485  1
  Te  Te183  1  0.66726266  0.50158544  0.00126265  1
  Te  Te184  1  0.66607728  0.50192919  0.33142420  1
  Te  Te185  1  0.66339462  0.50194934  0.66625581  1
  Te  Te186  1  0.66734555  0.83315371  -0.00036960  1
  Te  Te187  1  0.66640508  0.83129248  0.33081335  1
  Te  Te188  1  0.66418765  0.83526738  0.66758356  1
  Te  Te189  1  -0.00938575  -0.00084195  0.16723625  1
  Te  Te190  1  -0.00463863  -0.00132126  0.50039965  1
  Te  Te191  1  -0.00623683  -0.00762173  0.83270605  1
  Te  Te192  1  -0.00063948  0.33956023  0.16624240  1
  Te  Te193  1  -0.00641451  0.33001829  0.49915756  1
  Te  Te194  1  -0.00009985  0.33225329  0.83797355  1
  Te  Te195  1  0.00295300  0.66215065  0.17064445  1
  Te  Te196  1  -0.00183133  0.67289104  0.49792005  1
  Te  Te197  1  0.00040106  0.67000529  0.83370186  1
  Te  Te198  1  0.33492475  -0.00126179  0.16612303  1
  Te  Te199  1  0.33586167  0.00396409  0.50434141  1
  Te  Te200  1  0.33812495  -0.00003287  0.82773820  1
  Te  Te201  1  0.33463170  0.32789832  0.16645459  1
  Te  Te202  1  0.33464320  0.32327035  0.50063846  1
  Te  Te203  1  0.34391102  0.33286221  0.83342211  1
  Te  Te204  1  0.33111246  0.66834065  0.16682165  1
  Te  Te205  1  0.33576239  0.66620851  0.50864576  1
  Te  Te206  1  0.32725405  0.66669773  0.82897313  1
  Te  Te207  1  0.66837683  -0.00264874  0.17242484  1
  Te  Te208  1  0.66763135  -0.00235447  0.49806269  1
  Te  Te209  1  0.66866947  0.00008430  0.83144997  1
  Te  Te210  1  0.66709582  0.34026979  0.16115647  1
  Te  Te211  1  0.67351064  0.33320002  0.50254374  1
  Te  Te212  1  0.66672400  0.33959090  0.83306962  1
  Te  Te213  1  0.66903747  0.66758064  0.16587793  1
  Te  Te214  1  0.66811934  0.67622736  0.49207747  1
  Te  Te215  1  0.66891564  0.66410579  0.83655364  1
