# generated using pymatgen
data_AgSbTe2
_symmetry_space_group_name_H-M   'P 1'
_cell_length_a   18.33920724
_cell_length_b   18.33814773
_cell_length_c   18.33128136
_cell_angle_alpha   89.99908871
_cell_angle_beta   90.00144379
_cell_angle_gamma   89.99996272
_symmetry_Int_Tables_number   1
_chemical_formula_structural   AgSbTe2
_chemical_formula_sum   'Ag54 Sb54 Te108'
_cell_volume   6164.93991879
_cell_formula_units_Z   54
loop_
 _symmetry_equiv_pos_site_id
 _symmetry_equiv_pos_as_xyz
  1  'x, y, z'
loop_
 _atom_site_type_symbol
 _atom_site_label
 _atom_site_symmetry_multiplicity
 _atom_site_fract_x
 _atom_site_fract_y
 _atom_site_fract_z
 _atom_site_occupancy
  Ag  Ag0  1  0.67948449  0.33453815  0.33398616  1
  Ag  Ag1  1  0.32696217  0.16456567  0.50112350  1
  Ag  Ag2  1  0.49150088  0.83118901  -0.00101919  1
  Ag  Ag3  1  0.50181275  0.33700739  0.48974821  1
  Ag  Ag4  1  0.00176178  0.01038234  0.34065032  1
  Ag  Ag5  1  0.83782477  0.49177348  0.33722304  1
  Ag  Ag6  1  0.84128742  0.49794470  0.66938640  1
  Ag  Ag7  1  0.15849169  0.50964766  0.66286042  1
  Ag  Ag8  1  0.00173402  0.83345218  0.50490992  1
  Ag  Ag9  1  0.16250708  0.49496820  0.33705376  1
  Ag  Ag10  1  0.67661956  0.50151062  0.83305939  1
  Ag  Ag11  1  0.50186689  0.50571769  0.00610005  1
  Ag  Ag12  1  0.32522836  -0.00127417  0.66838532  1
  Ag  Ag13  1  0.00681773  0.00192840  -0.00022980  1
  Ag  Ag14  1  0.33450385  0.66178560  0.33003950  1
  Ag  Ag15  1  0.00343761  0.16826079  0.49937842  1
  Ag  Ag16  1  0.49592059  0.66367358  0.50223950  1
  Ag  Ag17  1  0.49567592  0.66541853  0.83424975  1
  Ag  Ag18  1  0.16186323  0.83417141  0.66766443  1
  Ag  Ag19  1  0.00532917  -0.00417314  0.66224450  1
  Ag  Ag20  1  -0.00020092  0.66483263  0.66586188  1
  Ag  Ag21  1  0.17159983  0.67051340  0.16316053  1
  Ag  Ag22  1  -0.00217142  0.49709552  0.50372644  1
  Ag  Ag23  1  0.83462899  0.49752108  -0.00915933  1
  Ag  Ag24  1  0.16174416  0.16133990  0.66158354  1
  Ag  Ag25  1  0.16794280  0.83768009  -0.00213029  1
  Ag  Ag26  1  0.33041911  0.83504772  0.50433683  1
  Ag  Ag27  1  0.16988612  0.66539072  0.83327787  1
  Ag  Ag28  1  0.49927442  0.49501695  0.33007950  1
  Ag  Ag29  1  0.67366644  0.66678550  0.66828938  1
  Ag  Ag30  1  0.33606827  0.67462476  0.00570708  1
  Ag  Ag31  1  0.49684444  0.16083017  0.66548127  1
  Ag  Ag32  1  0.83598886  0.33480254  0.49275763  1
  Ag  Ag33  1  0.49409128  0.66421590  0.16083335  1
  Ag  Ag34  1  0.50308553  0.33627365  0.17216310  1
  Ag  Ag35  1  0.83937718  0.83236628  -0.00254198  1
  Ag  Ag36  1  0.84564323  0.83067761  0.66490341  1
  Ag  Ag37  1  0.16718581  0.15646900  0.00114480  1
  Ag  Ag38  1  0.83123300  0.33516194  0.17875559  1
  Ag  Ag39  1  0.49346780  0.00069796  0.16040528  1
  Ag  Ag40  1  0.49524571  0.83231130  0.66652451  1
  Ag  Ag41  1  -0.00383703  0.49891215  0.82212938  1
  Ag  Ag42  1  0.33443248  0.33969489  0.33503136  1
  Ag  Ag43  1  0.84370212  0.18145097  0.34227198  1
  Ag  Ag44  1  0.49253483  0.15743779  0.00013452  1
  Ag  Ag45  1  0.65347879  -0.00140549  0.00116592  1
  Ag  Ag46  1  0.83560703  0.33929828  0.83178156  1
  Ag  Ag47  1  -0.00786561  0.32785533  0.33265504  1
  Ag  Ag48  1  0.83771208  0.83203774  0.34225621  1
  Ag  Ag49  1  -0.00322780  0.33175287  0.00515078  1
  Ag  Ag50  1  0.16174964  0.17115296  0.34045309  1
  Ag  Ag51  1  0.84256332  0.17316590  0.66081525  1
  Ag  Ag52  1  0.16804200  -0.00160606  0.15955111  1
  Ag  Ag53  1  0.33175741  -0.00493329  -0.00105120  1
  Sb  Sb54  1  0.83322529  0.66263681  0.16615024  1
  Sb  Sb55  1  0.00151877  0.16620585  0.17396550  1
  Sb  Sb56  1  0.16516970  0.50322193  0.00145336  1
  Sb  Sb57  1  0.33063134  0.67254173  0.66498768  1
  Sb  Sb58  1  0.83323626  0.66201368  0.50231518  1
  Sb  Sb59  1  0.49642393  0.17393004  0.33454662  1
  Sb  Sb60  1  0.67147233  0.00496163  0.32705799  1
  Sb  Sb61  1  0.00042242  0.82851037  0.82754805  1
  Sb  Sb62  1  0.83754398  0.00490538  0.49944625  1
  Sb  Sb63  1  0.16380596  0.83394692  0.33512166  1
  Sb  Sb64  1  0.83400920  0.66152142  0.83124194  1
  Sb  Sb65  1  0.00457447  0.66697753  -0.00574874  1
  Sb  Sb66  1  0.00456392  0.66376998  0.33895912  1
  Sb  Sb67  1  -0.00107854  0.49905200  0.17003193  1
  Sb  Sb68  1  0.66516317  0.49955208  0.16359215  1
  Sb  Sb69  1  0.00064362  0.17272011  0.82790993  1
  Sb  Sb70  1  0.66731062  0.17275127  0.83374278  1
  Sb  Sb71  1  0.00099344  0.83475418  0.16904795  1
  Sb  Sb72  1  0.67066118  0.33238093  0.00465428  1
  Sb  Sb73  1  0.50501698  0.33829747  0.83516491  1
  Sb  Sb74  1  0.66567858  0.83362523  0.16456933  1
  Sb  Sb75  1  0.66985700  0.33804042  0.66252244  1
  Sb  Sb76  1  0.16562159  0.33253419  0.17042347  1
  Sb  Sb77  1  0.16296205  0.33251367  0.49791861  1
  Sb  Sb78  1  0.67128530  0.49935996  0.50297453  1
  Sb  Sb79  1  0.33292799  0.83250231  0.16795039  1
  Sb  Sb80  1  0.33479827  0.50216611  0.16919677  1
  Sb  Sb81  1  0.33394491  0.32734158  0.65807337  1
  Sb  Sb82  1  0.16488683  0.00107087  0.49970872  1
  Sb  Sb83  1  0.49630373  0.00092121  0.49789784  1
  Sb  Sb84  1  0.66179092  0.66038511  0.33800474  1
  Sb  Sb85  1  0.33168628  0.50394438  0.83199392  1
  Sb  Sb86  1  0.66646835  0.82668761  0.83399118  1
  Sb  Sb87  1  0.33247590  0.16636547  0.82836764  1
  Sb  Sb88  1  0.33061951  0.49954040  0.49800825  1
  Sb  Sb89  1  0.33253385  0.33183357  0.00630649  1
  Sb  Sb90  1  0.83851766  0.16952905  0.00043969  1
  Sb  Sb91  1  0.33249531  0.83221487  0.83143185  1
  Sb  Sb92  1  0.66778048  -0.00468804  0.67256099  1
  Sb  Sb93  1  0.66842597  0.16935130  0.50068961  1
  Sb  Sb94  1  -0.00158796  0.33436727  0.66075530  1
  Sb  Sb95  1  0.16998121  0.66670676  0.50084927  1
  Sb  Sb96  1  0.50018910  0.50404014  0.66470573  1
  Sb  Sb97  1  0.66904475  0.83074120  0.50166478  1
  Sb  Sb98  1  0.50003494  -0.00544207  0.83806158  1
  Sb  Sb99  1  0.15975956  0.33861073  0.83346747  1
  Sb  Sb100  1  0.32712834  -0.00056568  0.33327994  1
  Sb  Sb101  1  0.66522179  0.16799670  0.16588261  1
  Sb  Sb102  1  0.65935295  0.66810579  -0.00499492  1
  Sb  Sb103  1  0.83566918  0.00281012  0.83397317  1
  Sb  Sb104  1  0.83683655  0.00378725  0.16553406  1
  Sb  Sb105  1  0.33241156  0.16531978  0.17055147  1
  Sb  Sb106  1  0.16509262  -0.00479810  0.83536852  1
  Sb  Sb107  1  0.50141876  0.82876763  0.33359749  1
  Te  Te108  1  0.16720831  0.16370282  0.16098950  1
  Te  Te109  1  0.16561278  0.16685678  0.50047843  1
  Te  Te110  1  0.16695648  0.16996604  0.83366406  1
  Te  Te111  1  0.16621540  0.50425350  0.17233001  1
  Te  Te112  1  0.16171349  0.49987529  0.49893936  1
  Te  Te113  1  0.16103272  0.50505714  0.83090841  1
  Te  Te114  1  0.16627902  0.83331261  0.16295521  1
  Te  Te115  1  0.16509877  0.83354714  0.50454483  1
  Te  Te116  1  0.16605325  0.82511929  0.83336748  1
  Te  Te117  1  0.49877043  0.16684842  0.16261205  1
  Te  Te118  1  0.49826047  0.16883394  0.50289945  1
  Te  Te119  1  0.50000987  0.16866273  0.83269991  1
  Te  Te120  1  0.50070159  0.49997115  0.16776331  1
  Te  Te121  1  0.49914148  0.49855220  0.49693403  1
  Te  Te122  1  0.50006441  0.50470417  0.83428187  1
  Te  Te123  1  0.49973616  0.83261492  0.16302154  1
  Te  Te124  1  0.49831291  0.83205212  0.50139701  1
  Te  Te125  1  0.50046015  0.82713689  0.83321426  1
  Te  Te126  1  0.83319619  0.17299840  0.17047011  1
  Te  Te127  1  0.83479622  0.17051545  0.50141375  1
  Te  Te128  1  0.83292978  0.17412601  0.82613041  1
  Te  Te129  1  0.83190024  0.49586906  0.17051270  1
  Te  Te130  1  0.83709176  0.49703438  0.50025053  1
  Te  Te131  1  0.83604463  0.50030984  0.83157358  1
  Te  Te132  1  0.83348177  0.83226179  0.15833942  1
  Te  Te133  1  0.83709159  0.83117741  0.50449084  1
  Te  Te134  1  0.83317850  0.83281619  0.83413873  1
  Te  Te135  1  0.16842955  -0.00232715  -0.00139762  1
  Te  Te136  1  0.16187495  0.00242567  0.32597592  1
  Te  Te137  1  0.16554612  -0.00062177  0.66819954  1
  Te  Te138  1  0.16262492  0.33240606  0.00229884  1
  Te  Te139  1  0.17012144  0.33337298  0.33199543  1
  Te  Te140  1  0.16728926  0.32674726  0.66743774  1
  Te  Te141  1  0.17084209  0.66757338  0.00085940  1
  Te  Te142  1  0.17145201  0.66566349  0.33031387  1
  Te  Te143  1  0.16477075  0.66839702  0.66697528  1
  Te  Te144  1  0.49431506  -0.00182103  0.00035136  1
  Te  Te145  1  0.50110297  0.00017389  0.32463142  1
  Te  Te146  1  0.50066697  -0.00126070  0.66732179  1
  Te  Te147  1  0.50128299  0.33668925  0.00349820  1
  Te  Te148  1  0.49409224  0.33430363  0.33271549  1
  Te  Te149  1  0.50158617  0.33045639  0.66528999  1
  Te  Te150  1  0.49844025  0.66728398  0.00073706  1
  Te  Te151  1  0.49735422  0.66370433  0.33371814  1
  Te  Te152  1  0.49505218  0.66828804  0.66634614  1
  Te  Te153  1  0.84301993  -0.00096698  0.00113081  1
  Te  Te154  1  0.83907469  -0.00797501  0.33083487  1
  Te  Te155  1  0.83574845  -0.00363765  0.66717862  1
  Te  Te156  1  0.83568046  0.33475243  -0.00256050  1
  Te  Te157  1  0.83558498  0.33626273  0.33539623  1
  Te  Te158  1  0.83263172  0.33431784  0.66669423  1
  Te  Te159  1  0.83256725  0.66634095  0.00067884  1
  Te  Te160  1  0.83140161  0.67039231  0.33299447  1
  Te  Te161  1  0.83577549  0.66727359  0.66681299  1
  Te  Te162  1  0.00319575  0.16649333  -0.00278491  1
  Te  Te163  1  0.00192740  0.16689572  0.33733848  1
  Te  Te164  1  0.00040052  0.16658052  0.66220100  1
  Te  Te165  1  -0.00357507  0.49841401  0.00105568  1
  Te  Te166  1  -0.00019994  0.49891594  0.33687908  1
  Te  Te167  1  0.00072844  0.49723064  0.66378516  1
  Te  Te168  1  0.00201643  0.83469744  -0.00169933  1
  Te  Te169  1  -0.00237936  0.83246624  0.33913637  1
  Te  Te170  1  0.00195329  0.83640693  0.66593239  1
  Te  Te171  1  0.33275456  0.16472662  -0.00040716  1
  Te  Te172  1  0.32762049  0.16509893  0.34020488  1
  Te  Te173  1  0.33318005  0.16147038  0.66239134  1
  Te  Te174  1  0.33822370  0.50117818  -0.00091211  1
  Te  Te175  1  0.33351836  0.50129115  0.33527243  1
  Te  Te176  1  0.32283734  0.49867787  0.66487155  1
  Te  Te177  1  0.33245809  0.83356353  0.00052067  1
  Te  Te178  1  0.33268095  0.83118167  0.34348905  1
  Te  Te179  1  0.33447480  0.83668536  0.66388498  1
  Te  Te180  1  0.66246289  0.16138086  -0.00137184  1
  Te  Te181  1  0.67450565  0.17083695  0.33367770  1
  Te  Te182  1  0.66319941  0.16469006  0.66783008  1
  Te  Te183  1  0.66827291  0.50047502  -0.00514489  1
  Te  Te184  1  0.66691022  0.49526656  0.33486854  1
  Te  Te185  1  0.66886136  0.50543351  0.67090561  1
  Te  Te186  1  0.66753860  0.83771427  -0.00127501  1
  Te  Te187  1  0.67600701  0.83496974  0.33329106  1
  Te  Te188  1  0.66113773  0.82793616  0.66743514  1
  Te  Te189  1  0.00484330  -0.00038130  0.16258030  1
  Te  Te190  1  -0.00035438  -0.00036628  0.50070221  1
  Te  Te191  1  -0.00048912  0.00190842  0.83352680  1
  Te  Te192  1  -0.00307811  0.33286452  0.16771349  1
  Te  Te193  1  -0.00282682  0.33278224  0.49399988  1
  Te  Te194  1  -0.00451520  0.33902055  0.84023499  1
  Te  Te195  1  0.00603592  0.66742375  0.16678414  1
  Te  Te196  1  0.00052122  0.66822592  0.50587890  1
  Te  Te197  1  0.00366488  0.66039188  0.82707062  1
  Te  Te198  1  0.33196391  -0.00060124  0.16322101  1
  Te  Te199  1  0.33233617  -0.00025441  0.50374061  1
  Te  Te200  1  0.33328008  0.00026471  0.83128295  1
  Te  Te201  1  0.33995019  0.33232718  0.17386111  1
  Te  Te202  1  0.33793981  0.32914310  0.49422811  1
  Te  Te203  1  0.33429998  0.33515503  0.83408674  1
  Te  Te204  1  0.33360372  0.66740414  0.16714667  1
  Te  Te205  1  0.33675314  0.66919590  0.49646780  1
  Te  Te206  1  0.33349235  0.66641093  0.84017506  1
  Te  Te207  1  0.66122494  0.00082104  0.15993452  1
  Te  Te208  1  0.66572850  -0.00024543  0.49878727  1
  Te  Te209  1  0.66814937  0.00044932  0.84228701  1
  Te  Te210  1  0.66582264  0.33385830  0.17249656  1
  Te  Te211  1  0.66415573  0.33450261  0.49445340  1
  Te  Te212  1  0.67320780  0.34131374  0.83377850  1
  Te  Te213  1  0.65776323  0.66703117  0.16852445  1
  Te  Te214  1  0.65578703  0.66582279  0.50708669  1
  Te  Te215  1  0.66113931  0.66116837  0.82835093  1
