# generated using pymatgen
data_AgSbTe2
_symmetry_space_group_name_H-M   'P 1'
_cell_length_a   18.33973452
_cell_length_b   18.34006788
_cell_length_c   18.33235024
_cell_angle_alpha   90.00034123
_cell_angle_beta   90.00187746
_cell_angle_gamma   90.00132340
_symmetry_Int_Tables_number   1
_chemical_formula_structural   AgSbTe2
_chemical_formula_sum   'Ag54 Sb54 Te108'
_cell_volume   6166.12221882
_cell_formula_units_Z   54
loop_
 _symmetry_equiv_pos_site_id
 _symmetry_equiv_pos_as_xyz
  1  'x, y, z'
loop_
 _atom_site_type_symbol
 _atom_site_label
 _atom_site_symmetry_multiplicity
 _atom_site_fract_x
 _atom_site_fract_y
 _atom_site_fract_z
 _atom_site_occupancy
  Ag  Ag0  1  0.67419735  0.83691058  0.49694919  1
  Ag  Ag1  1  0.51115401  0.17228734  0.34216220  1
  Ag  Ag2  1  0.49623075  0.00895976  0.49997627  1
  Ag  Ag3  1  0.83026006  0.16979471  0.33518023  1
  Ag  Ag4  1  0.16802581  0.00470963  0.49734016  1
  Ag  Ag5  1  0.32975858  0.66974867  0.65522512  1
  Ag  Ag6  1  0.83526632  0.83304821  0.33337654  1
  Ag  Ag7  1  0.82867906  0.49619765  0.32908794  1
  Ag  Ag8  1  -0.00946995  0.66927492  0.01302515  1
  Ag  Ag9  1  0.16845279  0.50005300  0.66161906  1
  Ag  Ag10  1  0.50583377  0.49726170  0.33653225  1
  Ag  Ag11  1  0.82211703  0.32501631  0.49164615  1
  Ag  Ag12  1  -0.00381934  0.16072640  0.17720323  1
  Ag  Ag13  1  0.83769715  0.67227610  0.16714308  1
  Ag  Ag14  1  0.83178660  -0.00551309  0.82525741  1
  Ag  Ag15  1  0.66560073  0.33295557  0.65340308  1
  Ag  Ag16  1  0.66708503  0.34250712  0.00375293  1
  Ag  Ag17  1  -0.00140500  0.15888708  0.49425244  1
  Ag  Ag18  1  0.67049809  0.82939267  0.84286335  1
  Ag  Ag19  1  0.16972191  0.16953380  0.65700961  1
  Ag  Ag20  1  0.51313073  0.82686924  0.00368227  1
  Ag  Ag21  1  -0.00653681  0.83790631  0.49021586  1
  Ag  Ag22  1  0.50625809  0.33440353  0.82177398  1
  Ag  Ag23  1  0.33187696  -0.00384657  0.65872338  1
  Ag  Ag24  1  0.32071249  0.83111190  0.17500555  1
  Ag  Ag25  1  0.15699379  0.67454909  0.16511522  1
  Ag  Ag26  1  0.49837238  0.16931500  0.65393557  1
  Ag  Ag27  1  0.34372660  0.16153788  0.49975777  1
  Ag  Ag28  1  0.51021238  0.50358023  0.00375689  1
  Ag  Ag29  1  0.49504112  0.66813913  0.49765227  1
  Ag  Ag30  1  0.16018306  0.33273888  0.17457743  1
  Ag  Ag31  1  -0.00135804  0.67296811  0.33064922  1
  Ag  Ag32  1  0.67218398  0.66496558  0.00257564  1
  Ag  Ag33  1  0.65846567  0.17069635  0.49566685  1
  Ag  Ag34  1  -0.00280837  0.83117499  0.17264572  1
  Ag  Ag35  1  0.16582418  0.50522209  0.00215654  1
  Ag  Ag36  1  0.33508481  0.83303485  0.49679991  1
  Ag  Ag37  1  0.16155368  0.82543517  0.00914781  1
  Ag  Ag38  1  0.50597265  0.32262128  0.49969523  1
  Ag  Ag39  1  0.83293245  0.83231052  0.65493372  1
  Ag  Ag40  1  0.83475031  -0.00035085  0.49780994  1
  Ag  Ag41  1  0.83195324  0.33774667  0.17338565  1
  Ag  Ag42  1  0.33225350  0.66844599  0.33621378  1
  Ag  Ag43  1  -0.00205063  -0.00595501  0.33563495  1
  Ag  Ag44  1  0.67338160  0.16736436  0.17871111  1
  Ag  Ag45  1  0.83079721  0.82707873  0.01200388  1
  Ag  Ag46  1  0.67785905  0.83540769  0.16721970  1
  Ag  Ag47  1  0.82654640  0.50753166  0.00860363  1
  Ag  Ag48  1  0.00250847  0.66964295  0.65827531  1
  Ag  Ag49  1  0.16372117  -0.00969514  0.17419364  1
  Ag  Ag50  1  0.16882945  0.32364668  0.49747534  1
  Ag  Ag51  1  0.66547809  0.50065090  0.83967548  1
  Ag  Ag52  1  0.67009014  0.33009403  0.33474257  1
  Ag  Ag53  1  0.33541096  0.50659787  0.49941996  1
  Sb  Sb54  1  -0.00334460  0.33529501  0.66142419  1
  Sb  Sb55  1  0.83469170  0.50463483  0.66490766  1
  Sb  Sb56  1  0.83227343  0.66912251  0.49254756  1
  Sb  Sb57  1  0.49764271  0.49653879  0.66096877  1
  Sb  Sb58  1  0.33457825  0.66819872  0.00369803  1
  Sb  Sb59  1  0.82526165  0.33075116  0.83491837  1
  Sb  Sb60  1  0.50410242  0.83588067  0.66373183  1
  Sb  Sb61  1  0.50522251  0.83310630  0.33511703  1
  Sb  Sb62  1  0.66769093  0.66503165  0.66704101  1
  Sb  Sb63  1  -0.00790896  0.83263794  0.83492323  1
  Sb  Sb64  1  -0.00216250  0.16524384  0.82753481  1
  Sb  Sb65  1  -0.00557461  0.50132767  0.83513504  1
  Sb  Sb66  1  0.15899274  0.83243678  0.33041424  1
  Sb  Sb67  1  0.16415784  0.16848130  0.00327865  1
  Sb  Sb68  1  0.33265945  -0.00349795  -0.00111814  1
  Sb  Sb69  1  0.83204520  0.16280176  0.65400795  1
  Sb  Sb70  1  0.33819221  0.33670171  0.00404173  1
  Sb  Sb71  1  0.50596166  0.33375054  0.17294979  1
  Sb  Sb72  1  -0.00146878  0.50632932  0.16802204  1
  Sb  Sb73  1  0.00145894  -0.00492085  0.65539962  1
  Sb  Sb74  1  0.49624446  -0.00348530  0.17399463  1
  Sb  Sb75  1  0.66766654  0.16775195  0.82949209  1
  Sb  Sb76  1  0.33847836  0.50056931  0.82897128  1
  Sb  Sb77  1  0.66893411  -0.00589465  0.00124499  1
  Sb  Sb78  1  0.33926557  0.83211859  0.83218501  1
  Sb  Sb79  1  0.50253279  0.66882522  0.17031207  1
  Sb  Sb80  1  0.66973902  0.49895598  0.16330955  1
  Sb  Sb81  1  0.00236962  0.50259428  0.49836077  1
  Sb  Sb82  1  0.83778621  -0.00323945  0.17353331  1
  Sb  Sb83  1  0.83205866  0.67180641  0.84191691  1
  Sb  Sb84  1  -0.00776086  0.33305124  0.33384493  1
  Sb  Sb85  1  0.16515128  0.50100900  0.33425655  1
  Sb  Sb86  1  0.50211752  0.66263903  0.83091806  1
  Sb  Sb87  1  0.17277961  0.33525155  0.83048618  1
  Sb  Sb88  1  0.16141155  -0.00208565  0.83023552  1
  Sb  Sb89  1  0.33531788  0.16592571  0.82185447  1
  Sb  Sb90  1  0.50451880  0.16881307  0.00288041  1
  Sb  Sb91  1  0.33090767  0.50527972  0.17201302  1
  Sb  Sb92  1  0.33843205  0.33704324  0.33715163  1
  Sb  Sb93  1  0.50554878  0.00193372  0.82719966  1
  Sb  Sb94  1  0.16597731  0.66700162  0.83771110  1
  Sb  Sb95  1  -0.00173379  -0.00843225  0.00929870  1
  Sb  Sb96  1  0.83215582  0.16554090  0.00962388  1
  Sb  Sb97  1  0.66304971  0.49802973  0.49978530  1
  Sb  Sb98  1  0.16468240  0.83146303  0.66516160  1
  Sb  Sb99  1  -0.00593352  0.34021598  0.00692347  1
  Sb  Sb100  1  0.67246786  0.00466140  0.33592570  1
  Sb  Sb101  1  0.16249943  0.16728086  0.34003555  1
  Sb  Sb102  1  0.66548182  0.00253622  0.66114523  1
  Sb  Sb103  1  0.17035195  0.66955776  0.49598798  1
  Sb  Sb104  1  0.33709129  0.33328616  0.66049841  1
  Sb  Sb105  1  0.32861502  -0.00575880  0.34138769  1
  Sb  Sb106  1  0.33074031  0.16173216  0.17744357  1
  Sb  Sb107  1  0.66883438  0.66449335  0.32906365  1
  Te  Te108  1  0.16302178  0.16985727  0.16748257  1
  Te  Te109  1  0.16152130  0.16496955  0.50066862  1
  Te  Te110  1  0.16675113  0.16687846  0.82499612  1
  Te  Te111  1  0.16636680  0.49452794  0.16454810  1
  Te  Te112  1  0.17049237  0.49995365  0.50155565  1
  Te  Te113  1  0.16773244  0.49906949  0.83419854  1
  Te  Te114  1  0.16393596  0.83321674  0.16654907  1
  Te  Te115  1  0.16934639  0.83873278  0.50153766  1
  Te  Te116  1  0.16797767  0.83473384  0.84327581  1
  Te  Te117  1  0.50219012  0.16481704  0.17223779  1
  Te  Te118  1  0.50250852  0.16584169  0.49902120  1
  Te  Te119  1  0.50110093  0.17169873  0.83098645  1
  Te  Te120  1  0.49780587  0.50081204  0.16570204  1
  Te  Te121  1  0.49649023  0.50445065  0.49723292  1
  Te  Te122  1  0.50473203  0.49568778  0.83812257  1
  Te  Te123  1  0.50261229  0.83443394  0.16322540  1
  Te  Te124  1  0.49672041  0.82985446  0.50003880  1
  Te  Te125  1  0.50751015  0.83380962  0.83828937  1
  Te  Te126  1  0.83362565  0.16402614  0.17263998  1
  Te  Te127  1  0.83548933  0.16668265  0.49654624  1
  Te  Te128  1  0.83326244  0.15921799  0.83366132  1
  Te  Te129  1  0.83365341  0.49729163  0.16663155  1
  Te  Te130  1  0.83346087  0.49465302  0.49660863  1
  Te  Te131  1  0.82692737  0.49915780  0.83621845  1
  Te  Te132  1  0.83617841  0.83459986  0.16991496  1
  Te  Te133  1  0.83402076  0.83139545  0.49642496  1
  Te  Te134  1  0.82759259  0.83595280  0.83222299  1
  Te  Te135  1  0.16611023  -0.00126061  0.00155027  1
  Te  Te136  1  0.16108689  0.00103721  0.33455858  1
  Te  Te137  1  0.16987833  0.00176057  0.66362485  1
  Te  Te138  1  0.16586431  0.33764111  -0.00033079  1
  Te  Te139  1  0.16676906  0.33500955  0.33440493  1
  Te  Te140  1  0.16624634  0.33498378  0.66393379  1
  Te  Te141  1  0.16812260  0.66628598  0.00384679  1
  Te  Te142  1  0.16618623  0.66465779  0.32619594  1
  Te  Te143  1  0.16632839  0.66460379  0.66721524  1
  Te  Te144  1  0.49939971  -0.00503382  -0.00176862  1
  Te  Te145  1  0.49791093  0.00377381  0.34072487  1
  Te  Te146  1  0.49606717  0.00457787  0.66151480  1
  Te  Te147  1  0.50519197  0.33738831  0.00465224  1
  Te  Te148  1  0.50413820  0.33544596  0.33773577  1
  Te  Te149  1  0.50329795  0.33093472  0.66145687  1
  Te  Te150  1  0.50198634  0.66566045  -0.00098967  1
  Te  Te151  1  0.49819943  0.66303358  0.33669322  1
  Te  Te152  1  0.49768473  0.66635546  0.66047392  1
  Te  Te153  1  0.83374828  -0.00487241  -0.00271847  1
  Te  Te154  1  0.83800483  -0.00240714  0.33863311  1
  Te  Te155  1  0.83388766  -0.00427565  0.66147082  1
  Te  Te156  1  0.82745502  0.33585441  0.00339802  1
  Te  Te157  1  0.83135927  0.33424095  0.33311654  1
  Te  Te158  1  0.82795141  0.33425121  0.66529711  1
  Te  Te159  1  0.83268771  0.66676800  0.00376946  1
  Te  Te160  1  0.83471853  0.66722203  0.32785678  1
  Te  Te161  1  0.83666676  0.67049147  0.66563137  1
  Te  Te162  1  -0.00061249  0.16657431  0.00329715  1
  Te  Te163  1  -0.00320364  0.16784145  0.33456782  1
  Te  Te164  1  0.00457677  0.16678832  0.66013072  1
  Te  Te165  1  0.00289730  0.50781911  -0.00035103  1
  Te  Te166  1  -0.00739031  0.50846653  0.33388392  1
  Te  Te167  1  0.00472496  0.50624790  0.66737421  1
  Te  Te168  1  -0.00175079  0.82760699  0.00129668  1
  Te  Te169  1  -0.00180358  0.83279324  0.33312365  1
  Te  Te170  1  -0.00348918  0.82876390  0.66692930  1
  Te  Te171  1  0.33449709  0.16640171  0.00050801  1
  Te  Te172  1  0.33971708  0.16617708  0.33980508  1
  Te  Te173  1  0.33254677  0.16582653  0.65909172  1
  Te  Te174  1  0.32981043  0.50165588  -0.00046098  1
  Te  Te175  1  0.33638854  0.50501233  0.33865108  1
  Te  Te176  1  0.32959820  0.50336590  0.66210357  1
  Te  Te177  1  0.33076987  0.83298953  0.00137531  1
  Te  Te178  1  0.33756328  0.82899246  0.33419246  1
  Te  Te179  1  0.33333830  0.83247803  0.66432282  1
  Te  Te180  1  0.66673588  0.17062280  0.00217062  1
  Te  Te181  1  0.66964497  0.16767120  0.33559133  1
  Te  Te182  1  0.66432120  0.17171181  0.66187624  1
  Te  Te183  1  0.66693538  0.50240794  0.00129756  1
  Te  Te184  1  0.66702913  0.49619764  0.33248558  1
  Te  Te185  1  0.66680908  0.49597421  0.67339100  1
  Te  Te186  1  0.67018222  0.83204517  0.00320708  1
  Te  Te187  1  0.67148962  0.83250447  0.33350261  1
  Te  Te188  1  0.67136928  0.83272732  0.66037147  1
  Te  Te189  1  0.00400316  -0.00011430  0.17258753  1
  Te  Te190  1  -0.00113769  -0.00246743  0.49664590  1
  Te  Te191  1  -0.00698962  0.00081069  0.83367599  1
  Te  Te192  1  -0.00178220  0.32703936  0.16784267  1
  Te  Te193  1  0.00678539  0.33201897  0.50004649  1
  Te  Te194  1  0.00039682  0.33227495  0.83415927  1
  Te  Te195  1  -0.00101980  0.66921735  0.16836605  1
  Te  Te196  1  0.00075223  0.67155065  0.49722488  1
  Te  Te197  1  -0.00053410  0.66606692  0.82621512  1
  Te  Te198  1  0.32583378  -0.00668783  0.16782599  1
  Te  Te199  1  0.33178165  -0.00042801  0.50144740  1
  Te  Te200  1  0.33365522  -0.00043979  0.82388309  1
  Te  Te201  1  0.32456283  0.33209371  0.16904778  1
  Te  Te202  1  0.32936899  0.33115586  0.49988893  1
  Te  Te203  1  0.34529015  0.33298237  0.83422694  1
  Te  Te204  1  0.33229669  0.67226699  0.17103623  1
  Te  Te205  1  0.33072006  0.66830001  0.49735981  1
  Te  Te206  1  0.33354460  0.66664272  0.82096765  1
  Te  Te207  1  0.66480576  0.00075896  0.16698227  1
  Te  Te208  1  0.66774718  -0.00334025  0.50031581  1
  Te  Te209  1  0.67122040  -0.00471386  0.83102766  1
  Te  Te210  1  0.67016650  0.33031135  0.16902832  1
  Te  Te211  1  0.66553491  0.33453807  0.49682811  1
  Te  Te212  1  0.66321939  0.33435040  0.84031732  1
  Te  Te213  1  0.66987898  0.67323487  0.16263234  1
  Te  Te214  1  0.66179527  0.66995500  0.49973648  1
  Te  Te215  1  0.66615922  0.66721604  0.83653009  1
