# generated using pymatgen
data_AgSbTe2
_symmetry_space_group_name_H-M   'P 1'
_cell_length_a   18.33915143
_cell_length_b   18.33211030
_cell_length_c   18.32740010
_cell_angle_alpha   90.00061209
_cell_angle_beta   90.00119867
_cell_angle_gamma   90.00012254
_symmetry_Int_Tables_number   1
_chemical_formula_structural   AgSbTe2
_chemical_formula_sum   'Ag54 Sb54 Te108'
_cell_volume   6161.58662972
_cell_formula_units_Z   54
loop_
 _symmetry_equiv_pos_site_id
 _symmetry_equiv_pos_as_xyz
  1  'x, y, z'
loop_
 _atom_site_type_symbol
 _atom_site_label
 _atom_site_symmetry_multiplicity
 _atom_site_fract_x
 _atom_site_fract_y
 _atom_site_fract_z
 _atom_site_occupancy
  Ag  Ag0  1  0.16473888  0.49727626  -0.00663851  1
  Ag  Ag1  1  0.83294623  0.66383629  0.49620924  1
  Ag  Ag2  1  0.00075746  0.00166947  0.66500278  1
  Ag  Ag3  1  0.49668360  0.16169951  0.34009643  1
  Ag  Ag4  1  -0.00209000  0.33637803  0.00267484  1
  Ag  Ag5  1  0.83244549  0.33270245  0.49701705  1
  Ag  Ag6  1  0.82557424  -0.00397582  0.83031470  1
  Ag  Ag7  1  0.00123774  0.00228785  0.33468235  1
  Ag  Ag8  1  0.83090999  0.16384586  0.34010936  1
  Ag  Ag9  1  0.49993515  0.67078838  0.83449555  1
  Ag  Ag10  1  0.49646366  0.49709074  0.66485061  1
  Ag  Ag11  1  0.50097009  0.84340730  0.32827158  1
  Ag  Ag12  1  0.49967225  0.15792445  -0.00048426  1
  Ag  Ag13  1  0.49601709  0.16407150  0.65899049  1
  Ag  Ag14  1  0.33602431  0.48899379  0.50343080  1
  Ag  Ag15  1  0.50109089  -0.00619539  0.83545596  1
  Ag  Ag16  1  0.01056920  0.49808515  0.83579210  1
  Ag  Ag17  1  0.33509523  0.49933672  0.82844955  1
  Ag  Ag18  1  0.33865453  0.83924051  0.17025828  1
  Ag  Ag19  1  0.50217609  0.84000837  0.67160434  1
  Ag  Ag20  1  0.50160253  0.67529281  0.16849450  1
  Ag  Ag21  1  0.17367306  0.65951236  0.82862498  1
  Ag  Ag22  1  0.82767932  0.84158084  0.66645799  1
  Ag  Ag23  1  0.82664625  0.49822539  0.33493144  1
  Ag  Ag24  1  0.33958877  -0.00031629  0.00851467  1
  Ag  Ag25  1  0.33837225  0.00664806  0.66516366  1
  Ag  Ag26  1  0.50421460  0.49869191  0.33714186  1
  Ag  Ag27  1  0.50315996  0.83893435  0.00157703  1
  Ag  Ag28  1  0.65530948  -0.00391489  0.33159296  1
  Ag  Ag29  1  0.66491398  0.49991465  0.16769142  1
  Ag  Ag30  1  0.65839243  0.16859821  0.49776689  1
  Ag  Ag31  1  0.17617161  0.16105777  0.33896580  1
  Ag  Ag32  1  0.66461549  0.67224745  0.33409718  1
  Ag  Ag33  1  0.16772502  0.33925155  0.82929897  1
  Ag  Ag34  1  0.82700035  0.83261199  -0.00108855  1
  Ag  Ag35  1  0.17923180  0.16638865  0.65740777  1
  Ag  Ag36  1  0.66782713  0.33752066  -0.00263568  1
  Ag  Ag37  1  0.00219575  0.83586739  0.17029577  1
  Ag  Ag38  1  0.66135741  0.83183740  0.83426575  1
  Ag  Ag39  1  0.49556693  -0.00497835  0.17145215  1
  Ag  Ag40  1  0.66238403  0.50422339  0.83846686  1
  Ag  Ag41  1  0.83175992  0.16134234  0.65839920  1
  Ag  Ag42  1  0.33814083  0.17397001  0.49987654  1
  Ag  Ag43  1  0.17994287  0.33384102  0.50110294  1
  Ag  Ag44  1  0.16784189  0.66040831  0.50073339  1
  Ag  Ag45  1  0.83172046  0.50015540  -0.00085038  1
  Ag  Ag46  1  0.82916948  0.83897911  0.33473108  1
  Ag  Ag47  1  0.00223109  0.32700678  0.33325709  1
  Ag  Ag48  1  0.33192105  0.32432623  0.34200936  1
  Ag  Ag49  1  0.49219849  0.33116586  0.49872609  1
  Ag  Ag50  1  0.33769276  0.00284701  0.33310855  1
  Ag  Ag51  1  0.17717324  -0.00279567  0.17237512  1
  Ag  Ag52  1  0.33393518  0.32672866  0.65425714  1
  Ag  Ag53  1  0.16922396  0.84420421  0.33200567  1
  Sb  Sb54  1  0.00015136  0.67144821  0.66759401  1
  Sb  Sb55  1  0.66337769  0.16494373  0.82901207  1
  Sb  Sb56  1  0.66375800  0.00054748  0.66420168  1
  Sb  Sb57  1  0.65974051  0.00143676  0.00374470  1
  Sb  Sb58  1  0.66597557  0.83718413  0.49893670  1
  Sb  Sb59  1  0.82814798  0.16687030  -0.00005238  1
  Sb  Sb60  1  0.33478626  0.32967168  -0.00016334  1
  Sb  Sb61  1  0.16706272  0.32890518  0.17088573  1
  Sb  Sb62  1  0.17303669  0.49342635  0.67088200  1
  Sb  Sb63  1  0.50006937  0.33159493  0.17256315  1
  Sb  Sb64  1  0.82863039  0.66922995  0.82961298  1
  Sb  Sb65  1  -0.00058337  0.66249601  -0.00135194  1
  Sb  Sb66  1  0.16854632  0.83069665  0.00328492  1
  Sb  Sb67  1  0.16797326  0.49730620  0.33247696  1
  Sb  Sb68  1  0.50178199  0.50000610  -0.00121062  1
  Sb  Sb69  1  0.16891604  0.83985694  0.66083854  1
  Sb  Sb70  1  0.33530253  0.83586225  0.49622765  1
  Sb  Sb71  1  0.33459481  0.66578097  0.66626264  1
  Sb  Sb72  1  0.00357774  0.49724866  0.50255137  1
  Sb  Sb73  1  0.83077688  -0.00321244  0.16866039  1
  Sb  Sb74  1  0.83272456  0.33480018  0.17176048  1
  Sb  Sb75  1  0.33920256  0.66933055  0.33478814  1
  Sb  Sb76  1  0.66474537  0.66792360  0.66237358  1
  Sb  Sb77  1  0.17113076  -0.00001085  0.83405248  1
  Sb  Sb78  1  0.82846475  0.49873168  0.66592812  1
  Sb  Sb79  1  0.00261151  0.00331052  0.00143945  1
  Sb  Sb80  1  0.66101881  0.33241498  0.66837721  1
  Sb  Sb81  1  0.66560083  0.33245769  0.33366519  1
  Sb  Sb82  1  0.33582587  0.67083295  -0.00147544  1
  Sb  Sb83  1  -0.00312183  0.50389150  0.16473944  1
  Sb  Sb84  1  0.16870112  0.00554490  0.49271666  1
  Sb  Sb85  1  -0.00475123  0.66827622  0.33344182  1
  Sb  Sb86  1  0.00536923  0.32769927  0.66403577  1
  Sb  Sb87  1  -0.00019361  0.16977781  0.83223151  1
  Sb  Sb88  1  0.00038795  0.16174947  0.17172409  1
  Sb  Sb89  1  0.66339803  0.16975662  0.17309558  1
  Sb  Sb90  1  -0.00433988  0.83065629  0.83653655  1
  Sb  Sb91  1  0.83316452  0.00287686  0.50076383  1
  Sb  Sb92  1  0.83547098  0.33217722  0.83002566  1
  Sb  Sb93  1  -0.00098822  0.83392601  0.49491170  1
  Sb  Sb94  1  0.49572707  0.33463764  0.82865573  1
  Sb  Sb95  1  0.33510120  0.16997593  0.82470548  1
  Sb  Sb96  1  0.66184285  0.83042005  0.16637507  1
  Sb  Sb97  1  0.17312447  0.16990001  0.00038334  1
  Sb  Sb98  1  0.49936490  0.66109999  0.49907150  1
  Sb  Sb99  1  0.17186534  0.67134498  0.16873869  1
  Sb  Sb100  1  0.66530090  0.66491249  0.00277572  1
  Sb  Sb101  1  0.66252754  0.49553304  0.49799864  1
  Sb  Sb102  1  0.33829755  0.50432918  0.16790850  1
  Sb  Sb103  1  0.34023230  0.83252994  0.83474620  1
  Sb  Sb104  1  0.49923978  0.00667399  0.49875119  1
  Sb  Sb105  1  0.82666485  0.66767588  0.17162158  1
  Sb  Sb106  1  0.33552459  0.15993483  0.17702806  1
  Sb  Sb107  1  0.00229608  0.16823633  0.49838921  1
  Te  Te108  1  0.16679707  0.16006368  0.17223413  1
  Te  Te109  1  0.16886618  0.17173263  0.49856785  1
  Te  Te110  1  0.16697189  0.17052767  0.83028613  1
  Te  Te111  1  0.16644633  0.50215077  0.15919024  1
  Te  Te112  1  0.17083030  0.49698931  0.50109310  1
  Te  Te113  1  0.16899543  0.49977891  0.83218452  1
  Te  Te114  1  0.16938523  0.83544633  0.17080980  1
  Te  Te115  1  0.16723089  0.82630746  0.49300705  1
  Te  Te116  1  0.16601869  0.82763957  0.83239357  1
  Te  Te117  1  0.50039750  0.16164040  0.16477514  1
  Te  Te118  1  0.49945514  0.17002735  0.49950703  1
  Te  Te119  1  0.50051587  0.16295588  0.83326514  1
  Te  Te120  1  0.50293414  0.50154703  0.16962417  1
  Te  Te121  1  0.49734135  0.49549431  0.49995340  1
  Te  Te122  1  0.49992421  0.50114864  0.83337500  1
  Te  Te123  1  0.50115690  0.83423892  0.16820041  1
  Te  Te124  1  0.50133378  0.82943265  0.50138721  1
  Te  Te125  1  0.50100394  0.83292108  0.83240912  1
  Te  Te126  1  0.83218159  0.16565204  0.17450717  1
  Te  Te127  1  0.83527634  0.16811447  0.49852126  1
  Te  Te128  1  0.83173318  0.15983580  0.83051712  1
  Te  Te129  1  0.82938833  0.50133360  0.16479254  1
  Te  Te130  1  0.83303662  0.50003519  0.49856250  1
  Te  Te131  1  0.82499332  0.50084889  0.83480555  1
  Te  Te132  1  0.83332211  0.83239040  0.16766672  1
  Te  Te133  1  0.83201471  0.82909416  0.49851481  1
  Te  Te134  1  0.83044307  0.83436383  0.83268366  1
  Te  Te135  1  0.17228652  0.00023500  0.00508750  1
  Te  Te136  1  0.16388879  0.00087640  0.33251160  1
  Te  Te137  1  0.16637663  0.00544000  0.66701959  1
  Te  Te138  1  0.16522684  0.33538994  -0.00057241  1
  Te  Te139  1  0.16556080  0.33216827  0.33643826  1
  Te  Te140  1  0.16920652  0.32765332  0.66454605  1
  Te  Te141  1  0.16763531  0.66145413  -0.00402097  1
  Te  Te142  1  0.16583257  0.66662155  0.33682735  1
  Te  Te143  1  0.16656158  0.67042630  0.66583911  1
  Te  Te144  1  0.49927973  -0.00213226  -0.00269335  1
  Te  Te145  1  0.49761971  0.00112371  0.33432435  1
  Te  Te146  1  0.49958832  0.00129381  0.66729203  1
  Te  Te147  1  0.50267861  0.33044856  0.00025190  1
  Te  Te148  1  0.49870586  0.33410603  0.33608896  1
  Te  Te149  1  0.49519072  0.33164866  0.66317932  1
  Te  Te150  1  0.50048684  0.67236607  -0.00160591  1
  Te  Te151  1  0.50393980  0.66256847  0.33379770  1
  Te  Te152  1  0.50034938  0.66739033  0.66983100  1
  Te  Te153  1  0.83287997  -0.00277518  -0.00362751  1
  Te  Te154  1  0.84128359  -0.00167139  0.33285640  1
  Te  Te155  1  0.82935824  -0.00042504  0.66787443  1
  Te  Te156  1  0.83388885  0.33454612  -0.00154105  1
  Te  Te157  1  0.83330329  0.33384355  0.33547580  1
  Te  Te158  1  0.83525274  0.32924443  0.66167189  1
  Te  Te159  1  0.83253461  0.66836757  -0.00086428  1
  Te  Te160  1  0.82953256  0.66524822  0.33603345  1
  Te  Te161  1  0.83301498  0.67077111  0.65988925  1
  Te  Te162  1  -0.00061333  0.17435607  0.00141813  1
  Te  Te163  1  -0.00405608  0.16612055  0.33234907  1
  Te  Te164  1  -0.00801415  0.16055702  0.66740969  1
  Te  Te165  1  -0.00451901  0.49641955  -0.00187523  1
  Te  Te166  1  -0.00510801  0.49645955  0.33300560  1
  Te  Te167  1  -0.00160521  0.49965210  0.67443795  1
  Te  Te168  1  -0.00260515  0.83449879  0.00544140  1
  Te  Te169  1  -0.00283930  0.83509013  0.33057051  1
  Te  Te170  1  -0.00356773  0.84097698  0.66777752  1
  Te  Te171  1  0.33856144  0.16105976  -0.00187084  1
  Te  Te172  1  0.33488744  0.16492573  0.33796471  1
  Te  Te173  1  0.33538960  0.16723951  0.66279430  1
  Te  Te174  1  0.33086526  0.49870402  -0.00180183  1
  Te  Te175  1  0.33623344  0.49854486  0.33443426  1
  Te  Te176  1  0.33717375  0.49952284  0.66716228  1
  Te  Te177  1  0.33669501  0.83905032  0.00360278  1
  Te  Te178  1  0.33670391  0.83644401  0.33189053  1
  Te  Te179  1  0.33833441  0.84017561  0.66558247  1
  Te  Te180  1  0.66265494  0.17256678  0.00012264  1
  Te  Te181  1  0.66605352  0.16611349  0.33665038  1
  Te  Te182  1  0.66745617  0.16693316  0.66101871  1
  Te  Te183  1  0.66845171  0.49934679  -0.00004853  1
  Te  Te184  1  0.66676907  0.49857428  0.33342302  1
  Te  Te185  1  0.65898557  0.50024646  0.67205574  1
  Te  Te186  1  0.66650359  0.83386454  -0.00287954  1
  Te  Te187  1  0.66580796  0.83453902  0.33305993  1
  Te  Te188  1  0.66591290  0.83430787  0.66932209  1
  Te  Te189  1  0.00040495  -0.00487260  0.16960443  1
  Te  Te190  1  0.00116909  -0.00075163  0.50101784  1
  Te  Te191  1  -0.00032970  -0.00053764  0.83150916  1
  Te  Te192  1  0.00051444  0.33484872  0.16823926  1
  Te  Te193  1  -0.00711235  0.33499859  0.49493175  1
  Te  Te194  1  0.00351963  0.33755647  0.83450315  1
  Te  Te195  1  0.00202801  0.67505713  0.16591048  1
  Te  Te196  1  0.00173616  0.66476287  0.50114372  1
  Te  Te197  1  0.00391293  0.65998366  0.83278142  1
  Te  Te198  1  0.33563262  -0.00159750  0.17005721  1
  Te  Te199  1  0.33257495  0.00397874  0.50094908  1
  Te  Te200  1  0.33774490  0.00013350  0.82877943  1
  Te  Te201  1  0.33244541  0.33465169  0.17319168  1
  Te  Te202  1  0.33556892  0.33288163  0.49840700  1
  Te  Te203  1  0.32825548  0.33894583  0.83344152  1
  Te  Te204  1  0.34032454  0.67479487  0.16644779  1
  Te  Te205  1  0.32877747  0.66066332  0.50048041  1
  Te  Te206  1  0.33510007  0.66140183  0.83252032  1
  Te  Te207  1  0.66035664  0.00098496  0.17245427  1
  Te  Te208  1  0.66739818  0.00673425  0.48927839  1
  Te  Te209  1  0.66443580  -0.00347344  0.83474060  1
  Te  Te210  1  0.66617743  0.33991848  0.15919635  1
  Te  Te211  1  0.67229125  0.32860216  0.50094496  1
  Te  Te212  1  0.66683384  0.33660294  0.83673719  1
  Te  Te213  1  0.66035560  0.66094817  0.17289858  1
  Te  Te214  1  0.67046490  0.66529651  0.49380813  1
  Te  Te215  1  0.66184388  0.66878426  0.83222702  1
