# generated using pymatgen
data_AgSbTe2
_symmetry_space_group_name_H-M   'P 1'
_cell_length_a   18.31378744
_cell_length_b   18.31446336
_cell_length_c   18.31267091
_cell_angle_alpha   90.00187789
_cell_angle_beta   90.00074915
_cell_angle_gamma   89.99882852
_symmetry_Int_Tables_number   1
_chemical_formula_structural   AgSbTe2
_chemical_formula_sum   'Ag54 Sb54 Te108'
_cell_volume   6142.20147192
_cell_formula_units_Z   54
loop_
 _symmetry_equiv_pos_site_id
 _symmetry_equiv_pos_as_xyz
  1  'x, y, z'
loop_
 _atom_site_type_symbol
 _atom_site_label
 _atom_site_symmetry_multiplicity
 _atom_site_fract_x
 _atom_site_fract_y
 _atom_site_fract_z
 _atom_site_occupancy
  Ag  Ag0  1  0.16129427  0.49525194  0.33221760  1
  Ag  Ag1  1  -0.01241663  0.49635312  0.49737716  1
  Ag  Ag2  1  0.83167557  -0.00184199  0.16989652  1
  Ag  Ag3  1  0.82717212  0.17850888  0.33228814  1
  Ag  Ag4  1  0.50395711  0.16683143  0.32885746  1
  Ag  Ag5  1  -0.00026015  0.17174130  0.83553597  1
  Ag  Ag6  1  0.67038042  0.49274166  0.50345176  1
  Ag  Ag7  1  0.82900123  0.49998229  -0.00098755  1
  Ag  Ag8  1  0.66154078  0.17466800  0.49914540  1
  Ag  Ag9  1  0.82821993  0.33786244  0.48978008  1
  Ag  Ag10  1  0.67672438  0.33620635  0.33748004  1
  Ag  Ag11  1  0.50177065  0.67360268  0.16578673  1
  Ag  Ag12  1  0.50236308  0.66718378  0.49307475  1
  Ag  Ag13  1  0.66790572  0.33818234  0.66147201  1
  Ag  Ag14  1  -0.00803579  0.49453329  0.83239895  1
  Ag  Ag15  1  0.33658422  -0.00320322  0.00435370  1
  Ag  Ag16  1  0.17832955  0.83490942  0.66939752  1
  Ag  Ag17  1  0.82991032  0.33725176  0.17477014  1
  Ag  Ag18  1  0.65925872  0.83233744  0.16825792  1
  Ag  Ag19  1  0.83386305  0.49161894  0.33409844  1
  Ag  Ag20  1  0.33976256  -0.00320532  0.66874632  1
  Ag  Ag21  1  0.49940802  0.49983472  0.00045736  1
  Ag  Ag22  1  0.66278324  0.17203586  0.82791210  1
  Ag  Ag23  1  0.49792916  0.16178067  0.00322115  1
  Ag  Ag24  1  0.33642113  0.49345412  0.83825897  1
  Ag  Ag25  1  -0.01122272  0.33150393  0.33359560  1
  Ag  Ag26  1  0.34110143  0.16262213  0.50064506  1
  Ag  Ag27  1  0.17509406  -0.00558213  0.16477492  1
  Ag  Ag28  1  0.33548663  0.84039750  0.49675782  1
  Ag  Ag29  1  0.83117578  0.83284009  0.32933810  1
  Ag  Ag30  1  0.49769930  0.83595154  0.66937560  1
  Ag  Ag31  1  0.65953332  0.00007771  0.66751613  1
  Ag  Ag32  1  0.17311386  0.67085728  0.16563333  1
  Ag  Ag33  1  0.82971348  0.65849186  0.84060417  1
  Ag  Ag34  1  0.66796362  0.66114114  0.33331807  1
  Ag  Ag35  1  0.33757780  0.83687556  0.16244279  1
  Ag  Ag36  1  0.33834456  0.16706722  0.83555354  1
  Ag  Ag37  1  0.49513542  0.83663892  0.00550303  1
  Ag  Ag38  1  0.66522140  0.65982901  0.66265410  1
  Ag  Ag39  1  0.82770850  0.49972667  0.66706093  1
  Ag  Ag40  1  0.49730207  0.00264959  0.84116737  1
  Ag  Ag41  1  0.16886647  0.33444842  0.83587387  1
  Ag  Ag42  1  0.00625105  0.00107788  0.00799855  1
  Ag  Ag43  1  0.17709985  0.83610662  0.00339607  1
  Ag  Ag44  1  -0.00105094  0.00683400  0.32659378  1
  Ag  Ag45  1  0.49505638  -0.00505137  0.16202578  1
  Ag  Ag46  1  0.33640186  0.67415468  0.00245721  1
  Ag  Ag47  1  0.16974244  0.33489466  0.16846579  1
  Ag  Ag48  1  0.67089492  0.49692206  0.82763181  1
  Ag  Ag49  1  0.16410088  0.33496757  0.49293452  1
  Ag  Ag50  1  0.82611671  0.66392051  0.16753363  1
  Ag  Ag51  1  0.33528291  0.33246147  0.00020454  1
  Ag  Ag52  1  0.49986556  0.33179172  0.16486738  1
  Ag  Ag53  1  0.33316591  0.00015659  0.32323044  1
  Sb  Sb54  1  0.66180832  0.83186290  0.49607346  1
  Sb  Sb55  1  0.49877035  0.32882094  0.83987040  1
  Sb  Sb56  1  0.82455331  0.65785961  0.49430369  1
  Sb  Sb57  1  0.50350904  0.49698898  0.32802888  1
  Sb  Sb58  1  0.17435701  0.16367913  0.00002747  1
  Sb  Sb59  1  0.16624692  0.66243527  0.83740741  1
  Sb  Sb60  1  0.16909809  0.16453895  0.66779281  1
  Sb  Sb61  1  0.50698944  0.50391811  0.67207349  1
  Sb  Sb62  1  0.33541072  0.83692769  0.83834575  1
  Sb  Sb63  1  0.65966789  0.00107313  -0.00069138  1
  Sb  Sb64  1  0.16882290  0.50116671  0.00333448  1
  Sb  Sb65  1  0.00113958  0.00089705  0.66703805  1
  Sb  Sb66  1  -0.00132869  0.16501773  0.16478427  1
  Sb  Sb67  1  0.33712197  0.16066103  0.16503536  1
  Sb  Sb68  1  0.66407318  0.16490492  0.17028797  1
  Sb  Sb69  1  0.16329848  0.50178697  0.66479028  1
  Sb  Sb70  1  0.82909179  -0.00071973  0.83852847  1
  Sb  Sb71  1  0.66556208  0.00248632  0.33398405  1
  Sb  Sb72  1  0.00092113  0.83421551  0.83513023  1
  Sb  Sb73  1  -0.00643033  0.66446265  0.66805731  1
  Sb  Sb74  1  0.33917742  0.67186203  0.67177098  1
  Sb  Sb75  1  -0.00429583  0.33500908  0.66322100  1
  Sb  Sb76  1  0.66190734  0.33561442  0.00336553  1
  Sb  Sb77  1  0.16627980  0.83161687  0.32849615  1
  Sb  Sb78  1  -0.00145538  0.17334817  0.50000815  1
  Sb  Sb79  1  0.33682144  0.49842038  0.50340584  1
  Sb  Sb80  1  0.17323313  0.66316816  0.49435048  1
  Sb  Sb81  1  0.17061495  0.00376157  0.49454803  1
  Sb  Sb82  1  0.83115209  0.83081142  0.00735882  1
  Sb  Sb83  1  0.83401728  0.33924030  0.83505235  1
  Sb  Sb84  1  0.50395869  0.33426471  0.49395161  1
  Sb  Sb85  1  0.50237755  0.83744282  0.32806437  1
  Sb  Sb86  1  0.33784480  0.32904891  0.67050238  1
  Sb  Sb87  1  0.33335743  0.32802031  0.32818283  1
  Sb  Sb88  1  0.82803117  0.17232434  0.66288464  1
  Sb  Sb89  1  0.83125859  0.00550667  0.49258768  1
  Sb  Sb90  1  0.17249573  0.00427205  0.83900673  1
  Sb  Sb91  1  0.50280937  0.66815100  0.83858062  1
  Sb  Sb92  1  0.33814588  0.67094590  0.32692578  1
  Sb  Sb93  1  0.16733438  0.17024064  0.33213522  1
  Sb  Sb94  1  0.49859984  -0.00204125  0.49874071  1
  Sb  Sb95  1  0.33401080  0.50287932  0.16164704  1
  Sb  Sb96  1  0.66194072  0.66442965  0.00343384  1
  Sb  Sb97  1  0.66856750  0.50339730  0.16895767  1
  Sb  Sb98  1  0.00102864  0.83638627  0.16757429  1
  Sb  Sb99  1  0.82831970  0.16980045  0.00389304  1
  Sb  Sb100  1  0.82710528  0.82765013  0.66268534  1
  Sb  Sb101  1  -0.00218441  0.49773384  0.16744848  1
  Sb  Sb102  1  0.00356046  0.33038150  0.00349126  1
  Sb  Sb103  1  -0.00656034  0.66118835  0.33171225  1
  Sb  Sb104  1  0.66457221  0.83157213  0.83594663  1
  Sb  Sb105  1  0.00499487  0.82918416  0.49682043  1
  Sb  Sb106  1  0.50173622  0.16153814  0.66866584  1
  Sb  Sb107  1  0.00230669  0.66826679  0.00129393  1
  Te  Te108  1  0.16647548  0.17104051  0.16646790  1
  Te  Te109  1  0.16985931  0.17394012  0.50033006  1
  Te  Te110  1  0.16872833  0.17255003  0.83366430  1
  Te  Te111  1  0.16614077  0.49765681  0.17069073  1
  Te  Te112  1  0.16853666  0.49531640  0.49684367  1
  Te  Te113  1  0.16611638  0.49532546  0.83317007  1
  Te  Te114  1  0.17016600  0.83369545  0.16417779  1
  Te  Te115  1  0.17351661  0.83193353  0.50202750  1
  Te  Te116  1  0.16602981  0.83241983  0.83432780  1
  Te  Te117  1  0.50066179  0.16727832  0.16546468  1
  Te  Te118  1  0.50045711  0.16658280  0.49640883  1
  Te  Te119  1  0.49987670  0.16332746  0.83474114  1
  Te  Te120  1  0.50110905  0.49922641  0.16039123  1
  Te  Te121  1  0.50567040  0.50580338  0.49938834  1
  Te  Te122  1  0.50053001  0.49977905  0.83938503  1
  Te  Te123  1  0.49875244  0.83407977  0.16641936  1
  Te  Te124  1  0.49515784  0.82985020  0.50048836  1
  Te  Te125  1  0.50116507  0.83884764  0.83399581  1
  Te  Te126  1  0.83118650  0.16643818  0.17107676  1
  Te  Te127  1  0.83022834  0.17324091  0.49522526  1
  Te  Te128  1  0.82910123  0.16680839  0.83418653  1
  Te  Te129  1  0.83297353  0.50069214  0.16808959  1
  Te  Te130  1  0.83077724  0.49814218  0.49752475  1
  Te  Te131  1  0.83162535  0.49969075  0.83480365  1
  Te  Te132  1  0.83229826  0.83227068  0.16879076  1
  Te  Te133  1  0.83500671  0.83251750  0.49339285  1
  Te  Te134  1  0.83375103  0.82542133  0.83315838  1
  Te  Te135  1  0.16863309  -0.00227170  0.00411989  1
  Te  Te136  1  0.16721380  0.00029719  0.32669532  1
  Te  Te137  1  0.16953453  -0.00533377  0.66663924  1
  Te  Te138  1  0.17093948  0.33297005  0.00150002  1
  Te  Te139  1  0.16879875  0.33585988  0.33141807  1
  Te  Te140  1  0.16749705  0.33365265  0.66895107  1
  Te  Te141  1  0.17067561  0.67093889  0.00512530  1
  Te  Te142  1  0.16615001  0.66153169  0.32656407  1
  Te  Te143  1  0.16795884  0.67273821  0.66600491  1
  Te  Te144  1  0.49830551  -0.00032819  0.00123969  1
  Te  Te145  1  0.49681960  0.00534822  0.32899080  1
  Te  Te146  1  0.49949220  -0.00372007  0.66532928  1
  Te  Te147  1  0.49608359  0.33489949  0.00458285  1
  Te  Te148  1  0.50117257  0.32894316  0.32615958  1
  Te  Te149  1  0.50669398  0.33424462  0.66627158  1
  Te  Te150  1  0.49636165  0.66681990  0.00443065  1
  Te  Te151  1  0.50539840  0.66575779  0.32880815  1
  Te  Te152  1  0.50537309  0.67168562  0.66769431  1
  Te  Te153  1  0.83577350  0.00028160  0.00726888  1
  Te  Te154  1  0.83375255  -0.00268215  0.32918340  1
  Te  Te155  1  0.83057397  -0.00233284  0.66756954  1
  Te  Te156  1  0.83456300  0.33831290  0.00848170  1
  Te  Te157  1  0.83342379  0.33403075  0.33134049  1
  Te  Te158  1  0.82818470  0.33914810  0.66384772  1
  Te  Te159  1  0.83399905  0.66292435  0.00392298  1
  Te  Te160  1  0.82923244  0.66758521  0.32852298  1
  Te  Te161  1  0.82622829  0.66247010  0.66736305  1
  Te  Te162  1  -0.00302650  0.16170306  -0.00624294  1
  Te  Te163  1  -0.00381055  0.16751617  0.33483257  1
  Te  Te164  1  -0.00115738  0.16641576  0.67524864  1
  Te  Te165  1  -0.00419775  0.49933204  -0.00623712  1
  Te  Te166  1  -0.00202467  0.49590247  0.33510015  1
  Te  Te167  1  -0.00556721  0.50045304  0.66767659  1
  Te  Te168  1  0.00335308  0.84023003  -0.00075075  1
  Te  Te169  1  -0.00519798  0.83890958  0.33480283  1
  Te  Te170  1  0.00426817  0.83334103  0.66561698  1
  Te  Te171  1  0.33844830  0.16630125  -0.00281268  1
  Te  Te172  1  0.33628633  0.16125713  0.33747551  1
  Te  Te173  1  0.33501266  0.16082726  0.66693597  1
  Te  Te174  1  0.33424299  0.49550693  -0.00343186  1
  Te  Te175  1  0.32965786  0.50150317  0.33578976  1
  Te  Te176  1  0.33315561  0.50067141  0.67447639  1
  Te  Te177  1  0.33469190  0.83510143  0.00100855  1
  Te  Te178  1  0.33324642  0.83847380  0.33410910  1
  Te  Te179  1  0.33627063  0.83615288  0.66858375  1
  Te  Te180  1  0.65981662  0.16845289  -0.00824930  1
  Te  Te181  1  0.66607336  0.16940063  0.33588411  1
  Te  Te182  1  0.66710432  0.16607981  0.66608916  1
  Te  Te183  1  0.66693328  0.49980542  -0.00614234  1
  Te  Te184  1  0.66816381  0.49941210  0.33591294  1
  Te  Te185  1  0.66785977  0.49997825  0.66626165  1
  Te  Te186  1  0.66151058  0.83281009  0.00645266  1
  Te  Te187  1  0.66983145  0.83118791  0.32952982  1
  Te  Te188  1  0.66215195  0.83596794  0.66575835  1
  Te  Te189  1  -0.00127608  0.00086145  0.16747847  1
  Te  Te190  1  0.00108847  0.00049038  0.49415379  1
  Te  Te191  1  -0.00094215  0.00477514  0.83609749  1
  Te  Te192  1  0.00270256  0.33160757  0.17171536  1
  Te  Te193  1  0.00228528  0.33708684  0.49631962  1
  Te  Te194  1  0.00262717  0.33299668  0.83358034  1
  Te  Te195  1  0.00115345  0.66714282  0.16670643  1
  Te  Te196  1  0.00335618  0.65813290  0.49998191  1
  Te  Te197  1  -0.00570860  0.66017106  0.83371810  1
  Te  Te198  1  0.33424223  -0.00181731  0.16577155  1
  Te  Te199  1  0.33272673  0.00083064  0.50290115  1
  Te  Te200  1  0.33614500  0.00369020  0.83393651  1
  Te  Te201  1  0.33447504  0.33376641  0.16163495  1
  Te  Te202  1  0.33139406  0.32861787  0.50128602  1
  Te  Te203  1  0.33204500  0.33119176  0.83557506  1
  Te  Te204  1  0.33470739  0.67007526  0.16293158  1
  Te  Te205  1  0.34117507  0.66866030  0.50016473  1
  Te  Te206  1  0.33294621  0.65967902  0.84046373  1
  Te  Te207  1  0.66710919  -0.00383054  0.16705468  1
  Te  Te208  1  0.66645956  0.00370612  0.50654218  1
  Te  Te209  1  0.66334896  0.00223615  0.82863690  1
  Te  Te210  1  0.66600503  0.33270409  0.17100494  1
  Te  Te211  1  0.66619104  0.33304385  0.49813408  1
  Te  Te212  1  0.66630503  0.33375722  0.83129195  1
  Te  Te213  1  0.66582672  0.66921062  0.16922854  1
  Te  Te214  1  0.66137870  0.66686310  0.49881006  1
  Te  Te215  1  0.67037233  0.66319499  0.83122988  1
