# generated using pymatgen
data_AgSbTe2
_symmetry_space_group_name_H-M   'P 1'
_cell_length_a   18.31683628
_cell_length_b   18.31491659
_cell_length_c   18.31576498
_cell_angle_alpha   89.99914993
_cell_angle_beta   90.00163296
_cell_angle_gamma   89.99867276
_symmetry_Int_Tables_number   1
_chemical_formula_structural   AgSbTe2
_chemical_formula_sum   'Ag54 Sb54 Te108'
_cell_volume   6144.41400909
_cell_formula_units_Z   54
loop_
 _symmetry_equiv_pos_site_id
 _symmetry_equiv_pos_as_xyz
  1  'x, y, z'
loop_
 _atom_site_type_symbol
 _atom_site_label
 _atom_site_symmetry_multiplicity
 _atom_site_fract_x
 _atom_site_fract_y
 _atom_site_fract_z
 _atom_site_occupancy
  Ag  Ag0  1  -0.00347305  0.66700570  0.66397180  1
  Ag  Ag1  1  0.82693932  0.50002764  -0.00038027  1
  Ag  Ag2  1  0.50756362  0.49487197  -0.00540799  1
  Ag  Ag3  1  0.33114727  0.66531327  0.33433587  1
  Ag  Ag4  1  -0.00290365  0.66928519  0.32882585  1
  Ag  Ag5  1  0.66522663  0.33337246  -0.00648265  1
  Ag  Ag6  1  0.50161879  0.82634902  0.66579899  1
  Ag  Ag7  1  0.49744660  0.00736163  0.50171488  1
  Ag  Ag8  1  -0.00121548  -0.00161842  0.33214121  1
  Ag  Ag9  1  0.34214123  0.33288750  0.66568782  1
  Ag  Ag10  1  0.66526992  0.16590703  0.50304703  1
  Ag  Ag11  1  0.51144601  0.17430047  -0.00256329  1
  Ag  Ag12  1  -0.01230107  0.16334186  0.83496237  1
  Ag  Ag13  1  0.83423710  0.83370304  0.32903446  1
  Ag  Ag14  1  0.66292449  0.49358196  0.83651781  1
  Ag  Ag15  1  -0.00397025  0.16240210  0.49857086  1
  Ag  Ag16  1  0.83467164  0.00424625  0.83544158  1
  Ag  Ag17  1  0.33125864  0.00420177  0.33897617  1
  Ag  Ag18  1  -0.00536798  0.83260046  0.49898222  1
  Ag  Ag19  1  -0.00267565  0.67192936  0.00874039  1
  Ag  Ag20  1  0.66088263  0.33842628  0.67391096  1
  Ag  Ag21  1  0.16742016  0.33890736  0.16724756  1
  Ag  Ag22  1  0.33976172  0.66183389  0.66183452  1
  Ag  Ag23  1  0.83441817  0.16239560  0.33280597  1
  Ag  Ag24  1  0.49886729  0.32765564  0.50877549  1
  Ag  Ag25  1  0.66670970  0.50179130  0.15909226  1
  Ag  Ag26  1  0.83570560  0.83073729  0.00431501  1
  Ag  Ag27  1  0.33286728  0.33260192  0.33651336  1
  Ag  Ag28  1  0.00078968  0.33046613  0.33240030  1
  Ag  Ag29  1  0.50445162  0.49877612  0.67352903  1
  Ag  Ag30  1  0.15300251  0.83362744  0.00173583  1
  Ag  Ag31  1  0.50979166  0.66256453  0.16762668  1
  Ag  Ag32  1  0.83022989  0.16946373  0.67312144  1
  Ag  Ag33  1  -0.00300565  0.50458952  0.16518286  1
  Ag  Ag34  1  0.33580567  0.50195617  0.16379728  1
  Ag  Ag35  1  0.66991832  0.66878000  0.33052390  1
  Ag  Ag36  1  0.66955206  0.83324302  0.49763681  1
  Ag  Ag37  1  0.82213371  0.49931836  0.67453546  1
  Ag  Ag38  1  0.66951993  0.17441185  0.83591828  1
  Ag  Ag39  1  0.83199322  0.16641957  -0.00292416  1
  Ag  Ag40  1  0.33955805  0.16676076  0.50449887  1
  Ag  Ag41  1  -0.00331792  0.83687869  0.84175283  1
  Ag  Ag42  1  0.16038402  0.66261439  0.17002729  1
  Ag  Ag43  1  0.15994290  0.16550133  0.00019327  1
  Ag  Ag44  1  0.50231065  0.33470527  0.82843812  1
  Ag  Ag45  1  0.83269498  0.66571706  0.16686927  1
  Ag  Ag46  1  0.66602700  0.65832423  0.66272875  1
  Ag  Ag47  1  0.66943601  0.81973313  0.17068848  1
  Ag  Ag48  1  -0.00344128  -0.00584336  0.00075335  1
  Ag  Ag49  1  0.34400018  0.49339595  0.83281326  1
  Ag  Ag50  1  0.33893411  0.17195115  0.82660913  1
  Ag  Ag51  1  0.33911955  0.01212268  0.66175226  1
  Ag  Ag52  1  0.66861831  0.17152587  0.15704188  1
  Ag  Ag53  1  0.16498089  0.66956807  0.49397491  1
  Sb  Sb54  1  0.33049712  0.83424689  0.83108159  1
  Sb  Sb55  1  0.50044182  0.50142690  0.33134783  1
  Sb  Sb56  1  -0.00465640  0.33196729  0.00263125  1
  Sb  Sb57  1  0.67069508  -0.00252371  0.33462290  1
  Sb  Sb58  1  0.32860356  0.00425331  -0.00124300  1
  Sb  Sb59  1  0.16237761  0.16723893  0.32969247  1
  Sb  Sb60  1  0.50084048  -0.00232283  0.17030341  1
  Sb  Sb61  1  0.83296477  0.50187554  0.32949381  1
  Sb  Sb62  1  0.50416233  0.16728930  0.33348433  1
  Sb  Sb63  1  0.16503437  -0.00226222  0.16541439  1
  Sb  Sb64  1  0.83374130  -0.00357516  0.16319402  1
  Sb  Sb65  1  0.83075052  0.00223822  0.50234841  1
  Sb  Sb66  1  0.49841127  0.33919768  0.16524788  1
  Sb  Sb67  1  0.82801008  0.32900138  0.50076373  1
  Sb  Sb68  1  0.33010974  0.66428597  0.00174485  1
  Sb  Sb69  1  -0.00664975  0.82486959  0.16522228  1
  Sb  Sb70  1  0.83065881  0.83227327  0.66680033  1
  Sb  Sb71  1  -0.00260239  0.33465457  0.66319210  1
  Sb  Sb72  1  0.66250933  0.00352223  0.66506465  1
  Sb  Sb73  1  0.16754283  0.83041268  0.66854377  1
  Sb  Sb74  1  0.83422673  0.33764619  0.16589475  1
  Sb  Sb75  1  0.16479973  0.66641525  0.83589062  1
  Sb  Sb76  1  0.82533804  0.32725941  0.83385526  1
  Sb  Sb77  1  0.50091376  0.65868679  0.83347995  1
  Sb  Sb78  1  0.67189048  0.65956178  0.00368933  1
  Sb  Sb79  1  0.16629231  0.16730408  0.66934471  1
  Sb  Sb80  1  0.15957824  0.82959119  0.32934888  1
  Sb  Sb81  1  -0.00535320  0.17090600  0.16625017  1
  Sb  Sb82  1  0.00126227  -0.00218322  0.66677812  1
  Sb  Sb83  1  0.33774607  0.82474838  0.16894908  1
  Sb  Sb84  1  0.33466492  0.83601597  0.50063639  1
  Sb  Sb85  1  0.50569663  0.83186659  0.33837845  1
  Sb  Sb86  1  0.50602615  0.83106735  -0.00236446  1
  Sb  Sb87  1  0.17329487  0.33079556  0.83896735  1
  Sb  Sb88  1  0.67313378  0.00742270  -0.00091217  1
  Sb  Sb89  1  0.83333670  0.66818085  0.83753456  1
  Sb  Sb90  1  0.16501957  0.49952432  0.00380071  1
  Sb  Sb91  1  0.49821908  0.66624430  0.50072183  1
  Sb  Sb92  1  -0.00482634  0.49898753  0.83731212  1
  Sb  Sb93  1  0.67165248  0.83205280  0.83224074  1
  Sb  Sb94  1  0.50451444  0.17337850  0.66821012  1
  Sb  Sb95  1  0.16185286  0.00139225  0.83432962  1
  Sb  Sb96  1  0.16745487  0.50181312  0.33038776  1
  Sb  Sb97  1  0.17106084  0.33503162  0.49571504  1
  Sb  Sb98  1  0.33676778  0.17230454  0.16767821  1
  Sb  Sb99  1  0.17010922  0.50177219  0.66863030  1
  Sb  Sb100  1  -0.00104002  0.50238176  0.49591171  1
  Sb  Sb101  1  0.16895520  -0.00263906  0.49913826  1
  Sb  Sb102  1  0.83551269  0.66833064  0.49594784  1
  Sb  Sb103  1  0.33897991  0.33406329  -0.00085410  1
  Sb  Sb104  1  0.33578326  0.49670052  0.50105955  1
  Sb  Sb105  1  0.66550221  0.49968768  0.50380723  1
  Sb  Sb106  1  0.66627805  0.33492339  0.33372906  1
  Sb  Sb107  1  0.50353911  0.00838479  0.82854714  1
  Te  Te108  1  0.16726542  0.16960129  0.16060492  1
  Te  Te109  1  0.16370812  0.16644778  0.49913923  1
  Te  Te110  1  0.17047110  0.16662867  0.83934896  1
  Te  Te111  1  0.16763897  0.50109253  0.16480694  1
  Te  Te112  1  0.16693227  0.50872599  0.50073559  1
  Te  Te113  1  0.17602676  0.49829732  0.83633993  1
  Te  Te114  1  0.16966618  0.82800932  0.15977950  1
  Te  Te115  1  0.16001873  0.82852113  0.49938196  1
  Te  Te116  1  0.15867523  0.83390631  0.84068084  1
  Te  Te117  1  0.50588612  0.16641666  0.16085340  1
  Te  Te118  1  0.49973288  0.16668963  0.49988590  1
  Te  Te119  1  0.50084903  0.17152489  0.83646825  1
  Te  Te120  1  0.50103810  0.50328064  0.16489591  1
  Te  Te121  1  0.50017609  0.49393680  0.50698730  1
  Te  Te122  1  0.50171910  0.49722402  0.83453142  1
  Te  Te123  1  0.50816275  0.82756094  0.16581990  1
  Te  Te124  1  0.50451900  0.83418203  0.50517345  1
  Te  Te125  1  0.50101095  0.83492158  0.82773771  1
  Te  Te126  1  0.82762006  0.16695015  0.16568266  1
  Te  Te127  1  0.83476821  0.16545524  0.49826279  1
  Te  Te128  1  0.83094468  0.16602758  0.83377889  1
  Te  Te129  1  0.83169747  0.50399313  0.16396747  1
  Te  Te130  1  0.83347861  0.49808176  0.50955604  1
  Te  Te131  1  0.82895508  0.50091785  0.83467942  1
  Te  Te132  1  0.82805041  0.83059313  0.16654098  1
  Te  Te133  1  0.83219652  0.83559849  0.49704576  1
  Te  Te134  1  0.83777733  0.83822411  0.83702100  1
  Te  Te135  1  0.15965326  0.00073827  0.00034760  1
  Te  Te136  1  0.16636061  -0.00166042  0.33262875  1
  Te  Te137  1  0.17901005  -0.00140829  0.66679451  1
  Te  Te138  1  0.16643011  0.32908234  0.00636173  1
  Te  Te139  1  0.16741927  0.33392390  0.32842458  1
  Te  Te140  1  0.17374078  0.33410184  0.66500781  1
  Te  Te141  1  0.16063331  0.66810078  0.00402656  1
  Te  Te142  1  0.16625966  0.66735560  0.33182598  1
  Te  Te143  1  0.16344201  0.66723584  0.66415958  1
  Te  Te144  1  0.49842962  0.00207249  0.00000672  1
  Te  Te145  1  0.49370926  -0.00062913  0.33883520  1
  Te  Te146  1  0.49633610  -0.00448912  0.66287327  1
  Te  Te147  1  0.50453475  0.33341280  -0.00084438  1
  Te  Te148  1  0.49501655  0.33362673  0.33781053  1
  Te  Te149  1  0.50020393  0.33467086  0.66753765  1
  Te  Te150  1  0.49921275  0.66419683  0.00594041  1
  Te  Te151  1  0.49967699  0.66731836  0.33003563  1
  Te  Te152  1  0.50074891  0.66357667  0.66672475  1
  Te  Te153  1  0.83813756  0.00225906  -0.00239904  1
  Te  Te154  1  0.83840433  -0.00015596  0.33367939  1
  Te  Te155  1  0.83380284  0.00552026  0.67276670  1
  Te  Te156  1  0.82735340  0.33422112  0.00074028  1
  Te  Te157  1  0.83788625  0.32960958  0.33344434  1
  Te  Te158  1  0.82989682  0.33297854  0.66642988  1
  Te  Te159  1  0.83733013  0.66733660  0.00322763  1
  Te  Te160  1  0.83373813  0.66791300  0.32984574  1
  Te  Te161  1  0.83261859  0.66514981  0.66647543  1
  Te  Te162  1  -0.00427959  0.16667575  -0.00178973  1
  Te  Te163  1  -0.00347718  0.16607767  0.33408235  1
  Te  Te164  1  -0.00340047  0.16713319  0.66642076  1
  Te  Te165  1  -0.00591186  0.50265222  0.00271686  1
  Te  Te166  1  -0.00169105  0.50193232  0.32816767  1
  Te  Te167  1  -0.00265960  0.50443140  0.66796558  1
  Te  Te168  1  -0.00367354  0.83357080  0.00110615  1
  Te  Te169  1  -0.00483670  0.83222032  0.33478652  1
  Te  Te170  1  -0.00074588  0.82967619  0.66220355  1
  Te  Te171  1  0.33222638  0.16647349  -0.00163642  1
  Te  Te172  1  0.33305214  0.16797487  0.33610183  1
  Te  Te173  1  0.33277613  0.17006053  0.66574012  1
  Te  Te174  1  0.33755337  0.50006881  -0.00054225  1
  Te  Te175  1  0.33457574  0.50201167  0.32980593  1
  Te  Te176  1  0.33600330  0.50033717  0.66850979  1
  Te  Te177  1  0.33256761  0.83501094  -0.00081602  1
  Te  Te178  1  0.33302100  0.82992672  0.33420285  1
  Te  Te179  1  0.33650153  0.82366146  0.66725693  1
  Te  Te180  1  0.66923773  0.16941776  -0.00203764  1
  Te  Te181  1  0.67248317  0.16648017  0.33899472  1
  Te  Te182  1  0.66974765  0.16942747  0.66375041  1
  Te  Te183  1  0.66720376  0.49956834  -0.00107922  1
  Te  Te184  1  0.66756267  0.50590922  0.32847301  1
  Te  Te185  1  0.66569404  0.49932850  0.66615259  1
  Te  Te186  1  0.67252220  0.83370948  0.00257365  1
  Te  Te187  1  0.67158179  0.83070364  0.33408302  1
  Te  Te188  1  0.66403792  0.83104204  0.66398961  1
  Te  Te189  1  0.00044851  0.00106951  0.16981024  1
  Te  Te190  1  0.00059267  0.00049255  0.49777301  1
  Te  Te191  1  -0.00339652  0.00205541  0.83370154  1
  Te  Te192  1  0.00370340  0.33906585  0.17043064  1
  Te  Te193  1  0.00251680  0.32965047  0.49398816  1
  Te  Te194  1  0.00452211  0.32751873  0.83117014  1
  Te  Te195  1  -0.00107846  0.66490961  0.16777389  1
  Te  Te196  1  0.00169866  0.66768085  0.49833882  1
  Te  Te197  1  -0.00020459  0.66723352  0.82909297  1
  Te  Te198  1  0.33369702  -0.00013976  0.17410255  1
  Te  Te199  1  0.33575737  0.00263269  0.49931464  1
  Te  Te200  1  0.33443849  0.00359400  0.82867127  1
  Te  Te201  1  0.33060241  0.33915072  0.17085104  1
  Te  Te202  1  0.33483024  0.32927114  0.49842598  1
  Te  Te203  1  0.33874136  0.33256250  0.83150152  1
  Te  Te204  1  0.33063412  0.66147152  0.16921042  1
  Te  Te205  1  0.33035528  0.66745677  0.49825226  1
  Te  Te206  1  0.33270998  0.66456340  0.82863541  1
  Te  Te207  1  0.66553880  0.00654186  0.16743889  1
  Te  Te208  1  0.66085949  0.00087926  0.49922144  1
  Te  Te209  1  0.67204815  0.00453031  0.83249774  1
  Te  Te210  1  0.66619065  0.33447586  0.16615058  1
  Te  Te211  1  0.66103479  0.32915886  0.50065240  1
  Te  Te212  1  0.66367831  0.33364965  0.83298524  1
  Te  Te213  1  0.66860042  0.66358137  0.16683468  1
  Te  Te214  1  0.66650086  0.66976449  0.49833207  1
  Te  Te215  1  0.66666439  0.66314928  0.82462581  1
