# generated using pymatgen
data_AgSbTe2
_symmetry_space_group_name_H-M   'P 1'
_cell_length_a   18.32245156
_cell_length_b   18.31881841
_cell_length_c   18.32472983
_cell_angle_alpha   89.99650138
_cell_angle_beta   89.99873237
_cell_angle_gamma   90.00157973
_symmetry_Int_Tables_number   1
_chemical_formula_structural   AgSbTe2
_chemical_formula_sum   'Ag54 Sb54 Te108'
_cell_volume   6150.61607593
_cell_formula_units_Z   54
loop_
 _symmetry_equiv_pos_site_id
 _symmetry_equiv_pos_as_xyz
  1  'x, y, z'
loop_
 _atom_site_type_symbol
 _atom_site_label
 _atom_site_symmetry_multiplicity
 _atom_site_fract_x
 _atom_site_fract_y
 _atom_site_fract_z
 _atom_site_occupancy
  Ag  Ag0  1  0.66660532  0.00168398  -0.00138223  1
  Ag  Ag1  1  0.49504024  0.66758556  0.17608816  1
  Ag  Ag2  1  0.00412618  0.32960988  -0.00214404  1
  Ag  Ag3  1  0.00055970  0.83407947  0.83107062  1
  Ag  Ag4  1  0.34181705  0.50565472  0.17028241  1
  Ag  Ag5  1  0.67102887  0.82882046  0.50429169  1
  Ag  Ag6  1  -0.01075550  0.50710960  0.49821886  1
  Ag  Ag7  1  0.32921068  0.82998872  0.49312702  1
  Ag  Ag8  1  0.00369298  0.82775388  0.49437614  1
  Ag  Ag9  1  -0.00377303  0.16962779  0.83928083  1
  Ag  Ag10  1  0.66282268  0.66624064  0.66411852  1
  Ag  Ag11  1  0.83339109  0.33346728  0.82977460  1
  Ag  Ag12  1  0.33576094  0.16484804  0.49725532  1
  Ag  Ag13  1  0.16759069  0.83407884  0.00708154  1
  Ag  Ag14  1  0.66580458  0.33841840  0.33194028  1
  Ag  Ag15  1  0.00340673  0.67567357  0.33486319  1
  Ag  Ag16  1  0.83096721  0.82903864  0.66309118  1
  Ag  Ag17  1  0.66811929  -0.00958103  0.66618271  1
  Ag  Ag18  1  0.49868546  0.66741286  0.49556106  1
  Ag  Ag19  1  0.33408661  0.33268720  0.00881604  1
  Ag  Ag20  1  0.33851690  0.33294927  0.32974726  1
  Ag  Ag21  1  0.83058099  0.33919755  0.49948150  1
  Ag  Ag22  1  0.50508537  0.50485628  0.33225364  1
  Ag  Ag23  1  0.83169299  -0.00103216  0.17469039  1
  Ag  Ag24  1  0.67151030  0.83198629  0.82325778  1
  Ag  Ag25  1  0.16380258  0.83054492  0.33310236  1
  Ag  Ag26  1  0.16125056  0.82765837  0.66024297  1
  Ag  Ag27  1  0.67314598  0.17170095  0.83093343  1
  Ag  Ag28  1  0.15886891  0.33646203  0.83701709  1
  Ag  Ag29  1  0.66637615  0.33086973  0.00325599  1
  Ag  Ag30  1  -0.00198971  -0.00637209  0.33141874  1
  Ag  Ag31  1  0.83037599  0.00048783  0.49542196  1
  Ag  Ag32  1  0.82874386  0.50430689  0.65896419  1
  Ag  Ag33  1  0.16314425  0.16777151  0.00413042  1
  Ag  Ag34  1  0.00133306  0.16228113  0.16800942  1
  Ag  Ag35  1  0.66911699  0.16915685  0.50044222  1
  Ag  Ag36  1  0.32963359  0.82799702  0.17376905  1
  Ag  Ag37  1  0.49809315  0.83360714  0.01115536  1
  Ag  Ag38  1  0.16495623  0.66731572  0.82002704  1
  Ag  Ag39  1  0.51210938  0.50476270  0.65612327  1
  Ag  Ag40  1  0.83624474  0.16994716  0.33572802  1
  Ag  Ag41  1  0.00649712  0.83633840  0.17712069  1
  Ag  Ag42  1  0.50073706  0.34068270  0.16939152  1
  Ag  Ag43  1  0.33111264  0.66631718  0.66218953  1
  Ag  Ag44  1  0.17265956  0.67152000  0.17142959  1
  Ag  Ag45  1  0.17002453  0.66959109  0.50178443  1
  Ag  Ag46  1  0.50597739  -0.01149266  0.16837820  1
  Ag  Ag47  1  0.66060625  0.49794058  0.18010528  1
  Ag  Ag48  1  0.67160408  0.50133540  0.50034440  1
  Ag  Ag49  1  0.16563116  0.51030690  0.66501792  1
  Ag  Ag50  1  0.66852334  0.49997310  0.82518145  1
  Ag  Ag51  1  0.49537661  0.82543550  0.32965997  1
  Ag  Ag52  1  0.15957785  0.16467510  0.33025687  1
  Ag  Ag53  1  0.82331809  0.49400567  0.34091910  1
  Sb  Sb54  1  0.32859413  0.16635992  0.17144196  1
  Sb  Sb55  1  0.66789829  0.33946574  0.66536723  1
  Sb  Sb56  1  0.33082089  0.83094387  0.83371456  1
  Sb  Sb57  1  0.66470070  0.83000456  0.16970838  1
  Sb  Sb58  1  0.67191298  0.00232047  0.33375776  1
  Sb  Sb59  1  0.83187913  0.66998224  0.17107353  1
  Sb  Sb60  1  0.16713521  0.49964808  -0.00312951  1
  Sb  Sb61  1  0.33017024  0.00025164  0.33274323  1
  Sb  Sb62  1  0.16474359  -0.00629274  0.16776332  1
  Sb  Sb63  1  0.50726543  -0.00867707  0.49384060  1
  Sb  Sb64  1  0.83378613  0.83646090  -0.00295097  1
  Sb  Sb65  1  0.83276659  0.66520161  0.50030550  1
  Sb  Sb66  1  0.50563410  0.34030337  0.49337488  1
  Sb  Sb67  1  0.83675219  0.66422698  0.82936002  1
  Sb  Sb68  1  -0.00297350  0.16553152  0.49619466  1
  Sb  Sb69  1  0.33136715  0.66688068  0.33575957  1
  Sb  Sb70  1  0.50599668  0.33624884  0.83956106  1
  Sb  Sb71  1  0.16264641  -0.00333320  0.83410823  1
  Sb  Sb72  1  0.83035604  0.49592749  -0.00030123  1
  Sb  Sb73  1  0.49853222  0.66636806  0.83081317  1
  Sb  Sb74  1  0.16845858  0.50290409  0.33641406  1
  Sb  Sb75  1  0.16552136  0.16512112  0.66566778  1
  Sb  Sb76  1  0.82948836  0.33112020  0.16953778  1
  Sb  Sb77  1  0.66647441  0.66241150  0.33961236  1
  Sb  Sb78  1  0.49900060  0.16510926  0.00226808  1
  Sb  Sb79  1  -0.00146702  0.50155230  0.17326381  1
  Sb  Sb80  1  0.33640757  0.50014050  0.83536233  1
  Sb  Sb81  1  0.33214610  0.33999783  0.66315514  1
  Sb  Sb82  1  0.50449890  0.82677174  0.66182542  1
  Sb  Sb83  1  0.33239832  0.66500744  0.00147472  1
  Sb  Sb84  1  0.33945133  -0.00915426  0.66260813  1
  Sb  Sb85  1  0.33653673  0.00144010  0.00334647  1
  Sb  Sb86  1  -0.00634585  -0.00570420  0.66181709  1
  Sb  Sb87  1  0.50298000  0.17257957  0.66424446  1
  Sb  Sb88  1  0.50640900  -0.00354793  0.83724273  1
  Sb  Sb89  1  0.83176336  0.00379111  0.83028428  1
  Sb  Sb90  1  -0.00234320  0.33219810  0.33008136  1
  Sb  Sb91  1  -0.00238605  0.50124225  0.82781905  1
  Sb  Sb92  1  0.00260486  0.66793291  0.65931223  1
  Sb  Sb93  1  0.67033618  0.16916801  0.16869887  1
  Sb  Sb94  1  0.50190680  0.16742362  0.33346738  1
  Sb  Sb95  1  -0.00414810  0.00212986  0.00555430  1
  Sb  Sb96  1  0.66387959  0.66761101  -0.00368364  1
  Sb  Sb97  1  -0.00130598  0.33453812  0.67032963  1
  Sb  Sb98  1  0.00417807  0.66592314  0.00404174  1
  Sb  Sb99  1  0.83676216  0.16779657  0.00399728  1
  Sb  Sb100  1  0.83153744  0.16650450  0.66176920  1
  Sb  Sb101  1  0.83536622  0.83379586  0.33950522  1
  Sb  Sb102  1  0.16066955  -0.00826359  0.49801703  1
  Sb  Sb103  1  0.50204739  0.50317175  0.00793914  1
  Sb  Sb104  1  0.33590780  0.50353563  0.49559400  1
  Sb  Sb105  1  0.16994029  0.33666764  0.16405760  1
  Sb  Sb106  1  0.16371131  0.33764630  0.50127968  1
  Sb  Sb107  1  0.33104182  0.17112857  0.83064368  1
  Te  Te108  1  0.16286859  0.16679902  0.16740877  1
  Te  Te109  1  0.16756010  0.16791519  0.49717597  1
  Te  Te110  1  0.16342886  0.16971395  0.83414621  1
  Te  Te111  1  0.16832362  0.50797236  0.16621672  1
  Te  Te112  1  0.16701811  0.50424196  0.50457890  1
  Te  Te113  1  0.16598143  0.50154613  0.82931956  1
  Te  Te114  1  0.16660951  0.83281010  0.16915038  1
  Te  Te115  1  0.16551303  0.83151708  0.49689777  1
  Te  Te116  1  0.16523125  0.83089045  0.83413837  1
  Te  Te117  1  0.49813752  0.16794189  0.16709647  1
  Te  Te118  1  0.50290323  0.16642868  0.49919206  1
  Te  Te119  1  0.50836464  0.16735407  0.83296783  1
  Te  Te120  1  0.50067053  0.50151531  0.16952311  1
  Te  Te121  1  0.50197559  0.50504329  0.49646629  1
  Te  Te122  1  0.50596166  0.50078864  0.82936618  1
  Te  Te123  1  0.50288932  0.82986896  0.16977675  1
  Te  Te124  1  0.49852571  0.82838124  0.49576883  1
  Te  Te125  1  0.50383333  0.83175728  0.83843103  1
  Te  Te126  1  0.83839593  0.16333846  0.17265634  1
  Te  Te127  1  0.83101325  0.16669519  0.49632367  1
  Te  Te128  1  0.83321432  0.17082624  0.83212316  1
  Te  Te129  1  0.82816979  0.50048210  0.17164673  1
  Te  Te130  1  0.83264586  0.50066175  0.49962301  1
  Te  Te131  1  0.83013830  0.49629427  0.82970546  1
  Te  Te132  1  0.83709386  0.83798349  0.16637885  1
  Te  Te133  1  0.83186473  0.83374461  0.50297464  1
  Te  Te134  1  0.83294197  0.83356241  0.82913750  1
  Te  Te135  1  0.16688546  0.00032678  0.00009337  1
  Te  Te136  1  0.16075541  0.00224958  0.33325530  1
  Te  Te137  1  0.16884464  -0.00896311  0.66615353  1
  Te  Te138  1  0.16621373  0.33265146  -0.00267104  1
  Te  Te139  1  0.16937795  0.33009912  0.33281225  1
  Te  Te140  1  0.16688635  0.33553617  0.67275363  1
  Te  Te141  1  0.16742858  0.67181381  0.00601927  1
  Te  Te142  1  0.16509619  0.66912473  0.33452850  1
  Te  Te143  1  0.16569231  0.66973543  0.66335777  1
  Te  Te144  1  0.50413030  -0.00379536  0.00562063  1
  Te  Te145  1  0.50040558  -0.00377234  0.32703664  1
  Te  Te146  1  0.50824277  0.00058647  0.66556685  1
  Te  Te147  1  0.50086807  0.33304302  0.00674537  1
  Te  Te148  1  0.50187025  0.33426805  0.32910922  1
  Te  Te149  1  0.49708964  0.34415080  0.66698062  1
  Te  Te150  1  0.49845308  0.67361566  0.00370554  1
  Te  Te151  1  0.50029049  0.66594088  0.33497585  1
  Te  Te152  1  0.50027323  0.66241561  0.66453843  1
  Te  Te153  1  0.82624782  0.00155797  0.00610248  1
  Te  Te154  1  0.83652272  0.00164424  0.33430259  1
  Te  Te155  1  0.82717466  -0.00408529  0.66131556  1
  Te  Te156  1  0.82707555  0.33217280  -0.00483225  1
  Te  Te157  1  0.83092796  0.33361765  0.33613326  1
  Te  Te158  1  0.83347464  0.33721592  0.66494595  1
  Te  Te159  1  0.83414984  0.66588472  0.00042319  1
  Te  Te160  1  0.84093453  0.65922466  0.33287549  1
  Te  Te161  1  0.82710228  0.66691471  0.66718199  1
  Te  Te162  1  0.00271760  0.16811337  -0.00071103  1
  Te  Te163  1  -0.00047577  0.16622778  0.33099273  1
  Te  Te164  1  0.00005407  0.16251291  0.67613132  1
  Te  Te165  1  -0.00123623  0.49263202  0.00086550  1
  Te  Te166  1  0.00026633  0.49987458  0.33839961  1
  Te  Te167  1  -0.00086893  0.50105804  0.66033398  1
  Te  Te168  1  0.00364031  0.83432783  -0.00290699  1
  Te  Te169  1  -0.00125422  0.83390028  0.33454328  1
  Te  Te170  1  -0.00086375  0.83374029  0.66795792  1
  Te  Te171  1  0.32697027  0.17144715  -0.00067210  1
  Te  Te172  1  0.33073465  0.16918013  0.33761246  1
  Te  Te173  1  0.33419392  0.16579912  0.65870449  1
  Te  Te174  1  0.33432678  0.49335873  0.00633226  1
  Te  Te175  1  0.33573701  0.49403550  0.32881078  1
  Te  Te176  1  0.32755365  0.50590366  0.66678887  1
  Te  Te177  1  0.33178606  0.83329239  0.00286864  1
  Te  Te178  1  0.33231551  0.83403506  0.33332657  1
  Te  Te179  1  0.33177077  0.82698348  0.66379384  1
  Te  Te180  1  0.66669554  0.16782962  -0.00202141  1
  Te  Te181  1  0.67071010  0.17190339  0.33652960  1
  Te  Te182  1  0.66665242  0.16373991  0.66571808  1
  Te  Te183  1  0.66593793  0.49609548  -0.00726591  1
  Te  Te184  1  0.66568488  0.49973614  0.33703998  1
  Te  Te185  1  0.66866103  0.50116436  0.66312168  1
  Te  Te186  1  0.66544820  0.83551848  -0.00100770  1
  Te  Te187  1  0.66505677  0.83224311  0.33978599  1
  Te  Te188  1  0.66578882  0.83104478  0.66536976  1
  Te  Te189  1  -0.00199341  -0.00076313  0.17001232  1
  Te  Te190  1  -0.00679910  -0.00306756  0.49482455  1
  Te  Te191  1  -0.00248447  -0.00288317  0.83403541  1
  Te  Te192  1  -0.00026762  0.33143936  0.16031320  1
  Te  Te193  1  -0.00546789  0.33483551  0.50022618  1
  Te  Te194  1  -0.00161401  0.33385642  0.83640933  1
  Te  Te195  1  0.00239800  0.67046565  0.17186974  1
  Te  Te196  1  0.00388976  0.66751710  0.49606525  1
  Te  Te197  1  0.00580574  0.67114406  0.83601192  1
  Te  Te198  1  0.34201177  -0.00734361  0.16636740  1
  Te  Te199  1  0.33515172  -0.00076389  0.49963048  1
  Te  Te200  1  0.33520968  0.00247177  0.83216866  1
  Te  Te201  1  0.33561712  0.33223609  0.16841255  1
  Te  Te202  1  0.33340831  0.33071161  0.49507031  1
  Te  Te203  1  0.33089021  0.33361084  0.83740023  1
  Te  Te204  1  0.33402823  0.66770972  0.16654064  1
  Te  Te205  1  0.33327620  0.66912738  0.50173206  1
  Te  Te206  1  0.32655773  0.66563050  0.82829565  1
  Te  Te207  1  0.66791120  0.00051870  0.16445373  1
  Te  Te208  1  0.67050912  0.00072739  0.50071613  1
  Te  Te209  1  0.66831799  -0.00230800  0.83449233  1
  Te  Te210  1  0.66445427  0.33612804  0.16683998  1
  Te  Te211  1  0.66942875  0.33286816  0.49793464  1
  Te  Te212  1  0.66920840  0.33261091  0.83399946  1
  Te  Te213  1  0.66256722  0.65969578  0.16508624  1
  Te  Te214  1  0.66345713  0.66707218  0.50293854  1
  Te  Te215  1  0.66699797  0.66701015  0.82859113  1
