# generated using pymatgen
data_AgSbTe2
_symmetry_space_group_name_H-M   'P 1'
_cell_length_a   18.34398788
_cell_length_b   18.35107649
_cell_length_c   18.35578246
_cell_angle_alpha   89.99797980
_cell_angle_beta   90.00360225
_cell_angle_gamma   90.00044006
_symmetry_Int_Tables_number   1
_chemical_formula_structural   AgSbTe2
_chemical_formula_sum   'Ag54 Sb54 Te108'
_cell_volume   6179.14236267
_cell_formula_units_Z   54
loop_
 _symmetry_equiv_pos_site_id
 _symmetry_equiv_pos_as_xyz
  1  'x, y, z'
loop_
 _atom_site_type_symbol
 _atom_site_label
 _atom_site_symmetry_multiplicity
 _atom_site_fract_x
 _atom_site_fract_y
 _atom_site_fract_z
 _atom_site_occupancy
  Ag  Ag0  1  0.66037813  0.34172524  0.66687540  1
  Ag  Ag1  1  0.50848982  0.49884128  0.34128934  1
  Ag  Ag2  1  -0.00691316  0.66639207  -0.00384416  1
  Ag  Ag3  1  0.00132465  0.82579872  0.50047898  1
  Ag  Ag4  1  0.83683184  0.82979668  0.00080127  1
  Ag  Ag5  1  0.33143209  0.01170406  0.67333534  1
  Ag  Ag6  1  0.33760367  0.82569695  0.83000133  1
  Ag  Ag7  1  -0.00835353  0.50308517  0.83031033  1
  Ag  Ag8  1  0.83095264  0.16570846  -0.00803255  1
  Ag  Ag9  1  0.34102905  0.32442793  0.67195540  1
  Ag  Ag10  1  0.49248026  0.17850782  0.66917701  1
  Ag  Ag11  1  0.66801492  0.50115084  0.49752765  1
  Ag  Ag12  1  0.83381944  0.66346365  0.50580525  1
  Ag  Ag13  1  0.83331049  0.66192325  0.82988630  1
  Ag  Ag14  1  0.18049967  0.17200238  0.66548019  1
  Ag  Ag15  1  0.66315110  0.65775002  0.66927883  1
  Ag  Ag16  1  -0.00195355  0.33911151  -0.00298269  1
  Ag  Ag17  1  0.49156987  0.82662567  0.66851624  1
  Ag  Ag18  1  0.33438569  0.83143273  0.50917330  1
  Ag  Ag19  1  0.83248056  0.34197803  0.83177327  1
  Ag  Ag20  1  0.33368850  -0.00097670  -0.00707275  1
  Ag  Ag21  1  0.66253063  0.17601882  0.83094011  1
  Ag  Ag22  1  0.34175369  0.67479792  -0.00455299  1
  Ag  Ag23  1  -0.00006984  -0.00492944  -0.00587946  1
  Ag  Ag24  1  0.33547411  0.16519420  0.51364275  1
  Ag  Ag25  1  0.66365793  0.34860103  0.34328507  1
  Ag  Ag26  1  0.33693452  0.16299505  0.15567989  1
  Ag  Ag27  1  0.33575409  0.50082737  0.82784849  1
  Ag  Ag28  1  0.00190558  0.82831298  0.16300419  1
  Ag  Ag29  1  0.66497736  0.65944576  0.33350246  1
  Ag  Ag30  1  0.33220813  0.82999072  0.16103322  1
  Ag  Ag31  1  0.66640356  0.66532144  -0.00366363  1
  Ag  Ag32  1  -0.00031251  0.16953505  0.50859708  1
  Ag  Ag33  1  -0.00480580  0.50991123  0.16148599  1
  Ag  Ag34  1  0.82019361  0.50636755  0.33674089  1
  Ag  Ag35  1  0.34208712  0.66894301  0.33982953  1
  Ag  Ag36  1  0.50094101  0.33507556  0.50565129  1
  Ag  Ag37  1  0.17895864  0.49894946  0.66772109  1
  Ag  Ag38  1  0.49841917  0.66545780  0.16406223  1
  Ag  Ag39  1  0.34254041  0.66617284  0.66987259  1
  Ag  Ag40  1  0.49902171  0.17548533  0.34207869  1
  Ag  Ag41  1  0.33709172  0.32524093  -0.00970833  1
  Ag  Ag42  1  0.16241090  0.82948375  0.33458800  1
  Ag  Ag43  1  0.83269139  0.16714456  0.67388248  1
  Ag  Ag44  1  0.33974385  0.17099527  0.82777175  1
  Ag  Ag45  1  0.50074831  0.49740444  0.66395975  1
  Ag  Ag46  1  0.66714613  0.49898961  0.82720554  1
  Ag  Ag47  1  -0.00739275  0.50713171  0.50967223  1
  Ag  Ag48  1  0.83658329  0.82376263  0.33083035  1
  Ag  Ag49  1  0.66883052  0.50401794  0.18220193  1
  Ag  Ag50  1  0.49146689  0.16561060  -0.00484135  1
  Ag  Ag51  1  0.48879534  0.82926870  -0.00302809  1
  Ag  Ag52  1  -0.00328564  0.66359090  0.66830837  1
  Ag  Ag53  1  0.00541297  -0.00205555  0.66872290  1
  Sb  Sb54  1  0.33638962  0.50222973  0.50828730  1
  Sb  Sb55  1  0.16455727  0.50093213  -0.00645012  1
  Sb  Sb56  1  0.50185931  0.33332432  0.82730459  1
  Sb  Sb57  1  0.66616720  0.82292599  0.50132398  1
  Sb  Sb58  1  0.83592280  -0.00045813  0.83335456  1
  Sb  Sb59  1  0.16814204  0.50628359  0.33949622  1
  Sb  Sb60  1  -0.00467262  0.66745506  0.33324813  1
  Sb  Sb61  1  0.16777208  0.33444879  0.16598117  1
  Sb  Sb62  1  0.17126923  0.82985326  0.66279686  1
  Sb  Sb63  1  0.33551712  -0.00553620  0.33513722  1
  Sb  Sb64  1  0.66407964  -0.00345529  -0.00233072  1
  Sb  Sb65  1  0.66272218  0.82796089  0.83363126  1
  Sb  Sb66  1  -0.00030793  0.17145406  0.82902101  1
  Sb  Sb67  1  0.66579485  0.82413468  0.16485604  1
  Sb  Sb68  1  0.83536426  -0.00258802  0.16384304  1
  Sb  Sb69  1  0.00409704  0.16434698  0.16374753  1
  Sb  Sb70  1  0.83192800  0.33575777  0.15894985  1
  Sb  Sb71  1  0.17184003  0.33454193  0.50381328  1
  Sb  Sb72  1  0.82909219  0.66531451  0.16576905  1
  Sb  Sb73  1  0.49965884  0.50131238  -0.00284024  1
  Sb  Sb74  1  0.66482574  -0.00389995  0.33388168  1
  Sb  Sb75  1  0.00313112  0.82730079  0.83325246  1
  Sb  Sb76  1  0.49728293  0.00226762  0.83268507  1
  Sb  Sb77  1  0.49997192  0.82625371  0.33396079  1
  Sb  Sb78  1  0.16877069  -0.00171009  0.16457731  1
  Sb  Sb79  1  0.82686702  0.50055326  0.66646471  1
  Sb  Sb80  1  0.16682489  0.66498630  0.83149668  1
  Sb  Sb81  1  0.65888928  0.17531162  0.16123008  1
  Sb  Sb82  1  0.16908542  0.00018358  0.83079834  1
  Sb  Sb83  1  0.49716608  -0.00499707  0.16514037  1
  Sb  Sb84  1  0.82980373  0.33939987  0.50695050  1
  Sb  Sb85  1  0.16707656  -0.00135760  0.50410494  1
  Sb  Sb86  1  0.17034391  0.66728894  0.16743764  1
  Sb  Sb87  1  0.49704457  0.00545581  0.50314779  1
  Sb  Sb88  1  -0.00819312  0.33755531  0.33135849  1
  Sb  Sb89  1  -0.00011549  -0.00382584  0.33589161  1
  Sb  Sb90  1  0.16912274  0.83210650  0.00243934  1
  Sb  Sb91  1  0.49993357  0.33859635  0.16949596  1
  Sb  Sb92  1  0.83295528  0.83190836  0.66870526  1
  Sb  Sb93  1  0.33441976  0.50400425  0.16184650  1
  Sb  Sb94  1  0.17062108  0.16656761  -0.00728440  1
  Sb  Sb95  1  0.66190844  0.00166096  0.66865130  1
  Sb  Sb96  1  0.66488259  0.33793252  -0.00622949  1
  Sb  Sb97  1  0.50314079  0.66154954  0.50089937  1
  Sb  Sb98  1  0.83300889  0.50335051  -0.00105084  1
  Sb  Sb99  1  0.16323653  0.66637004  0.50192728  1
  Sb  Sb100  1  0.17499670  0.16263106  0.34053441  1
  Sb  Sb101  1  0.16695572  0.33415086  0.83128040  1
  Sb  Sb102  1  0.82775706  0.16994305  0.33589425  1
  Sb  Sb103  1  0.83687236  -0.00623784  0.50266588  1
  Sb  Sb104  1  -0.00282930  0.33783404  0.67026749  1
  Sb  Sb105  1  0.50156905  0.66493091  0.83414199  1
  Sb  Sb106  1  0.66347263  0.17585960  0.50785736  1
  Sb  Sb107  1  0.34069298  0.33699397  0.33582100  1
  Te  Te108  1  0.17591655  0.16639521  0.17105878  1
  Te  Te109  1  0.16593469  0.16765239  0.50491273  1
  Te  Te110  1  0.17448492  0.16777372  0.82524965  1
  Te  Te111  1  0.15665279  0.50038730  0.16886740  1
  Te  Te112  1  0.15604755  0.49963504  0.50639108  1
  Te  Te113  1  0.17032780  0.49958635  0.82619015  1
  Te  Te114  1  0.16593313  0.83271731  0.17295010  1
  Te  Te115  1  0.16538248  0.83244359  0.49559939  1
  Te  Te116  1  0.17807385  0.83287111  0.83131428  1
  Te  Te117  1  0.49554006  0.16683718  0.15839930  1
  Te  Te118  1  0.49737630  0.17122579  0.50446700  1
  Te  Te119  1  0.49948602  0.16768827  0.83376472  1
  Te  Te120  1  0.50270265  0.50561161  0.16760141  1
  Te  Te121  1  0.50162094  0.49643159  0.50123737  1
  Te  Te122  1  0.49965311  0.49913908  0.82884243  1
  Te  Te123  1  0.49691316  0.82780204  0.16409264  1
  Te  Te124  1  0.49645514  0.83468453  0.50198702  1
  Te  Te125  1  0.49582905  0.83364417  0.83531668  1
  Te  Te126  1  0.83290260  0.16645779  0.16380842  1
  Te  Te127  1  0.83602119  0.16634989  0.50057593  1
  Te  Te128  1  0.83566602  0.16568724  0.83410909  1
  Te  Te129  1  0.83460708  0.49914498  0.17215931  1
  Te  Te130  1  0.83357369  0.50271581  0.49727875  1
  Te  Te131  1  0.83313610  0.50163601  0.83419817  1
  Te  Te132  1  0.83717712  0.83219484  0.16405306  1
  Te  Te133  1  0.83675134  0.82697432  0.49936831  1
  Te  Te134  1  0.83300279  0.82745245  0.83876382  1
  Te  Te135  1  0.16459889  0.00015131  -0.00144858  1
  Te  Te136  1  0.16749869  -0.00986535  0.33312114  1
  Te  Te137  1  0.16606967  0.00658043  0.66659793  1
  Te  Te138  1  0.16439914  0.33307279  -0.00008003  1
  Te  Te139  1  0.16598898  0.33291601  0.33420466  1
  Te  Te140  1  0.17458115  0.33492862  0.66622753  1
  Te  Te141  1  0.16365261  0.66578214  -0.00038409  1
  Te  Te142  1  0.17793392  0.67142243  0.33427405  1
  Te  Te143  1  0.15800709  0.66129302  0.66633861  1
  Te  Te144  1  0.49580268  -0.00225112  0.00046135  1
  Te  Te145  1  0.50057351  0.01224601  0.33293973  1
  Te  Te146  1  0.49355102  -0.00593994  0.66617703  1
  Te  Te147  1  0.49684192  0.32871791  0.00241161  1
  Te  Te148  1  0.50410233  0.33565914  0.33601608  1
  Te  Te149  1  0.50086282  0.33510292  0.66545491  1
  Te  Te150  1  0.50073230  0.66770335  0.00098500  1
  Te  Te151  1  0.50224900  0.66346120  0.33338734  1
  Te  Te152  1  0.50298896  0.66616423  0.66638793  1
  Te  Te153  1  0.83704425  -0.00158772  -0.00080094  1
  Te  Te154  1  0.83280692  -0.00655737  0.33314067  1
  Te  Te155  1  0.83830408  0.00369017  0.66725421  1
  Te  Te156  1  0.83421161  0.32855402  -0.00624747  1
  Te  Te157  1  0.82432339  0.33667836  0.33357801  1
  Te  Te158  1  0.82953670  0.32699217  0.67158262  1
  Te  Te159  1  0.83352457  0.66760674  -0.00141701  1
  Te  Te160  1  0.83065613  0.66560826  0.33324696  1
  Te  Te161  1  0.83530306  0.66905074  0.66757167  1
  Te  Te162  1  -0.00021878  0.16514135  0.00007386  1
  Te  Te163  1  0.00036011  0.16563185  0.33603914  1
  Te  Te164  1  -0.00618646  0.16993446  0.66645510  1
  Te  Te165  1  -0.00072209  0.50237865  -0.00156547  1
  Te  Te166  1  0.00061120  0.50005625  0.33189460  1
  Te  Te167  1  -0.00523600  0.50133792  0.66827645  1
  Te  Te168  1  0.00090981  0.83094804  -0.00064194  1
  Te  Te169  1  -0.00272414  0.83355342  0.33569335  1
  Te  Te170  1  0.00180250  0.83276006  0.66447776  1
  Te  Te171  1  0.33241201  0.16597464  -0.00328723  1
  Te  Te172  1  0.33814152  0.16648666  0.33391700  1
  Te  Te173  1  0.33646326  0.16753529  0.66850998  1
  Te  Te174  1  0.33225787  0.49955551  -0.00491181  1
  Te  Te175  1  0.33547280  0.50624506  0.33272500  1
  Te  Te176  1  0.33624815  0.50784493  0.66618424  1
  Te  Te177  1  0.33170364  0.83395453  0.00099316  1
  Te  Te178  1  0.33720060  0.82955577  0.33082413  1
  Te  Te179  1  0.33200783  0.82376952  0.66690958  1
  Te  Te180  1  0.66900470  0.16660629  -0.00408342  1
  Te  Te181  1  0.66107815  0.16594505  0.33263817  1
  Te  Te182  1  0.66748704  0.16615199  0.67085712  1
  Te  Te183  1  0.66616374  0.50505103  -0.01164588  1
  Te  Te184  1  0.66424206  0.50404394  0.33729137  1
  Te  Te185  1  0.66608093  0.50058816  0.66881445  1
  Te  Te186  1  0.66831250  0.82847002  -0.00035605  1
  Te  Te187  1  0.67212220  0.82730126  0.33318656  1
  Te  Te188  1  0.65964922  0.83264169  0.66789564  1
  Te  Te189  1  0.00200660  -0.00585113  0.16054032  1
  Te  Te190  1  0.00047477  0.00191165  0.50600821  1
  Te  Te191  1  0.00191499  -0.00195361  0.83246293  1
  Te  Te192  1  -0.00020415  0.33415757  0.15896936  1
  Te  Te193  1  -0.00140813  0.33117203  0.49958053  1
  Te  Te194  1  -0.00447226  0.33892327  0.83788386  1
  Te  Te195  1  0.00099218  0.66888371  0.16557715  1
  Te  Te196  1  -0.00401136  0.66650723  0.49910660  1
  Te  Te197  1  -0.00256861  0.66375632  0.83321771  1
  Te  Te198  1  0.33357952  -0.00264914  0.16258538  1
  Te  Te199  1  0.33304296  -0.00107747  0.50432241  1
  Te  Te200  1  0.33329056  0.00050441  0.83275561  1
  Te  Te201  1  0.33282291  0.33165670  0.16347271  1
  Te  Te202  1  0.33825416  0.33054368  0.50318747  1
  Te  Te203  1  0.33295612  0.33620054  0.83217192  1
  Te  Te204  1  0.33671705  0.66841287  0.15854978  1
  Te  Te205  1  0.33342488  0.66917922  0.50201655  1
  Te  Te206  1  0.33383474  0.66472085  0.83419688  1
  Te  Te207  1  0.66653070  0.00092169  0.16609412  1
  Te  Te208  1  0.66800583  -0.00107477  0.50044382  1
  Te  Te209  1  0.66862792  0.01127395  0.83369600  1
  Te  Te210  1  0.66646492  0.34357376  0.16838421  1
  Te  Te211  1  0.66335612  0.33908223  0.50353147  1
  Te  Te212  1  0.67250556  0.33510862  0.83095487  1
  Te  Te213  1  0.66178095  0.66140668  0.16405083  1
  Te  Te214  1  0.67106558  0.66129879  0.50432908  1
  Te  Te215  1  0.67133413  0.66526496  0.83184766  1
