# generated using pymatgen
data_AgSbTe2
_symmetry_space_group_name_H-M   'P 1'
_cell_length_a   18.32850362
_cell_length_b   18.32284890
_cell_length_c   18.33021376
_cell_angle_alpha   90.00122052
_cell_angle_beta   89.99923206
_cell_angle_gamma   89.99894840
_symmetry_Int_Tables_number   1
_chemical_formula_structural   AgSbTe2
_chemical_formula_sum   'Ag54 Sb54 Te108'
_cell_volume   6155.84306173
_cell_formula_units_Z   54
loop_
 _symmetry_equiv_pos_site_id
 _symmetry_equiv_pos_as_xyz
  1  'x, y, z'
loop_
 _atom_site_type_symbol
 _atom_site_label
 _atom_site_symmetry_multiplicity
 _atom_site_fract_x
 _atom_site_fract_y
 _atom_site_fract_z
 _atom_site_occupancy
  Ag  Ag0  1  0.66544389  0.66592289  0.66888789  1
  Ag  Ag1  1  0.32831275  0.83214086  0.49192513  1
  Ag  Ag2  1  0.33560456  0.83164072  0.83753387  1
  Ag  Ag3  1  0.17235279  0.32874457  0.83169052  1
  Ag  Ag4  1  0.82419523  0.66336072  0.16746009  1
  Ag  Ag5  1  0.66700812  0.67305449  0.00708148  1
  Ag  Ag6  1  0.16906733  0.16153370  0.00146387  1
  Ag  Ag7  1  0.66611762  -0.00426990  0.00735334  1
  Ag  Ag8  1  0.49770937  0.84008168  0.32806581  1
  Ag  Ag9  1  0.32997989  0.67380949  0.00263016  1
  Ag  Ag10  1  0.33275499  -0.00388038  0.00889021  1
  Ag  Ag11  1  0.17800993  0.67561136  0.16548006  1
  Ag  Ag12  1  0.33117996  0.16358986  0.83858244  1
  Ag  Ag13  1  0.33206568  -0.00577428  0.32173514  1
  Ag  Ag14  1  0.00219958  -0.00145238  0.00608058  1
  Ag  Ag15  1  0.83466724  0.66226804  0.49362982  1
  Ag  Ag16  1  0.66338849  0.15607731  0.16823867  1
  Ag  Ag17  1  0.83054192  0.33645605  0.17403722  1
  Ag  Ag18  1  0.17416775  0.66788144  0.83571508  1
  Ag  Ag19  1  0.83114052  0.49454640  0.66547495  1
  Ag  Ag20  1  0.00961237  0.00246530  0.32715743  1
  Ag  Ag21  1  0.17077450  0.83331219  0.66219936  1
  Ag  Ag22  1  0.67429531  0.33284476  0.66548084  1
  Ag  Ag23  1  0.49176879  -0.00518556  0.16856922  1
  Ag  Ag24  1  0.83127692  0.00115416  0.83998460  1
  Ag  Ag25  1  0.49534617  0.33035689  0.83316221  1
  Ag  Ag26  1  0.33596139  0.15529992  0.16295973  1
  Ag  Ag27  1  0.83426615  0.16452621  -0.00074501  1
  Ag  Ag28  1  0.01092824  0.83314384  0.49806456  1
  Ag  Ag29  1  0.66075617  0.00008853  0.32470069  1
  Ag  Ag30  1  0.82981352  0.50179270  0.00261569  1
  Ag  Ag31  1  0.33335451  0.51106146  0.83565126  1
  Ag  Ag32  1  0.16699138  0.67644708  0.49845576  1
  Ag  Ag33  1  -0.00970312  0.33059726  0.66337041  1
  Ag  Ag34  1  0.16992329  0.16351139  0.67016484  1
  Ag  Ag35  1  0.83136805  0.17414234  0.67142957  1
  Ag  Ag36  1  0.67219884  0.33150660  0.33222268  1
  Ag  Ag37  1  0.33446024  0.67544000  0.32353896  1
  Ag  Ag38  1  0.50101320  0.67789395  0.16673511  1
  Ag  Ag39  1  0.16660969  -0.00463063  0.49072898  1
  Ag  Ag40  1  0.66537488  0.67114759  0.32295427  1
  Ag  Ag41  1  -0.00932692  0.32682214  0.33676790  1
  Ag  Ag42  1  0.17839822  -0.00363538  0.17142909  1
  Ag  Ag43  1  0.33073958  0.67096257  0.67520611  1
  Ag  Ag44  1  0.83209460  0.49891004  0.33147248  1
  Ag  Ag45  1  0.17229618  0.16052592  0.32751520  1
  Ag  Ag46  1  0.49809606  0.15911613  0.32748680  1
  Ag  Ag47  1  0.65919599  0.83189236  0.84268240  1
  Ag  Ag48  1  0.49898807  0.16779786  0.66795696  1
  Ag  Ag49  1  0.00203765  0.67212423  0.00241728  1
  Ag  Ag50  1  0.83400230  0.33744738  0.49522601  1
  Ag  Ag51  1  0.50357266  0.50413780  -0.00104256  1
  Ag  Ag52  1  0.33832740  0.84001992  0.16940158  1
  Ag  Ag53  1  0.65926245  0.83638370  0.16475939  1
  Sb  Sb54  1  0.66797462  0.16629731  0.49479242  1
  Sb  Sb55  1  0.83752006  0.00069767  0.49972365  1
  Sb  Sb56  1  0.49474530  0.66576800  0.84070094  1
  Sb  Sb57  1  0.16638047  -0.00070835  0.83772026  1
  Sb  Sb58  1  -0.00333951  0.50435484  0.49972173  1
  Sb  Sb59  1  0.17472431  0.84007906  0.33877229  1
  Sb  Sb60  1  0.33494801  0.50830209  0.16126565  1
  Sb  Sb61  1  0.50430069  0.50191495  0.32598930  1
  Sb  Sb62  1  0.83532792  0.83167114  0.66574555  1
  Sb  Sb63  1  0.66529353  0.83143704  0.49602863  1
  Sb  Sb64  1  0.16281215  0.32748983  0.16416179  1
  Sb  Sb65  1  0.00507215  0.16621512  0.83314471  1
  Sb  Sb66  1  0.17071110  0.83607897  -0.00161258  1
  Sb  Sb67  1  -0.00199282  0.33179664  -0.00016545  1
  Sb  Sb68  1  0.66403558  0.16383906  0.83676593  1
  Sb  Sb69  1  0.33033263  0.16032567  0.49899227  1
  Sb  Sb70  1  -0.00350438  0.50208313  0.16678313  1
  Sb  Sb71  1  0.83320050  0.66972157  0.83656120  1
  Sb  Sb72  1  0.00325639  0.83349610  0.83175093  1
  Sb  Sb73  1  0.00349060  0.83385460  0.17057301  1
  Sb  Sb74  1  0.49564826  0.83537227  0.66251260  1
  Sb  Sb75  1  0.00002333  0.67031665  0.33041207  1
  Sb  Sb76  1  0.83047461  0.83453571  0.00109643  1
  Sb  Sb77  1  0.83135827  0.17105250  0.32900081  1
  Sb  Sb78  1  0.82988442  -0.00102745  0.16369527  1
  Sb  Sb79  1  0.66955288  0.50121943  0.49953811  1
  Sb  Sb80  1  0.50003640  0.66852296  0.49469488  1
  Sb  Sb81  1  0.50593574  0.33010840  0.16426386  1
  Sb  Sb82  1  0.50340933  0.49796473  0.67342290  1
  Sb  Sb83  1  0.50132780  0.00191591  0.84075835  1
  Sb  Sb84  1  0.49366246  -0.00043547  0.48973683  1
  Sb  Sb85  1  0.33237157  -0.00388225  0.66746457  1
  Sb  Sb86  1  0.66353439  0.50431203  0.83467191  1
  Sb  Sb87  1  0.50588210  0.33084170  0.50337532  1
  Sb  Sb88  1  0.49832704  0.16739811  0.00240842  1
  Sb  Sb89  1  0.33306614  0.33214561  -0.00179090  1
  Sb  Sb90  1  0.33349059  0.33474696  0.66982898  1
  Sb  Sb91  1  0.00204882  0.50043410  0.83374006  1
  Sb  Sb92  1  0.33593761  0.32860034  0.33180796  1
  Sb  Sb93  1  0.00196499  0.00310386  0.66713376  1
  Sb  Sb94  1  0.82750976  0.82912463  0.33229315  1
  Sb  Sb95  1  0.66700286  -0.00004200  0.66812881  1
  Sb  Sb96  1  0.16309934  0.49917856  0.33250901  1
  Sb  Sb97  1  0.33075548  0.51126205  0.50467049  1
  Sb  Sb98  1  0.16620374  0.50239909  -0.00138134  1
  Sb  Sb99  1  0.16018722  0.33022971  0.50414011  1
  Sb  Sb100  1  0.66861209  0.33217903  0.00170400  1
  Sb  Sb101  1  0.16377788  0.50092421  0.66880286  1
  Sb  Sb102  1  -0.00057983  0.16439491  0.16692120  1
  Sb  Sb103  1  -0.00055137  0.16240956  0.49915528  1
  Sb  Sb104  1  0.49894591  0.82930340  0.00816479  1
  Sb  Sb105  1  0.66864841  0.50548755  0.16595765  1
  Sb  Sb106  1  0.00134604  0.66425277  0.66873544  1
  Sb  Sb107  1  0.83272022  0.33013845  0.83118892  1
  Te  Te108  1  0.16876669  0.16423085  0.16550072  1
  Te  Te109  1  0.16595843  0.16232152  0.50261339  1
  Te  Te110  1  0.17053425  0.16574114  0.83321263  1
  Te  Te111  1  0.16644092  0.50412538  0.16607511  1
  Te  Te112  1  0.16478576  0.50993109  0.50059524  1
  Te  Te113  1  0.17253269  0.50094569  0.83328072  1
  Te  Te114  1  0.17032784  0.83411375  0.16583249  1
  Te  Te115  1  0.16890373  0.83359861  0.50147294  1
  Te  Te116  1  0.17012712  0.83104015  0.82613442  1
  Te  Te117  1  0.49997031  0.16559086  0.16873857  1
  Te  Te118  1  0.49869171  0.16670495  0.50257947  1
  Te  Te119  1  0.49517884  0.16855179  0.83165071  1
  Te  Te120  1  0.49980518  0.50026983  0.15825740  1
  Te  Te121  1  0.49827583  0.49819045  0.49996460  1
  Te  Te122  1  0.49430175  0.49462854  0.83787362  1
  Te  Te123  1  0.49933947  0.83428813  0.17030681  1
  Te  Te124  1  0.49137029  0.83352350  0.49208643  1
  Te  Te125  1  0.49918293  0.83422933  0.82956947  1
  Te  Te126  1  0.82994625  0.16921971  0.16236505  1
  Te  Te127  1  0.83376826  0.17027578  0.50852199  1
  Te  Te128  1  0.83276517  0.16365864  0.83493030  1
  Te  Te129  1  0.83346965  0.50090963  0.16600497  1
  Te  Te130  1  0.83339457  0.50078407  0.50064332  1
  Te  Te131  1  0.83317422  0.49970492  0.83512727  1
  Te  Te132  1  0.82775155  0.82478250  0.16720285  1
  Te  Te133  1  0.83535296  0.82870331  0.50087107  1
  Te  Te134  1  0.83060244  0.83906336  0.83114284  1
  Te  Te135  1  0.16749302  0.00260555  0.00209634  1
  Te  Te136  1  0.16868286  0.00211286  0.33141222  1
  Te  Te137  1  0.16589843  0.00188523  0.66635603  1
  Te  Te138  1  0.16428452  0.32749491  -0.00480594  1
  Te  Te139  1  0.16371162  0.32703045  0.33405855  1
  Te  Te140  1  0.16575558  0.33025293  0.66988334  1
  Te  Te141  1  0.16888814  0.66699907  0.00049769  1
  Te  Te142  1  0.16747747  0.66372822  0.33129141  1
  Te  Te143  1  0.16780598  0.66733941  0.66730162  1
  Te  Te144  1  0.50038739  0.00199962  0.00727974  1
  Te  Te145  1  0.50020661  0.00137134  0.32915347  1
  Te  Te146  1  0.50080522  0.00725925  0.66425505  1
  Te  Te147  1  0.50112571  0.34001918  -0.00538558  1
  Te  Te148  1  0.50698211  0.33130724  0.33456775  1
  Te  Te149  1  0.50377449  0.33012972  0.67057053  1
  Te  Te150  1  0.50242236  0.66384090  0.00406432  1
  Te  Te151  1  0.50196844  0.66469971  0.32804018  1
  Te  Te152  1  0.50322431  0.66629171  0.66423831  1
  Te  Te153  1  0.83158696  0.00236146  -0.00040659  1
  Te  Te154  1  0.83305438  0.00200378  0.33416693  1
  Te  Te155  1  0.83408664  0.00526199  0.66912071  1
  Te  Te156  1  0.83421887  0.33297240  0.00191088  1
  Te  Te157  1  0.83191925  0.33336954  0.33406900  1
  Te  Te158  1  0.83169421  0.33313066  0.66933957  1
  Te  Te159  1  0.82993300  0.66549506  0.00080516  1
  Te  Te160  1  0.83333476  0.66247195  0.33283904  1
  Te  Te161  1  0.83188322  0.66384572  0.66742334  1
  Te  Te162  1  -0.00100539  0.16268951  -0.00011850  1
  Te  Te163  1  0.00358467  0.16413150  0.33320206  1
  Te  Te164  1  0.00104488  0.17078903  0.66637797  1
  Te  Te165  1  -0.00655989  0.50497309  -0.00041060  1
  Te  Te166  1  -0.00609410  0.49248636  0.33328807  1
  Te  Te167  1  -0.00741109  0.49331384  0.66672303  1
  Te  Te168  1  0.00025737  0.83407060  0.00062362  1
  Te  Te169  1  -0.00304236  0.83867042  0.33788344  1
  Te  Te170  1  0.00622458  0.83354701  0.66194564  1
  Te  Te171  1  0.33170850  0.16570310  0.00058447  1
  Te  Te172  1  0.33409692  0.16372411  0.33203432  1
  Te  Te173  1  0.33273497  0.16654084  0.66803208  1
  Te  Te174  1  0.33358033  0.50346591  -0.00503830  1
  Te  Te175  1  0.33392407  0.50423754  0.33397131  1
  Te  Te176  1  0.33423867  0.50727568  0.67347506  1
  Te  Te177  1  0.33418910  0.83441495  -0.00102285  1
  Te  Te178  1  0.33537650  0.83266966  0.32974125  1
  Te  Te179  1  0.33106345  0.82983182  0.67135614  1
  Te  Te180  1  0.66893424  0.16366504  0.00411137  1
  Te  Te181  1  0.66495766  0.16605036  0.32953059  1
  Te  Te182  1  0.66648918  0.16810743  0.66731103  1
  Te  Te183  1  0.66884368  0.50383888  -0.00080223  1
  Te  Te184  1  0.67191753  0.49931178  0.33304158  1
  Te  Te185  1  0.67081362  0.50146252  0.66778673  1
  Te  Te186  1  0.66524642  0.83399236  0.00067318  1
  Te  Te187  1  0.66117707  0.83097105  0.33065586  1
  Te  Te188  1  0.66563772  0.82986297  0.66766937  1
  Te  Te189  1  0.00144272  -0.00138522  0.16595520  1
  Te  Te190  1  0.00491333  -0.00521183  0.49691582  1
  Te  Te191  1  -0.00644778  -0.00105504  0.84009707  1
  Te  Te192  1  -0.00578002  0.33278111  0.17134937  1
  Te  Te193  1  -0.00516973  0.33372101  0.49952627  1
  Te  Te194  1  0.00668871  0.33375990  0.82871379  1
  Te  Te195  1  -0.00034875  0.66883799  0.16201555  1
  Te  Te196  1  -0.00084339  0.67186026  0.49952774  1
  Te  Te197  1  0.00766174  0.66780945  0.84019335  1
  Te  Te198  1  0.33425951  -0.00003813  0.16557993  1
  Te  Te199  1  0.32707841  -0.00653939  0.49843885  1
  Te  Te200  1  0.33434335  -0.00080018  0.83728075  1
  Te  Te201  1  0.33308005  0.32979285  0.16682807  1
  Te  Te202  1  0.33118644  0.33629556  0.50076133  1
  Te  Te203  1  0.33294389  0.32598001  0.83250960  1
  Te  Te204  1  0.33518544  0.66885890  0.16481110  1
  Te  Te205  1  0.33154477  0.67255009  0.49922280  1
  Te  Te206  1  0.33395855  0.66947670  0.83532699  1
  Te  Te207  1  0.66938650  -0.00244247  0.16713554  1
  Te  Te208  1  0.66742312  -0.00185736  0.49197185  1
  Te  Te209  1  0.66856128  -0.00572293  0.83652851  1
  Te  Te210  1  0.67115756  0.32881048  0.16924061  1
  Te  Te211  1  0.67297427  0.33304822  0.50173735  1
  Te  Te212  1  0.66207377  0.33322899  0.82943922  1
  Te  Te213  1  0.66558440  0.66873323  0.16636394  1
  Te  Te214  1  0.67186480  0.66775816  0.50268401  1
  Te  Te215  1  0.66513831  0.67157925  0.83170812  1
