# generated using pymatgen
data_AgSbTe2
_symmetry_space_group_name_H-M   'P 1'
_cell_length_a   18.32042630
_cell_length_b   18.32483738
_cell_length_c   18.32082915
_cell_angle_alpha   89.99860153
_cell_angle_beta   90.00078167
_cell_angle_gamma   90.00073549
_symmetry_Int_Tables_number   1
_chemical_formula_structural   AgSbTe2
_chemical_formula_sum   'Ag54 Sb54 Te108'
_cell_volume   6150.64737551
_cell_formula_units_Z   54
loop_
 _symmetry_equiv_pos_site_id
 _symmetry_equiv_pos_as_xyz
  1  'x, y, z'
loop_
 _atom_site_type_symbol
 _atom_site_label
 _atom_site_symmetry_multiplicity
 _atom_site_fract_x
 _atom_site_fract_y
 _atom_site_fract_z
 _atom_site_occupancy
  Ag  Ag0  1  0.00195522  0.32545815  0.66614578  1
  Ag  Ag1  1  0.32874927  0.00150111  0.67210356  1
  Ag  Ag2  1  0.00911902  0.16867258  0.50690302  1
  Ag  Ag3  1  0.17275301  0.00405767  0.16490619  1
  Ag  Ag4  1  0.16538636  0.50080967  -0.00019938  1
  Ag  Ag5  1  0.49826069  0.16846454  0.67215771  1
  Ag  Ag6  1  0.65886742  0.33341417  0.33623059  1
  Ag  Ag7  1  0.50417118  0.66447403  0.50524263  1
  Ag  Ag8  1  0.17340861  0.16675661  0.00186577  1
  Ag  Ag9  1  0.82693621  0.33156233  0.82675465  1
  Ag  Ag10  1  0.33873476  0.67170781  0.00295599  1
  Ag  Ag11  1  0.00173305  0.16307517  0.82545327  1
  Ag  Ag12  1  0.66346481  0.49931177  0.16604253  1
  Ag  Ag13  1  0.50243316  0.00680101  0.83886700  1
  Ag  Ag14  1  0.33061978  0.84211391  0.16371065  1
  Ag  Ag15  1  0.83192791  0.50381367  0.00407511  1
  Ag  Ag16  1  0.00142214  0.66625700  0.33695832  1
  Ag  Ag17  1  0.33399997  0.16316408  0.16550855  1
  Ag  Ag18  1  0.65713488  -0.00114820  -0.00125441  1
  Ag  Ag19  1  0.82666753  0.49893247  0.32971664  1
  Ag  Ag20  1  0.83103272  0.83047244  -0.00030212  1
  Ag  Ag21  1  0.65796900  0.16756593  0.83096495  1
  Ag  Ag22  1  0.00892401  0.00897647  0.66895841  1
  Ag  Ag23  1  0.50528850  0.32165045  0.83119293  1
  Ag  Ag24  1  0.16516094  0.16354255  0.66458576  1
  Ag  Ag25  1  0.16650198  0.84137236  0.66910833  1
  Ag  Ag26  1  0.49571819  0.32901988  0.17143229  1
  Ag  Ag27  1  0.83141780  0.66091447  0.49977050  1
  Ag  Ag28  1  0.49463215  0.17503578  0.32647935  1
  Ag  Ag29  1  0.17139907  0.66860941  0.15739944  1
  Ag  Ag30  1  0.66579860  0.17001776  0.50875381  1
  Ag  Ag31  1  0.16089746  0.32501133  0.50258329  1
  Ag  Ag32  1  0.49487980  0.83456917  0.67151571  1
  Ag  Ag33  1  0.00622186  0.66729158  0.66561084  1
  Ag  Ag34  1  0.17319228  0.32499629  0.16984752  1
  Ag  Ag35  1  0.83280518  -0.00130503  0.16283785  1
  Ag  Ag36  1  0.16609818  0.00904435  0.51015172  1
  Ag  Ag37  1  0.66404867  0.33072677  0.66504307  1
  Ag  Ag38  1  0.49570564  0.16237161  -0.00239645  1
  Ag  Ag39  1  0.34176344  0.33067276  0.33094375  1
  Ag  Ag40  1  0.65946230  0.66938568  -0.00149759  1
  Ag  Ag41  1  0.50449810  0.49309614  0.32904519  1
  Ag  Ag42  1  -0.00115484  0.83664429  0.83251086  1
  Ag  Ag43  1  0.16817647  0.66798532  0.83722432  1
  Ag  Ag44  1  0.83411348  0.33486623  0.50464975  1
  Ag  Ag45  1  0.49401571  0.00687258  0.15675296  1
  Ag  Ag46  1  0.66380250  0.83702197  0.83609825  1
  Ag  Ag47  1  0.49739387  0.49754287  0.66642804  1
  Ag  Ag48  1  0.49885016  0.66885400  0.83620071  1
  Ag  Ag49  1  0.00827731  0.83361714  0.15962029  1
  Ag  Ag50  1  0.16851371  0.49778891  0.67069281  1
  Ag  Ag51  1  0.49501378  0.66558606  0.16102226  1
  Ag  Ag52  1  0.33822285  -0.00097241  0.00204415  1
  Ag  Ag53  1  0.17049981  0.17009013  0.33444648  1
  Sb  Sb54  1  0.83806209  0.00372626  0.49711314  1
  Sb  Sb55  1  0.66756354  0.66048745  0.32912084  1
  Sb  Sb56  1  0.33703881  0.49698906  0.16569463  1
  Sb  Sb57  1  0.00079918  0.33161801  -0.00577934  1
  Sb  Sb58  1  0.33408221  0.50100163  0.83470670  1
  Sb  Sb59  1  0.16517609  0.83374971  -0.00169319  1
  Sb  Sb60  1  0.65712776  0.16986184  0.16306984  1
  Sb  Sb61  1  0.00241075  -0.00219868  0.33421623  1
  Sb  Sb62  1  0.16804421  0.33386088  0.83200533  1
  Sb  Sb63  1  0.00142978  0.66825025  -0.00234128  1
  Sb  Sb64  1  0.33484411  0.83430373  0.83753158  1
  Sb  Sb65  1  0.66594353  0.83745233  0.50924973  1
  Sb  Sb66  1  0.00037371  0.49961398  0.83120111  1
  Sb  Sb67  1  0.49865571  0.50002679  0.00079135  1
  Sb  Sb68  1  0.66418341  0.33278734  -0.00177871  1
  Sb  Sb69  1  0.83305343  0.17244610  0.33378861  1
  Sb  Sb70  1  0.33381012  0.32694473  0.66221951  1
  Sb  Sb71  1  0.50178849  0.33374679  0.49861770  1
  Sb  Sb72  1  0.00071129  0.83568013  0.50568844  1
  Sb  Sb73  1  -0.00067986  0.49561262  0.50152322  1
  Sb  Sb74  1  0.33098084  0.16661179  0.49635667  1
  Sb  Sb75  1  0.82985088  0.00336036  0.83708645  1
  Sb  Sb76  1  0.49995900  0.83210433  0.33250063  1
  Sb  Sb77  1  0.16655875  0.83703067  0.33239409  1
  Sb  Sb78  1  0.83511501  0.82739966  0.32767064  1
  Sb  Sb79  1  0.33489232  0.16500006  0.83659436  1
  Sb  Sb80  1  0.50349040  0.83731050  -0.00519198  1
  Sb  Sb81  1  0.66418524  0.66191373  0.67018359  1
  Sb  Sb82  1  0.33275293  0.00649340  0.32699458  1
  Sb  Sb83  1  0.33427294  0.33035880  0.00457546  1
  Sb  Sb84  1  0.33491224  0.49909227  0.50050010  1
  Sb  Sb85  1  0.33272086  0.83451099  0.49907895  1
  Sb  Sb86  1  0.66661267  0.49394920  0.49625779  1
  Sb  Sb87  1  0.83097859  0.16603184  -0.00095032  1
  Sb  Sb88  1  0.83390638  0.66899928  0.16706347  1
  Sb  Sb89  1  0.66473915  0.49712579  0.83734805  1
  Sb  Sb90  1  -0.00128644  0.50386970  0.16724476  1
  Sb  Sb91  1  0.00236379  0.00012514  -0.00364446  1
  Sb  Sb92  1  0.16629090  0.66513401  0.50357778  1
  Sb  Sb93  1  0.33213871  0.67127247  0.67185009  1
  Sb  Sb94  1  0.66279006  0.00691506  0.67322678  1
  Sb  Sb95  1  0.00933026  0.16234187  0.16659181  1
  Sb  Sb96  1  0.83605050  0.83156218  0.67270401  1
  Sb  Sb97  1  0.49521376  0.00121402  0.50329238  1
  Sb  Sb98  1  0.16776077  0.49417549  0.33152758  1
  Sb  Sb99  1  -0.00034075  0.33528123  0.33836979  1
  Sb  Sb100  1  0.17022589  -0.00203373  0.83338580  1
  Sb  Sb101  1  0.66408913  0.00858164  0.32692210  1
  Sb  Sb102  1  0.83286387  0.49633914  0.66689757  1
  Sb  Sb103  1  0.83675243  0.16832175  0.66763243  1
  Sb  Sb104  1  0.66425457  0.83147241  0.16045171  1
  Sb  Sb105  1  0.33137338  0.66136766  0.32631165  1
  Sb  Sb106  1  0.83374623  0.66370400  0.83151000  1
  Sb  Sb107  1  0.83183889  0.33075701  0.16735562  1
  Te  Te108  1  0.16960876  0.16643337  0.16450351  1
  Te  Te109  1  0.16751048  0.16644609  0.50227312  1
  Te  Te110  1  0.16419443  0.16738853  0.83285248  1
  Te  Te111  1  0.16623389  0.50332721  0.16444297  1
  Te  Te112  1  0.16741218  0.49568118  0.50398543  1
  Te  Te113  1  0.16689236  0.50368450  0.83322390  1
  Te  Te114  1  0.16704980  0.83166228  0.16610081  1
  Te  Te115  1  0.16655085  0.83725026  0.50541809  1
  Te  Te116  1  0.16330615  0.82986206  0.82960990  1
  Te  Te117  1  0.49724872  0.16815382  0.16651456  1
  Te  Te118  1  0.50252991  0.16633960  0.50353810  1
  Te  Te119  1  0.49889816  0.16580135  0.83328400  1
  Te  Te120  1  0.50269015  0.49940104  0.16652425  1
  Te  Te121  1  0.50114069  0.50429262  0.50295853  1
  Te  Te122  1  0.50062854  0.50659260  0.82998259  1
  Te  Te123  1  0.49661838  0.83060209  0.16794584  1
  Te  Te124  1  0.50051961  0.82868866  0.50651664  1
  Te  Te125  1  0.50093956  0.82866643  0.82999148  1
  Te  Te126  1  0.83618111  0.16026815  0.16625491  1
  Te  Te127  1  0.82973397  0.17140926  0.49847437  1
  Te  Te128  1  0.83551769  0.17188742  0.83471838  1
  Te  Te129  1  0.82979291  0.49982191  0.16560404  1
  Te  Te130  1  0.83290345  0.49926319  0.49767586  1
  Te  Te131  1  0.83287196  0.49308168  0.83810587  1
  Te  Te132  1  0.83390270  0.83700928  0.16104081  1
  Te  Te133  1  0.83267682  0.82830975  0.49886859  1
  Te  Te134  1  0.83368262  0.83294901  0.83861484  1
  Te  Te135  1  0.17165605  0.00311101  0.00174296  1
  Te  Te136  1  0.16683208  0.00557524  0.32969825  1
  Te  Te137  1  0.16745553  0.00109988  0.67104124  1
  Te  Te138  1  0.16827219  0.33400507  0.00157391  1
  Te  Te139  1  0.16517478  0.33069604  0.33060532  1
  Te  Te140  1  0.16627369  0.33387649  0.66687365  1
  Te  Te141  1  0.16704161  0.66719399  -0.00153327  1
  Te  Te142  1  0.16320279  0.66471386  0.33296427  1
  Te  Te143  1  0.16691502  0.66335120  0.66737912  1
  Te  Te144  1  0.49909499  0.00036757  -0.00021724  1
  Te  Te145  1  0.49945827  0.00504975  0.33141058  1
  Te  Te146  1  0.49831697  0.00189371  0.66794475  1
  Te  Te147  1  0.49947679  0.32997858  0.00083593  1
  Te  Te148  1  0.50150077  0.33255649  0.33497368  1
  Te  Te149  1  0.49998482  0.33153528  0.66580306  1
  Te  Te150  1  0.49958116  0.66604569  0.00013994  1
  Te  Te151  1  0.49992408  0.66347907  0.32872492  1
  Te  Te152  1  0.49935660  0.66566486  0.67005148  1
  Te  Te153  1  0.83229769  -0.00170916  0.00389812  1
  Te  Te154  1  0.83330030  -0.00068677  0.32572901  1
  Te  Te155  1  0.84070352  -0.00232914  0.66423391  1
  Te  Te156  1  0.83285678  0.33798848  -0.00267446  1
  Te  Te157  1  0.83104559  0.33945378  0.33615757  1
  Te  Te158  1  0.83343710  0.33481027  0.66577640  1
  Te  Te159  1  0.83064972  0.66487806  -0.00077218  1
  Te  Te160  1  0.83551886  0.66057970  0.33630685  1
  Te  Te161  1  0.83579014  0.66381205  0.66147968  1
  Te  Te162  1  0.00490838  0.16605288  -0.00543915  1
  Te  Te163  1  0.00501200  0.16668499  0.33835007  1
  Te  Te164  1  0.00089698  0.16793161  0.66706086  1
  Te  Te165  1  0.00184964  0.49986177  -0.00060023  1
  Te  Te166  1  -0.00351784  0.50612663  0.33404027  1
  Te  Te167  1  0.00382307  0.50320146  0.66703366  1
  Te  Te168  1  -0.00472411  0.83382548  -0.00234291  1
  Te  Te169  1  0.00010133  0.82712208  0.32835023  1
  Te  Te170  1  0.00227562  0.82900234  0.67085870  1
  Te  Te171  1  0.33377659  0.16452854  0.00378303  1
  Te  Te172  1  0.33257026  0.17040851  0.32874496  1
  Te  Te173  1  0.33281054  0.16163761  0.66662501  1
  Te  Te174  1  0.32528299  0.50752806  0.00014447  1
  Te  Te175  1  0.34005560  0.49295023  0.33381275  1
  Te  Te176  1  0.33431592  0.50005614  0.66717765  1
  Te  Te177  1  0.33188630  0.83396444  0.00508103  1
  Te  Te178  1  0.33366063  0.83297039  0.32462094  1
  Te  Te179  1  0.33241650  0.83872431  0.66658974  1
  Te  Te180  1  0.66317029  0.16274370  -0.00521584  1
  Te  Te181  1  0.66429160  0.17359796  0.33399409  1
  Te  Te182  1  0.66449121  0.17003592  0.66954632  1
  Te  Te183  1  0.66780923  0.50338580  0.00405973  1
  Te  Te184  1  0.66507530  0.49568781  0.33004615  1
  Te  Te185  1  0.66111239  0.49364196  0.66645267  1
  Te  Te186  1  0.67001362  0.83271812  -0.00373084  1
  Te  Te187  1  0.66739237  0.83500564  0.33658719  1
  Te  Te188  1  0.66361218  0.83442319  0.67551661  1
  Te  Te189  1  0.00583164  -0.00545711  0.16611473  1
  Te  Te190  1  0.00412294  0.00456633  0.50385726  1
  Te  Te191  1  -0.00210843  -0.00065252  0.82910605  1
  Te  Te192  1  0.00535365  0.33259811  0.16652784  1
  Te  Te193  1  -0.00079742  0.32931317  0.50467634  1
  Te  Te194  1  -0.00027386  0.32897207  0.82668462  1
  Te  Te195  1  0.00322297  0.67142622  0.16729141  1
  Te  Te196  1  -0.00150466  0.66785191  0.50137960  1
  Te  Te197  1  0.00171969  0.67026019  0.82902586  1
  Te  Te198  1  0.33383441  0.00134922  0.16484934  1
  Te  Te199  1  0.32652647  -0.00113634  0.50542138  1
  Te  Te200  1  0.34123450  -0.00128711  0.83593542  1
  Te  Te201  1  0.33352484  0.32989852  0.16957944  1
  Te  Te202  1  0.32360605  0.33324283  0.49350288  1
  Te  Te203  1  0.34520532  0.33367746  0.83304104  1
  Te  Te204  1  0.33262591  0.66565889  0.16345897  1
  Te  Te205  1  0.34141662  0.66789292  0.49730612  1
  Te  Te206  1  0.33231500  0.66788936  0.83985173  1
  Te  Te207  1  0.66096730  -0.00046056  0.16010506  1
  Te  Te208  1  0.66879470  0.00808024  0.49945878  1
  Te  Te209  1  0.66341350  0.00084536  0.83766445  1
  Te  Te210  1  0.66431650  0.33706086  0.16926487  1
  Te  Te211  1  0.66814384  0.32921048  0.50226653  1
  Te  Te212  1  0.66496344  0.33049932  0.83121812  1
  Te  Te213  1  0.66333496  0.66405652  0.16192807  1
  Te  Te214  1  0.66533284  0.66870427  0.50030858  1
  Te  Te215  1  0.66546675  0.66906794  0.83737805  1
