# generated using pymatgen
data_AgSbTe2
_symmetry_space_group_name_H-M   'P 1'
_cell_length_a   18.34585634
_cell_length_b   18.35390773
_cell_length_c   18.34762783
_cell_angle_alpha   90.00161093
_cell_angle_beta   89.99906803
_cell_angle_gamma   90.00126232
_symmetry_Int_Tables_number   1
_chemical_formula_structural   AgSbTe2
_chemical_formula_sum   'Ag54 Sb54 Te108'
_cell_volume   6177.97937625
_cell_formula_units_Z   54
loop_
 _symmetry_equiv_pos_site_id
 _symmetry_equiv_pos_as_xyz
  1  'x, y, z'
loop_
 _atom_site_type_symbol
 _atom_site_label
 _atom_site_symmetry_multiplicity
 _atom_site_fract_x
 _atom_site_fract_y
 _atom_site_fract_z
 _atom_site_occupancy
  Ag  Ag0  1  0.65937958  0.00351058  0.33813238  1
  Ag  Ag1  1  0.66345935  -0.00214006  0.66715744  1
  Ag  Ag2  1  0.33998984  0.33508421  0.34017089  1
  Ag  Ag3  1  0.66738220  0.83383573  0.15852629  1
  Ag  Ag4  1  -0.00374562  -0.01188415  -0.00020732  1
  Ag  Ag5  1  0.00499663  0.67304683  0.66662680  1
  Ag  Ag6  1  0.50789374  0.83315752  -0.00565356  1
  Ag  Ag7  1  0.17269934  0.15860038  0.66486897  1
  Ag  Ag8  1  0.82304878  0.33820184  0.16256453  1
  Ag  Ag9  1  0.17990068  0.83537714  0.66441017  1
  Ag  Ag10  1  0.34294103  0.16141814  0.82447150  1
  Ag  Ag11  1  0.49361475  0.67826205  0.50037908  1
  Ag  Ag12  1  0.34260801  0.81424849  0.50521297  1
  Ag  Ag13  1  0.50361742  0.00025141  0.17774795  1
  Ag  Ag14  1  -0.00977943  0.33614025  0.00134314  1
  Ag  Ag15  1  0.83141059  0.67509594  0.84713836  1
  Ag  Ag16  1  0.67234767  0.67097388  0.00355658  1
  Ag  Ag17  1  0.34167129  0.16967030  0.17884846  1
  Ag  Ag18  1  0.34086996  0.49917745  0.17876147  1
  Ag  Ag19  1  0.82454273  0.82629002  -0.00043097  1
  Ag  Ag20  1  -0.00080887  -0.00110936  0.33539999  1
  Ag  Ag21  1  0.49548798  0.32584435  0.50125251  1
  Ag  Ag22  1  0.66071090  0.16425977  0.16861261  1
  Ag  Ag23  1  0.18171688  0.66233826  0.50105300  1
  Ag  Ag24  1  0.33520158  0.33421510  0.65196431  1
  Ag  Ag25  1  0.32982231  0.67664163  0.65592168  1
  Ag  Ag26  1  0.18217273  0.34163251  0.49921466  1
  Ag  Ag27  1  0.66110922  0.83798210  0.83848541  1
  Ag  Ag28  1  0.65782950  0.84019845  0.50088079  1
  Ag  Ag29  1  0.33422837  0.65716965  0.34472694  1
  Ag  Ag30  1  0.82752897  0.66505749  0.15883102  1
  Ag  Ag31  1  0.81964182  -0.00558160  0.83469062  1
  Ag  Ag32  1  0.65835316  0.32665241  0.33098692  1
  Ag  Ag33  1  -0.01379116  0.66918482  -0.00110765  1
  Ag  Ag34  1  0.66886593  0.33813821  0.01351216  1
  Ag  Ag35  1  0.49934176  0.16399403  0.33976713  1
  Ag  Ag36  1  -0.00287881  -0.00696364  0.66629798  1
  Ag  Ag37  1  0.33979298  0.18361688  0.49942285  1
  Ag  Ag38  1  0.01296099  0.50175095  0.49945646  1
  Ag  Ag39  1  0.65610442  0.16080841  0.49230894  1
  Ag  Ag40  1  0.34238873  0.83600933  0.82110471  1
  Ag  Ag41  1  0.34329920  0.00357497  0.33725197  1
  Ag  Ag42  1  0.49926184  0.00037791  0.49732355  1
  Ag  Ag43  1  0.33656699  0.66920454  -0.00063425  1
  Ag  Ag44  1  0.33681143  0.49937141  0.49689622  1
  Ag  Ag45  1  0.66116988  0.15495976  0.83496361  1
  Ag  Ag46  1  -0.00790557  0.83426163  0.16051911  1
  Ag  Ag47  1  0.83048455  0.51505079  0.00316135  1
  Ag  Ag48  1  0.49751210  0.83498514  0.66593187  1
  Ag  Ag49  1  0.50090852  0.32079659  0.82743762  1
  Ag  Ag50  1  0.17409557  0.49938944  0.33849531  1
  Ag  Ag51  1  0.65743799  0.49877369  0.49333192  1
  Ag  Ag52  1  0.50348632  -0.00006489  0.83057231  1
  Ag  Ag53  1  0.66372453  0.49433929  0.16891324  1
  Sb  Sb54  1  0.16929150  0.50432951  0.65831104  1
  Sb  Sb55  1  0.49993811  0.84099962  0.33881303  1
  Sb  Sb56  1  0.16670285  0.33350812  0.17184560  1
  Sb  Sb57  1  0.82516295  0.33213544  0.84065987  1
  Sb  Sb58  1  0.65983210  0.66720227  0.33065716  1
  Sb  Sb59  1  -0.00195321  0.50191193  0.83223162  1
  Sb  Sb60  1  0.00827275  0.33381092  0.66883099  1
  Sb  Sb61  1  0.33632880  0.50279941  0.83063808  1
  Sb  Sb62  1  0.33919089  0.83287947  0.17002726  1
  Sb  Sb63  1  0.50203405  0.16212842  -0.00039681  1
  Sb  Sb64  1  0.16600614  0.66834287  0.82705966  1
  Sb  Sb65  1  0.65809239  0.32628083  0.66074075  1
  Sb  Sb66  1  0.17048019  -0.00064501  0.16881665  1
  Sb  Sb67  1  0.50242052  0.67274405  0.83127459  1
  Sb  Sb68  1  -0.00371452  0.50396957  0.16993554  1
  Sb  Sb69  1  0.82551967  0.33503988  0.49425964  1
  Sb  Sb70  1  -0.00311439  0.83438677  0.83552672  1
  Sb  Sb71  1  0.16669493  0.66775237  0.17069158  1
  Sb  Sb72  1  0.17621187  -0.00124589  0.50125861  1
  Sb  Sb73  1  0.33906757  0.33707323  0.00290134  1
  Sb  Sb74  1  0.83335912  0.16515060  0.66754703  1
  Sb  Sb75  1  0.82198063  0.16495079  0.33176283  1
  Sb  Sb76  1  0.83062006  0.83376839  0.32642213  1
  Sb  Sb77  1  0.16910908  0.16739964  -0.00376466  1
  Sb  Sb78  1  0.00431836  0.16749828  0.49974439  1
  Sb  Sb79  1  0.66705513  -0.00417959  -0.00113756  1
  Sb  Sb80  1  0.16316576  0.50172524  0.00796924  1
  Sb  Sb81  1  0.33449810  -0.00384601  0.00237005  1
  Sb  Sb82  1  0.82678687  -0.00229113  0.16199153  1
  Sb  Sb83  1  0.49956068  0.50485809  0.66206763  1
  Sb  Sb84  1  0.82881013  0.16272936  0.00033254  1
  Sb  Sb85  1  0.49538075  0.49348505  0.33521599  1
  Sb  Sb86  1  0.82944210  0.83390135  0.67295340  1
  Sb  Sb87  1  0.17512615  0.33136044  0.82774117  1
  Sb  Sb88  1  0.00424138  0.66898490  0.33381611  1
  Sb  Sb89  1  0.66454870  0.67354261  0.66850514  1
  Sb  Sb90  1  0.50566566  0.50515630  0.00146629  1
  Sb  Sb91  1  -0.00156935  0.16351906  0.83388410  1
  Sb  Sb92  1  0.00028954  0.33030848  0.33111891  1
  Sb  Sb93  1  0.16944205  0.83072072  0.33888840  1
  Sb  Sb94  1  0.17822386  0.16925075  0.33939768  1
  Sb  Sb95  1  -0.00021620  0.83150637  0.50016104  1
  Sb  Sb96  1  0.82936120  0.66630417  0.49889158  1
  Sb  Sb97  1  0.50411084  0.32678197  0.16949946  1
  Sb  Sb98  1  0.66576718  0.50238516  0.83588875  1
  Sb  Sb99  1  0.16617533  0.83169607  -0.00478155  1
  Sb  Sb100  1  0.49572380  0.15960437  0.66152065  1
  Sb  Sb101  1  0.33874950  -0.00146766  0.66066334  1
  Sb  Sb102  1  0.17172213  -0.00111347  0.82962439  1
  Sb  Sb103  1  0.83262841  0.49997810  0.32848690  1
  Sb  Sb104  1  0.82439414  -0.00130604  0.50221201  1
  Sb  Sb105  1  0.50271347  0.67247661  0.17045946  1
  Sb  Sb106  1  -0.00333424  0.16177290  0.16653328  1
  Sb  Sb107  1  0.83269590  0.50258429  0.66935116  1
  Te  Te108  1  0.17488704  0.16739866  0.16601395  1
  Te  Te109  1  0.17183331  0.16920044  0.50520173  1
  Te  Te110  1  0.17309836  0.16661811  0.82697764  1
  Te  Te111  1  0.17348411  0.49979990  0.17528288  1
  Te  Te112  1  0.16957229  0.50113803  0.49824334  1
  Te  Te113  1  0.16675966  0.49891405  0.83509956  1
  Te  Te114  1  0.15954774  0.83342353  0.16605053  1
  Te  Te115  1  0.16757643  0.82878986  0.50553957  1
  Te  Te116  1  0.17629696  0.83291990  0.82608538  1
  Te  Te117  1  0.50067026  0.16134924  0.16557627  1
  Te  Te118  1  0.49921861  0.16551304  0.50053507  1
  Te  Te119  1  0.50093642  0.16275891  0.83429758  1
  Te  Te120  1  0.50129611  0.50223067  0.16661600  1
  Te  Te121  1  0.49952774  0.49723659  0.49979235  1
  Te  Te122  1  0.50050556  0.49080273  0.83204023  1
  Te  Te123  1  0.50445385  0.83926796  0.16130951  1
  Te  Te124  1  0.50032421  0.83635589  0.50002032  1
  Te  Te125  1  0.50076649  0.83279277  0.83308781  1
  Te  Te126  1  0.82724884  0.17259982  0.16623091  1
  Te  Te127  1  0.82639614  0.16777870  0.50022136  1
  Te  Te128  1  0.82684797  0.16033383  0.83299210  1
  Te  Te129  1  0.83085009  0.49986919  0.16267719  1
  Te  Te130  1  0.82679832  0.50028793  0.49983123  1
  Te  Te131  1  0.83248172  0.50363508  0.84078831  1
  Te  Te132  1  0.83091444  0.83186555  0.16102111  1
  Te  Te133  1  0.82576231  0.83172500  0.49951239  1
  Te  Te134  1  0.83132873  0.83460659  0.83804231  1
  Te  Te135  1  0.15592835  -0.00015367  0.00039592  1
  Te  Te136  1  0.16055321  0.00045306  0.33422460  1
  Te  Te137  1  0.15998166  -0.00287454  0.66521138  1
  Te  Te138  1  0.16051771  0.33444370  -0.00077152  1
  Te  Te139  1  0.16812329  0.33606814  0.33924186  1
  Te  Te140  1  0.17321894  0.33046404  0.66072292  1
  Te  Te141  1  0.17131132  0.66596223  -0.00062480  1
  Te  Te142  1  0.17238228  0.66327441  0.33921207  1
  Te  Te143  1  0.16739162  0.66997517  0.66210236  1
  Te  Te144  1  0.49848195  -0.00692148  -0.00740116  1
  Te  Te145  1  0.50199769  0.00389273  0.33532063  1
  Te  Te146  1  0.50423309  -0.00543198  0.66772848  1
  Te  Te147  1  0.50658962  0.33504508  -0.00242980  1
  Te  Te148  1  0.49953345  0.32739694  0.33474488  1
  Te  Te149  1  0.49444327  0.33531461  0.66418124  1
  Te  Te150  1  0.49991001  0.67172272  -0.00036425  1
  Te  Te151  1  0.49300612  0.66770580  0.33880881  1
  Te  Te152  1  0.49624374  0.67223997  0.66300610  1
  Te  Te153  1  0.83832691  -0.00325777  -0.00440981  1
  Te  Te154  1  0.83736632  -0.00002798  0.33273220  1
  Te  Te155  1  0.83450838  -0.00005089  0.67233027  1
  Te  Te156  1  0.82932966  0.33067995  0.00277225  1
  Te  Te157  1  0.83066618  0.33265078  0.32553113  1
  Te  Te158  1  0.83602449  0.33398952  0.66997620  1
  Te  Te159  1  0.83113727  0.67059873  0.00282008  1
  Te  Te160  1  0.83432700  0.66589708  0.32459714  1
  Te  Te161  1  0.83826237  0.66670473  0.66897509  1
  Te  Te162  1  0.00077223  0.17123534  0.00036509  1
  Te  Te163  1  0.00120531  0.16079142  0.33313675  1
  Te  Te164  1  0.00657588  0.16392755  0.66686206  1
  Te  Te165  1  -0.00421967  0.50339561  0.00155249  1
  Te  Te166  1  0.00485417  0.49940727  0.33835953  1
  Te  Te167  1  0.00048768  0.50381701  0.66140395  1
  Te  Te168  1  0.00041125  0.82979157  0.00083217  1
  Te  Te169  1  0.00024107  0.83785750  0.33052652  1
  Te  Te170  1  -0.00163842  0.83286906  0.66743629  1
  Te  Te171  1  0.33284061  0.16693299  -0.00104156  1
  Te  Te172  1  0.33726080  0.16656167  0.33639491  1
  Te  Te173  1  0.33224446  0.16499947  0.66574999  1
  Te  Te174  1  0.33241578  0.50519726  -0.00018134  1
  Te  Te175  1  0.33376020  0.49827416  0.33502540  1
  Te  Te176  1  0.33323490  0.49754963  0.66388736  1
  Te  Te177  1  0.33355924  0.83012382  0.00270635  1
  Te  Te178  1  0.33194961  0.83872497  0.33827665  1
  Te  Te179  1  0.33629181  0.83539259  0.66307791  1
  Te  Te180  1  0.66583401  0.17403059  0.00037258  1
  Te  Te181  1  0.66121080  0.16514045  0.33244555  1
  Te  Te182  1  0.66750660  0.16000995  0.67059253  1
  Te  Te183  1  0.67036888  0.50056961  0.00277660  1
  Te  Te184  1  0.66697364  0.49907640  0.33107599  1
  Te  Te185  1  0.66750146  0.50032891  0.65991491  1
  Te  Te186  1  0.66690724  0.83344495  -0.00041686  1
  Te  Te187  1  0.66710467  0.83712821  0.33454230  1
  Te  Te188  1  0.66325640  0.83715041  0.66481226  1
  Te  Te189  1  -0.00120737  -0.00248197  0.16447646  1
  Te  Te190  1  -0.00189058  0.00034984  0.50249505  1
  Te  Te191  1  0.00112416  0.00067861  0.83260095  1
  Te  Te192  1  -0.00227345  0.33306669  0.16249285  1
  Te  Te193  1  -0.00364376  0.33797355  0.50014546  1
  Te  Te194  1  -0.00055364  0.33273201  0.83860400  1
  Te  Te195  1  -0.00139337  0.67013276  0.16460799  1
  Te  Te196  1  -0.00263320  0.66401850  0.50230634  1
  Te  Te197  1  -0.00368343  0.66717070  0.83379469  1
  Te  Te198  1  0.33811148  0.00311245  0.17115059  1
  Te  Te199  1  0.33763927  0.00281709  0.49642963  1
  Te  Te200  1  0.33820636  -0.00061300  0.83413157  1
  Te  Te201  1  0.33417053  0.33438105  0.16925882  1
  Te  Te202  1  0.33705423  0.33848100  0.49618189  1
  Te  Te203  1  0.33952617  0.32945963  0.83593015  1
  Te  Te204  1  0.33430340  0.66406592  0.16364064  1
  Te  Te205  1  0.33683799  0.66029522  0.50068634  1
  Te  Te206  1  0.33419707  0.67048896  0.83468060  1
  Te  Te207  1  0.66409193  0.00089590  0.16635583  1
  Te  Te208  1  0.66361745  0.00071980  0.49883677  1
  Te  Te209  1  0.66390894  -0.00212570  0.83576166  1
  Te  Te210  1  0.66523799  0.33482805  0.17018358  1
  Te  Te211  1  0.66166040  0.33335219  0.49541412  1
  Te  Te212  1  0.66132321  0.33367498  0.82881774  1
  Te  Te213  1  0.66738219  0.66969670  0.16493894  1
  Te  Te214  1  0.66203711  0.66422788  0.49954887  1
  Te  Te215  1  0.67026606  0.67012187  0.83686349  1
