# generated using pymatgen
data_AgSbTe2
_symmetry_space_group_name_H-M   'P 1'
_cell_length_a   18.32226517
_cell_length_b   18.32710629
_cell_length_c   18.32335025
_cell_angle_alpha   89.99784871
_cell_angle_beta   89.99966519
_cell_angle_gamma   90.00245062
_symmetry_Int_Tables_number   1
_chemical_formula_structural   AgSbTe2
_chemical_formula_sum   'Ag54 Sb54 Te108'
_cell_volume   6152.87291669
_cell_formula_units_Z   54
loop_
 _symmetry_equiv_pos_site_id
 _symmetry_equiv_pos_as_xyz
  1  'x, y, z'
loop_
 _atom_site_type_symbol
 _atom_site_label
 _atom_site_symmetry_multiplicity
 _atom_site_fract_x
 _atom_site_fract_y
 _atom_site_fract_z
 _atom_site_occupancy
  Ag  Ag0  1  0.00365104  0.67287158  0.00133749  1
  Ag  Ag1  1  0.82526116  0.66851053  0.83772741  1
  Ag  Ag2  1  0.50245325  0.66464903  0.84053890  1
  Ag  Ag3  1  0.33897242  0.00521864  0.66969593  1
  Ag  Ag4  1  0.66579976  0.16315837  0.50292508  1
  Ag  Ag5  1  0.17514377  0.84028277  0.00260596  1
  Ag  Ag6  1  0.65993161  0.00479166  0.33249038  1
  Ag  Ag7  1  0.49823067  0.83852043  0.32767639  1
  Ag  Ag8  1  0.34152549  0.32315726  0.66738433  1
  Ag  Ag9  1  0.50572882  0.32471746  0.50416667  1
  Ag  Ag10  1  0.00092600  0.31936148  -0.00207094  1
  Ag  Ag11  1  0.34219567  0.16467984  0.83057466  1
  Ag  Ag12  1  0.16552421  0.15928676  -0.00434864  1
  Ag  Ag13  1  0.83151619  0.49883034  0.33346960  1
  Ag  Ag14  1  0.33796184  0.15629568  0.16087195  1
  Ag  Ag15  1  0.66056240  0.49537937  0.83932689  1
  Ag  Ag16  1  0.82622200  0.32982892  0.49843318  1
  Ag  Ag17  1  0.49517056  0.83578361  0.00524875  1
  Ag  Ag18  1  0.34251885  -0.00209598  0.32666822  1
  Ag  Ag19  1  0.49726703  -0.00158416  0.16318319  1
  Ag  Ag20  1  0.50128553  0.32624081  0.82844818  1
  Ag  Ag21  1  0.33656188  -0.00319744  0.00455429  1
  Ag  Ag22  1  0.34291382  0.50831717  0.16634748  1
  Ag  Ag23  1  0.16476607  0.67541063  0.49847439  1
  Ag  Ag24  1  0.49928660  0.50428985  -0.00007830  1
  Ag  Ag25  1  0.00454190  0.00097221  0.00135735  1
  Ag  Ag26  1  0.49663648  0.16493000  0.67148116  1
  Ag  Ag27  1  0.82980643  0.16748268  0.66576225  1
  Ag  Ag28  1  0.49950051  0.00081865  0.50110139  1
  Ag  Ag29  1  0.82446517  0.00709322  0.83535858  1
  Ag  Ag30  1  0.33926287  0.67628455  0.00523998  1
  Ag  Ag31  1  0.49940862  0.48783964  0.67508134  1
  Ag  Ag32  1  0.50174230  0.00443832  0.83439633  1
  Ag  Ag33  1  0.66025105  0.16525543  0.82912634  1
  Ag  Ag34  1  0.16963651  0.50235037  0.33276016  1
  Ag  Ag35  1  0.65839277  0.50095203  0.16386614  1
  Ag  Ag36  1  0.17670922  -0.00159652  0.50072035  1
  Ag  Ag37  1  0.49837978  0.84584292  0.66695591  1
  Ag  Ag38  1  0.83009671  0.66627078  0.16664004  1
  Ag  Ag39  1  0.83418304  0.66543352  0.49642222  1
  Ag  Ag40  1  0.49918273  0.33327955  0.16491865  1
  Ag  Ag41  1  0.00177977  0.16146592  0.15629387  1
  Ag  Ag42  1  0.33649724  0.67125531  0.32378732  1
  Ag  Ag43  1  0.33979893  0.83442320  0.16425179  1
  Ag  Ag44  1  -0.00105146  0.16607847  0.83722343  1
  Ag  Ag45  1  0.00319962  0.83572008  0.16235631  1
  Ag  Ag46  1  -0.00192377  0.83403478  0.49693927  1
  Ag  Ag47  1  0.66285642  0.84330823  0.49727556  1
  Ag  Ag48  1  0.82887412  0.16862925  0.33752232  1
  Ag  Ag49  1  0.00172622  0.32672999  0.67075377  1
  Ag  Ag50  1  0.17706103  0.16579622  0.67193936  1
  Ag  Ag51  1  0.49558421  0.66769965  0.16093408  1
  Ag  Ag52  1  0.66512202  0.32714713  0.33404183  1
  Ag  Ag53  1  0.65248940  0.00165274  0.00136594  1
  Sb  Sb54  1  0.17273722  0.66758899  0.16882174  1
  Sb  Sb55  1  0.17209825  0.00447913  0.83528854  1
  Sb  Sb56  1  0.33721422  0.66940379  0.66830896  1
  Sb  Sb57  1  0.82760137  0.49440141  0.66368957  1
  Sb  Sb58  1  0.66001025  0.83120582  0.16916441  1
  Sb  Sb59  1  0.82742082  0.32852395  0.82799069  1
  Sb  Sb60  1  0.82865500  0.33550537  0.17055915  1
  Sb  Sb61  1  0.66317694  0.66724398  0.33183880  1
  Sb  Sb62  1  0.34327760  0.49536187  0.83918319  1
  Sb  Sb63  1  0.33853382  0.84011130  0.84183706  1
  Sb  Sb64  1  0.33710848  0.83662829  0.49403811  1
  Sb  Sb65  1  0.17285099  0.84010496  0.66736534  1
  Sb  Sb66  1  0.66489952  0.32863128  0.00234456  1
  Sb  Sb67  1  0.33467772  0.32734959  -0.00180868  1
  Sb  Sb68  1  0.00023709  -0.00036547  0.32932602  1
  Sb  Sb69  1  -0.00616891  0.33174063  0.33224372  1
  Sb  Sb70  1  0.82887101  0.83824610  0.66565348  1
  Sb  Sb71  1  0.16606561  0.16724073  0.33315236  1
  Sb  Sb72  1  0.83140721  0.83310723  0.00025717  1
  Sb  Sb73  1  0.83812621  0.16533932  -0.00188203  1
  Sb  Sb74  1  0.50090908  0.67053321  0.49946494  1
  Sb  Sb75  1  0.17547118  -0.00046248  0.16705404  1
  Sb  Sb76  1  0.17400116  0.49525440  0.66194442  1
  Sb  Sb77  1  -0.00088402  0.50307642  0.50038310  1
  Sb  Sb78  1  -0.00170783  0.83914265  0.83690120  1
  Sb  Sb79  1  0.00213786  0.66811950  0.32889136  1
  Sb  Sb80  1  0.82754186  0.00230359  0.50387327  1
  Sb  Sb81  1  0.17344026  0.50093367  0.00456158  1
  Sb  Sb82  1  0.66155988  0.83814121  0.83098707  1
  Sb  Sb83  1  0.17131109  0.32982631  0.83304523  1
  Sb  Sb84  1  0.17231400  0.33156354  0.16675709  1
  Sb  Sb85  1  0.82785993  0.83426719  0.33362489  1
  Sb  Sb86  1  0.66022108  0.67120054  -0.00003397  1
  Sb  Sb87  1  0.66472882  0.49720030  0.49729453  1
  Sb  Sb88  1  0.66096277  0.32960056  0.66152292  1
  Sb  Sb89  1  -0.00104442  0.66406299  0.66983882  1
  Sb  Sb90  1  0.50372387  0.15938980  0.33721652  1
  Sb  Sb91  1  0.00428964  0.00616984  0.67071654  1
  Sb  Sb92  1  0.49429294  0.16179506  -0.00439249  1
  Sb  Sb93  1  0.34132032  0.32998645  0.33428777  1
  Sb  Sb94  1  0.65794803  0.00346751  0.66676065  1
  Sb  Sb95  1  0.66298990  0.16746341  0.16668282  1
  Sb  Sb96  1  0.17299401  0.83159765  0.32973380  1
  Sb  Sb97  1  0.34022073  0.16335113  0.50372132  1
  Sb  Sb98  1  0.50205487  0.50223326  0.32710244  1
  Sb  Sb99  1  -0.00921983  0.49486971  0.83625075  1
  Sb  Sb100  1  0.16795110  0.32923608  0.50085223  1
  Sb  Sb101  1  -0.00078253  0.50069819  0.16479196  1
  Sb  Sb102  1  0.82656747  0.50239789  0.00393185  1
  Sb  Sb103  1  0.82938009  -0.00277632  0.16309670  1
  Sb  Sb104  1  0.33630436  0.50055257  0.49462103  1
  Sb  Sb105  1  0.66459981  0.66628816  0.66740442  1
  Sb  Sb106  1  0.17056992  0.66781411  0.83333037  1
  Sb  Sb107  1  -0.00468260  0.16297803  0.50265651  1
  Te  Te108  1  0.16354394  0.16611086  0.16412619  1
  Te  Te109  1  0.16457003  0.16051246  0.50279246  1
  Te  Te110  1  0.16307779  0.16667086  0.83247143  1
  Te  Te111  1  0.17020385  0.49954931  0.17319041  1
  Te  Te112  1  0.16723109  0.50264855  0.49402605  1
  Te  Te113  1  0.16612705  0.49961379  0.83243319  1
  Te  Te114  1  0.16206360  0.83379555  0.16172999  1
  Te  Te115  1  0.16478073  0.83604350  0.50012185  1
  Te  Te116  1  0.16666870  0.83453703  0.84082055  1
  Te  Te117  1  0.49736873  0.16596370  0.16532604  1
  Te  Te118  1  0.50498778  0.16555715  0.50311768  1
  Te  Te119  1  0.50031232  0.16565286  0.83317713  1
  Te  Te120  1  0.50004508  0.50285528  0.16672321  1
  Te  Te121  1  0.50074951  0.49856221  0.50722440  1
  Te  Te122  1  0.50298421  0.50168964  0.83482509  1
  Te  Te123  1  0.49951849  0.83461509  0.16606887  1
  Te  Te124  1  0.50259868  0.83570690  0.50169777  1
  Te  Te125  1  0.50037881  0.83344114  0.83156554  1
  Te  Te126  1  0.83581771  0.16653924  0.17131227  1
  Te  Te127  1  0.82905065  0.16861432  0.50009630  1
  Te  Te128  1  0.83307630  0.16536106  0.83092710  1
  Te  Te129  1  0.83150623  0.50406828  0.17156203  1
  Te  Te130  1  0.83224658  0.50182238  0.49616830  1
  Te  Te131  1  0.82302517  0.50390211  0.83266715  1
  Te  Te132  1  0.83858044  0.82704194  0.16791481  1
  Te  Te133  1  0.83265651  0.82987256  0.50091551  1
  Te  Te134  1  0.83086861  0.82796835  0.83091876  1
  Te  Te135  1  0.16701816  -0.00004420  0.00114718  1
  Te  Te136  1  0.17032874  -0.00003097  0.34083161  1
  Te  Te137  1  0.17289919  0.00493876  0.66336866  1
  Te  Te138  1  0.16106902  0.33026171  -0.00013960  1
  Te  Te139  1  0.16723955  0.33977392  0.33531256  1
  Te  Te140  1  0.16600142  0.32745559  0.66560663  1
  Te  Te141  1  0.16738923  0.66908196  -0.00093326  1
  Te  Te142  1  0.17078757  0.66419828  0.33827978  1
  Te  Te143  1  0.16807037  0.66588339  0.65969042  1
  Te  Te144  1  0.49670424  -0.00010119  -0.00069247  1
  Te  Te145  1  0.50035304  -0.00066078  0.33491630  1
  Te  Te146  1  0.49745315  0.00321610  0.66664926  1
  Te  Te147  1  0.50011240  0.33780466  0.00305791  1
  Te  Te148  1  0.50467352  0.33422738  0.33462102  1
  Te  Te149  1  0.49971170  0.32880776  0.66715408  1
  Te  Te150  1  0.49986679  0.66878021  0.00091972  1
  Te  Te151  1  0.49559852  0.67146489  0.33097644  1
  Te  Te152  1  0.49876603  0.66923010  0.66982825  1
  Te  Te153  1  0.83850486  -0.00110440  -0.00514439  1
  Te  Te154  1  0.82798146  0.00412183  0.33314881  1
  Te  Te155  1  0.83496318  0.00553961  0.67391997  1
  Te  Te156  1  0.84027542  0.33553089  -0.00041426  1
  Te  Te157  1  0.82891024  0.33260706  0.33718235  1
  Te  Te158  1  0.83723451  0.32993736  0.66119193  1
  Te  Te159  1  0.83417288  0.66655918  -0.00025860  1
  Te  Te160  1  0.83351987  0.66587675  0.33327360  1
  Te  Te161  1  0.83424348  0.66502857  0.66601826  1
  Te  Te162  1  0.00156920  0.16354688  -0.00081093  1
  Te  Te163  1  -0.00451389  0.16661421  0.32887817  1
  Te  Te164  1  -0.00256557  0.16900447  0.66857056  1
  Te  Te165  1  0.00249584  0.50630366  -0.00055688  1
  Te  Te166  1  -0.00414101  0.49971636  0.33243368  1
  Te  Te167  1  0.00194796  0.49072992  0.66875349  1
  Te  Te168  1  -0.00186094  0.83438424  0.00129326  1
  Te  Te169  1  0.00056787  0.83391841  0.33343427  1
  Te  Te170  1  0.00254345  0.83335795  0.66233286  1
  Te  Te171  1  0.32764460  0.16376630  0.00037503  1
  Te  Te172  1  0.33131486  0.16170283  0.32552406  1
  Te  Te173  1  0.33504782  0.16562894  0.66674730  1
  Te  Te174  1  0.33753087  0.50147393  0.00601683  1
  Te  Te175  1  0.33277451  0.50075611  0.32757727  1
  Te  Te176  1  0.33888032  0.49735285  0.66729772  1
  Te  Te177  1  0.33423854  0.83498975  0.00306809  1
  Te  Te178  1  0.33753478  0.83490313  0.32764576  1
  Te  Te179  1  0.33857643  0.83887515  0.66717393  1
  Te  Te180  1  0.66985284  0.16108938  -0.00415216  1
  Te  Te181  1  0.66890085  0.16601229  0.33324733  1
  Te  Te182  1  0.66866675  0.16717451  0.66769324  1
  Te  Te183  1  0.66011984  0.49847423  0.00117734  1
  Te  Te184  1  0.67040003  0.49831999  0.32983030  1
  Te  Te185  1  0.65989449  0.49873999  0.67276737  1
  Te  Te186  1  0.66035776  0.84206393  0.00011688  1
  Te  Te187  1  0.66084809  0.83805855  0.33763789  1
  Te  Te188  1  0.66106738  0.83390835  0.65810436  1
  Te  Te189  1  -0.00230205  -0.00036921  0.16327538  1
  Te  Te190  1  -0.00181822  -0.00579328  0.49860478  1
  Te  Te191  1  -0.00146190  0.00466570  0.83806443  1
  Te  Te192  1  -0.00058092  0.33070000  0.16246789  1
  Te  Te193  1  -0.00312485  0.33262773  0.50239222  1
  Te  Te194  1  -0.00236048  0.32855296  0.83407043  1
  Te  Te195  1  -0.00168106  0.66849928  0.16204707  1
  Te  Te196  1  -0.00122754  0.67066748  0.50105010  1
  Te  Te197  1  -0.00167059  0.66596584  0.83824276  1
  Te  Te198  1  0.33620726  -0.00234569  0.16604434  1
  Te  Te199  1  0.33751096  0.00016016  0.49836342  1
  Te  Te200  1  0.33767162  0.00515095  0.83476861  1
  Te  Te201  1  0.33992471  0.33209879  0.16700539  1
  Te  Te202  1  0.33834186  0.33199117  0.50454752  1
  Te  Te203  1  0.33960705  0.32749270  0.82993160  1
  Te  Te204  1  0.33453394  0.66962256  0.16563839  1
  Te  Te205  1  0.32956328  0.66834262  0.49697447  1
  Te  Te206  1  0.33867780  0.66555740  0.83891684  1
  Te  Te207  1  0.66136153  -0.00066948  0.16633716  1
  Te  Te208  1  0.66359503  0.00272642  0.49696492  1
  Te  Te209  1  0.66468588  0.00283453  0.83516601  1
  Te  Te210  1  0.66104130  0.33680882  0.16991339  1
  Te  Te211  1  0.66603512  0.33106881  0.49500443  1
  Te  Te212  1  0.66088340  0.33088341  0.83542164  1
  Te  Te213  1  0.66805983  0.66265628  0.16594947  1
  Te  Te214  1  0.67223361  0.66802793  0.49922309  1
  Te  Te215  1  0.66498083  0.66569193  0.83423269  1
