# generated using pymatgen
data_AgSbTe2
_symmetry_space_group_name_H-M   'P 1'
_cell_length_a   18.33497201
_cell_length_b   18.33920374
_cell_length_c   18.32994817
_cell_angle_alpha   90.00016881
_cell_angle_beta   89.99804830
_cell_angle_gamma   89.99789216
_symmetry_Int_Tables_number   1
_chemical_formula_structural   AgSbTe2
_chemical_formula_sum   'Ag54 Sb54 Te108'
_cell_volume   6163.42283384
_cell_formula_units_Z   54
loop_
 _symmetry_equiv_pos_site_id
 _symmetry_equiv_pos_as_xyz
  1  'x, y, z'
loop_
 _atom_site_type_symbol
 _atom_site_label
 _atom_site_symmetry_multiplicity
 _atom_site_fract_x
 _atom_site_fract_y
 _atom_site_fract_z
 _atom_site_occupancy
  Ag  Ag0  1  0.83163419  0.00406417  0.83564343  1
  Ag  Ag1  1  0.50072353  0.66573056  0.49814385  1
  Ag  Ag2  1  0.16997035  0.66266668  0.83759948  1
  Ag  Ag3  1  0.33889038  0.65944922  0.00554341  1
  Ag  Ag4  1  0.49675086  -0.00044268  0.16551046  1
  Ag  Ag5  1  0.81897057  0.33416586  0.16463014  1
  Ag  Ag6  1  0.49948111  0.66120678  0.16312027  1
  Ag  Ag7  1  0.66643140  0.16777028  0.83803955  1
  Ag  Ag8  1  0.66695791  0.00745301  0.00517167  1
  Ag  Ag9  1  0.16763583  0.33427061  0.50271924  1
  Ag  Ag10  1  0.00545918  0.00527535  0.33159024  1
  Ag  Ag11  1  0.49489994  0.50069247  0.00444411  1
  Ag  Ag12  1  0.33950528  0.83198986  0.16827161  1
  Ag  Ag13  1  0.49941925  0.66711248  0.84320293  1
  Ag  Ag14  1  0.17098975  0.82776050  0.67252048  1
  Ag  Ag15  1  0.50403019  0.17339362  0.00172308  1
  Ag  Ag16  1  0.33161505  0.33197157  0.32444898  1
  Ag  Ag17  1  0.65775635  0.65873610  0.32245243  1
  Ag  Ag18  1  0.66642299  0.33949720  0.66793308  1
  Ag  Ag19  1  0.82805164  0.17086016  0.67484767  1
  Ag  Ag20  1  0.01013390  0.66537385  -0.00148393  1
  Ag  Ag21  1  0.66185707  0.00305254  0.32424367  1
  Ag  Ag22  1  0.49660558  0.82902767  0.66586974  1
  Ag  Ag23  1  0.33362447  0.16916838  0.16573100  1
  Ag  Ag24  1  0.66382325  0.33579923  0.32160715  1
  Ag  Ag25  1  0.17453677  0.50240873  -0.00000018  1
  Ag  Ag26  1  0.16612476  0.17031890  0.67070148  1
  Ag  Ag27  1  0.16828287  0.82221925  -0.00190910  1
  Ag  Ag28  1  0.33379316  0.82981923  0.49166363  1
  Ag  Ag29  1  0.17032494  0.17029394  0.00174603  1
  Ag  Ag30  1  0.65931620  0.33192382  0.00451935  1
  Ag  Ag31  1  0.65774006  0.82621388  0.16374962  1
  Ag  Ag32  1  0.65796375  0.66314126  0.00541922  1
  Ag  Ag33  1  0.82073791  0.16498781  -0.00240579  1
  Ag  Ag34  1  0.00221582  -0.00016075  0.66221467  1
  Ag  Ag35  1  0.01076512  0.33121165  0.33044351  1
  Ag  Ag36  1  0.33995817  0.49728899  0.16363111  1
  Ag  Ag37  1  0.50014527  0.33942607  0.16241656  1
  Ag  Ag38  1  0.33831439  0.33989088  0.00698391  1
  Ag  Ag39  1  0.82528655  0.83469108  0.00098136  1
  Ag  Ag40  1  0.16314091  0.49996050  0.67316225  1
  Ag  Ag41  1  0.00319592  0.66312820  0.67166658  1
  Ag  Ag42  1  0.65905999  0.49830140  0.16541184  1
  Ag  Ag43  1  0.50592407  0.16493053  0.67393911  1
  Ag  Ag44  1  0.83376675  0.49727496  0.66454315  1
  Ag  Ag45  1  0.00014058  0.49912824  0.50006587  1
  Ag  Ag46  1  0.00311427  0.49862948  0.16748262  1
  Ag  Ag47  1  0.33195051  0.00126809  0.32611040  1
  Ag  Ag48  1  0.17025713  0.16806298  0.32355401  1
  Ag  Ag49  1  0.33907204  0.66652860  0.32358575  1
  Ag  Ag50  1  0.66206360  0.66018749  0.66875412  1
  Ag  Ag51  1  0.17684068  0.00140478  0.16588870  1
  Ag  Ag52  1  0.66654276  0.50142287  0.49641685  1
  Ag  Ag53  1  0.16817824  0.33603311  0.83370538  1
  Sb  Sb54  1  -0.00223865  -0.00300581  0.00211736  1
  Sb  Sb55  1  0.00197217  0.82910374  0.16521689  1
  Sb  Sb56  1  0.83421175  0.33025125  0.83606751  1
  Sb  Sb57  1  0.00122373  0.83235011  0.83416586  1
  Sb  Sb58  1  0.83341261  0.83276119  0.67320819  1
  Sb  Sb59  1  0.33597741  0.16762094  0.84186991  1
  Sb  Sb60  1  0.83178566  0.49879623  -0.00058992  1
  Sb  Sb61  1  0.49866179  0.82916857  0.00218830  1
  Sb  Sb62  1  0.33346590  0.83116643  0.83915156  1
  Sb  Sb63  1  0.17034130  0.83810323  0.32972507  1
  Sb  Sb64  1  0.83523545  0.16898132  0.32946027  1
  Sb  Sb65  1  0.33440817  0.33271966  0.66693164  1
  Sb  Sb66  1  0.16651925  0.00378504  0.49601740  1
  Sb  Sb67  1  0.49987638  0.50127206  0.67235198  1
  Sb  Sb68  1  0.49813213  0.33763837  0.49602608  1
  Sb  Sb69  1  0.66869487  0.00017001  0.66852957  1
  Sb  Sb70  1  0.50140040  0.50134415  0.32435058  1
  Sb  Sb71  1  0.83209659  0.66877510  0.83586878  1
  Sb  Sb72  1  0.49892686  0.33617637  0.84012010  1
  Sb  Sb73  1  0.17260104  0.66214485  0.50548045  1
  Sb  Sb74  1  0.66478508  0.83432229  0.84011953  1
  Sb  Sb75  1  0.82720860  0.66440090  0.50257114  1
  Sb  Sb76  1  0.00197175  0.17211684  0.50063580  1
  Sb  Sb77  1  -0.00049184  0.33650401  0.66255485  1
  Sb  Sb78  1  0.33699749  0.00035977  0.00827406  1
  Sb  Sb79  1  0.32898620  -0.00098446  0.65965943  1
  Sb  Sb80  1  -0.00309560  0.16684774  0.83302469  1
  Sb  Sb81  1  0.33511789  0.50363604  0.49305950  1
  Sb  Sb82  1  0.82408469  0.66124468  0.16357181  1
  Sb  Sb83  1  0.33148831  0.50046826  0.84148391  1
  Sb  Sb84  1  0.49668974  0.16696714  0.32721810  1
  Sb  Sb85  1  0.33504192  0.66666306  0.66888676  1
  Sb  Sb86  1  0.49798334  0.83070382  0.33181652  1
  Sb  Sb87  1  0.16694143  0.49413638  0.32909989  1
  Sb  Sb88  1  0.66656731  0.49775253  0.83684530  1
  Sb  Sb89  1  0.83506388  0.33531497  0.49754335  1
  Sb  Sb90  1  0.66010483  0.82560929  0.49490041  1
  Sb  Sb91  1  0.33260255  0.16500120  0.49410062  1
  Sb  Sb92  1  0.16286749  0.00088202  0.83665923  1
  Sb  Sb93  1  0.17530781  0.33101737  0.16469791  1
  Sb  Sb94  1  0.00566739  0.17122844  0.16644599  1
  Sb  Sb95  1  0.66497339  0.17246258  0.50336098  1
  Sb  Sb96  1  0.49996727  -0.00373215  0.49610711  1
  Sb  Sb97  1  0.83270397  0.00105202  0.50337187  1
  Sb  Sb98  1  0.00196767  0.50054862  0.83397390  1
  Sb  Sb99  1  0.00725103  0.82748297  0.50201338  1
  Sb  Sb100  1  0.50407084  -0.00204860  0.83989420  1
  Sb  Sb101  1  0.00322797  0.33813582  0.00722045  1
  Sb  Sb102  1  0.17779167  0.66819507  0.15933499  1
  Sb  Sb103  1  0.82981162  0.83542018  0.32470817  1
  Sb  Sb104  1  0.00204236  0.66358639  0.33073927  1
  Sb  Sb105  1  0.83064266  0.49837819  0.33380640  1
  Sb  Sb106  1  0.65928840  0.16993446  0.16027445  1
  Sb  Sb107  1  0.82941750  0.00563765  0.16171162  1
  Te  Te108  1  0.17049181  0.16331608  0.16629812  1
  Te  Te109  1  0.16717826  0.17235907  0.50608553  1
  Te  Te110  1  0.16801933  0.16860129  0.83381866  1
  Te  Te111  1  0.16402689  0.50131701  0.16196415  1
  Te  Te112  1  0.16636689  0.49555636  0.49967711  1
  Te  Te113  1  0.16632778  0.50150545  0.83539173  1
  Te  Te114  1  0.16935760  0.83863278  0.16263525  1
  Te  Te115  1  0.17323298  0.83315275  0.50591187  1
  Te  Te116  1  0.16779818  0.82998249  0.83389695  1
  Te  Te117  1  0.49391694  0.16462576  0.16327021  1
  Te  Te118  1  0.49864146  0.16795754  0.51089715  1
  Te  Te119  1  0.50330988  0.16656329  0.83517708  1
  Te  Te120  1  0.50048692  0.50024768  0.16140538  1
  Te  Te121  1  0.50413698  0.50501597  0.50403611  1
  Te  Te122  1  0.49974105  0.50683149  0.84204032  1
  Te  Te123  1  0.50033187  0.83539821  0.16584873  1
  Te  Te124  1  0.49501997  0.82930389  0.50651369  1
  Te  Te125  1  0.49974621  0.82854910  0.82563428  1
  Te  Te126  1  0.83639463  0.17336593  0.16096421  1
  Te  Te127  1  0.83353584  0.16769955  0.51126613  1
  Te  Te128  1  0.83033851  0.16575129  0.83584563  1
  Te  Te129  1  0.83317467  0.49416123  0.16648451  1
  Te  Te130  1  0.83205343  0.49959204  0.50662564  1
  Te  Te131  1  0.83429340  0.49926487  0.82397176  1
  Te  Te132  1  0.83022323  0.83412740  0.15890791  1
  Te  Te133  1  0.83465019  0.83314498  0.50080314  1
  Te  Te134  1  0.83234159  0.84025009  0.84194654  1
  Te  Te135  1  0.16551590  0.00465138  0.00292954  1
  Te  Te136  1  0.16799404  0.00454549  0.33004567  1
  Te  Te137  1  0.16194483  0.00137808  0.66732603  1
  Te  Te138  1  0.16717893  0.33438411  -0.00135484  1
  Te  Te139  1  0.16867966  0.32953056  0.33305159  1
  Te  Te140  1  0.16718276  0.33439830  0.66658616  1
  Te  Te141  1  0.16751944  0.66450201  -0.00066869  1
  Te  Te142  1  0.17094421  0.66824082  0.33451043  1
  Te  Te143  1  0.16707239  0.66569974  0.67066904  1
  Te  Te144  1  0.50543118  0.00303198  0.00392383  1
  Te  Te145  1  0.50098019  0.00072777  0.32860274  1
  Te  Te146  1  0.49898687  0.00272342  0.66708028  1
  Te  Te147  1  0.49951622  0.33343009  0.00052387  1
  Te  Te148  1  0.50069112  0.33232570  0.32922239  1
  Te  Te149  1  0.50255442  0.33019332  0.66779195  1
  Te  Te150  1  0.49907741  0.66800614  0.00194023  1
  Te  Te151  1  0.49991214  0.66684949  0.33153824  1
  Te  Te152  1  0.50110065  0.66609793  0.66743528  1
  Te  Te153  1  0.83144315  0.00314906  -0.00274601  1
  Te  Te154  1  0.83353671  0.00280917  0.33402686  1
  Te  Te155  1  0.83764939  0.00209113  0.67044777  1
  Te  Te156  1  0.83237629  0.33043583  0.00207436  1
  Te  Te157  1  0.82548269  0.33189102  0.32836799  1
  Te  Te158  1  0.83094866  0.33230970  0.66763764  1
  Te  Te159  1  0.83212898  0.66999328  -0.00155740  1
  Te  Te160  1  0.82688622  0.66755083  0.33399706  1
  Te  Te161  1  0.83496181  0.66444647  0.66889452  1
  Te  Te162  1  0.00901842  0.16618558  -0.00039191  1
  Te  Te163  1  0.00382894  0.16749970  0.33394701  1
  Te  Te164  1  0.00352700  0.16539486  0.66645831  1
  Te  Te165  1  -0.00091088  0.50513138  0.00432425  1
  Te  Te166  1  -0.00138081  0.49700341  0.33341304  1
  Te  Te167  1  0.00311033  0.50161041  0.66477716  1
  Te  Te168  1  0.00692637  0.82825333  0.00109903  1
  Te  Te169  1  -0.00097124  0.83868196  0.33422712  1
  Te  Te170  1  0.00391882  0.82989727  0.66609829  1
  Te  Te171  1  0.33148123  0.16698017  0.00511316  1
  Te  Te172  1  0.33051731  0.16769013  0.32927607  1
  Te  Te173  1  0.32942239  0.16658159  0.66609255  1
  Te  Te174  1  0.33329552  0.49928752  0.00427019  1
  Te  Te175  1  0.33299188  0.49975625  0.32614828  1
  Te  Te176  1  0.32489538  0.49852311  0.66323777  1
  Te  Te177  1  0.32943871  0.83192785  0.00579989  1
  Te  Te178  1  0.33251221  0.83233088  0.32992552  1
  Te  Te179  1  0.33160942  0.83325019  0.66652996  1
  Te  Te180  1  0.66433320  0.16928397  -0.00074640  1
  Te  Te181  1  0.66667696  0.16883649  0.33577275  1
  Te  Te182  1  0.66709021  0.16530094  0.66885007  1
  Te  Te183  1  0.66807358  0.50045369  0.00323063  1
  Te  Te184  1  0.66701721  0.49888841  0.33205416  1
  Te  Te185  1  0.66446159  0.50006743  0.66947066  1
  Te  Te186  1  0.66526555  0.82898940  0.00365380  1
  Te  Te187  1  0.66653070  0.83450322  0.32679926  1
  Te  Te188  1  0.66387780  0.83027307  0.66480225  1
  Te  Te189  1  0.00031226  -0.00168280  0.17070365  1
  Te  Te190  1  -0.00013659  -0.00115161  0.50003119  1
  Te  Te191  1  -0.00515261  -0.00034289  0.82731032  1
  Te  Te192  1  -0.00031954  0.33781382  0.17216695  1
  Te  Te193  1  0.00343751  0.33906511  0.49314065  1
  Te  Te194  1  0.00831406  0.33346706  0.83403120  1
  Te  Te195  1  -0.00390894  0.66090595  0.16643469  1
  Te  Te196  1  0.00044478  0.65966937  0.50043961  1
  Te  Te197  1  0.00348955  0.66624304  0.83287450  1
  Te  Te198  1  0.33505031  -0.00214876  0.16906742  1
  Te  Te199  1  0.33412905  -0.00705511  0.48878168  1
  Te  Te200  1  0.33367877  -0.00049085  0.83087459  1
  Te  Te201  1  0.33628236  0.33499653  0.16610458  1
  Te  Te202  1  0.32989859  0.33467901  0.49336306  1
  Te  Te203  1  0.32742032  0.33317505  0.83850948  1
  Te  Te204  1  0.33700082  0.66677541  0.16589835  1
  Te  Te205  1  0.33955258  0.67000309  0.49631755  1
  Te  Te206  1  0.33333772  0.66671479  0.84028241  1
  Te  Te207  1  0.66534389  0.00199138  0.16544229  1
  Te  Te208  1  0.66622569  -0.00127746  0.49060167  1
  Te  Te209  1  0.67065603  0.00447676  0.83727893  1
  Te  Te210  1  0.66190864  0.33361956  0.16420457  1
  Te  Te211  1  0.66616015  0.34007747  0.50505735  1
  Te  Te212  1  0.66653537  0.32850579  0.83004979  1
  Te  Te213  1  0.66295437  0.66479688  0.16552490  1
  Te  Te214  1  0.66133892  0.66178538  0.50385343  1
  Te  Te215  1  0.66451076  0.66658972  0.83189902  1
