# generated using pymatgen
data_AgSbTe2
_symmetry_space_group_name_H-M   'P 1'
_cell_length_a   18.36802251
_cell_length_b   18.36829842
_cell_length_c   18.35350669
_cell_angle_alpha   90.00252499
_cell_angle_beta   89.99733246
_cell_angle_gamma   89.99737737
_symmetry_Int_Tables_number   1
_chemical_formula_structural   AgSbTe2
_chemical_formula_sum   'Ag54 Sb54 Te108'
_cell_volume   6192.27710512
_cell_formula_units_Z   54
loop_
 _symmetry_equiv_pos_site_id
 _symmetry_equiv_pos_as_xyz
  1  'x, y, z'
loop_
 _atom_site_type_symbol
 _atom_site_label
 _atom_site_symmetry_multiplicity
 _atom_site_fract_x
 _atom_site_fract_y
 _atom_site_fract_z
 _atom_site_occupancy
  Ag  Ag0  1  -0.00632605  0.66317920  0.00767528  1
  Ag  Ag1  1  0.66317761  0.33761473  0.32830143  1
  Ag  Ag2  1  0.17713660  -0.00157446  0.16424954  1
  Ag  Ag3  1  0.50119272  0.49827019  0.32373331  1
  Ag  Ag4  1  -0.01470126  -0.00460495  0.66170437  1
  Ag  Ag5  1  0.66406153  0.33533288  0.66549068  1
  Ag  Ag6  1  0.34768813  0.33910262  0.67055722  1
  Ag  Ag7  1  0.82097290  0.33848633  0.16745214  1
  Ag  Ag8  1  0.82277453  0.84406526  0.66648616  1
  Ag  Ag9  1  -0.00073133  0.00019444  0.32888877  1
  Ag  Ag10  1  0.66363220  0.65678048  0.32228609  1
  Ag  Ag11  1  0.50645795  0.33564040  0.51866542  1
  Ag  Ag12  1  0.66719994  0.65430415  0.66521069  1
  Ag  Ag13  1  0.34963369  0.65826218  0.66651311  1
  Ag  Ag14  1  0.16890124  0.50285383  0.00165692  1
  Ag  Ag15  1  0.50156280  0.82470260  0.32052299  1
  Ag  Ag16  1  0.66548878  0.17733971  0.16756158  1
  Ag  Ag17  1  0.83368062  0.01338809  0.51075125  1
  Ag  Ag18  1  0.00037676  0.83177001  0.16468400  1
  Ag  Ag19  1  0.83145529  -0.00040044  0.82536878  1
  Ag  Ag20  1  0.66647536  0.66029354  0.00737610  1
  Ag  Ag21  1  0.66971500  0.17252450  0.50597428  1
  Ag  Ag22  1  0.50765503  0.18101312  0.66924852  1
  Ag  Ag23  1  0.82034363  0.50089619  0.00672651  1
  Ag  Ag24  1  0.33656066  0.49739870  0.50969706  1
  Ag  Ag25  1  0.50155571  0.49650711  0.66745297  1
  Ag  Ag26  1  0.50650256  0.82995439  0.66843757  1
  Ag  Ag27  1  0.50396398  0.33584797  0.83318018  1
  Ag  Ag28  1  0.82423878  0.15604976  0.66129053  1
  Ag  Ag29  1  0.50101041  0.17933140  0.00643727  1
  Ag  Ag30  1  0.17530270  0.50152880  0.66980068  1
  Ag  Ag31  1  -0.01109902  0.66492632  0.66798052  1
  Ag  Ag32  1  0.82353496  0.33117331  0.50432021  1
  Ag  Ag33  1  0.67056743  0.01134484  0.66675582  1
  Ag  Ag34  1  0.65559454  0.34851002  0.01473516  1
  Ag  Ag35  1  0.50765636  0.33601093  0.14873349  1
  Ag  Ag36  1  -0.01045235  0.16490174  0.50054319  1
  Ag  Ag37  1  0.18030522  0.82443319  0.00406013  1
  Ag  Ag38  1  0.33780423  -0.00577427  0.00485350  1
  Ag  Ag39  1  0.17403383  0.50029798  0.32035710  1
  Ag  Ag40  1  0.49847424  -0.00075734  0.16423612  1
  Ag  Ag41  1  0.33802522  0.83339967  0.84281610  1
  Ag  Ag42  1  0.34327526  0.83837309  0.16119581  1
  Ag  Ag43  1  0.82215390  0.65755605  0.16209815  1
  Ag  Ag44  1  0.66488526  0.49803626  0.84449594  1
  Ag  Ag45  1  0.50593493  0.49351995  0.00472277  1
  Ag  Ag46  1  0.49860055  0.83072969  0.00424755  1
  Ag  Ag47  1  0.34850054  0.16206385  0.16309425  1
  Ag  Ag48  1  -0.01329452  0.50292851  0.16363063  1
  Ag  Ag49  1  0.66708038  0.49204975  0.15812942  1
  Ag  Ag50  1  0.50420955  0.66102667  0.16170564  1
  Ag  Ag51  1  0.81807028  0.49921433  0.66911289  1
  Ag  Ag52  1  -0.00560532  0.16611842  0.16702854  1
  Ag  Ag53  1  0.34405462  0.33516244  -0.00022606  1
  Sb  Sb54  1  0.33905003  -0.00017719  0.67198982  1
  Sb  Sb55  1  0.16938585  0.83003539  0.32418241  1
  Sb  Sb56  1  0.34133400  0.50001803  0.16470000  1
  Sb  Sb57  1  0.16435707  -0.00224853  0.83819705  1
  Sb  Sb58  1  0.82996384  0.66204083  0.50085914  1
  Sb  Sb59  1  0.50271427  0.17094434  0.32720936  1
  Sb  Sb60  1  -0.00439547  0.33935270  0.00350352  1
  Sb  Sb61  1  0.00251384  0.49585867  0.49910722  1
  Sb  Sb62  1  0.50419196  0.00583406  0.49848219  1
  Sb  Sb63  1  0.16438438  0.17000807  0.32988962  1
  Sb  Sb64  1  0.50327823  0.00047116  0.83642012  1
  Sb  Sb65  1  0.50319515  0.65813347  0.50094756  1
  Sb  Sb66  1  0.33751532  0.16524501  0.83894934  1
  Sb  Sb67  1  0.66098445  0.49022497  0.49819737  1
  Sb  Sb68  1  0.16667580  0.66456433  0.50202557  1
  Sb  Sb69  1  0.66330325  0.82982459  0.16685391  1
  Sb  Sb70  1  0.33755355  0.82949689  0.49924436  1
  Sb  Sb71  1  0.34192748  0.50354253  0.83014012  1
  Sb  Sb72  1  0.66467131  0.17148868  0.83178148  1
  Sb  Sb73  1  0.16769241  0.82795306  0.67289583  1
  Sb  Sb74  1  0.82905933  0.83255719  0.33543765  1
  Sb  Sb75  1  -0.00488042  0.66744363  0.32958174  1
  Sb  Sb76  1  -0.00274218  0.83706185  0.49923402  1
  Sb  Sb77  1  0.82657199  0.17179296  -0.00051932  1
  Sb  Sb78  1  0.83097329  0.00266701  0.16693535  1
  Sb  Sb79  1  0.33977615  0.66383218  0.33465083  1
  Sb  Sb80  1  0.16595240  0.17050389  0.66502641  1
  Sb  Sb81  1  -0.00535392  0.50174805  0.83672408  1
  Sb  Sb82  1  0.34293377  0.33600921  0.32942175  1
  Sb  Sb83  1  0.66810421  0.00239574  0.33565855  1
  Sb  Sb84  1  0.83107146  0.66725721  0.83474685  1
  Sb  Sb85  1  0.82828817  0.49858217  0.33095230  1
  Sb  Sb86  1  0.16837533  0.66537721  0.83487578  1
  Sb  Sb87  1  0.82915782  0.82868576  -0.00170568  1
  Sb  Sb88  1  0.33975929  0.66597245  -0.00150841  1
  Sb  Sb89  1  -0.00579802  0.33142503  0.33155692  1
  Sb  Sb90  1  0.82568789  0.33338156  0.83331903  1
  Sb  Sb91  1  0.66143220  0.00070911  -0.00290190  1
  Sb  Sb92  1  0.00316823  -0.00423503  0.00413906  1
  Sb  Sb93  1  -0.00484087  0.16392219  0.83336428  1
  Sb  Sb94  1  -0.00713448  0.33496681  0.66501972  1
  Sb  Sb95  1  0.16835776  0.33579371  0.50039794  1
  Sb  Sb96  1  0.33954569  0.17452937  0.49805340  1
  Sb  Sb97  1  0.66624467  0.83803260  0.50353179  1
  Sb  Sb98  1  0.17053834  0.33246949  0.16673893  1
  Sb  Sb99  1  0.16823107  0.66807204  0.16384224  1
  Sb  Sb100  1  0.00104689  0.83188312  0.83638742  1
  Sb  Sb101  1  0.33205454  -0.00010749  0.32461234  1
  Sb  Sb102  1  0.50174707  0.66390381  0.83449769  1
  Sb  Sb103  1  0.16003073  0.00151206  0.49497483  1
  Sb  Sb104  1  0.66360016  0.82892731  0.82965937  1
  Sb  Sb105  1  0.17546377  0.33655519  0.83366574  1
  Sb  Sb106  1  0.83192699  0.16751688  0.33917750  1
  Sb  Sb107  1  0.17314284  0.16762623  0.00471755  1
  Te  Te108  1  0.15614259  0.16183541  0.16692585  1
  Te  Te109  1  0.16164763  0.16747905  0.49850882  1
  Te  Te110  1  0.16520660  0.16697258  0.83437341  1
  Te  Te111  1  0.17168884  0.50011650  0.16340291  1
  Te  Te112  1  0.17114116  0.49992911  0.50855976  1
  Te  Te113  1  0.16418571  0.49937454  0.83375289  1
  Te  Te114  1  0.16424252  0.83592927  0.16307709  1
  Te  Te115  1  0.16777904  0.83412302  0.49756484  1
  Te  Te116  1  0.17179445  0.83446945  0.84289660  1
  Te  Te117  1  0.50393275  0.16915549  0.16614769  1
  Te  Te118  1  0.50346282  0.17238976  0.50387938  1
  Te  Te119  1  0.49936544  0.16744477  0.83037186  1
  Te  Te120  1  0.50163117  0.49960885  0.16475390  1
  Te  Te121  1  0.49570654  0.49559881  0.50545087  1
  Te  Te122  1  0.50357989  0.49820509  0.83162141  1
  Te  Te123  1  0.50171588  0.83330232  0.16480956  1
  Te  Te124  1  0.49803904  0.83625286  0.50830619  1
  Te  Te125  1  0.49652018  0.83432517  0.82926019  1
  Te  Te126  1  0.83204195  0.17102175  0.16558284  1
  Te  Te127  1  0.83060973  0.16999132  0.50215007  1
  Te  Te128  1  0.83306413  0.16187408  0.82746007  1
  Te  Te129  1  0.82980549  0.49957925  0.16769647  1
  Te  Te130  1  0.83808014  0.49423975  0.50236175  1
  Te  Te131  1  0.82735211  0.50003525  0.83245831  1
  Te  Te132  1  0.83789843  0.83160529  0.16742054  1
  Te  Te133  1  0.83407116  0.83336357  0.50611018  1
  Te  Te134  1  0.83404561  0.83813691  0.82713013  1
  Te  Te135  1  0.17096208  -0.00023861  0.00512144  1
  Te  Te136  1  0.16063900  -0.00101189  0.32641647  1
  Te  Te137  1  0.16720192  -0.00017673  0.66616529  1
  Te  Te138  1  0.16710378  0.33801696  0.00012723  1
  Te  Te139  1  0.16738334  0.34250306  0.33411621  1
  Te  Te140  1  0.16668703  0.33863083  0.66749337  1
  Te  Te141  1  0.16155082  0.66608205  0.00012144  1
  Te  Te142  1  0.16657552  0.65942936  0.33407521  1
  Te  Te143  1  0.16024049  0.66250963  0.66755902  1
  Te  Te144  1  0.49706857  -0.00865742  0.00202984  1
  Te  Te145  1  0.49969392  -0.00191989  0.32976222  1
  Te  Te146  1  0.50429469  -0.00745342  0.66582692  1
  Te  Te147  1  0.50102732  0.33388673  -0.00493497  1
  Te  Te148  1  0.50369405  0.33697891  0.33077310  1
  Te  Te149  1  0.50206989  0.33522443  0.67196950  1
  Te  Te150  1  0.50307434  0.66778463  0.00100375  1
  Te  Te151  1  0.50465723  0.66444761  0.33476293  1
  Te  Te152  1  0.50498319  0.66826060  0.66694458  1
  Te  Te153  1  0.83375917  0.00127723  -0.00504373  1
  Te  Te154  1  0.83762823  -0.00247865  0.33619528  1
  Te  Te155  1  0.83160654  0.00046242  0.66446913  1
  Te  Te156  1  0.82786727  0.33960706  0.00249787  1
  Te  Te157  1  0.82632563  0.33338286  0.33096369  1
  Te  Te158  1  0.83045050  0.33963212  0.66578231  1
  Te  Te159  1  0.83183680  0.66344642  0.00204358  1
  Te  Te160  1  0.82620715  0.66722901  0.32901758  1
  Te  Te161  1  0.83104907  0.65843565  0.66669999  1
  Te  Te162  1  -0.00129984  0.16648498  0.00497773  1
  Te  Te163  1  0.00008606  0.16347175  0.33152539  1
  Te  Te164  1  -0.00145088  0.16499521  0.66503428  1
  Te  Te165  1  0.00509458  0.50371377  0.00310718  1
  Te  Te166  1  0.00199452  0.50017550  0.32771167  1
  Te  Te167  1  0.00378204  0.50305018  0.66671431  1
  Te  Te168  1  -0.00408783  0.82825844  0.00420440  1
  Te  Te169  1  0.00057951  0.83575584  0.32805314  1
  Te  Te170  1  0.00085175  0.83278262  0.66654721  1
  Te  Te171  1  0.33834624  0.16937351  0.00482514  1
  Te  Te172  1  0.33137752  0.16765082  0.32504277  1
  Te  Te173  1  0.33606959  0.17140732  0.66545115  1
  Te  Te174  1  0.33215346  0.49748028  -0.00249148  1
  Te  Te175  1  0.33475021  0.50050780  0.33712076  1
  Te  Te176  1  0.33548886  0.49951891  0.66942151  1
  Te  Te177  1  0.33561247  0.82910473  0.00350304  1
  Te  Te178  1  0.34013822  0.83279721  0.33044308  1
  Te  Te179  1  0.33334905  0.83165164  0.66687223  1
  Te  Te180  1  0.66071992  0.16810143  0.00286567  1
  Te  Te181  1  0.66614784  0.16939623  0.33012165  1
  Te  Te182  1  0.66597030  0.16689846  0.66898669  1
  Te  Te183  1  0.66559607  0.50370916  0.00174131  1
  Te  Te184  1  0.66244314  0.49893282  0.33250565  1
  Te  Te185  1  0.66185938  0.49657983  0.65726928  1
  Te  Te186  1  0.66131613  0.83058436  -0.00288642  1
  Te  Te187  1  0.66016817  0.83373854  0.33620710  1
  Te  Te188  1  0.66794409  0.83249066  0.66778049  1
  Te  Te189  1  -0.00483680  -0.00042907  0.16778780  1
  Te  Te190  1  -0.00396793  0.00262579  0.50140736  1
  Te  Te191  1  -0.00289072  -0.00109335  0.82654489  1
  Te  Te192  1  0.00142697  0.33506774  0.16764688  1
  Te  Te193  1  -0.00147122  0.32653513  0.49832138  1
  Te  Te194  1  0.00260047  0.33208741  0.83426075  1
  Te  Te195  1  0.00191846  0.66381879  0.16596889  1
  Te  Te196  1  -0.00119413  0.66622601  0.50322125  1
  Te  Te197  1  -0.00038654  0.66721038  0.82955558  1
  Te  Te198  1  0.33568848  -0.00027266  0.16350830  1
  Te  Te199  1  0.33128461  0.00340303  0.49900768  1
  Te  Te200  1  0.33239033  -0.00505330  0.84050735  1
  Te  Te201  1  0.33722498  0.33116482  0.16180288  1
  Te  Te202  1  0.33674570  0.33736560  0.50363152  1
  Te  Te203  1  0.34087123  0.33272417  0.83421641  1
  Te  Te204  1  0.34104002  0.67212231  0.16656658  1
  Te  Te205  1  0.33308840  0.66089378  0.50677760  1
  Te  Te206  1  0.33366225  0.67404812  0.82554794  1
  Te  Te207  1  0.66076340  0.00256650  0.16626491  1
  Te  Te208  1  0.67139037  0.00712167  0.50294473  1
  Te  Te209  1  0.67106379  -0.00181328  0.82834423  1
  Te  Te210  1  0.66592802  0.33329124  0.16852673  1
  Te  Te211  1  0.66598510  0.32968234  0.50446998  1
  Te  Te212  1  0.66549943  0.33762144  0.82654358  1
  Te  Te213  1  0.66447731  0.66809999  0.16671831  1
  Te  Te214  1  0.66781524  0.67151826  0.50554253  1
  Te  Te215  1  0.66743616  0.66052535  0.82586612  1
