# generated using pymatgen
data_AgSbTe2
_symmetry_space_group_name_H-M   'P 1'
_cell_length_a   18.33622137
_cell_length_b   18.34172180
_cell_length_c   18.34735091
_cell_angle_alpha   90.00214080
_cell_angle_beta   89.99796014
_cell_angle_gamma   90.00201536
_symmetry_Int_Tables_number   1
_chemical_formula_structural   AgSbTe2
_chemical_formula_sum   'Ag54 Sb54 Te108'
_cell_volume   6170.54199197
_cell_formula_units_Z   54
loop_
 _symmetry_equiv_pos_site_id
 _symmetry_equiv_pos_as_xyz
  1  'x, y, z'
loop_
 _atom_site_type_symbol
 _atom_site_label
 _atom_site_symmetry_multiplicity
 _atom_site_fract_x
 _atom_site_fract_y
 _atom_site_fract_z
 _atom_site_occupancy
  Ag  Ag0  1  0.67120815  0.16248075  0.49754065  1
  Ag  Ag1  1  0.00255815  0.84638692  0.16851250  1
  Ag  Ag2  1  0.48935760  0.50632263  0.33040586  1
  Ag  Ag3  1  0.17101106  0.49596661  0.32953261  1
  Ag  Ag4  1  0.34257436  0.66704102  0.65400229  1
  Ag  Ag5  1  0.66183863  0.67425958  0.66171890  1
  Ag  Ag6  1  0.49429747  0.50443142  0.01105572  1
  Ag  Ag7  1  0.16507565  0.33165623  0.17231180  1
  Ag  Ag8  1  0.16839528  0.83619262  0.00174874  1
  Ag  Ag9  1  0.65861743  0.50049553  0.17188134  1
  Ag  Ag10  1  0.50171356  0.15904297  0.66368235  1
  Ag  Ag11  1  0.32915104  -0.00211319  0.33502359  1
  Ag  Ag12  1  0.16996017  0.33245398  0.83483312  1
  Ag  Ag13  1  0.82766492  0.50681612  0.66468464  1
  Ag  Ag14  1  0.33174906  0.50272944  0.17848451  1
  Ag  Ag15  1  0.82736826  0.15576553  0.65801720  1
  Ag  Ag16  1  0.33176265  0.33808874  0.66319741  1
  Ag  Ag17  1  0.66992712  0.16331542  0.17992201  1
  Ag  Ag18  1  0.82445317  0.83650965  0.66246571  1
  Ag  Ag19  1  0.82617672  0.66847227  0.82745120  1
  Ag  Ag20  1  0.33899971  0.83454406  0.82393670  1
  Ag  Ag21  1  0.49845815  0.66158891  0.17750838  1
  Ag  Ag22  1  0.84788384  0.15941649  0.34108211  1
  Ag  Ag23  1  0.33174155  0.16211589  0.82309341  1
  Ag  Ag24  1  -0.00947860  0.00205989  0.65559396  1
  Ag  Ag25  1  0.67096679  0.00090897  0.33726090  1
  Ag  Ag26  1  0.00722877  0.16330471  0.17725863  1
  Ag  Ag27  1  0.66898360  0.00017878  0.00275137  1
  Ag  Ag28  1  -0.00000744  0.16365058  0.48983990  1
  Ag  Ag29  1  0.50125751  -0.00199370  0.82933259  1
  Ag  Ag30  1  0.33361191  0.66454001  0.00146091  1
  Ag  Ag31  1  0.16723187  0.16510952  0.01212169  1
  Ag  Ag32  1  0.66633965  0.50781192  0.82282721  1
  Ag  Ag33  1  0.49364620  0.66500889  0.49714183  1
  Ag  Ag34  1  0.33166176  0.16659414  0.50201931  1
  Ag  Ag35  1  0.83125181  0.84153913  0.34143005  1
  Ag  Ag36  1  0.66907978  -0.00698765  0.66290241  1
  Ag  Ag37  1  0.00629662  0.31886929  0.33255070  1
  Ag  Ag38  1  0.33610453  0.50983021  0.49517815  1
  Ag  Ag39  1  0.17387674  0.49939195  0.01124973  1
  Ag  Ag40  1  0.66326390  0.83180612  0.82647124  1
  Ag  Ag41  1  0.16316304  0.00819359  0.16835122  1
  Ag  Ag42  1  0.17845404  0.65840196  0.49823117  1
  Ag  Ag43  1  0.01462694  0.49732120  0.16910572  1
  Ag  Ag44  1  0.33872041  0.66404569  0.34099909  1
  Ag  Ag45  1  0.50557362  0.83668048  0.66763050  1
  Ag  Ag46  1  0.00099796  0.00610767  0.33179892  1
  Ag  Ag47  1  0.15963505  0.17311914  0.33128796  1
  Ag  Ag48  1  0.33256466  0.82155908  0.50324412  1
  Ag  Ag49  1  0.83131392  0.00280172  0.49887582  1
  Ag  Ag50  1  0.00437040  -0.00008631  0.01217904  1
  Ag  Ag51  1  0.17003854  0.33330736  0.49150700  1
  Ag  Ag52  1  0.65978275  0.50374491  0.49728431  1
  Ag  Ag53  1  0.66036037  0.66535345  0.34215974  1
  Sb  Sb54  1  0.49409920  0.33895780  0.16820598  1
  Sb  Sb55  1  0.33744263  0.50268060  0.82980854  1
  Sb  Sb56  1  0.50234427  0.82840183  0.33870142  1
  Sb  Sb57  1  0.16836838  0.66429102  0.83168466  1
  Sb  Sb58  1  -0.00149224  0.49966649  0.83804978  1
  Sb  Sb59  1  0.17129295  0.00314278  0.83808592  1
  Sb  Sb60  1  0.83566052  0.83556839  -0.00163590  1
  Sb  Sb61  1  0.66634837  0.33091241  0.00167787  1
  Sb  Sb62  1  0.32961405  0.17144083  0.17048854  1
  Sb  Sb63  1  0.32980163  0.33792448  -0.00384320  1
  Sb  Sb64  1  0.67038086  0.83500417  0.16710971  1
  Sb  Sb65  1  -0.00259807  0.67096302  0.66460422  1
  Sb  Sb66  1  0.49539875  0.16816152  -0.00213852  1
  Sb  Sb67  1  0.83917620  0.00054739  0.17721797  1
  Sb  Sb68  1  0.00282482  0.49441266  0.49535942  1
  Sb  Sb69  1  0.49571854  0.82967308  -0.00506418  1
  Sb  Sb70  1  0.00631023  0.32766021  0.00746187  1
  Sb  Sb71  1  0.50223417  -0.00238398  0.50264727  1
  Sb  Sb72  1  0.00454191  0.32698592  0.66015067  1
  Sb  Sb73  1  0.83652519  0.33583142  0.82793981  1
  Sb  Sb74  1  0.32664116  0.33686886  0.33959811  1
  Sb  Sb75  1  0.83041752  0.67115164  0.50244351  1
  Sb  Sb76  1  0.82888970  0.66606991  0.16578848  1
  Sb  Sb77  1  0.49787511  -0.00333412  0.16564817  1
  Sb  Sb78  1  0.83184844  0.50246268  -0.00153342  1
  Sb  Sb79  1  0.66077820  0.66887429  -0.00118175  1
  Sb  Sb80  1  0.83307465  0.50143431  0.33714847  1
  Sb  Sb81  1  0.50115301  0.67030817  0.82886784  1
  Sb  Sb82  1  0.00321128  0.83932682  0.49629044  1
  Sb  Sb83  1  0.83787041  0.16115962  0.00184820  1
  Sb  Sb84  1  0.50254591  0.50392205  0.66379859  1
  Sb  Sb85  1  0.16609685  0.00348262  0.49355263  1
  Sb  Sb86  1  0.16588411  0.49909759  0.66355356  1
  Sb  Sb87  1  0.83882285  0.33246969  0.16976431  1
  Sb  Sb88  1  0.00093620  0.66944869  0.33282129  1
  Sb  Sb89  1  0.00660699  0.67051896  0.00322555  1
  Sb  Sb90  1  0.66241051  0.33263840  0.66488701  1
  Sb  Sb91  1  0.33512718  -0.00250053  0.66227754  1
  Sb  Sb92  1  0.49342090  0.33760997  0.50107756  1
  Sb  Sb93  1  0.33142621  -0.00297725  0.00305054  1
  Sb  Sb94  1  0.49850836  0.16963245  0.33831012  1
  Sb  Sb95  1  0.83616839  0.32635201  0.49932676  1
  Sb  Sb96  1  0.16559262  0.83435050  0.33030712  1
  Sb  Sb97  1  0.00500024  0.16462524  0.83226649  1
  Sb  Sb98  1  0.67120918  0.33302137  0.33428546  1
  Sb  Sb99  1  0.66242182  0.83362177  0.50363936  1
  Sb  Sb100  1  0.16858145  0.16594161  0.66138529  1
  Sb  Sb101  1  0.82737811  -0.00325438  0.82404777  1
  Sb  Sb102  1  -0.00006438  0.83690344  0.83524296  1
  Sb  Sb103  1  0.32991459  0.82781423  0.16979123  1
  Sb  Sb104  1  0.16886215  0.83457944  0.66855881  1
  Sb  Sb105  1  0.17288113  0.66354673  0.17109107  1
  Sb  Sb106  1  0.66214952  0.16260963  0.82757867  1
  Sb  Sb107  1  0.49609473  0.33167304  0.83047896  1
  Te  Te108  1  0.16722089  0.16811595  0.16996781  1
  Te  Te109  1  0.16675914  0.16842623  0.49616081  1
  Te  Te110  1  0.17216926  0.17011254  0.83228227  1
  Te  Te111  1  0.17133436  0.50218594  0.16783211  1
  Te  Te112  1  0.16848204  0.49674595  0.49823718  1
  Te  Te113  1  0.16724325  0.49591437  0.83544479  1
  Te  Te114  1  0.16268611  0.83195759  0.16246647  1
  Te  Te115  1  0.17170730  0.83174048  0.49992417  1
  Te  Te116  1  0.17042713  0.83299979  0.83922256  1
  Te  Te117  1  0.50542468  0.16752861  0.16578417  1
  Te  Te118  1  0.50054333  0.16777897  0.50354685  1
  Te  Te119  1  0.49397219  0.16288620  0.83028674  1
  Te  Te120  1  0.49775760  0.50146993  0.16960836  1
  Te  Te121  1  0.49942252  0.50316353  0.49878083  1
  Te  Te122  1  0.50605427  0.49948219  0.83342888  1
  Te  Te123  1  0.50054689  0.82667966  0.16515392  1
  Te  Te124  1  0.49344439  0.82920294  0.50547307  1
  Te  Te125  1  0.50042203  0.83616178  0.82940310  1
  Te  Te126  1  0.82891183  0.16707631  0.16934270  1
  Te  Te127  1  0.83118885  0.16501737  0.50024153  1
  Te  Te128  1  0.83311845  0.16805695  0.82792980  1
  Te  Te129  1  0.82556870  0.49981368  0.16754869  1
  Te  Te130  1  0.83213734  0.49989942  0.50401264  1
  Te  Te131  1  0.82850960  0.50366825  0.83023589  1
  Te  Te132  1  0.84035057  0.83176095  0.16844066  1
  Te  Te133  1  0.83587928  0.83775419  0.50098161  1
  Te  Te134  1  0.83008025  0.83004913  0.82890913  1
  Te  Te135  1  0.16591435  0.00139051  0.00430346  1
  Te  Te136  1  0.16705343  -0.00004790  0.32949950  1
  Te  Te137  1  0.15727957  -0.00036184  0.66811798  1
  Te  Te138  1  0.16671220  0.33379975  0.00125562  1
  Te  Te139  1  0.16618462  0.33437805  0.33249775  1
  Te  Te140  1  0.17149564  0.33314393  0.66919686  1
  Te  Te141  1  0.17117421  0.66307995  -0.00108416  1
  Te  Te142  1  0.16907616  0.66466540  0.33778516  1
  Te  Te143  1  0.16938407  0.66650377  0.66234023  1
  Te  Te144  1  0.50392784  -0.00030624  -0.00306080  1
  Te  Te145  1  0.50166981  -0.00018672  0.33256624  1
  Te  Te146  1  0.50138043  -0.00191093  0.66816536  1
  Te  Te147  1  0.49904653  0.34210160  -0.00065594  1
  Te  Te148  1  0.50073229  0.34381244  0.33350518  1
  Te  Te149  1  0.49225401  0.32393317  0.66710902  1
  Te  Te150  1  0.49505931  0.66276896  0.00038795  1
  Te  Te151  1  0.50069430  0.66542580  0.33616184  1
  Te  Te152  1  0.50138340  0.66930933  0.66305697  1
  Te  Te153  1  0.82992703  -0.00050478  -0.00330777  1
  Te  Te154  1  0.83057639  0.00144210  0.33680426  1
  Te  Te155  1  0.83073751  -0.00165732  0.66288224  1
  Te  Te156  1  0.83599163  0.33197823  -0.00250389  1
  Te  Te157  1  0.84232618  0.32620868  0.33412038  1
  Te  Te158  1  0.83497276  0.33571664  0.66580922  1
  Te  Te159  1  0.83311893  0.66825839  -0.00735000  1
  Te  Te160  1  0.82755865  0.67043544  0.33405351  1
  Te  Te161  1  0.83083485  0.66898691  0.66744817  1
  Te  Te162  1  0.00548194  0.16045421  0.00259217  1
  Te  Te163  1  0.00210403  0.16327266  0.33260646  1
  Te  Te164  1  -0.00508396  0.16234987  0.66501761  1
  Te  Te165  1  0.00337114  0.50004559  0.00668364  1
  Te  Te166  1  0.00192365  0.50206662  0.32894478  1
  Te  Te167  1  -0.00671845  0.50024636  0.66794794  1
  Te  Te168  1  0.00462417  0.83822948  0.00473486  1
  Te  Te169  1  -0.00442044  0.83699909  0.32904713  1
  Te  Te170  1  -0.00321975  0.83920387  0.66659151  1
  Te  Te171  1  0.32823135  0.16598224  -0.00052324  1
  Te  Te172  1  0.33226922  0.16476060  0.33635607  1
  Te  Te173  1  0.33462421  0.16160824  0.66577635  1
  Te  Te174  1  0.33305733  0.50333804  -0.00572449  1
  Te  Te175  1  0.33063298  0.50021312  0.33751318  1
  Te  Te176  1  0.33446353  0.50266371  0.66179122  1
  Te  Te177  1  0.32918740  0.82968645  0.00088216  1
  Te  Te178  1  0.33421102  0.83206097  0.33708269  1
  Te  Te179  1  0.33329926  0.83091100  0.66532404  1
  Te  Te180  1  0.66575524  0.16205769  -0.00148913  1
  Te  Te181  1  0.66321484  0.16616251  0.33738758  1
  Te  Te182  1  0.66634444  0.16635232  0.66361768  1
  Te  Te183  1  0.66457430  0.49962275  0.00833188  1
  Te  Te184  1  0.66961144  0.50084458  0.33539808  1
  Te  Te185  1  0.66688015  0.49967868  0.66336052  1
  Te  Te186  1  0.66679565  0.83845545  -0.00448548  1
  Te  Te187  1  0.66978845  0.83369852  0.33338582  1
  Te  Te188  1  0.66574807  0.83315004  0.66668330  1
  Te  Te189  1  0.00182188  0.00369018  0.16957630  1
  Te  Te190  1  -0.00129189  0.00367056  0.49630466  1
  Te  Te191  1  -0.00040910  0.00024674  0.83712970  1
  Te  Te192  1  0.00468506  0.33397049  0.17142609  1
  Te  Te193  1  0.00723168  0.32694620  0.49478775  1
  Te  Te194  1  0.00797200  0.33324920  0.83243600  1
  Te  Te195  1  -0.00230590  0.65871628  0.16718783  1
  Te  Te196  1  0.00589120  0.66589598  0.49976535  1
  Te  Te197  1  -0.00542223  0.66754773  0.83355556  1
  Te  Te198  1  0.32940070  -0.00048376  0.17253389  1
  Te  Te199  1  0.33375977  0.00700386  0.49534273  1
  Te  Te200  1  0.33751831  -0.00248098  0.83406045  1
  Te  Te201  1  0.32653606  0.33994993  0.16505750  1
  Te  Te202  1  0.32878631  0.32574313  0.50445139  1
  Te  Te203  1  0.33023027  0.33068949  0.82735793  1
  Te  Te204  1  0.33793367  0.66261267  0.16583531  1
  Te  Te205  1  0.33432938  0.66535177  0.49824692  1
  Te  Te206  1  0.33319419  0.67127050  0.83576685  1
  Te  Te207  1  0.66530576  0.00164520  0.16869040  1
  Te  Te208  1  0.66774807  0.00060360  0.49995711  1
  Te  Te209  1  0.66227061  -0.00192370  0.82678979  1
  Te  Te210  1  0.66638823  0.33319518  0.16652042  1
  Te  Te211  1  0.66535202  0.33470511  0.49999820  1
  Te  Te212  1  0.66748302  0.34150162  0.83379919  1
  Te  Te213  1  0.66183182  0.66558756  0.16783424  1
  Te  Te214  1  0.66621194  0.66558684  0.50145058  1
  Te  Te215  1  0.66637938  0.66793796  0.83166590  1
