# generated using pymatgen
data_AgSbTe2
_symmetry_space_group_name_H-M   'P 1'
_cell_length_a   18.33918867
_cell_length_b   18.32900568
_cell_length_c   18.33843481
_cell_angle_alpha   89.99711870
_cell_angle_beta   90.00152739
_cell_angle_gamma   89.99903853
_symmetry_Int_Tables_number   1
_chemical_formula_structural   AgSbTe2
_chemical_formula_sum   'Ag54 Sb54 Te108'
_cell_volume   6164.26483578
_cell_formula_units_Z   54
loop_
 _symmetry_equiv_pos_site_id
 _symmetry_equiv_pos_as_xyz
  1  'x, y, z'
loop_
 _atom_site_type_symbol
 _atom_site_label
 _atom_site_symmetry_multiplicity
 _atom_site_fract_x
 _atom_site_fract_y
 _atom_site_fract_z
 _atom_site_occupancy
  Ag  Ag0  1  0.50157289  0.16323445  0.00795035  1
  Ag  Ag1  1  0.50247646  0.00550014  0.16246294  1
  Ag  Ag2  1  0.66875287  0.50016722  0.16882472  1
  Ag  Ag3  1  0.34160432  0.49178778  0.16810733  1
  Ag  Ag4  1  0.82329229  0.16932994  0.32277105  1
  Ag  Ag5  1  0.00155497  0.00154932  0.66974860  1
  Ag  Ag6  1  0.66656601  0.00643235  0.00443087  1
  Ag  Ag7  1  0.49849257  0.66690908  0.50245522  1
  Ag  Ag8  1  0.82409518  0.16393499  0.00907546  1
  Ag  Ag9  1  0.33382160  0.00347081  0.66406725  1
  Ag  Ag10  1  0.33612493  0.00545630  0.32999987  1
  Ag  Ag11  1  0.82964553  0.49598116  0.01066918  1
  Ag  Ag12  1  0.65858197  0.16322495  0.84357798  1
  Ag  Ag13  1  0.49742343  0.83127888  0.65815996  1
  Ag  Ag14  1  0.49747859  0.84276110  0.33705633  1
  Ag  Ag15  1  0.50126398  0.00465681  0.84087848  1
  Ag  Ag16  1  0.66695924  0.84186442  0.16840884  1
  Ag  Ag17  1  0.50320394  0.32642407  0.49931645  1
  Ag  Ag18  1  -0.01406599  0.16425845  0.16589329  1
  Ag  Ag19  1  0.82682288  0.66249422  0.16539129  1
  Ag  Ag20  1  0.83158849  0.32672800  0.17061098  1
  Ag  Ag21  1  0.50019408  0.50468806  0.66550359  1
  Ag  Ag22  1  0.16459793  0.66669160  0.82570006  1
  Ag  Ag23  1  0.66918482  0.66873540  0.00992344  1
  Ag  Ag24  1  0.67124843  0.16489743  0.16818237  1
  Ag  Ag25  1  0.17652444  0.66985314  0.50376679  1
  Ag  Ag26  1  0.17503072  0.16272127  0.00732804  1
  Ag  Ag27  1  -0.01012300  0.66832552  0.33535490  1
  Ag  Ag28  1  0.16941469  0.16305613  0.66902111  1
  Ag  Ag29  1  0.16558153  0.32136955  0.16851027  1
  Ag  Ag30  1  0.82298218  0.32513190  0.48754480  1
  Ag  Ag31  1  0.33960537  0.16205255  0.49280540  1
  Ag  Ag32  1  0.82711854  0.01270907  0.16391922  1
  Ag  Ag33  1  0.82868173  0.49155872  0.32802028  1
  Ag  Ag34  1  -0.01264397  0.00650393  0.00175304  1
  Ag  Ag35  1  0.33977174  0.00534854  0.00875931  1
  Ag  Ag36  1  0.66957070  0.66224746  0.32709133  1
  Ag  Ag37  1  0.33659306  0.84150585  0.49925044  1
  Ag  Ag38  1  0.17654235  0.83371752  0.33375311  1
  Ag  Ag39  1  0.17528838  0.00593825  0.16405955  1
  Ag  Ag40  1  0.82809959  0.00337416  0.84027839  1
  Ag  Ag41  1  0.33817100  0.67176707  0.66227507  1
  Ag  Ag42  1  0.65719928  0.66655705  0.66505274  1
  Ag  Ag43  1  0.33605080  0.16390396  0.16849871  1
  Ag  Ag44  1  0.66145085  0.16724955  0.49099100  1
  Ag  Ag45  1  0.00209281  0.66956912  0.66249126  1
  Ag  Ag46  1  0.34195810  0.16302872  0.84178197  1
  Ag  Ag47  1  -0.00089239  0.32217530  0.66486785  1
  Ag  Ag48  1  0.50294175  0.16368482  0.32701196  1
  Ag  Ag49  1  0.50057976  0.32026882  0.82666961  1
  Ag  Ag50  1  0.83056098  0.66876635  0.83825138  1
  Ag  Ag51  1  0.34396415  0.32180221  0.33169563  1
  Ag  Ag52  1  0.83156076  0.00801167  0.49003409  1
  Ag  Ag53  1  0.66627860  0.32553168  0.33248321  1
  Sb  Sb54  1  -0.00236174  0.32532479  -0.00076595  1
  Sb  Sb55  1  0.82754987  0.32924720  0.83591948  1
  Sb  Sb56  1  0.66654391  0.49769858  0.83785173  1
  Sb  Sb57  1  0.00175514  -0.00112507  0.33060075  1
  Sb  Sb58  1  0.50321897  0.32474908  0.17194509  1
  Sb  Sb59  1  0.82708451  0.83731175  0.33117026  1
  Sb  Sb60  1  0.66697265  0.33410643  0.66164144  1
  Sb  Sb61  1  -0.00206835  0.50040884  0.83258358  1
  Sb  Sb62  1  0.33587294  0.32370664  0.00857069  1
  Sb  Sb63  1  0.82824624  0.83352388  0.66519664  1
  Sb  Sb64  1  0.83072686  0.84063346  0.00236484  1
  Sb  Sb65  1  0.33779039  0.67140155  -0.00371067  1
  Sb  Sb66  1  0.50260285  0.84196887  0.00345582  1
  Sb  Sb67  1  0.16368967  0.49561824  0.00362579  1
  Sb  Sb68  1  0.16875945  0.84096045  0.00591195  1
  Sb  Sb69  1  -0.00578411  0.84030465  0.16856854  1
  Sb  Sb70  1  0.17116074  0.33075407  0.83590597  1
  Sb  Sb71  1  0.33697141  0.49858100  0.49526656  1
  Sb  Sb72  1  0.66128126  0.00432147  0.32509641  1
  Sb  Sb73  1  -0.00071645  0.16568772  0.49544818  1
  Sb  Sb74  1  0.33574856  0.84099394  0.82581205  1
  Sb  Sb75  1  -0.00841320  0.49426296  0.16755587  1
  Sb  Sb76  1  0.17092014  0.50029858  0.66667278  1
  Sb  Sb77  1  0.17179446  0.83504599  0.66222076  1
  Sb  Sb78  1  0.17248347  0.16229990  0.32736158  1
  Sb  Sb79  1  0.33899026  0.83994545  0.17430115  1
  Sb  Sb80  1  0.83614971  0.16462070  0.66613907  1
  Sb  Sb81  1  -0.00529450  0.33385235  0.33484409  1
  Sb  Sb82  1  0.33645496  0.49558825  0.83617275  1
  Sb  Sb83  1  0.00395720  0.83401390  0.49826495  1
  Sb  Sb84  1  0.50555752  0.49374849  0.00002362  1
  Sb  Sb85  1  0.16904708  -0.00083818  0.83673322  1
  Sb  Sb86  1  0.33329724  0.32835758  0.66140434  1
  Sb  Sb87  1  0.66345917  -0.00114306  0.67055193  1
  Sb  Sb88  1  0.16406339  0.50288162  0.33082848  1
  Sb  Sb89  1  -0.00108478  0.16412711  0.83772047  1
  Sb  Sb90  1  0.82937459  0.66715532  0.49750561  1
  Sb  Sb91  1  0.16872976  0.33290116  0.49532417  1
  Sb  Sb92  1  0.50479497  0.49721571  0.33440609  1
  Sb  Sb93  1  0.50110693  0.00274553  0.49841507  1
  Sb  Sb94  1  0.66642281  0.32690666  0.00838428  1
  Sb  Sb95  1  0.16830070  -0.00125488  0.49742370  1
  Sb  Sb96  1  -0.00206819  0.50050923  0.49957411  1
  Sb  Sb97  1  0.49579626  0.16369362  0.66682580  1
  Sb  Sb98  1  0.82935447  0.50123444  0.66465208  1
  Sb  Sb99  1  -0.00829672  0.67212756  0.00128015  1
  Sb  Sb100  1  0.16264815  0.66854954  0.16953423  1
  Sb  Sb101  1  0.66564293  0.83693715  0.83728991  1
  Sb  Sb102  1  0.50708394  0.67207346  0.17196432  1
  Sb  Sb103  1  0.66060697  0.83754974  0.49476000  1
  Sb  Sb104  1  0.50310788  0.67029858  0.82681939  1
  Sb  Sb105  1  0.66530793  0.49676960  0.49400948  1
  Sb  Sb106  1  0.33760064  0.66774342  0.33740851  1
  Sb  Sb107  1  0.00039635  0.83458468  0.83157299  1
  Te  Te108  1  0.17793714  0.16481904  0.16765807  1
  Te  Te109  1  0.17075189  0.16721682  0.50452356  1
  Te  Te110  1  0.16997421  0.16699808  0.83357600  1
  Te  Te111  1  0.16969377  0.49621171  0.16569355  1
  Te  Te112  1  0.16763093  0.50849555  0.49888013  1
  Te  Te113  1  0.16804255  0.50617065  0.83556284  1
  Te  Te114  1  0.16631626  0.83792507  0.17285682  1
  Te  Te115  1  0.17289314  0.82949569  0.49537032  1
  Te  Te116  1  0.16846517  0.82589170  0.83449561  1
  Te  Te117  1  0.49695385  0.16556102  0.16757145  1
  Te  Te118  1  0.50035037  0.16752383  0.49942220  1
  Te  Te119  1  0.50011506  0.16262714  0.82833425  1
  Te  Te120  1  0.50198405  0.49986936  0.16559581  1
  Te  Te121  1  0.50056562  0.50385277  0.50420779  1
  Te  Te122  1  0.49978229  0.49721563  0.82912434  1
  Te  Te123  1  0.50568268  0.83978145  0.17242290  1
  Te  Te124  1  0.49731397  0.83358871  0.49820650  1
  Te  Te125  1  0.50030175  0.84117873  0.83030780  1
  Te  Te126  1  0.83061968  0.16774906  0.16526207  1
  Te  Te127  1  0.83341401  0.16717880  0.50025013  1
  Te  Te128  1  0.82986640  0.16409700  0.83736808  1
  Te  Te129  1  0.83068699  0.50230780  0.16783293  1
  Te  Te130  1  0.83173856  0.49283319  0.49410222  1
  Te  Te131  1  0.83209488  0.50262232  0.83689758  1
  Te  Te132  1  0.82749653  0.82411118  0.16777197  1
  Te  Te133  1  0.83250326  0.84400584  0.49889726  1
  Te  Te134  1  0.83295503  0.83156474  0.83314706  1
  Te  Te135  1  0.17282676  0.00453162  0.00328501  1
  Te  Te136  1  0.16993142  -0.00470203  0.32981283  1
  Te  Te137  1  0.16693367  0.00191328  0.66732417  1
  Te  Te138  1  0.16582906  0.32679118  0.00537509  1
  Te  Te139  1  0.16484215  0.33472925  0.32833748  1
  Te  Te140  1  0.16154269  0.33151068  0.66643417  1
  Te  Te141  1  0.16585824  0.66661657  -0.00289627  1
  Te  Te142  1  0.16648751  0.67030978  0.33633989  1
  Te  Te143  1  0.16628956  0.66721362  0.66508046  1
  Te  Te144  1  0.50182466  0.00350184  0.00096014  1
  Te  Te145  1  0.49633959  0.00277225  0.33264030  1
  Te  Te146  1  0.49641409  -0.00424686  0.66755866  1
  Te  Te147  1  0.50025566  0.32665469  -0.01011158  1
  Te  Te148  1  0.50249629  0.33082531  0.33748076  1
  Te  Te149  1  0.49969240  0.33738414  0.66265284  1
  Te  Te150  1  0.50625973  0.66613811  -0.00239235  1
  Te  Te151  1  0.50467852  0.66495517  0.33853404  1
  Te  Te152  1  0.49847098  0.66875233  0.66558852  1
  Te  Te153  1  0.82930185  0.00316055  0.00223731  1
  Te  Te154  1  0.83490257  0.00412724  0.32990551  1
  Te  Te155  1  0.83559357  -0.00135774  0.67596459  1
  Te  Te156  1  0.83361040  0.33169609  0.00405368  1
  Te  Te157  1  0.83311236  0.33114015  0.33170579  1
  Te  Te158  1  0.83881153  0.33521392  0.66672751  1
  Te  Te159  1  0.83085367  0.66858183  -0.00030090  1
  Te  Te160  1  0.83041487  0.66991556  0.33382684  1
  Te  Te161  1  0.83777159  0.66609363  0.66714229  1
  Te  Te162  1  0.00153770  0.16274822  0.00415538  1
  Te  Te163  1  -0.00475360  0.16601033  0.32788915  1
  Te  Te164  1  0.00477262  0.16249590  0.66671364  1
  Te  Te165  1  -0.00851462  0.50040245  0.00016824  1
  Te  Te166  1  -0.00669428  0.50739017  0.33269508  1
  Te  Te167  1  0.00083878  0.50956508  0.66629906  1
  Te  Te168  1  0.00206556  0.84565209  0.00043126  1
  Te  Te169  1  0.00384409  0.82844814  0.33329678  1
  Te  Te170  1  0.00122905  0.83296517  0.66529518  1
  Te  Te171  1  0.33576033  0.16328073  0.00033616  1
  Te  Te172  1  0.33274074  0.16551300  0.33368496  1
  Te  Te173  1  0.32973818  0.16470257  0.66271025  1
  Te  Te174  1  0.33362276  0.50084088  0.00660435  1
  Te  Te175  1  0.33294619  0.49762136  0.32724372  1
  Te  Te176  1  0.33787348  0.50360540  0.66736379  1
  Te  Te177  1  0.33467223  0.84154688  -0.00075330  1
  Te  Te178  1  0.33712687  0.83382118  0.33873247  1
  Te  Te179  1  0.33674707  0.83308105  0.66090724  1
  Te  Te180  1  0.66391911  0.16612506  0.00237805  1
  Te  Te181  1  0.66465292  0.16550678  0.33203917  1
  Te  Te182  1  0.66736262  0.16710206  0.66360549  1
  Te  Te183  1  0.67078333  0.50298596  0.00504222  1
  Te  Te184  1  0.66998822  0.50140509  0.32905884  1
  Te  Te185  1  0.66213751  0.50494521  0.66693291  1
  Te  Te186  1  0.66552488  0.83015306  0.00645759  1
  Te  Te187  1  0.66062775  0.82849125  0.32962409  1
  Te  Te188  1  0.66034253  0.82774641  0.66615483  1
  Te  Te189  1  -0.00405607  0.00396465  0.16461663  1
  Te  Te190  1  -0.00455359  0.00019893  0.50536164  1
  Te  Te191  1  -0.00359300  0.00012797  0.83215115  1
  Te  Te192  1  -0.00059596  0.32755081  0.16672395  1
  Te  Te193  1  -0.00003435  0.33345082  0.50577304  1
  Te  Te194  1  0.00095989  0.33278830  0.82525575  1
  Te  Te195  1  -0.00492649  0.66698070  0.17001001  1
  Te  Te196  1  -0.00132287  0.66746071  0.49919375  1
  Te  Te197  1  -0.00262977  0.66737727  0.83191814  1
  Te  Te198  1  0.33592693  -0.00001250  0.16876377  1
  Te  Te199  1  0.33314406  0.00134219  0.50136983  1
  Te  Te200  1  0.33420652  0.00483626  0.82800788  1
  Te  Te201  1  0.33598467  0.33205461  0.17133069  1
  Te  Te202  1  0.33694228  0.32973296  0.49364935  1
  Te  Te203  1  0.33801008  0.32722028  0.83146625  1
  Te  Te204  1  0.33312247  0.66656345  0.16486091  1
  Te  Te205  1  0.33607434  0.66504754  0.50217742  1
  Te  Te206  1  0.33198268  0.66646345  0.82882909  1
  Te  Te207  1  0.66647477  0.00278002  0.16535891  1
  Te  Te208  1  0.67183053  0.00526299  0.50245855  1
  Te  Te209  1  0.66661129  0.00268377  0.83698600  1
  Te  Te210  1  0.66890961  0.33100481  0.17158824  1
  Te  Te211  1  0.66564982  0.33015348  0.49558847  1
  Te  Te212  1  0.66179827  0.32722049  0.83065341  1
  Te  Te213  1  0.66747756  0.66317074  0.16759511  1
  Te  Te214  1  0.66302002  0.66803075  0.50267968  1
  Te  Te215  1  0.67044567  0.66611146  0.82906923  1
