# generated using pymatgen
data_AgSbTe2
_symmetry_space_group_name_H-M   'P 1'
_cell_length_a   18.33076475
_cell_length_b   18.33421997
_cell_length_c   18.32875631
_cell_angle_alpha   89.99658930
_cell_angle_beta   89.99809884
_cell_angle_gamma   90.00361179
_symmetry_Int_Tables_number   1
_chemical_formula_structural   AgSbTe2
_chemical_formula_sum   'Ag54 Sb54 Te108'
_cell_volume   6159.93340175
_cell_formula_units_Z   54
loop_
 _symmetry_equiv_pos_site_id
 _symmetry_equiv_pos_as_xyz
  1  'x, y, z'
loop_
 _atom_site_type_symbol
 _atom_site_label
 _atom_site_symmetry_multiplicity
 _atom_site_fract_x
 _atom_site_fract_y
 _atom_site_fract_z
 _atom_site_occupancy
  Ag  Ag0  1  0.16878818  0.16902454  0.66706543  1
  Ag  Ag1  1  0.16817672  0.17236112  -0.00107077  1
  Ag  Ag2  1  0.48941680  0.33484266  0.50340755  1
  Ag  Ag3  1  0.48806748  0.16943410  0.00202292  1
  Ag  Ag4  1  0.32852862  0.49661267  0.49849549  1
  Ag  Ag5  1  0.00334640  0.65882873  0.32648685  1
  Ag  Ag6  1  0.16080357  0.33569492  0.16843744  1
  Ag  Ag7  1  0.66929460  0.00571112  0.65608150  1
  Ag  Ag8  1  -0.00812182  0.82036845  0.16329494  1
  Ag  Ag9  1  0.00853722  0.49467336  0.48894565  1
  Ag  Ag10  1  0.65614360  0.33222139  0.66267198  1
  Ag  Ag11  1  0.66825768  -0.00546555  0.33699317  1
  Ag  Ag12  1  0.33330949  0.49603702  0.83910182  1
  Ag  Ag13  1  0.33034129  0.66341788  0.32827277  1
  Ag  Ag14  1  0.17147456  0.65622977  0.49906871  1
  Ag  Ag15  1  0.68007052  0.82611256  0.17062593  1
  Ag  Ag16  1  0.32976094  0.82469356  0.83594762  1
  Ag  Ag17  1  -0.00390359  -0.00063428  0.00159742  1
  Ag  Ag18  1  0.66163627  0.16325686  0.50016808  1
  Ag  Ag19  1  0.66328008  0.83992137  0.48801106  1
  Ag  Ag20  1  0.83255085  0.66933614  0.16550241  1
  Ag  Ag21  1  0.00206491  0.17433526  0.49857195  1
  Ag  Ag22  1  0.33046823  0.65542235  0.00518208  1
  Ag  Ag23  1  0.83772058  0.50213433  0.00722322  1
  Ag  Ag24  1  0.00179750  0.83177098  0.84561766  1
  Ag  Ag25  1  0.49568031  0.66294011  0.49152569  1
  Ag  Ag26  1  0.49264278  0.33416214  0.82513651  1
  Ag  Ag27  1  0.50773101  0.66521774  0.16943059  1
  Ag  Ag28  1  0.00377995  0.33343156  0.00629004  1
  Ag  Ag29  1  0.33615533  0.33390576  0.66591073  1
  Ag  Ag30  1  0.67959955  0.50708652  0.16560397  1
  Ag  Ag31  1  0.82851190  0.83553996  0.32120263  1
  Ag  Ag32  1  0.33336415  0.17931898  0.49912292  1
  Ag  Ag33  1  0.33250445  0.17764953  0.15893681  1
  Ag  Ag34  1  0.16437715  0.49937859  0.33488416  1
  Ag  Ag35  1  0.49960288  0.49540371  0.66264145  1
  Ag  Ag36  1  0.83155065  0.49795301  0.66805507  1
  Ag  Ag37  1  0.83458387  0.16314304  0.32663760  1
  Ag  Ag38  1  -0.00371061  0.50141159  0.16923754  1
  Ag  Ag39  1  0.50516315  0.00743197  0.49965266  1
  Ag  Ag40  1  0.84199538  0.33842967  0.16406416  1
  Ag  Ag41  1  0.16939351  0.66573918  0.83583687  1
  Ag  Ag42  1  0.83825359  0.82526581  0.00935137  1
  Ag  Ag43  1  0.33027108  0.49772287  0.16619612  1
  Ag  Ag44  1  0.67582100  0.66537928  0.00759712  1
  Ag  Ag45  1  0.33331629  0.17825123  0.84102841  1
  Ag  Ag46  1  0.83863989  0.17064420  0.00849075  1
  Ag  Ag47  1  -0.00503679  0.00133890  0.66683386  1
  Ag  Ag48  1  0.83315847  -0.01595282  0.16663004  1
  Ag  Ag49  1  -0.00249833  0.66674633  0.00879002  1
  Ag  Ag50  1  0.00097784  0.34137672  0.32445208  1
  Ag  Ag51  1  0.50966195  0.82971294  0.33469783  1
  Ag  Ag52  1  0.17161082  0.33702442  0.49603828  1
  Ag  Ag53  1  0.33071895  0.33428017  -0.00173777  1
  Sb  Sb54  1  0.66819955  0.83256399  0.83665938  1
  Sb  Sb55  1  0.33896207  -0.00423317  0.33389051  1
  Sb  Sb56  1  0.16337413  0.17382944  0.33353576  1
  Sb  Sb57  1  0.33290582  0.65763183  0.66614353  1
  Sb  Sb58  1  0.15981934  0.83264427  -0.00002603  1
  Sb  Sb59  1  0.83487723  0.16946180  0.66615594  1
  Sb  Sb60  1  0.49282106  0.66214335  0.83598376  1
  Sb  Sb61  1  0.66204735  0.50007206  0.83701638  1
  Sb  Sb62  1  0.83964544  0.66562300  0.84376678  1
  Sb  Sb63  1  -0.00126598  0.17348121  0.16764646  1
  Sb  Sb64  1  0.15913339  0.00898591  0.16509472  1
  Sb  Sb65  1  0.83307295  0.83117598  0.66666262  1
  Sb  Sb66  1  0.16322774  0.82281853  0.33257177  1
  Sb  Sb67  1  0.66447759  0.49932207  0.49618826  1
  Sb  Sb68  1  0.16292126  0.65889599  0.16615429  1
  Sb  Sb69  1  0.66599057  0.66352790  0.66821831  1
  Sb  Sb70  1  0.83108950  0.33476127  0.83838231  1
  Sb  Sb71  1  0.49808524  0.49735061  -0.00038147  1
  Sb  Sb72  1  0.16622876  -0.00084011  0.83378300  1
  Sb  Sb73  1  0.50209892  0.16453920  0.33329772  1
  Sb  Sb74  1  0.83266647  0.66453695  0.49131028  1
  Sb  Sb75  1  0.82731476  0.00172331  0.49454894  1
  Sb  Sb76  1  0.16846760  0.49499211  0.66052604  1
  Sb  Sb77  1  0.32849094  0.00380478  0.00108977  1
  Sb  Sb78  1  0.33836727  0.82801457  0.50210203  1
  Sb  Sb79  1  0.50473237  -0.00361206  0.16969036  1
  Sb  Sb80  1  0.83885353  0.50097149  0.32716872  1
  Sb  Sb81  1  0.33171199  0.82637215  0.16372989  1
  Sb  Sb82  1  0.00571348  0.16437639  0.83549300  1
  Sb  Sb83  1  0.17270813  0.33676794  0.83453984  1
  Sb  Sb84  1  0.83666327  0.33387102  0.49534430  1
  Sb  Sb85  1  0.00613187  0.50342952  0.83667214  1
  Sb  Sb86  1  0.49793318  0.33822741  0.16957716  1
  Sb  Sb87  1  0.16658379  0.83708471  0.66716741  1
  Sb  Sb88  1  0.66142098  0.16861146  0.83022820  1
  Sb  Sb89  1  0.83484734  0.00006511  0.83928150  1
  Sb  Sb90  1  0.16549971  0.49645252  0.00627447  1
  Sb  Sb91  1  0.00238034  0.33113126  0.66553656  1
  Sb  Sb92  1  0.50267890  0.83342579  0.00433690  1
  Sb  Sb93  1  0.67229506  0.33019347  0.33611020  1
  Sb  Sb94  1  0.66532126  0.33600169  -0.00085557  1
  Sb  Sb95  1  0.49600986  0.17418866  0.66524516  1
  Sb  Sb96  1  -0.00458567  0.83267544  0.49534942  1
  Sb  Sb97  1  0.66593646  0.67050900  0.32692328  1
  Sb  Sb98  1  0.33476619  0.00861639  0.66554584  1
  Sb  Sb99  1  0.16925116  0.00651194  0.50032383  1
  Sb  Sb100  1  0.32866778  0.33878448  0.33308687  1
  Sb  Sb101  1  0.00047772  0.66789523  0.66584562  1
  Sb  Sb102  1  0.67318519  -0.00256276  0.00411718  1
  Sb  Sb103  1  -0.00663559  0.00093467  0.33069919  1
  Sb  Sb104  1  0.66776463  0.16689546  0.16951804  1
  Sb  Sb105  1  0.50012505  0.82992097  0.66115731  1
  Sb  Sb106  1  0.49872481  0.00506168  0.82866724  1
  Sb  Sb107  1  0.49451968  0.50569955  0.33564436  1
  Te  Te108  1  0.17172590  0.17429113  0.16444599  1
  Te  Te109  1  0.16670932  0.17011081  0.50038875  1
  Te  Te110  1  0.17286733  0.16690938  0.83307572  1
  Te  Te111  1  0.16928560  0.49456162  0.17195051  1
  Te  Te112  1  0.16616468  0.49888663  0.49928536  1
  Te  Te113  1  0.17367345  0.50532518  0.82986488  1
  Te  Te114  1  0.16227421  0.83890457  0.16676397  1
  Te  Te115  1  0.16703414  0.82957256  0.50020204  1
  Te  Te116  1  0.16672536  0.82887049  0.83315419  1
  Te  Te117  1  0.49657915  0.16590530  0.16426051  1
  Te  Te118  1  0.50002233  0.16845738  0.49921108  1
  Te  Te119  1  0.49429037  0.17165287  0.83795711  1
  Te  Te120  1  0.49239169  0.50555106  0.16729862  1
  Te  Te121  1  0.49942931  0.49994210  0.50129418  1
  Te  Te122  1  0.49415502  0.49521864  0.82950010  1
  Te  Te123  1  0.49946996  0.82866472  0.17179505  1
  Te  Te124  1  0.50339428  0.82835506  0.49660758  1
  Te  Te125  1  0.49568064  0.83308876  0.83380603  1
  Te  Te126  1  0.83208129  0.17710781  0.16751799  1
  Te  Te127  1  0.83659019  0.16756681  0.49906013  1
  Te  Te128  1  0.83334274  0.16775409  0.84026434  1
  Te  Te129  1  0.83621454  0.49902569  0.16595061  1
  Te  Te130  1  0.83546075  0.50047554  0.50425448  1
  Te  Te131  1  0.83301646  0.50056512  0.83294198  1
  Te  Te132  1  0.83594486  0.82865656  0.16513215  1
  Te  Te133  1  0.82618860  0.83322456  0.49784762  1
  Te  Te134  1  0.83848557  0.83280287  0.83772535  1
  Te  Te135  1  0.15786196  0.00932107  -0.00002655  1
  Te  Te136  1  0.16808504  -0.00178922  0.33332306  1
  Te  Te137  1  0.16182476  0.00712923  0.66617835  1
  Te  Te138  1  0.16902915  0.33132241  0.00046430  1
  Te  Te139  1  0.16115930  0.33784694  0.33401271  1
  Te  Te140  1  0.17015733  0.32864461  0.66306251  1
  Te  Te141  1  0.16985090  0.66636519  -0.00288676  1
  Te  Te142  1  0.16630819  0.66072123  0.33671295  1
  Te  Te143  1  0.16574920  0.66802373  0.66176054  1
  Te  Te144  1  0.50286813  0.00667716  -0.00068477  1
  Te  Te145  1  0.50570189  -0.00575080  0.33799858  1
  Te  Te146  1  0.50473248  -0.00109662  0.66062744  1
  Te  Te147  1  0.49693388  0.32991958  0.00130592  1
  Te  Te148  1  0.50267328  0.33306004  0.34129364  1
  Te  Te149  1  0.49679737  0.33476515  0.66457618  1
  Te  Te150  1  0.49193422  0.66670922  0.00398538  1
  Te  Te151  1  0.49796392  0.66930091  0.33173751  1
  Te  Te152  1  0.50113496  0.65969158  0.66397937  1
  Te  Te153  1  0.83664491  0.00267882  0.00533605  1
  Te  Te154  1  0.82943045  0.00079906  0.32836126  1
  Te  Te155  1  0.83319066  0.00072923  0.66757918  1
  Te  Te156  1  0.83241494  0.33620248  0.00265537  1
  Te  Te157  1  0.83958037  0.32907491  0.32850708  1
  Te  Te158  1  0.83293443  0.33687427  0.66937502  1
  Te  Te159  1  0.83677750  0.66438718  0.00470241  1
  Te  Te160  1  0.83929905  0.67043113  0.32730476  1
  Te  Te161  1  0.83202017  0.66076736  0.66783044  1
  Te  Te162  1  -0.00027104  0.17011113  0.00053243  1
  Te  Te163  1  -0.00403373  0.16814872  0.33769579  1
  Te  Te164  1  0.00263600  0.16308966  0.66527091  1
  Te  Te165  1  -0.00091204  0.49962457  0.00093443  1
  Te  Te166  1  -0.00008850  0.49951622  0.33209011  1
  Te  Te167  1  -0.00405624  0.49965867  0.66751109  1
  Te  Te168  1  -0.00088013  0.83101307  0.00272521  1
  Te  Te169  1  -0.00460140  0.83226777  0.32886290  1
  Te  Te170  1  -0.00140105  0.84014250  0.66673617  1
  Te  Te171  1  0.33053463  0.16665580  0.00054457  1
  Te  Te172  1  0.33292246  0.16458495  0.33784393  1
  Te  Te173  1  0.33031491  0.17210017  0.66173351  1
  Te  Te174  1  0.33217020  0.49699270  0.00150512  1
  Te  Te175  1  0.32912885  0.50451805  0.33387736  1
  Te  Te176  1  0.33515726  0.49350599  0.66055750  1
  Te  Te177  1  0.33280864  0.83528800  -0.00443503  1
  Te  Te178  1  0.33471048  0.82554053  0.33293746  1
  Te  Te179  1  0.33355909  0.83568164  0.67467402  1
  Te  Te180  1  0.67339392  0.16679721  -0.00019219  1
  Te  Te181  1  0.67039609  0.16214442  0.33784171  1
  Te  Te182  1  0.66769338  0.16787123  0.66236703  1
  Te  Te183  1  0.66878010  0.50415272  0.00469974  1
  Te  Te184  1  0.66723837  0.49878897  0.32664139  1
  Te  Te185  1  0.66553497  0.49617473  0.66680250  1
  Te  Te186  1  0.67119948  0.82979507  0.00524984  1
  Te  Te187  1  0.66831889  0.83199663  0.33093961  1
  Te  Te188  1  0.66756802  0.83633941  0.66629606  1
  Te  Te189  1  -0.00675969  0.00096884  0.16335181  1
  Te  Te190  1  0.00082138  0.00210971  0.50197965  1
  Te  Te191  1  0.00024863  -0.00496231  0.83513526  1
  Te  Te192  1  0.00175860  0.33484153  0.16467313  1
  Te  Te193  1  0.00300597  0.33425444  0.50160101  1
  Te  Te194  1  0.00096200  0.33376292  0.84114937  1
  Te  Te195  1  0.00300645  0.66240008  0.16587770  1
  Te  Te196  1  0.00172841  0.66344035  0.49771323  1
  Te  Te197  1  0.00654429  0.67153941  0.83445820  1
  Te  Te198  1  0.33379890  0.00409571  0.16750769  1
  Te  Te199  1  0.33974246  0.00037679  0.50041761  1
  Te  Te200  1  0.33392091  -0.00072038  0.83248940  1
  Te  Te201  1  0.33434130  0.33509657  0.16637264  1
  Te  Te202  1  0.33221327  0.33538988  0.49550924  1
  Te  Te203  1  0.33435210  0.33464595  0.83656689  1
  Te  Te204  1  0.32934341  0.66372588  0.16570429  1
  Te  Te205  1  0.33431045  0.66388999  0.49953790  1
  Te  Te206  1  0.33026198  0.66335051  0.83458499  1
  Te  Te207  1  0.67167914  -0.00253598  0.17151604  1
  Te  Te208  1  0.66524413  0.00100347  0.49841951  1
  Te  Te209  1  0.66638769  -0.00035942  0.82439698  1
  Te  Te210  1  0.66664826  0.33866866  0.16751292  1
  Te  Te211  1  0.66762353  0.33007375  0.50356511  1
  Te  Te212  1  0.65793440  0.33389586  0.82586457  1
  Te  Te213  1  0.66656745  0.66631869  0.16483969  1
  Te  Te214  1  0.66274244  0.66860492  0.50024082  1
  Te  Te215  1  0.66516210  0.66776868  0.84314311  1
