# generated using pymatgen
data_AgSbTe2
_symmetry_space_group_name_H-M   'P 1'
_cell_length_a   18.34360231
_cell_length_b   18.35305793
_cell_length_c   18.34394551
_cell_angle_alpha   90.00242745
_cell_angle_beta   90.00210291
_cell_angle_gamma   90.00127726
_symmetry_Int_Tables_number   1
_chemical_formula_structural   AgSbTe2
_chemical_formula_sum   'Ag54 Sb54 Te108'
_cell_volume   6175.69461978
_cell_formula_units_Z   54
loop_
 _symmetry_equiv_pos_site_id
 _symmetry_equiv_pos_as_xyz
  1  'x, y, z'
loop_
 _atom_site_type_symbol
 _atom_site_label
 _atom_site_symmetry_multiplicity
 _atom_site_fract_x
 _atom_site_fract_y
 _atom_site_fract_z
 _atom_site_occupancy
  Ag  Ag0  1  0.17736906  0.16615128  -0.00180714  1
  Ag  Ag1  1  -0.00537164  0.16136676  0.83147148  1
  Ag  Ag2  1  0.17221122  0.83435305  0.33191698  1
  Ag  Ag3  1  0.33571520  0.16207184  0.16335414  1
  Ag  Ag4  1  0.49718735  0.34242978  0.50341494  1
  Ag  Ag5  1  0.49524652  0.16690316  -0.01329247  1
  Ag  Ag6  1  0.83157427  0.32950461  0.82501059  1
  Ag  Ag7  1  0.49784890  0.65561529  0.50017151  1
  Ag  Ag8  1  0.82767565  0.83486408  0.66491229  1
  Ag  Ag9  1  0.17383037  0.32896381  0.83470523  1
  Ag  Ag10  1  0.33953016  0.16304197  0.83062204  1
  Ag  Ag11  1  -0.01028936  0.67114342  0.66810063  1
  Ag  Ag12  1  -0.00232371  0.67598196  0.33544356  1
  Ag  Ag13  1  0.48895243  0.82934254  0.34473566  1
  Ag  Ag14  1  0.50094385  0.50536915  0.34718706  1
  Ag  Ag15  1  0.34290404  0.32614850  0.66368021  1
  Ag  Ag16  1  0.83529987  0.66864207  0.82562123  1
  Ag  Ag17  1  0.00573835  -0.00677057  0.33459537  1
  Ag  Ag18  1  0.65370827  0.49941835  0.51298440  1
  Ag  Ag19  1  0.49978182  0.83519856  0.66291805  1
  Ag  Ag20  1  -0.00388521  0.83299891  0.50035133  1
  Ag  Ag21  1  0.66021943  0.33956044  0.66839182  1
  Ag  Ag22  1  0.33248711  0.84262463  0.82576110  1
  Ag  Ag23  1  0.33693116  0.32842050  0.33800426  1
  Ag  Ag24  1  0.50767502  0.49421494  0.65955467  1
  Ag  Ag25  1  0.84173098  0.83193159  0.34209864  1
  Ag  Ag26  1  0.65125133  0.16902815  0.16197535  1
  Ag  Ag27  1  0.82165448  0.50426474  0.66628606  1
  Ag  Ag28  1  0.82710259  0.50381523  0.34247503  1
  Ag  Ag29  1  0.49501287  0.32997400  0.17522254  1
  Ag  Ag30  1  0.33253732  0.84565297  0.18065017  1
  Ag  Ag31  1  0.50220559  0.16516055  0.66981200  1
  Ag  Ag32  1  0.49527433  0.00395593  0.82713164  1
  Ag  Ag33  1  0.34135935  0.48672644  0.82379410  1
  Ag  Ag34  1  0.34010131  0.00590586  0.67084572  1
  Ag  Ag35  1  0.34234868  0.49134356  0.50449399  1
  Ag  Ag36  1  0.33304214  0.00469291  -0.00317931  1
  Ag  Ag37  1  -0.00125609  0.83518274  0.82428525  1
  Ag  Ag38  1  0.00040326  0.67020083  -0.00355886  1
  Ag  Ag39  1  0.82883137  0.00590752  0.82694300  1
  Ag  Ag40  1  0.83340446  -0.00341606  0.50975103  1
  Ag  Ag41  1  0.17787478  0.32811135  0.16431485  1
  Ag  Ag42  1  0.17312554  0.67485296  0.16884474  1
  Ag  Ag43  1  0.66291727  0.48923333  0.82324379  1
  Ag  Ag44  1  0.17473562  -0.00015472  0.16974422  1
  Ag  Ag45  1  0.49531711  0.66428017  0.17353498  1
  Ag  Ag46  1  0.66327341  0.16825905  0.82710070  1
  Ag  Ag47  1  0.33680881  0.83793167  0.49825822  1
  Ag  Ag48  1  0.82612198  0.33140917  0.16780104  1
  Ag  Ag49  1  0.66829967  0.65388338  0.66719988  1
  Ag  Ag50  1  0.33285634  -0.00223181  0.33351922  1
  Ag  Ag51  1  0.33572266  0.16281411  0.51046171  1
  Ag  Ag52  1  0.66088245  0.00320751  0.66815273  1
  Ag  Ag53  1  0.82186341  0.15880730  0.67164779  1
  Sb  Sb54  1  0.66428193  0.49458340  0.16752148  1
  Sb  Sb55  1  0.00293745  0.15997572  0.50705632  1
  Sb  Sb56  1  0.66054301  0.17021288  0.50724105  1
  Sb  Sb57  1  0.17067882  0.16136933  0.32669994  1
  Sb  Sb58  1  -0.00289845  0.33542542  0.66828575  1
  Sb  Sb59  1  0.17384675  0.16738039  0.67367595  1
  Sb  Sb60  1  0.66435450  0.33136297  -0.00718897  1
  Sb  Sb61  1  0.33779127  0.66776580  0.66532194  1
  Sb  Sb62  1  0.83135531  0.16651511  -0.00849979  1
  Sb  Sb63  1  0.17773427  0.33176924  0.49984930  1
  Sb  Sb64  1  0.83391022  0.16651365  0.33795996  1
  Sb  Sb65  1  0.00523994  -0.00270017  0.00004921  1
  Sb  Sb66  1  0.33463403  0.66898536  0.33333521  1
  Sb  Sb67  1  0.66870160  0.66612474  -0.00706847  1
  Sb  Sb68  1  -0.00248982  0.50807488  0.50126476  1
  Sb  Sb69  1  0.16238025  0.66484593  0.83740705  1
  Sb  Sb70  1  0.83185020  0.66424841  0.16786218  1
  Sb  Sb71  1  0.00082691  0.33413786  -0.00261952  1
  Sb  Sb72  1  0.83616643  0.00392745  0.16771661  1
  Sb  Sb73  1  0.65998364  0.00411334  -0.00791755  1
  Sb  Sb74  1  0.16947820  0.49560452  -0.00057596  1
  Sb  Sb75  1  0.17051797  0.66931041  0.49573437  1
  Sb  Sb76  1  0.65793616  0.83849309  0.17193118  1
  Sb  Sb77  1  0.17102299  0.00411912  0.83659349  1
  Sb  Sb78  1  0.49586132  0.83803295  -0.00296432  1
  Sb  Sb79  1  0.49573777  0.16611859  0.33838074  1
  Sb  Sb80  1  0.82742349  0.33209730  0.50457733  1
  Sb  Sb81  1  0.50249114  0.66990422  0.82851483  1
  Sb  Sb82  1  0.49768204  0.49377352  -0.00440238  1
  Sb  Sb83  1  0.66701418  0.66526128  0.33920281  1
  Sb  Sb84  1  0.17203422  0.50395224  0.33246323  1
  Sb  Sb85  1  0.83670347  0.83335564  -0.00615679  1
  Sb  Sb86  1  -0.00350948  0.50116224  0.83001337  1
  Sb  Sb87  1  0.33550116  0.32450388  -0.00315347  1
  Sb  Sb88  1  0.33097549  0.67278398  0.00052207  1
  Sb  Sb89  1  0.16817733  0.83785342  0.00442820  1
  Sb  Sb90  1  0.66420492  0.82986154  0.50432905  1
  Sb  Sb91  1  0.17230624  0.50077290  0.66766043  1
  Sb  Sb92  1  0.65986486  0.33393535  0.33750738  1
  Sb  Sb93  1  -0.00207713  -0.00508262  0.66586508  1
  Sb  Sb94  1  0.66732998  0.83690449  0.82801621  1
  Sb  Sb95  1  0.49331107  0.00294414  0.16507534  1
  Sb  Sb96  1  0.82796758  0.67088969  0.50681375  1
  Sb  Sb97  1  0.00513621  0.16617981  0.16047761  1
  Sb  Sb98  1  0.16814326  -0.00199942  0.49552309  1
  Sb  Sb99  1  0.49917358  0.32670573  0.82628075  1
  Sb  Sb100  1  0.16867375  0.83365187  0.66399235  1
  Sb  Sb101  1  0.83321782  0.49854175  -0.00575157  1
  Sb  Sb102  1  0.33621546  0.49616193  0.16894281  1
  Sb  Sb103  1  0.66394533  0.00068819  0.33945709  1
  Sb  Sb104  1  -0.00091178  0.50188219  0.16797325  1
  Sb  Sb105  1  0.49932554  -0.00041501  0.50684531  1
  Sb  Sb106  1  0.00532834  0.83271372  0.17359204  1
  Sb  Sb107  1  0.00450287  0.33358234  0.33217222  1
  Te  Te108  1  0.16966264  0.16781422  0.16162593  1
  Te  Te109  1  0.17434594  0.16607714  0.50046905  1
  Te  Te110  1  0.16999889  0.16961126  0.83759944  1
  Te  Te111  1  0.16744493  0.49483256  0.16685618  1
  Te  Te112  1  0.17534070  0.50026254  0.49923171  1
  Te  Te113  1  0.17089593  0.49328261  0.83355019  1
  Te  Te114  1  0.17156132  0.83372458  0.17017205  1
  Te  Te115  1  0.16971172  0.83295921  0.49346611  1
  Te  Te116  1  0.16634341  0.83270138  0.83354271  1
  Te  Te117  1  0.49562694  0.16782317  0.17300028  1
  Te  Te118  1  0.49522256  0.16974953  0.50515715  1
  Te  Te119  1  0.50064395  0.16564784  0.83014663  1
  Te  Te120  1  0.50127576  0.50117349  0.16544082  1
  Te  Te121  1  0.49772911  0.49968156  0.50245734  1
  Te  Te122  1  0.50040135  0.50203082  0.82972279  1
  Te  Te123  1  0.49375010  0.83065018  0.16632869  1
  Te  Te124  1  0.49880938  0.83490542  0.50160576  1
  Te  Te125  1  0.49727484  0.83824522  0.82925075  1
  Te  Te126  1  0.83687133  0.17089442  0.16622866  1
  Te  Te127  1  0.83322923  0.16250260  0.50732058  1
  Te  Te128  1  0.83109527  0.16742347  0.83068285  1
  Te  Te129  1  0.83120372  0.49453937  0.16878945  1
  Te  Te130  1  0.83136949  0.49982006  0.50181777  1
  Te  Te131  1  0.83161278  0.49688736  0.82890500  1
  Te  Te132  1  0.83095627  0.83406386  0.16950719  1
  Te  Te133  1  0.83193420  0.83503595  0.50151997  1
  Te  Te134  1  0.83555161  0.83128891  0.82906127  1
  Te  Te135  1  0.17181342  0.00479370  0.00690815  1
  Te  Te136  1  0.16892391  -0.00403970  0.32994306  1
  Te  Te137  1  0.17668400  0.00021323  0.66612688  1
  Te  Te138  1  0.16612704  0.32853660  0.00045730  1
  Te  Te139  1  0.17272483  0.33486590  0.32811842  1
  Te  Te140  1  0.16886515  0.33452658  0.67203485  1
  Te  Te141  1  0.16209925  0.66617722  0.00720952  1
  Te  Te142  1  0.16138955  0.66966298  0.32832341  1
  Te  Te143  1  0.15638032  0.66594370  0.66759591  1
  Te  Te144  1  0.49370744  0.00542349  -0.00651547  1
  Te  Te145  1  0.49636518  -0.00749111  0.33406922  1
  Te  Te146  1  0.49891661  -0.00079574  0.66769124  1
  Te  Te147  1  0.50111761  0.32738520  0.01392262  1
  Te  Te148  1  0.49615946  0.33386561  0.33590117  1
  Te  Te149  1  0.49958408  0.33437760  0.66697049  1
  Te  Te150  1  0.50025652  0.66637247  0.00572400  1
  Te  Te151  1  0.50102249  0.66737805  0.33448982  1
  Te  Te152  1  0.50404512  0.67117835  0.66492485  1
  Te  Te153  1  0.83465854  -0.00000578  -0.00660147  1
  Te  Te154  1  0.83308543  -0.00394488  0.33383584  1
  Te  Te155  1  0.83791681  -0.00220712  0.67010086  1
  Te  Te156  1  0.83304141  0.33335448  0.00542472  1
  Te  Te157  1  0.83478011  0.33658907  0.33318599  1
  Te  Te158  1  0.83151401  0.33427118  0.66764427  1
  Te  Te159  1  0.83818940  0.66574062  -0.00439625  1
  Te  Te160  1  0.83505045  0.66630183  0.33291988  1
  Te  Te161  1  0.82981330  0.66972165  0.66676960  1
  Te  Te162  1  0.00252998  0.16545949  -0.00799029  1
  Te  Te163  1  0.00148960  0.16009825  0.33607418  1
  Te  Te164  1  -0.00177905  0.16679761  0.67214128  1
  Te  Te165  1  0.00119031  0.50965455  -0.00092886  1
  Te  Te166  1  -0.00443072  0.50287031  0.33549084  1
  Te  Te167  1  -0.00469643  0.50612683  0.66493530  1
  Te  Te168  1  0.00109923  0.82955671  -0.00663384  1
  Te  Te169  1  -0.00140890  0.83479111  0.33438530  1
  Te  Te170  1  0.00156380  0.83126469  0.66398491  1
  Te  Te171  1  0.33601542  0.16408047  0.00094962  1
  Te  Te172  1  0.33275465  0.16716584  0.32796935  1
  Te  Te173  1  0.33598328  0.16684174  0.66899411  1
  Te  Te174  1  0.33404898  0.50260022  -0.01235809  1
  Te  Te175  1  0.33957033  0.49635865  0.33674258  1
  Te  Te176  1  0.33641453  0.50115421  0.66537025  1
  Te  Te177  1  0.33262174  0.84086611  -0.00782624  1
  Te  Te178  1  0.33302572  0.83189971  0.33567322  1
  Te  Te179  1  0.33508967  0.83357251  0.66488283  1
  Te  Te180  1  0.66060542  0.16640000  0.00099620  1
  Te  Te181  1  0.66684092  0.16604084  0.32572679  1
  Te  Te182  1  0.66407772  0.16379692  0.66738849  1
  Te  Te183  1  0.66598701  0.50022812  -0.01203493  1
  Te  Te184  1  0.66560473  0.49973238  0.33484259  1
  Te  Te185  1  0.66665536  0.49801405  0.66824449  1
  Te  Te186  1  0.66707669  0.83481637  0.00174085  1
  Te  Te187  1  0.66864259  0.83372877  0.33543148  1
  Te  Te188  1  0.66654990  0.84329199  0.66679668  1
  Te  Te189  1  0.00492350  0.00032388  0.17116443  1
  Te  Te190  1  -0.00292256  -0.00531762  0.49613430  1
  Te  Te191  1  0.00002477  -0.00164581  0.83352347  1
  Te  Te192  1  0.00002228  0.33346201  0.16606100  1
  Te  Te193  1  0.00340670  0.33191313  0.49880998  1
  Te  Te194  1  -0.00422934  0.33016005  0.83370614  1
  Te  Te195  1  0.00079400  0.66741991  0.17067635  1
  Te  Te196  1  0.00080260  0.67316474  0.49729516  1
  Te  Te197  1  -0.00256437  0.66852401  0.83064986  1
  Te  Te198  1  0.33285131  0.00108937  0.17066839  1
  Te  Te199  1  0.33361658  0.00008381  0.49634503  1
  Te  Te200  1  0.33261371  0.00254527  0.83178366  1
  Te  Te201  1  0.33510780  0.33294549  0.16543368  1
  Te  Te202  1  0.33718683  0.33094902  0.50190752  1
  Te  Te203  1  0.33380734  0.33005683  0.83112184  1
  Te  Te204  1  0.33275201  0.66482806  0.16575235  1
  Te  Te205  1  0.33782508  0.67370150  0.50012896  1
  Te  Te206  1  0.33153946  0.67379564  0.83379760  1
  Te  Te207  1  0.66691015  0.00707279  0.16554392  1
  Te  Te208  1  0.67351598  0.00276799  0.50528125  1
  Te  Te209  1  0.66768448  0.00395514  0.82914829  1
  Te  Te210  1  0.66681097  0.32923263  0.16755634  1
  Te  Te211  1  0.66068424  0.33764524  0.50517783  1
  Te  Te212  1  0.66905220  0.32976617  0.82897394  1
  Te  Te213  1  0.66142928  0.66678608  0.16391958  1
  Te  Te214  1  0.65958168  0.66081816  0.50565494  1
  Te  Te215  1  0.67125930  0.66775802  0.82806746  1
