# generated using pymatgen
data_AgSbTe2
_symmetry_space_group_name_H-M   'P 1'
_cell_length_a   18.32540527
_cell_length_b   18.32136992
_cell_length_c   18.32306072
_cell_angle_alpha   89.99927299
_cell_angle_beta   90.00022185
_cell_angle_gamma   89.99696412
_symmetry_Int_Tables_number   1
_chemical_formula_structural   AgSbTe2
_chemical_formula_sum   'Ag54 Sb54 Te108'
_cell_volume   6151.90402695
_cell_formula_units_Z   54
loop_
 _symmetry_equiv_pos_site_id
 _symmetry_equiv_pos_as_xyz
  1  'x, y, z'
loop_
 _atom_site_type_symbol
 _atom_site_label
 _atom_site_symmetry_multiplicity
 _atom_site_fract_x
 _atom_site_fract_y
 _atom_site_fract_z
 _atom_site_occupancy
  Ag  Ag0  1  0.66079191  0.16124552  0.17066659  1
  Ag  Ag1  1  0.83354883  -0.00616222  0.17389465  1
  Ag  Ag2  1  0.33507082  0.66508799  0.33011431  1
  Ag  Ag3  1  -0.00023410  0.15386630  0.50493958  1
  Ag  Ag4  1  0.01058816  0.33070273  0.66440775  1
  Ag  Ag5  1  0.33739195  0.17573842  0.16656885  1
  Ag  Ag6  1  0.83439070  0.83553780  0.00957996  1
  Ag  Ag7  1  0.50032142  0.00525765  0.82059405  1
  Ag  Ag8  1  0.32869125  0.50180822  0.49951357  1
  Ag  Ag9  1  0.82760436  0.83305701  0.33380168  1
  Ag  Ag10  1  0.17395023  0.67339510  0.17278023  1
  Ag  Ag11  1  0.16362392  -0.00787123  0.50040921  1
  Ag  Ag12  1  0.49474353  0.33362773  0.16728886  1
  Ag  Ag13  1  0.16913950  0.17052202  0.66484475  1
  Ag  Ag14  1  0.49350427  0.66638226  0.17084239  1
  Ag  Ag15  1  0.66609286  0.16105574  0.50097094  1
  Ag  Ag16  1  0.33753369  0.33771205  -0.00069042  1
  Ag  Ag17  1  0.00434544  0.66854382  0.00068040  1
  Ag  Ag18  1  0.00840359  0.50178275  0.50558336  1
  Ag  Ag19  1  0.65682441  0.32754333  0.66736734  1
  Ag  Ag20  1  0.67244822  0.83839346  0.17372505  1
  Ag  Ag21  1  0.66264132  0.67746653  0.33651774  1
  Ag  Ag22  1  0.16743804  0.83218389  0.34278243  1
  Ag  Ag23  1  0.50475126  0.84331620  0.65659416  1
  Ag  Ag24  1  0.66585866  0.67868136  0.65706103  1
  Ag  Ag25  1  0.17611812  0.33523815  0.82712291  1
  Ag  Ag26  1  0.16569636  0.16692275  -0.00070613  1
  Ag  Ag27  1  0.16657855  0.49416798  0.66494669  1
  Ag  Ag28  1  0.32815069  0.66144151  0.01114717  1
  Ag  Ag29  1  0.33328506  0.33505854  0.66840906  1
  Ag  Ag30  1  0.32835325  0.49506519  0.82770924  1
  Ag  Ag31  1  0.49929340  0.16489216  0.66370237  1
  Ag  Ag32  1  0.50765720  0.00035829  0.50360177  1
  Ag  Ag33  1  0.16912306  0.67930270  0.49817480  1
  Ag  Ag34  1  -0.00444970  0.83473241  0.17444243  1
  Ag  Ag35  1  0.16548019  0.83507300  0.65738106  1
  Ag  Ag36  1  0.83363255  0.50968267  0.33559795  1
  Ag  Ag37  1  0.33600472  0.34135013  0.33525383  1
  Ag  Ag38  1  0.00013641  -0.00162281  0.66056598  1
  Ag  Ag39  1  0.49709329  0.32690873  0.50855055  1
  Ag  Ag40  1  0.00797032  0.83669757  0.49936190  1
  Ag  Ag41  1  0.49422381  0.33092842  0.82502413  1
  Ag  Ag42  1  0.65760136  0.32926497  -0.00268594  1
  Ag  Ag43  1  0.00693227  0.50017349  0.82341795  1
  Ag  Ag44  1  0.66754592  -0.00540918  0.33959944  1
  Ag  Ag45  1  0.83370862  0.66801255  0.83253798  1
  Ag  Ag46  1  0.83157140  -0.00285494  0.49917525  1
  Ag  Ag47  1  0.66206817  -0.00138272  0.65781580  1
  Ag  Ag48  1  0.33274589  0.49863681  0.16958470  1
  Ag  Ag49  1  0.83192951  0.83602780  0.65697916  1
  Ag  Ag50  1  0.50565388  0.83207015  0.33800081  1
  Ag  Ag51  1  0.83541358  0.16190263  0.00309546  1
  Ag  Ag52  1  0.32244646  0.83006219  0.49857289  1
  Ag  Ag53  1  0.16355602  -0.00696844  0.17535067  1
  Sb  Sb54  1  0.50145243  -0.00050150  0.17125540  1
  Sb  Sb55  1  -0.00451009  -0.00339164  0.34210908  1
  Sb  Sb56  1  0.66578403  0.16680068  0.83000482  1
  Sb  Sb57  1  0.16359303  0.83462856  0.00232631  1
  Sb  Sb58  1  0.66524852  0.49578135  0.50039299  1
  Sb  Sb59  1  0.49611294  0.67208783  0.49678217  1
  Sb  Sb60  1  0.33566697  0.00402873  0.66376009  1
  Sb  Sb61  1  0.00621697  0.50620536  0.16920141  1
  Sb  Sb62  1  -0.00073585  0.66864567  0.66722709  1
  Sb  Sb63  1  0.17509789  0.33210156  0.16223579  1
  Sb  Sb64  1  0.16996843  0.49744441  -0.00467887  1
  Sb  Sb65  1  0.33539705  0.66267255  0.66218219  1
  Sb  Sb66  1  0.33375219  0.16768345  0.49877128  1
  Sb  Sb67  1  0.33399663  0.82683503  0.82539091  1
  Sb  Sb68  1  0.33353049  0.17466445  0.83521839  1
  Sb  Sb69  1  0.83712812  0.67490071  0.50103879  1
  Sb  Sb70  1  0.66558415  0.49872482  0.83104974  1
  Sb  Sb71  1  0.66677172  0.66510405  0.00407300  1
  Sb  Sb72  1  0.66800488  0.00440443  0.00234759  1
  Sb  Sb73  1  0.82710190  0.32786625  0.16668494  1
  Sb  Sb74  1  0.50159643  0.66441217  0.83336831  1
  Sb  Sb75  1  0.00241772  0.67151304  0.33180153  1
  Sb  Sb76  1  0.66645891  0.84041458  0.49554854  1
  Sb  Sb77  1  0.49867116  0.16357744  0.33833517  1
  Sb  Sb78  1  0.83274685  0.33699868  0.83134702  1
  Sb  Sb79  1  0.16522186  0.66179035  0.83056142  1
  Sb  Sb80  1  0.33257663  0.00233278  0.00322322  1
  Sb  Sb81  1  0.50296170  0.83310861  0.00347150  1
  Sb  Sb82  1  0.65993635  0.33213911  0.33444997  1
  Sb  Sb83  1  0.33222823  0.82946828  0.17327567  1
  Sb  Sb84  1  0.00312436  0.33602997  -0.00451813  1
  Sb  Sb85  1  0.83095743  0.16158376  0.33182996  1
  Sb  Sb86  1  0.83574613  0.50210827  0.00322360  1
  Sb  Sb87  1  0.83073846  0.32902944  0.50078996  1
  Sb  Sb88  1  0.16897668  0.16064682  0.33634674  1
  Sb  Sb89  1  0.83361267  0.67415298  0.16668177  1
  Sb  Sb90  1  0.83794319  0.50451683  0.66243843  1
  Sb  Sb91  1  0.49929054  0.50468038  0.33409936  1
  Sb  Sb92  1  -0.00159426  0.82898639  0.82924096  1
  Sb  Sb93  1  0.66710099  0.83349239  0.83164271  1
  Sb  Sb94  1  0.17256597  0.33231013  0.50635924  1
  Sb  Sb95  1  0.83016688  -0.00455897  0.82932973  1
  Sb  Sb96  1  0.49932785  0.16935138  -0.00194106  1
  Sb  Sb97  1  0.16796923  0.50675879  0.34097977  1
  Sb  Sb98  1  0.49421650  0.49508570  0.66457266  1
  Sb  Sb99  1  0.00627932  0.33595153  0.34090786  1
  Sb  Sb100  1  0.33630602  -0.00521255  0.33592287  1
  Sb  Sb101  1  0.49656881  0.49787412  0.00082208  1
  Sb  Sb102  1  0.83198908  0.16132518  0.66737122  1
  Sb  Sb103  1  0.66226114  0.50026237  0.16879055  1
  Sb  Sb104  1  0.00077744  0.17165251  0.82671920  1
  Sb  Sb105  1  0.00024478  0.16042737  0.17032338  1
  Sb  Sb106  1  -0.00090926  -0.00350602  -0.00308442  1
  Sb  Sb107  1  0.17070759  0.00437819  0.82726420  1
  Te  Te108  1  0.16732682  0.16250814  0.16697304  1
  Te  Te109  1  0.16388835  0.16250594  0.50353201  1
  Te  Te110  1  0.16703263  0.17203346  0.83060058  1
  Te  Te111  1  0.17204672  0.50553378  0.16824462  1
  Te  Te112  1  0.16779941  0.49797486  0.50460487  1
  Te  Te113  1  0.16733063  0.49604619  0.82894670  1
  Te  Te114  1  0.16524377  0.83383159  0.16535748  1
  Te  Te115  1  0.16613704  0.83452219  0.50165187  1
  Te  Te116  1  0.16721780  0.83424183  0.82728539  1
  Te  Te117  1  0.50064308  0.16781017  0.16704963  1
  Te  Te118  1  0.50088001  0.16483390  0.50349436  1
  Te  Te119  1  0.49943419  0.16834942  0.82705280  1
  Te  Te120  1  0.49446413  0.50005787  0.16754384  1
  Te  Te121  1  0.49415123  0.49259070  0.49900776  1
  Te  Te122  1  0.49371663  0.49449573  0.83269082  1
  Te  Te123  1  0.50323247  0.83142380  0.17109266  1
  Te  Te124  1  0.49921813  0.83651091  0.49901035  1
  Te  Te125  1  0.49955581  0.83417140  0.82950016  1
  Te  Te126  1  0.83122430  0.16021743  0.16347134  1
  Te  Te127  1  0.83253703  0.16006929  0.49980833  1
  Te  Te128  1  0.83330186  0.16635803  0.84378254  1
  Te  Te129  1  0.83566962  0.50000065  0.17268165  1
  Te  Te130  1  0.83486558  0.50059141  0.49506959  1
  Te  Te131  1  0.83758588  0.50515161  0.83363214  1
  Te  Te132  1  0.83415976  0.83491927  0.16910598  1
  Te  Te133  1  0.83811903  0.83753149  0.49884115  1
  Te  Te134  1  0.83334013  0.82836799  0.83436684  1
  Te  Te135  1  0.16615322  0.00633178  -0.00084933  1
  Te  Te136  1  0.16766109  -0.00621745  0.33392302  1
  Te  Te137  1  0.16730100  0.00169632  0.66393550  1
  Te  Te138  1  0.17013041  0.32807474  -0.00529541  1
  Te  Te139  1  0.17486173  0.33404392  0.33239299  1
  Te  Te140  1  0.16777172  0.33192807  0.66719133  1
  Te  Te141  1  0.16767389  0.66679337  0.00055002  1
  Te  Te142  1  0.16850529  0.67119192  0.33426103  1
  Te  Te143  1  0.16727441  0.66965337  0.66288088  1
  Te  Te144  1  0.50031638  0.00049586  -0.00788146  1
  Te  Te145  1  0.50430438  -0.00546361  0.33880201  1
  Te  Te146  1  0.49952346  0.00110109  0.66351213  1
  Te  Te147  1  0.49845180  0.33215975  0.00255143  1
  Te  Te148  1  0.49526085  0.33342513  0.32961523  1
  Te  Te149  1  0.49810718  0.33278261  0.66642891  1
  Te  Te150  1  0.49631436  0.66721169  0.00520223  1
  Te  Te151  1  0.50014291  0.67038295  0.33151048  1
  Te  Te152  1  0.50638567  0.67042078  0.66684606  1
  Te  Te153  1  0.83359114  -0.00221293  0.00027301  1
  Te  Te154  1  0.82899525  -0.00433038  0.33350671  1
  Te  Te155  1  0.83241251  -0.00430119  0.66443572  1
  Te  Te156  1  0.83221413  0.32964594  -0.00053419  1
  Te  Te157  1  0.83300673  0.33585818  0.33351364  1
  Te  Te158  1  0.82973943  0.33348339  0.66700177  1
  Te  Te159  1  0.83472241  0.67008661  -0.00248881  1
  Te  Te160  1  0.82978862  0.67121993  0.33364713  1
  Te  Te161  1  0.82803485  0.67198312  0.66853057  1
  Te  Te162  1  0.00159197  0.16662026  0.00041284  1
  Te  Te163  1  -0.00005065  0.16836945  0.34376616  1
  Te  Te164  1  -0.00043863  0.16825795  0.66276041  1
  Te  Te165  1  0.00151627  0.50535857  -0.00201453  1
  Te  Te166  1  -0.00436711  0.50145601  0.33895296  1
  Te  Te167  1  0.00332095  0.50088398  0.66533578  1
  Te  Te168  1  -0.00411097  0.82954164  -0.00024465  1
  Te  Te169  1  0.00270572  0.83418324  0.33353930  1
  Te  Te170  1  -0.00090496  0.83493498  0.66375797  1
  Te  Te171  1  0.32960234  0.16973309  0.00539181  1
  Te  Te172  1  0.33321262  0.17360709  0.32699566  1
  Te  Te173  1  0.33303523  0.17313752  0.66648538  1
  Te  Te174  1  0.33217640  0.49984358  0.00456672  1
  Te  Te175  1  0.33327906  0.50235039  0.33448927  1
  Te  Te176  1  0.32866375  0.49675765  0.66425650  1
  Te  Te177  1  0.33308838  0.82825928  -0.00207732  1
  Te  Te178  1  0.33100003  0.82857549  0.33761161  1
  Te  Te179  1  0.33298768  0.83129746  0.66075435  1
  Te  Te180  1  0.66843133  0.17026892  0.00358569  1
  Te  Te181  1  0.66560865  0.16332793  0.33360653  1
  Te  Te182  1  0.66553872  0.16606449  0.66411126  1
  Te  Te183  1  0.66847926  0.49101592  -0.00009515  1
  Te  Te184  1  0.67247086  0.50340814  0.33341178  1
  Te  Te185  1  0.66809294  0.49541179  0.66638658  1
  Te  Te186  1  0.67188834  0.83318128  0.00633987  1
  Te  Te187  1  0.66719926  0.83421309  0.33226011  1
  Te  Te188  1  0.66650758  0.83545612  0.66666596  1
  Te  Te189  1  0.00050345  -0.00483276  0.16503175  1
  Te  Te190  1  0.00089006  -0.00284874  0.50301628  1
  Te  Te191  1  -0.00005431  0.00085719  0.82277094  1
  Te  Te192  1  -0.00054423  0.33307712  0.16781483  1
  Te  Te193  1  -0.00098980  0.33894241  0.50540842  1
  Te  Te194  1  0.00044556  0.33967651  0.82750429  1
  Te  Te195  1  0.00509164  0.67154790  0.16264287  1
  Te  Te196  1  0.00539997  0.66599440  0.49943868  1
  Te  Te197  1  -0.00213011  0.66182124  0.83714532  1
  Te  Te198  1  0.33028668  0.00475276  0.16774388  1
  Te  Te199  1  0.32899221  -0.00360919  0.49921038  1
  Te  Te200  1  0.33983122  -0.00173327  0.83462710  1
  Te  Te201  1  0.33514419  0.33536640  0.16296102  1
  Te  Te202  1  0.33763134  0.33338641  0.50064694  1
  Te  Te203  1  0.33428829  0.33626464  0.83315518  1
  Te  Te204  1  0.33305108  0.66774730  0.16899592  1
  Te  Te205  1  0.33056630  0.66484505  0.49681840  1
  Te  Te206  1  0.33380873  0.65784198  0.83779711  1
  Te  Te207  1  0.66716942  0.00056457  0.16789598  1
  Te  Te208  1  0.66735644  0.00220787  0.49990419  1
  Te  Te209  1  0.66156380  0.00012510  0.82642375  1
  Te  Te210  1  0.66034169  0.33052793  0.16500180  1
  Te  Te211  1  0.66182361  0.32724796  0.50356391  1
  Te  Te212  1  0.66218389  0.33344405  0.83219530  1
  Te  Te213  1  0.66196801  0.66821416  0.17024232  1
  Te  Te214  1  0.66603404  0.66352344  0.49884352  1
  Te  Te215  1  0.67072453  0.66506232  0.83288950  1
