# generated using pymatgen
data_AgSbTe2
_symmetry_space_group_name_H-M   'P 1'
_cell_length_a   18.32523883
_cell_length_b   18.32214073
_cell_length_c   18.32080292
_cell_angle_alpha   90.00038915
_cell_angle_beta   89.99601223
_cell_angle_gamma   90.00077745
_symmetry_Int_Tables_number   1
_chemical_formula_structural   AgSbTe2
_chemical_formula_sum   'Ag54 Sb54 Te108'
_cell_volume   6151.34889118
_cell_formula_units_Z   54
loop_
 _symmetry_equiv_pos_site_id
 _symmetry_equiv_pos_as_xyz
  1  'x, y, z'
loop_
 _atom_site_type_symbol
 _atom_site_label
 _atom_site_symmetry_multiplicity
 _atom_site_fract_x
 _atom_site_fract_y
 _atom_site_fract_z
 _atom_site_occupancy
  Ag  Ag0  1  0.66761746  -0.01378802  -0.00792921  1
  Ag  Ag1  1  0.32523062  0.83023420  0.16193492  1
  Ag  Ag2  1  0.00117071  0.16748979  0.49655277  1
  Ag  Ag3  1  0.32667125  0.33797063  0.66198730  1
  Ag  Ag4  1  0.83777408  0.16986073  0.33318932  1
  Ag  Ag5  1  0.16268009  -0.01082330  0.82475273  1
  Ag  Ag6  1  0.49574291  0.49878068  0.33239093  1
  Ag  Ag7  1  0.32603515  0.82741400  0.50503147  1
  Ag  Ag8  1  0.33237624  0.33821559  0.01199166  1
  Ag  Ag9  1  0.83540826  -0.00977267  0.82886917  1
  Ag  Ag10  1  0.00114510  0.00586718  0.34185309  1
  Ag  Ag11  1  0.00419073  0.33632946  0.65652189  1
  Ag  Ag12  1  0.50569755  0.17923506  0.33250123  1
  Ag  Ag13  1  -0.00136021  0.16879892  0.17761503  1
  Ag  Ag14  1  0.66283043  0.66288561  0.33134989  1
  Ag  Ag15  1  0.00411194  0.66891550  0.66155850  1
  Ag  Ag16  1  0.00360130  0.82598893  0.17138698  1
  Ag  Ag17  1  0.00378373  0.83332804  0.49965413  1
  Ag  Ag18  1  0.66196182  0.33786381  0.33269690  1
  Ag  Ag19  1  0.16894848  0.34252231  0.16994910  1
  Ag  Ag20  1  0.16995408  0.50968619  0.00742829  1
  Ag  Ag21  1  0.67182305  0.16779830  0.17118340  1
  Ag  Ag22  1  0.83502105  0.50946137  0.66666043  1
  Ag  Ag23  1  0.67052498  0.83150710  0.50771617  1
  Ag  Ag24  1  0.32316086  -0.01293822  0.66624563  1
  Ag  Ag25  1  0.67451775  -0.00514023  0.67039785  1
  Ag  Ag26  1  -0.00021471  0.33177047  0.33769648  1
  Ag  Ag27  1  0.16844894  0.67099427  0.50322358  1
  Ag  Ag28  1  0.48945079  0.33625138  0.17216409  1
  Ag  Ag29  1  0.83399132  0.67210742  0.83218533  1
  Ag  Ag30  1  0.00595361  -0.00439281  0.66053224  1
  Ag  Ag31  1  0.49117872  0.66664044  0.49867040  1
  Ag  Ag32  1  0.16286816  0.66237037  0.16699822  1
  Ag  Ag33  1  0.49718821  0.50498835  0.00360647  1
  Ag  Ag34  1  0.82857211  0.83005878  -0.00966439  1
  Ag  Ag35  1  0.16386320  0.16076374  0.66446774  1
  Ag  Ag36  1  0.00451824  0.50260002  0.17508786  1
  Ag  Ag37  1  0.32845568  0.83137075  0.82976712  1
  Ag  Ag38  1  0.83976309  0.66780215  0.16493648  1
  Ag  Ag39  1  0.66629865  0.51149499  0.83230454  1
  Ag  Ag40  1  0.32614077  0.67159385  0.65979071  1
  Ag  Ag41  1  0.33248470  0.34116101  0.33263557  1
  Ag  Ag42  1  0.66744191  0.66992890  0.00091123  1
  Ag  Ag43  1  0.16151214  -0.00899490  0.50635866  1
  Ag  Ag44  1  0.16720374  0.82784488  -0.00091508  1
  Ag  Ag45  1  0.16427439  0.67048946  0.83033618  1
  Ag  Ag46  1  0.33304290  0.66256019  0.33913768  1
  Ag  Ag47  1  0.67554110  0.82979231  0.83404151  1
  Ag  Ag48  1  0.00038421  0.49775860  0.49787998  1
  Ag  Ag49  1  0.50119339  0.50254323  0.66150728  1
  Ag  Ag50  1  0.16729627  0.50020021  0.32815547  1
  Ag  Ag51  1  0.83432340  0.82967161  0.67072378  1
  Ag  Ag52  1  0.84154197  0.33464648  0.49737588  1
  Ag  Ag53  1  0.50482260  0.82488079  0.00019032  1
  Sb  Sb54  1  0.16445893  0.50190735  0.66498345  1
  Sb  Sb55  1  0.49521622  0.17172063  0.65860107  1
  Sb  Sb56  1  0.67021913  0.50501110  0.50220620  1
  Sb  Sb57  1  0.50076626  0.16868473  0.00699814  1
  Sb  Sb58  1  0.16159382  0.17328692  0.33733561  1
  Sb  Sb59  1  -0.00167959  0.50325595  0.82984604  1
  Sb  Sb60  1  0.49781490  0.33734587  0.83650064  1
  Sb  Sb61  1  -0.00226772  -0.00499807  -0.00224919  1
  Sb  Sb62  1  0.50078636  0.66724129  0.83030553  1
  Sb  Sb63  1  0.32999548  0.16775895  0.16979347  1
  Sb  Sb64  1  0.49629266  -0.00691013  0.50053200  1
  Sb  Sb65  1  0.50124718  -0.00564068  0.83154428  1
  Sb  Sb66  1  0.00265995  0.66353620  0.33619707  1
  Sb  Sb67  1  -0.00016687  0.66893361  0.00076296  1
  Sb  Sb68  1  0.00109428  0.16452146  0.82873729  1
  Sb  Sb69  1  0.32665902  0.16376380  0.49931362  1
  Sb  Sb70  1  0.83522165  -0.00627929  0.16394195  1
  Sb  Sb71  1  0.67109764  -0.00094028  0.33500838  1
  Sb  Sb72  1  0.33581481  -0.00373392  -0.00497934  1
  Sb  Sb73  1  0.16157719  0.83520291  0.66834128  1
  Sb  Sb74  1  0.83536842  0.49803231  0.33740170  1
  Sb  Sb75  1  0.49715985  0.66221824  0.17003593  1
  Sb  Sb76  1  0.83734769  0.33747902  0.17271615  1
  Sb  Sb77  1  0.66947691  0.49912412  0.16611432  1
  Sb  Sb78  1  0.33567115  0.50613613  0.83186136  1
  Sb  Sb79  1  0.49908349  0.82855422  0.33028222  1
  Sb  Sb80  1  0.66794778  0.33289284  0.66089653  1
  Sb  Sb81  1  0.84015007  0.16344436  0.66130131  1
  Sb  Sb82  1  0.33176353  0.16110826  0.83088798  1
  Sb  Sb83  1  0.50051575  0.82779571  0.66862466  1
  Sb  Sb84  1  0.00494636  0.33642761  0.00647967  1
  Sb  Sb85  1  0.83540643  0.83399441  0.33543128  1
  Sb  Sb86  1  0.84215119  0.00008251  0.50466412  1
  Sb  Sb87  1  0.66849696  0.67070968  0.66705024  1
  Sb  Sb88  1  0.16168125  0.33757456  0.49593219  1
  Sb  Sb89  1  0.32691190  0.50642049  0.49887853  1
  Sb  Sb90  1  0.33324106  0.66606939  0.00037289  1
  Sb  Sb91  1  0.83354475  0.33724172  0.82545767  1
  Sb  Sb92  1  0.66254116  0.33839475  0.00652072  1
  Sb  Sb93  1  0.16639564  0.82512185  0.33239760  1
  Sb  Sb94  1  -0.00099729  0.83160108  0.82903615  1
  Sb  Sb95  1  0.83331968  0.50710781  -0.00374869  1
  Sb  Sb96  1  0.66864698  0.83301445  0.16275316  1
  Sb  Sb97  1  0.67231411  0.16206677  0.49510894  1
  Sb  Sb98  1  0.32664665  -0.00227460  0.33808358  1
  Sb  Sb99  1  0.50079232  0.00147382  0.16690752  1
  Sb  Sb100  1  0.66875557  0.16072819  0.83717411  1
  Sb  Sb101  1  0.16780468  0.33812537  0.83518246  1
  Sb  Sb102  1  0.32658203  0.50463644  0.16873390  1
  Sb  Sb103  1  0.16333649  -0.00378525  0.16839338  1
  Sb  Sb104  1  0.83705336  0.66530879  0.50146851  1
  Sb  Sb105  1  0.83327580  0.16045348  0.00657538  1
  Sb  Sb106  1  0.50006308  0.34163982  0.49257527  1
  Sb  Sb107  1  0.16592293  0.16472102  -0.00182316  1
  Te  Te108  1  0.16091566  0.16802765  0.16586339  1
  Te  Te109  1  0.16087613  0.16248377  0.50438692  1
  Te  Te110  1  0.16620313  0.16300561  0.82762805  1
  Te  Te111  1  0.16531620  0.50116205  0.16611329  1
  Te  Te112  1  0.16029068  0.50697143  0.49647083  1
  Te  Te113  1  0.16680108  0.50672661  0.84108556  1
  Te  Te114  1  0.16546010  0.83161646  0.16509017  1
  Te  Te115  1  0.16575135  0.83149064  0.49836955  1
  Te  Te116  1  0.16513230  0.83013695  0.83628859  1
  Te  Te117  1  0.50035720  0.17185235  0.17269281  1
  Te  Te118  1  0.50036713  0.16700494  0.49242695  1
  Te  Te119  1  0.50079049  0.16748391  0.83242005  1
  Te  Te120  1  0.50200136  0.49542113  0.16698859  1
  Te  Te121  1  0.50205657  0.50686226  0.49870574  1
  Te  Te122  1  0.50537225  0.50084995  0.83667100  1
  Te  Te123  1  0.49606452  0.83309289  0.16083160  1
  Te  Te124  1  0.50025477  0.82658045  0.49946445  1
  Te  Te125  1  0.49890516  0.83216905  0.84016017  1
  Te  Te126  1  0.83562139  0.16727229  0.17218587  1
  Te  Te127  1  0.83942000  0.17109096  0.49504293  1
  Te  Te128  1  0.83348046  0.16146141  0.83512019  1
  Te  Te129  1  0.84013954  0.50650383  0.16525432  1
  Te  Te130  1  0.83795290  0.49663011  0.50607184  1
  Te  Te131  1  0.82828429  0.50500279  0.82829175  1
  Te  Te132  1  0.83741165  0.82745709  0.16546295  1
  Te  Te133  1  0.83341541  0.83332504  0.50493956  1
  Te  Te134  1  0.83453228  0.83141821  0.83212573  1
  Te  Te135  1  0.16748568  -0.00488921  -0.00577777  1
  Te  Te136  1  0.16122245  0.00212025  0.33715531  1
  Te  Te137  1  0.16578997  -0.00207929  0.66674462  1
  Te  Te138  1  0.17240039  0.33358577  0.00380143  1
  Te  Te139  1  0.16777205  0.33849707  0.33084488  1
  Te  Te140  1  0.16578341  0.33422840  0.66716340  1
  Te  Te141  1  0.16703629  0.66770190  0.00176425  1
  Te  Te142  1  0.16845662  0.66021397  0.33100864  1
  Te  Te143  1  0.16601911  0.66558164  0.66674713  1
  Te  Te144  1  0.50618736  -0.00278058  -0.00026278  1
  Te  Te145  1  0.49946487  0.00463421  0.33371506  1
  Te  Te146  1  0.49616520  0.00335136  0.66561003  1
  Te  Te147  1  0.49488942  0.33724608  0.00667130  1
  Te  Te148  1  0.49993561  0.33792399  0.33209889  1
  Te  Te149  1  0.49782990  0.34016398  0.66520645  1
  Te  Te150  1  0.50194405  0.66502675  0.00072995  1
  Te  Te151  1  0.49955157  0.66292244  0.33572235  1
  Te  Te152  1  0.49739549  0.66131538  0.66254477  1
  Te  Te153  1  0.82921331  -0.00651654  -0.00560173  1
  Te  Te154  1  0.83905869  0.00543911  0.33292927  1
  Te  Te155  1  0.83300606  -0.00179642  0.66943641  1
  Te  Te156  1  0.83350782  0.33260434  -0.00334357  1
  Te  Te157  1  0.83619673  0.33130926  0.33596792  1
  Te  Te158  1  0.83673303  0.33391615  0.66027461  1
  Te  Te159  1  0.83230013  0.67062896  -0.00211823  1
  Te  Te160  1  0.82790948  0.66612898  0.32903356  1
  Te  Te161  1  0.83476908  0.66846280  0.66820213  1
  Te  Te162  1  -0.00020198  0.16655246  0.00771475  1
  Te  Te163  1  0.00089874  0.16966154  0.33561595  1
  Te  Te164  1  0.00325604  0.16669770  0.66252651  1
  Te  Te165  1  0.00508757  0.50046197  0.00434518  1
  Te  Te166  1  0.00076806  0.49725132  0.33498480  1
  Te  Te167  1  -0.00224435  0.50103257  0.66380669  1
  Te  Te168  1  0.00258307  0.83406068  0.00899691  1
  Te  Te169  1  -0.00028788  0.83624673  0.33461760  1
  Te  Te170  1  -0.00406089  0.83296993  0.66309797  1
  Te  Te171  1  0.33381894  0.17431967  -0.00011832  1
  Te  Te172  1  0.33757678  0.16963281  0.33335427  1
  Te  Te173  1  0.32820581  0.17099060  0.66565846  1
  Te  Te174  1  0.33512213  0.49743650  -0.00090442  1
  Te  Te175  1  0.33430009  0.50114398  0.33375877  1
  Te  Te176  1  0.33618652  0.50008940  0.66577459  1
  Te  Te177  1  0.33060477  0.83321071  -0.00162510  1
  Te  Te178  1  0.33390391  0.82972279  0.33787105  1
  Te  Te179  1  0.33669417  0.83023221  0.66666854  1
  Te  Te180  1  0.66624118  0.16597672  0.00757071  1
  Te  Te181  1  0.66831617  0.16624646  0.33115324  1
  Te  Te182  1  0.66533379  0.16027855  0.66665670  1
  Te  Te183  1  0.66468516  0.50519653  -0.00403492  1
  Te  Te184  1  0.66487704  0.50108823  0.33374048  1
  Te  Te185  1  0.66720121  0.49881311  0.67040661  1
  Te  Te186  1  0.66789672  0.83031120  0.00042175  1
  Te  Te187  1  0.66682708  0.82953807  0.33560114  1
  Te  Te188  1  0.66692720  0.83555533  0.66908064  1
  Te  Te189  1  -0.00064641  0.00240808  0.16952668  1
  Te  Te190  1  0.00138034  -0.00332333  0.50096622  1
  Te  Te191  1  0.00037039  0.00066137  0.82810594  1
  Te  Te192  1  0.00393486  0.33535693  0.17060631  1
  Te  Te193  1  0.00209974  0.33505853  0.49918347  1
  Te  Te194  1  0.00035673  0.33335160  0.82545426  1
  Te  Te195  1  0.00167294  0.66629616  0.16854931  1
  Te  Te196  1  0.00263354  0.66994204  0.50132305  1
  Te  Te197  1  0.00026527  0.66563683  0.82642964  1
  Te  Te198  1  0.33230915  -0.00782251  0.16688955  1
  Te  Te199  1  0.32790247  -0.00604589  0.50519985  1
  Te  Te200  1  0.32912213  -0.00606287  0.82751508  1
  Te  Te201  1  0.33026823  0.33247903  0.17075024  1
  Te  Te202  1  0.33166410  0.33245562  0.50005263  1
  Te  Te203  1  0.33232176  0.33264098  0.82471195  1
  Te  Te204  1  0.32917099  0.67148492  0.17013019  1
  Te  Te205  1  0.33098459  0.66781755  0.49951237  1
  Te  Te206  1  0.32996665  0.67220996  0.82990507  1
  Te  Te207  1  0.66759636  0.00586320  0.16522671  1
  Te  Te208  1  0.66552982  -0.00675943  0.50422746  1
  Te  Te209  1  0.66954447  -0.00444134  0.83288470  1
  Te  Te210  1  0.66889187  0.33005265  0.17252169  1
  Te  Te211  1  0.67147075  0.33153602  0.49246840  1
  Te  Te212  1  0.66660413  0.33469503  0.83361000  1
  Te  Te213  1  0.66791010  0.66667581  0.16691698  1
  Te  Te214  1  0.66768048  0.67160465  0.49731806  1
  Te  Te215  1  0.66740179  0.66957436  0.83380958  1
