# generated using pymatgen
data_AgSbTe2
_symmetry_space_group_name_H-M   'P 1'
_cell_length_a   18.35136779
_cell_length_b   18.36174490
_cell_length_c   18.35208627
_cell_angle_alpha   89.99869154
_cell_angle_beta   89.99956855
_cell_angle_gamma   90.00411134
_symmetry_Int_Tables_number   1
_chemical_formula_structural   AgSbTe2
_chemical_formula_sum   'Ag54 Sb54 Te108'
_cell_volume   6183.97648699
_cell_formula_units_Z   54
loop_
 _symmetry_equiv_pos_site_id
 _symmetry_equiv_pos_as_xyz
  1  'x, y, z'
loop_
 _atom_site_type_symbol
 _atom_site_label
 _atom_site_symmetry_multiplicity
 _atom_site_fract_x
 _atom_site_fract_y
 _atom_site_fract_z
 _atom_site_occupancy
  Ag  Ag0  1  0.84107441  0.66555030  0.49438208  1
  Ag  Ag1  1  0.83593159  0.33896529  0.83137389  1
  Ag  Ag2  1  0.66272095  -0.01395576  0.33199747  1
  Ag  Ag3  1  0.82789122  0.66681858  0.17389898  1
  Ag  Ag4  1  0.83862017  0.34912073  0.50097617  1
  Ag  Ag5  1  0.16109284  0.16226608  0.34007969  1
  Ag  Ag6  1  0.66889654  0.66922209  0.33555925  1
  Ag  Ag7  1  0.00176803  0.51165282  0.50392514  1
  Ag  Ag8  1  0.15535898  0.66596304  0.50182858  1
  Ag  Ag9  1  0.50453056  0.66891590  0.49362115  1
  Ag  Ag10  1  0.50961005  0.66694769  0.17704847  1
  Ag  Ag11  1  -0.00890695  0.66888936  0.34737300  1
  Ag  Ag12  1  0.32427157  0.49919626  0.83048225  1
  Ag  Ag13  1  0.16988574  0.51348285  0.34400854  1
  Ag  Ag14  1  0.66392636  0.34708802  -0.00264401  1
  Ag  Ag15  1  0.66513952  0.50743782  0.16989901  1
  Ag  Ag16  1  0.84286319  0.50171507  0.66490641  1
  Ag  Ag17  1  0.31663932  0.50235233  0.50350853  1
  Ag  Ag18  1  0.82744074  0.82115093  0.00697876  1
  Ag  Ag19  1  0.50761854  0.83065010  0.33622375  1
  Ag  Ag20  1  0.16321542  0.34668687  0.82803355  1
  Ag  Ag21  1  0.16489239  0.82493851  0.65943189  1
  Ag  Ag22  1  0.67141365  0.82618593  0.49482900  1
  Ag  Ag23  1  0.50498876  0.16232959  -0.00169145  1
  Ag  Ag24  1  0.50233590  0.51289624  0.33757795  1
  Ag  Ag25  1  0.33174877  -0.00008134  0.66565121  1
  Ag  Ag26  1  0.50718334  0.82779382  0.00770404  1
  Ag  Ag27  1  0.00465304  0.82322770  0.49981065  1
  Ag  Ag28  1  0.66261917  -0.00802947  0.00542446  1
  Ag  Ag29  1  0.00303077  0.82069201  0.82979470  1
  Ag  Ag30  1  0.16016408  0.35130636  0.50220169  1
  Ag  Ag31  1  0.50747260  0.50679484  0.00271338  1
  Ag  Ag32  1  0.17033761  -0.00378888  0.82776762  1
  Ag  Ag33  1  0.66279338  0.16594026  0.83800230  1
  Ag  Ag34  1  0.16829782  -0.00352737  0.18251042  1
  Ag  Ag35  1  0.82759029  0.50503733  -0.00479522  1
  Ag  Ag36  1  0.49725474  -0.00590674  0.49682507  1
  Ag  Ag37  1  0.00614712  0.50517184  0.82400970  1
  Ag  Ag38  1  0.16476392  0.83068065  0.34216536  1
  Ag  Ag39  1  0.50420336  0.16009396  0.33553129  1
  Ag  Ag40  1  0.16974602  -0.00665971  0.50061831  1
  Ag  Ag41  1  0.16255282  0.50657690  0.65727102  1
  Ag  Ag42  1  0.50064513  0.16178572  0.66319512  1
  Ag  Ag43  1  0.67080316  0.50926196  0.49455591  1
  Ag  Ag44  1  0.83086008  0.16158058  0.33720637  1
  Ag  Ag45  1  0.82602115  0.82795612  0.33542765  1
  Ag  Ag46  1  0.49794966  0.00161467  0.83116037  1
  Ag  Ag47  1  0.15848761  0.66282438  0.82254515  1
  Ag  Ag48  1  0.33498512  0.83257147  0.16764513  1
  Ag  Ag49  1  0.34365824  0.33681023  -0.00392154  1
  Ag  Ag50  1  0.00249805  0.66366438  0.66104515  1
  Ag  Ag51  1  0.67213342  0.66482734  0.00738579  1
  Ag  Ag52  1  0.00308095  0.16648112  0.49865173  1
  Ag  Ag53  1  -0.00837211  0.66694172  -0.00433846  1
  Sb  Sb54  1  -0.00402852  0.34137329  -0.00408362  1
  Sb  Sb55  1  0.16548362  0.83214224  -0.00007279  1
  Sb  Sb56  1  0.83950538  0.66112554  0.83550732  1
  Sb  Sb57  1  0.82989556  0.17322098  0.66102878  1
  Sb  Sb58  1  0.16628991  0.50136070  -0.00202965  1
  Sb  Sb59  1  0.00085910  -0.00755763  0.33709718  1
  Sb  Sb60  1  -0.00061174  0.34119608  0.33814407  1
  Sb  Sb61  1  0.66715699  0.33448653  0.67006961  1
  Sb  Sb62  1  0.83405366  -0.00768983  0.16921809  1
  Sb  Sb63  1  -0.00402241  0.50564212  0.16981408  1
  Sb  Sb64  1  0.83229248  -0.00581284  0.49846159  1
  Sb  Sb65  1  0.00761889  -0.00843319  0.66427818  1
  Sb  Sb66  1  0.00084781  0.34207767  0.66332821  1
  Sb  Sb67  1  0.33160619  0.33561629  0.33216702  1
  Sb  Sb68  1  0.49954722  0.33540416  0.49798332  1
  Sb  Sb69  1  0.17015967  0.16636002  0.00118155  1
  Sb  Sb70  1  0.16863176  0.33170695  0.17026546  1
  Sb  Sb71  1  0.49847079  -0.00743727  0.16823872  1
  Sb  Sb72  1  0.00242404  0.82984852  0.17137632  1
  Sb  Sb73  1  0.66779170  0.33790453  0.33233774  1
  Sb  Sb74  1  0.49391010  0.83630339  0.66251649  1
  Sb  Sb75  1  0.66758078  0.16652477  0.49915453  1
  Sb  Sb76  1  0.16580280  0.66924874  0.17269713  1
  Sb  Sb77  1  0.66142458  -0.00089004  0.66322516  1
  Sb  Sb78  1  0.33963526  0.00119392  -0.00349080  1
  Sb  Sb79  1  0.83009809  0.34115517  0.16960157  1
  Sb  Sb80  1  0.49684622  0.66930724  0.83218625  1
  Sb  Sb81  1  0.33549639  0.16164753  0.16737852  1
  Sb  Sb82  1  0.49799678  0.49835980  0.66380197  1
  Sb  Sb83  1  0.33786596  0.50571798  0.16759473  1
  Sb  Sb84  1  0.33567780  0.66414458  -0.00059020  1
  Sb  Sb85  1  0.33687062  0.16981916  0.83271287  1
  Sb  Sb86  1  0.83986752  0.82546209  0.66368018  1
  Sb  Sb87  1  0.67096369  0.83562184  0.83413891  1
  Sb  Sb88  1  0.66316189  0.82590696  0.17218741  1
  Sb  Sb89  1  0.83045125  0.00296109  0.83529485  1
  Sb  Sb90  1  0.50069401  0.33065475  0.83655371  1
  Sb  Sb91  1  0.82709876  0.16960260  0.00319170  1
  Sb  Sb92  1  0.33705376  0.66790483  0.33590759  1
  Sb  Sb93  1  0.66883829  0.49914183  0.83516223  1
  Sb  Sb94  1  0.66495027  0.17031316  0.16464479  1
  Sb  Sb95  1  -0.00130756  0.16927270  0.82805582  1
  Sb  Sb96  1  0.32614863  0.66903619  0.66457467  1
  Sb  Sb97  1  0.50055210  0.33991499  0.16488501  1
  Sb  Sb98  1  0.33043515  0.16978755  0.49963954  1
  Sb  Sb99  1  0.67272346  0.66575721  0.66104292  1
  Sb  Sb100  1  0.33078863  0.33266875  0.66903637  1
  Sb  Sb101  1  0.32811973  0.83069532  0.83574166  1
  Sb  Sb102  1  0.32953893  0.82803684  0.49617956  1
  Sb  Sb103  1  -0.00059409  0.16436049  0.17513069  1
  Sb  Sb104  1  0.83135272  0.50705959  0.33794683  1
  Sb  Sb105  1  0.16819695  0.16673890  0.66200697  1
  Sb  Sb106  1  0.33513440  -0.00206036  0.33840288  1
  Sb  Sb107  1  -0.00337642  -0.00771379  -0.00293431  1
  Te  Te108  1  0.16732014  0.16088209  0.17372116  1
  Te  Te109  1  0.16607687  0.15515452  0.49806326  1
  Te  Te110  1  0.16610808  0.16340260  0.83149748  1
  Te  Te111  1  0.16799595  0.49927451  0.17661922  1
  Te  Te112  1  0.16160359  0.50539683  0.49941178  1
  Te  Te113  1  0.16477154  0.50241089  0.83690444  1
  Te  Te114  1  0.17015837  0.83677910  0.16703615  1
  Te  Te115  1  0.16853995  0.83196490  0.49985557  1
  Te  Te116  1  0.16319805  0.83254345  0.83450287  1
  Te  Te117  1  0.49989071  0.16612207  0.16860299  1
  Te  Te118  1  0.50014148  0.16698554  0.49848243  1
  Te  Te119  1  0.50192118  0.16381321  0.83902958  1
  Te  Te120  1  0.50277263  0.50553312  0.16725207  1
  Te  Te121  1  0.51117066  0.49904792  0.49823651  1
  Te  Te122  1  0.49671152  0.49999344  0.83322564  1
  Te  Te123  1  0.49785598  0.82802132  0.16682566  1
  Te  Te124  1  0.49600484  0.83467957  0.49785752  1
  Te  Te125  1  0.49994801  0.83850712  0.83300117  1
  Te  Te126  1  0.83335445  0.16627088  0.17534241  1
  Te  Te127  1  0.83593484  0.16187992  0.49664927  1
  Te  Te128  1  0.82972230  0.17425011  0.83309596  1
  Te  Te129  1  0.82902027  0.50557667  0.16237155  1
  Te  Te130  1  0.83357360  0.50439189  0.49744518  1
  Te  Te131  1  0.83430119  0.49691424  0.83181301  1
  Te  Te132  1  0.83569931  0.82757700  0.16730354  1
  Te  Te133  1  0.83559435  0.83004550  0.49779413  1
  Te  Te134  1  0.83980241  0.83608343  0.83215971  1
  Te  Te135  1  0.16714369  0.00080195  -0.01093944  1
  Te  Te136  1  0.16720404  -0.00200438  0.33916458  1
  Te  Te137  1  0.17055872  0.00004337  0.66652062  1
  Te  Te138  1  0.16586210  0.33232192  -0.00352563  1
  Te  Te139  1  0.16615203  0.32460241  0.33895821  1
  Te  Te140  1  0.16724393  0.33551004  0.66576133  1
  Te  Te141  1  0.16413333  0.66670355  0.00368809  1
  Te  Te142  1  0.16730672  0.67028897  0.33523438  1
  Te  Te143  1  0.16451607  0.66570597  0.66456397  1
  Te  Te144  1  0.50326475  -0.00017523  0.00178433  1
  Te  Te145  1  0.50156524  -0.00330077  0.33460381  1
  Te  Te146  1  0.49694558  0.00223175  0.66669426  1
  Te  Te147  1  0.50375424  0.33537492  0.00029174  1
  Te  Te148  1  0.49972344  0.32405072  0.33234750  1
  Te  Te149  1  0.49891369  0.32397590  0.66699722  1
  Te  Te150  1  0.50211016  0.66725479  -0.00408933  1
  Te  Te151  1  0.50121732  0.66994789  0.33471421  1
  Te  Te152  1  0.49963422  0.66704152  0.66277944  1
  Te  Te153  1  0.82555173  -0.00234706  0.00193911  1
  Te  Te154  1  0.82756629  -0.00455117  0.33218300  1
  Te  Te155  1  0.83280989  0.00187522  0.66789266  1
  Te  Te156  1  0.82819148  0.33760796  -0.00098163  1
  Te  Te157  1  0.83375751  0.32619818  0.33762544  1
  Te  Te158  1  0.83332765  0.34017454  0.66419901  1
  Te  Te159  1  0.83093321  0.66538444  -0.00506454  1
  Te  Te160  1  0.83166235  0.66755812  0.33339746  1
  Te  Te161  1  0.83863779  0.66089021  0.65951555  1
  Te  Te162  1  -0.00184847  0.16524192  -0.00023442  1
  Te  Te163  1  0.00040066  0.16427222  0.33777455  1
  Te  Te164  1  -0.00151600  0.16412348  0.65962300  1
  Te  Te165  1  -0.00399391  0.50501461  -0.00012433  1
  Te  Te166  1  0.00410131  0.50745838  0.33708638  1
  Te  Te167  1  0.00213890  0.50340039  0.66543425  1
  Te  Te168  1  -0.00505734  0.82946413  -0.00388892  1
  Te  Te169  1  0.00301208  0.82814968  0.33757524  1
  Te  Te170  1  0.00477708  0.82684575  0.66547802  1
  Te  Te171  1  0.34053249  0.17321008  0.00050772  1
  Te  Te172  1  0.33764706  0.16715174  0.33283560  1
  Te  Te173  1  0.33955435  0.16137794  0.66627793  1
  Te  Te174  1  0.33604219  0.49705313  -0.00044245  1
  Te  Te175  1  0.33648679  0.49883252  0.33627046  1
  Te  Te176  1  0.33001983  0.49921994  0.66646418  1
  Te  Te177  1  0.34055403  0.83292938  0.00350113  1
  Te  Te178  1  0.32960968  0.83398091  0.32910324  1
  Te  Te179  1  0.32579605  0.83877783  0.66822395  1
  Te  Te180  1  0.66412111  0.16238730  -0.00088141  1
  Te  Te181  1  0.66609949  0.16976380  0.33217357  1
  Te  Te182  1  0.66201519  0.16635644  0.67317110  1
  Te  Te183  1  0.66569121  0.50455500  -0.00354316  1
  Te  Te184  1  0.66450462  0.50251057  0.33255845  1
  Te  Te185  1  0.66721710  0.49994074  0.66139744  1
  Te  Te186  1  0.66723748  0.83202371  -0.00223977  1
  Te  Te187  1  0.66652720  0.82971857  0.33568318  1
  Te  Te188  1  0.66732813  0.83364058  0.65762219  1
  Te  Te189  1  0.00910740  -0.00156646  0.16517590  1
  Te  Te190  1  0.00356895  0.00139327  0.49992122  1
  Te  Te191  1  0.00346918  0.00033157  0.83190848  1
  Te  Te192  1  0.00014784  0.33320564  0.16541976  1
  Te  Te193  1  0.00008316  0.32849865  0.49869146  1
  Te  Te194  1  0.00047824  0.33729053  0.83189392  1
  Te  Te195  1  -0.00496366  0.66671027  0.15746690  1
  Te  Te196  1  0.00065424  0.66771405  0.50071891  1
  Te  Te197  1  0.00062808  0.66417343  0.83536466  1
  Te  Te198  1  0.32787298  -0.00562287  0.16403469  1
  Te  Te199  1  0.33579942  0.00105312  0.50375175  1
  Te  Te200  1  0.33476613  -0.00023435  0.83029227  1
  Te  Te201  1  0.33259745  0.33390651  0.15695850  1
  Te  Te202  1  0.32742314  0.34062735  0.49995508  1
  Te  Te203  1  0.32758593  0.33745969  0.83589682  1
  Te  Te204  1  0.33718234  0.67219550  0.16560800  1
  Te  Te205  1  0.34298709  0.65945444  0.50143568  1
  Te  Te206  1  0.32518497  0.66119695  0.83201903  1
  Te  Te207  1  0.66638842  0.00169330  0.16913354  1
  Te  Te208  1  0.66159974  -0.00114644  0.49498795  1
  Te  Te209  1  0.66245151  0.00299577  0.83563553  1
  Te  Te210  1  0.66697378  0.34310286  0.15852233  1
  Te  Te211  1  0.67290244  0.33444774  0.50084257  1
  Te  Te212  1  0.66992031  0.33013361  0.83737943  1
  Te  Te213  1  0.66682169  0.66509171  0.16658064  1
  Te  Te214  1  0.66423505  0.66908280  0.49980338  1
  Te  Te215  1  0.66575805  0.66844395  0.83389704  1
