# generated using pymatgen
data_AgSbTe2
_symmetry_space_group_name_H-M   'P 1'
_cell_length_a   18.35212653
_cell_length_b   18.35243722
_cell_length_c   18.35366402
_cell_angle_alpha   90.00411822
_cell_angle_beta   90.00034360
_cell_angle_gamma   89.99715542
_symmetry_Int_Tables_number   1
_chemical_formula_structural   AgSbTe2
_chemical_formula_sum   'Ag54 Sb54 Te108'
_cell_volume   6181.62872659
_cell_formula_units_Z   54
loop_
 _symmetry_equiv_pos_site_id
 _symmetry_equiv_pos_as_xyz
  1  'x, y, z'
loop_
 _atom_site_type_symbol
 _atom_site_label
 _atom_site_symmetry_multiplicity
 _atom_site_fract_x
 _atom_site_fract_y
 _atom_site_fract_z
 _atom_site_occupancy
  Ag  Ag0  1  -0.00094249  0.32741561  0.00117757  1
  Ag  Ag1  1  0.16808206  0.33340465  0.17192751  1
  Ag  Ag2  1  0.16586823  0.15829282  0.33198165  1
  Ag  Ag3  1  0.49293305  0.67221730  0.18204277  1
  Ag  Ag4  1  0.00516910  0.84026115  0.83026005  1
  Ag  Ag5  1  -0.00880419  -0.00160093  0.33379727  1
  Ag  Ag6  1  0.17836144  0.66261754  0.17334335  1
  Ag  Ag7  1  0.66885306  0.67250696  0.33558203  1
  Ag  Ag8  1  0.49794770  0.00238667  0.83055055  1
  Ag  Ag9  1  0.49888900  0.16445519  0.67310123  1
  Ag  Ag10  1  0.83389045  0.16696754  0.01001543  1
  Ag  Ag11  1  0.35590025  0.68192868  0.33097842  1
  Ag  Ag12  1  0.82686065  0.50601482  0.65587162  1
  Ag  Ag13  1  0.82603713  0.66914168  0.49167254  1
  Ag  Ag14  1  0.83044388  0.66935811  0.17667970  1
  Ag  Ag15  1  0.82930464  0.51935323  0.33594080  1
  Ag  Ag16  1  0.67620498  -0.00708002  0.33205712  1
  Ag  Ag17  1  0.83241110  -0.00557002  0.49307732  1
  Ag  Ag18  1  0.49629810  0.67201390  0.49541703  1
  Ag  Ag19  1  0.65915474  0.16720217  0.83643610  1
  Ag  Ag20  1  0.65698208  0.66425887  0.65474441  1
  Ag  Ag21  1  0.49633535  -0.00304532  0.17474498  1
  Ag  Ag22  1  0.49572947  0.82854638  0.65526856  1
  Ag  Ag23  1  -0.00164396  0.66427897  0.65482315  1
  Ag  Ag24  1  0.82551720  -0.00100581  0.17813424  1
  Ag  Ag25  1  0.17795152  0.00405253  0.49322187  1
  Ag  Ag26  1  0.49676001  -0.00921107  0.49174388  1
  Ag  Ag27  1  0.49877070  0.50905273  0.33629908  1
  Ag  Ag28  1  0.16869106  0.32650233  0.48841715  1
  Ag  Ag29  1  0.33334753  0.15527214  0.48998639  1
  Ag  Ag30  1  0.49696161  0.16458686  -0.00433961  1
  Ag  Ag31  1  0.33471084  0.83263024  0.49228372  1
  Ag  Ag32  1  0.33608808  0.51449907  0.49036867  1
  Ag  Ag33  1  0.65734149  0.50261388  0.17076954  1
  Ag  Ag34  1  0.33477186  0.67392155  0.01653540  1
  Ag  Ag35  1  0.33628550  -0.00133961  0.01521909  1
  Ag  Ag36  1  0.33422438  0.82991455  0.17693797  1
  Ag  Ag37  1  0.34249272  0.66898996  0.65249186  1
  Ag  Ag38  1  0.33495355  -0.00547657  0.33210235  1
  Ag  Ag39  1  0.33357996  0.16070501  0.17238249  1
  Ag  Ag40  1  0.17582868  0.83969855  0.33333587  1
  Ag  Ag41  1  0.33826554  0.51386104  0.17513718  1
  Ag  Ag42  1  -0.01575182  0.67065437  0.33531660  1
  Ag  Ag43  1  0.49041043  0.82413195  0.33662488  1
  Ag  Ag44  1  -0.00310559  0.16441988  0.83612490  1
  Ag  Ag45  1  0.33403883  0.83401265  0.83312489  1
  Ag  Ag46  1  0.66732661  0.32848625  0.00131104  1
  Ag  Ag47  1  0.00042661  0.33723801  0.66435758  1
  Ag  Ag48  1  0.84108653  0.14839379  0.32952319  1
  Ag  Ag49  1  0.50002747  0.32263717  0.83246577  1
  Ag  Ag50  1  0.50189998  0.51196285  0.65925561  1
  Ag  Ag51  1  0.17562696  0.16598977  0.01154000  1
  Ag  Ag52  1  0.83428543  0.83406258  0.33371768  1
  Ag  Ag53  1  0.00184011  0.32802430  0.33321351  1
  Sb  Sb54  1  0.00560371  0.83429103  0.17106860  1
  Sb  Sb55  1  0.65974178  0.83054952  0.17125178  1
  Sb  Sb56  1  0.00465334  0.83304078  0.49778199  1
  Sb  Sb57  1  0.16824067  0.32886138  0.83576882  1
  Sb  Sb58  1  0.33385055  0.32801191  0.00210912  1
  Sb  Sb59  1  0.65834509  0.83073279  0.49471501  1
  Sb  Sb60  1  0.17252952  0.83116776  0.66072785  1
  Sb  Sb61  1  0.66097200  0.66131197  0.00767484  1
  Sb  Sb62  1  0.17003918  0.50212823  0.66314965  1
  Sb  Sb63  1  0.33719526  0.16136791  0.83441974  1
  Sb  Sb64  1  0.66360376  0.16828435  0.16500398  1
  Sb  Sb65  1  0.83247716  0.49634560  0.00592711  1
  Sb  Sb66  1  0.17090107  0.83771189  0.00620469  1
  Sb  Sb67  1  0.83745612  0.33150158  0.16790812  1
  Sb  Sb68  1  0.66409961  0.49701460  0.83455533  1
  Sb  Sb69  1  0.66206372  0.50339847  0.49487611  1
  Sb  Sb70  1  0.17187185  -0.00030830  0.83088784  1
  Sb  Sb71  1  0.49772581  0.67103193  0.83026220  1
  Sb  Sb72  1  0.17015882  0.16744635  0.66298256  1
  Sb  Sb73  1  0.66148822  0.16340023  0.50051700  1
  Sb  Sb74  1  0.49708446  0.16193201  0.33253836  1
  Sb  Sb75  1  -0.00212326  0.49726450  0.82950294  1
  Sb  Sb76  1  0.67314812  0.33508877  0.32937457  1
  Sb  Sb77  1  0.33739966  0.50525714  0.83409401  1
  Sb  Sb78  1  0.83699210  0.83833010  0.00734161  1
  Sb  Sb79  1  0.33740905  -0.00458767  0.66011580  1
  Sb  Sb80  1  0.00428867  0.00496381  0.00455269  1
  Sb  Sb81  1  0.16968404  0.50185824  0.33330420  1
  Sb  Sb82  1  -0.00109507  -0.00120173  0.66263917  1
  Sb  Sb83  1  0.00467877  0.16607350  0.16766993  1
  Sb  Sb84  1  0.66156866  -0.00390067  0.66017068  1
  Sb  Sb85  1  0.32929809  0.33374340  0.33341455  1
  Sb  Sb86  1  0.49581837  0.33290003  0.16580358  1
  Sb  Sb87  1  0.83166651  0.16931765  0.66337236  1
  Sb  Sb88  1  0.66276050  0.83804978  0.82984501  1
  Sb  Sb89  1  0.83470049  0.66883097  0.82955145  1
  Sb  Sb90  1  0.00307527  0.66484374  0.00620793  1
  Sb  Sb91  1  0.49342419  0.33437279  0.50262222  1
  Sb  Sb92  1  0.16944168  0.66914676  0.83705796  1
  Sb  Sb93  1  0.49847254  0.49665421  0.00342723  1
  Sb  Sb94  1  0.33253265  0.33764238  0.66431028  1
  Sb  Sb95  1  0.16857973  0.49570890  0.00434587  1
  Sb  Sb96  1  0.83022201  0.82784079  0.65904326  1
  Sb  Sb97  1  0.83201652  0.33178961  0.83383928  1
  Sb  Sb98  1  0.00431013  0.50062343  0.49733855  1
  Sb  Sb99  1  0.83998028  0.33562887  0.49747664  1
  Sb  Sb100  1  0.00352785  0.16626375  0.49798931  1
  Sb  Sb101  1  0.66642774  0.33603405  0.67082533  1
  Sb  Sb102  1  0.17151966  0.66753419  0.49132834  1
  Sb  Sb103  1  0.00135127  0.50025660  0.17174077  1
  Sb  Sb104  1  0.83018039  0.00268025  0.83348393  1
  Sb  Sb105  1  0.17325707  0.00163562  0.17541517  1
  Sb  Sb106  1  0.49631796  0.83697308  0.00340951  1
  Sb  Sb107  1  0.66051839  0.00534857  0.00496071  1
  Te  Te108  1  0.16923878  0.16709000  0.16975136  1
  Te  Te109  1  0.16987181  0.16564693  0.49735559  1
  Te  Te110  1  0.16071426  0.16540816  0.83260904  1
  Te  Te111  1  0.17255077  0.49945903  0.16617590  1
  Te  Te112  1  0.17606694  0.49350547  0.50066219  1
  Te  Te113  1  0.16712369  0.49986259  0.83428960  1
  Te  Te114  1  0.17195437  0.82774829  0.17247444  1
  Te  Te115  1  0.17160169  0.83760436  0.49395156  1
  Te  Te116  1  0.16511488  0.83404281  0.83294047  1
  Te  Te117  1  0.49631499  0.16439656  0.16412710  1
  Te  Te118  1  0.49372954  0.16686531  0.50104727  1
  Te  Te119  1  0.49865691  0.16404445  0.83419725  1
  Te  Te120  1  0.49743463  0.50056915  0.16868603  1
  Te  Te121  1  0.49614738  0.50042465  0.49997252  1
  Te  Te122  1  0.50083434  0.49783266  0.82856141  1
  Te  Te123  1  0.49504446  0.83251873  0.16961046  1
  Te  Te124  1  0.49737099  0.83281728  0.49779549  1
  Te  Te125  1  0.49762429  0.84053964  0.83601851  1
  Te  Te126  1  0.83120169  0.16321982  0.16907494  1
  Te  Te127  1  0.83172226  0.16568296  0.49416531  1
  Te  Te128  1  0.83535007  0.16620532  0.83080363  1
  Te  Te129  1  0.83338368  0.50257130  0.17189332  1
  Te  Te130  1  0.83385870  0.50459773  0.49755548  1
  Te  Te131  1  0.83254557  0.50079368  0.83023113  1
  Te  Te132  1  0.83420132  0.83472160  0.16993496  1
  Te  Te133  1  0.83575130  0.83059453  0.49657856  1
  Te  Te134  1  0.83574090  0.83630983  0.83357012  1
  Te  Te135  1  0.17237718  0.00702602  -0.00267684  1
  Te  Te136  1  0.17239375  0.00004748  0.33330752  1
  Te  Te137  1  0.16515070  -0.00042015  0.65629233  1
  Te  Te138  1  0.16301248  0.32593013  0.00204694  1
  Te  Te139  1  0.16263585  0.33621433  0.33198251  1
  Te  Te140  1  0.16016075  0.33459239  0.66805345  1
  Te  Te141  1  0.17141218  0.66755580  0.00822757  1
  Te  Te142  1  0.16238841  0.66547219  0.33098719  1
  Te  Te143  1  0.15768203  0.66667119  0.66750623  1
  Te  Te144  1  0.49674509  0.00320550  0.00323409  1
  Te  Te145  1  0.49365627  0.00329709  0.33379158  1
  Te  Te146  1  0.50194513  0.00275903  0.66473553  1
  Te  Te147  1  0.50158216  0.32886786  -0.00260757  1
  Te  Te148  1  0.50379833  0.33912368  0.33417826  1
  Te  Te149  1  0.50083164  0.32691736  0.67046857  1
  Te  Te150  1  0.49381717  0.66547000  -0.00100702  1
  Te  Te151  1  0.50893111  0.66437858  0.33544296  1
  Te  Te152  1  0.49985937  0.66857204  0.66683242  1
  Te  Te153  1  0.83297088  0.00673246  0.00233924  1
  Te  Te154  1  0.83349390  -0.00464061  0.33502914  1
  Te  Te155  1  0.83060522  -0.00088972  0.65990049  1
  Te  Te156  1  0.83491238  0.32878533  0.00029490  1
  Te  Te157  1  0.84201209  0.33046151  0.33323796  1
  Te  Te158  1  0.83833109  0.33842930  0.66559314  1
  Te  Te159  1  0.83227303  0.66703436  0.00203138  1
  Te  Te160  1  0.82763501  0.67256308  0.33382393  1
  Te  Te161  1  0.83887444  0.66287135  0.66567089  1
  Te  Te162  1  -0.00386335  0.16725707  -0.00034179  1
  Te  Te163  1  0.00159743  0.16563152  0.33432344  1
  Te  Te164  1  0.00005433  0.16896830  0.67090999  1
  Te  Te165  1  -0.00085098  0.49154936  -0.00099993  1
  Te  Te166  1  -0.00657772  0.50492444  0.33398529  1
  Te  Te167  1  -0.00200793  0.50087569  0.66503661  1
  Te  Te168  1  0.00293513  0.83303295  -0.00821221  1
  Te  Te169  1  -0.00207301  0.83316213  0.33396635  1
  Te  Te170  1  -0.00084721  0.83007322  0.67102436  1
  Te  Te171  1  0.33478595  0.16204134  -0.00069059  1
  Te  Te172  1  0.33008730  0.16887368  0.33301881  1
  Te  Te173  1  0.33819994  0.16754564  0.66598965  1
  Te  Te174  1  0.33304551  0.50724379  0.00296132  1
  Te  Te175  1  0.33582826  0.49810212  0.33256691  1
  Te  Te176  1  0.33871156  0.50670669  0.66573249  1
  Te  Te177  1  0.33268342  0.83489039  -0.00440655  1
  Te  Te178  1  0.33363421  0.83464838  0.33401671  1
  Te  Te179  1  0.33673032  0.82936647  0.67000825  1
  Te  Te180  1  0.66626697  0.16846521  -0.00196699  1
  Te  Te181  1  0.67076574  0.16656301  0.33395846  1
  Te  Te182  1  0.66217991  0.16733915  0.67060586  1
  Te  Te183  1  0.66691275  0.49285350  0.00597216  1
  Te  Te184  1  0.66831424  0.49918176  0.32938648  1
  Te  Te185  1  0.66613719  0.50430978  0.66787803  1
  Te  Te186  1  0.66962787  0.83169413  -0.00079516  1
  Te  Te187  1  0.66857334  0.83515114  0.33132038  1
  Te  Te188  1  0.65944008  0.82579610  0.66655052  1
  Te  Te189  1  -0.00833645  -0.00080504  0.17237127  1
  Te  Te190  1  -0.00581830  -0.00030792  0.49496650  1
  Te  Te191  1  -0.00022580  0.00103681  0.83275744  1
  Te  Te192  1  0.00622372  0.33357318  0.16808765  1
  Te  Te193  1  0.00744722  0.33396458  0.49966614  1
  Te  Te194  1  0.00026666  0.32910925  0.83383882  1
  Te  Te195  1  -0.00909210  0.66711440  0.17033906  1
  Te  Te196  1  0.00084794  0.66694167  0.49649028  1
  Te  Te197  1  0.00111667  0.66825259  0.83707819  1
  Te  Te198  1  0.33277495  0.00063122  0.16990922  1
  Te  Te199  1  0.33671559  -0.00225055  0.49858692  1
  Te  Te200  1  0.33706496  -0.00476483  0.82982698  1
  Te  Te201  1  0.32771311  0.32434805  0.16457350  1
  Te  Te202  1  0.32583530  0.32689510  0.50220308  1
  Te  Te203  1  0.33915304  0.33587306  0.83336346  1
  Te  Te204  1  0.33548677  0.66824863  0.17175389  1
  Te  Te205  1  0.33375371  0.67071999  0.49435687  1
  Te  Te206  1  0.33248124  0.67313311  0.82665137  1
  Te  Te207  1  0.66276504  0.00037041  0.17277141  1
  Te  Te208  1  0.66600603  -0.00082464  0.49316016  1
  Te  Te209  1  0.66207103  0.00638774  0.83329255  1
  Te  Te210  1  0.66666546  0.33859050  0.16143041  1
  Te  Te211  1  0.66768318  0.33293614  0.50131113  1
  Te  Te212  1  0.66252842  0.32901734  0.83754995  1
  Te  Te213  1  0.66799380  0.66360697  0.16928992  1
  Te  Te214  1  0.66668048  0.66528684  0.49911911  1
  Te  Te215  1  0.66689782  0.66777371  0.83570595  1
