# generated using pymatgen
data_AgSbTe2
_symmetry_space_group_name_H-M   'P 1'
_cell_length_a   18.31560806
_cell_length_b   18.31061416
_cell_length_c   18.31017880
_cell_angle_alpha   89.99979963
_cell_angle_beta   89.99867844
_cell_angle_gamma   90.00065551
_symmetry_Int_Tables_number   1
_chemical_formula_structural   AgSbTe2
_chemical_formula_sum   'Ag54 Sb54 Te108'
_cell_volume   6140.68525451
_cell_formula_units_Z   54
loop_
 _symmetry_equiv_pos_site_id
 _symmetry_equiv_pos_as_xyz
  1  'x, y, z'
loop_
 _atom_site_type_symbol
 _atom_site_label
 _atom_site_symmetry_multiplicity
 _atom_site_fract_x
 _atom_site_fract_y
 _atom_site_fract_z
 _atom_site_occupancy
  Ag  Ag0  1  0.83421655  0.66392343  0.83644340  1
  Ag  Ag1  1  -0.00087801  0.50679475  0.83478719  1
  Ag  Ag2  1  0.50157970  0.66419610  0.82912825  1
  Ag  Ag3  1  0.17470188  0.16896644  0.67173504  1
  Ag  Ag4  1  0.66064509  0.00085828  0.66339112  1
  Ag  Ag5  1  0.33259796  0.48873621  0.82882372  1
  Ag  Ag6  1  0.66334577  0.00005974  0.33561816  1
  Ag  Ag7  1  0.48711391  0.34051894  0.83088658  1
  Ag  Ag8  1  0.49544238  0.66834368  0.50591815  1
  Ag  Ag9  1  0.16939581  0.66998814  0.50369539  1
  Ag  Ag10  1  0.00097816  0.83552918  0.16158016  1
  Ag  Ag11  1  0.00918065  0.82866358  0.49891891  1
  Ag  Ag12  1  0.16226735  0.32753577  0.16684564  1
  Ag  Ag13  1  0.32827956  0.33193174  -0.01342384  1
  Ag  Ag14  1  0.82958048  0.00769556  0.16721709  1
  Ag  Ag15  1  0.83200420  0.49750081  0.33149393  1
  Ag  Ag16  1  0.67588206  0.66654229  -0.00570575  1
  Ag  Ag17  1  0.00800797  0.82458788  0.83961183  1
  Ag  Ag18  1  0.84147686  0.82340140  -0.00322588  1
  Ag  Ag19  1  0.00475686  0.16735986  0.16752927  1
  Ag  Ag20  1  0.67113690  0.49524278  0.16417122  1
  Ag  Ag21  1  0.83852149  0.33121057  0.16995839  1
  Ag  Ag22  1  0.32906682  0.17595464  0.82982537  1
  Ag  Ag23  1  0.67009504  0.50824779  0.83656279  1
  Ag  Ag24  1  0.50345214  0.50099928  0.33504383  1
  Ag  Ag25  1  0.32436134  0.16654846  0.16198348  1
  Ag  Ag26  1  0.33175750  0.32621068  0.67391968  1
  Ag  Ag27  1  0.66765770  0.16141936  0.50009449  1
  Ag  Ag28  1  0.50392213  0.00209069  0.17015096  1
  Ag  Ag29  1  0.16616402  0.33271408  0.50050713  1
  Ag  Ag30  1  0.66513120  0.82680728  0.83051481  1
  Ag  Ag31  1  0.17352335  0.32979611  0.83385110  1
  Ag  Ag32  1  0.49882598  0.83820970  0.66731743  1
  Ag  Ag33  1  0.49388850  0.16134129  0.66746409  1
  Ag  Ag34  1  0.16388943  0.83675788  0.33423751  1
  Ag  Ag35  1  0.16141862  0.83409119  -0.00836353  1
  Ag  Ag36  1  0.17053284  -0.00153782  0.83190275  1
  Ag  Ag37  1  0.00063202  0.33699495  0.33118219  1
  Ag  Ag38  1  0.33399055  0.00062425  0.33705095  1
  Ag  Ag39  1  0.16779390  0.16590457  0.33109324  1
  Ag  Ag40  1  0.83112970  0.17021981  0.66709782  1
  Ag  Ag41  1  0.33032652  0.82932917  0.50847855  1
  Ag  Ag42  1  0.33214639  0.50316415  0.50644855  1
  Ag  Ag43  1  0.16432916  0.66986779  0.83095411  1
  Ag  Ag44  1  0.00036427  0.66528085  0.33102822  1
  Ag  Ag45  1  0.33780914  0.00409757  0.66696779  1
  Ag  Ag46  1  0.83790763  0.33540155  0.49716125  1
  Ag  Ag47  1  0.66467916  0.83687441  0.50598097  1
  Ag  Ag48  1  0.32694711  0.83282287  0.82781462  1
  Ag  Ag49  1  -0.00410855  0.66941381  -0.00469274  1
  Ag  Ag50  1  0.66931040  0.16568720  0.16987034  1
  Ag  Ag51  1  0.16899162  0.16794896  -0.00014499  1
  Ag  Ag52  1  0.83185348  0.50527267  -0.00473203  1
  Ag  Ag53  1  0.83072996  0.49517777  0.67444325  1
  Sb  Sb54  1  -0.00585658  0.49869918  0.16444326  1
  Sb  Sb55  1  0.83012034  0.00303989  0.49737804  1
  Sb  Sb56  1  0.32771782  0.84129610  0.16605459  1
  Sb  Sb57  1  0.50006887  0.32940986  0.16423887  1
  Sb  Sb58  1  0.50156607  0.66935858  0.16574666  1
  Sb  Sb59  1  0.33361415  0.66830434  0.66786642  1
  Sb  Sb60  1  0.83667648  0.16982717  0.33268735  1
  Sb  Sb61  1  0.16860105  -0.00120948  0.50295685  1
  Sb  Sb62  1  0.50504073  0.50056648  -0.00150636  1
  Sb  Sb63  1  0.00416331  0.33323754  0.66471540  1
  Sb  Sb64  1  0.32807481  0.67038196  0.33756483  1
  Sb  Sb65  1  0.83496568  0.66398242  0.15889707  1
  Sb  Sb66  1  0.17168047  0.83835355  0.66956549  1
  Sb  Sb67  1  0.33683270  0.49180425  0.16535116  1
  Sb  Sb68  1  0.66486002  0.50098571  0.50132650  1
  Sb  Sb69  1  0.66576840  0.33704748  -0.00052657  1
  Sb  Sb70  1  0.33046001  0.00393767  -0.00392881  1
  Sb  Sb71  1  0.33451033  0.16617287  0.50523516  1
  Sb  Sb72  1  0.83468557  0.66316868  0.50470402  1
  Sb  Sb73  1  0.49556356  0.83184169  0.33959419  1
  Sb  Sb74  1  0.66260113  0.16592503  0.83162235  1
  Sb  Sb75  1  0.00039472  0.66698506  0.67190503  1
  Sb  Sb76  1  0.16726196  0.49456426  0.66964853  1
  Sb  Sb77  1  -0.00081141  0.16592713  0.49685670  1
  Sb  Sb78  1  0.66567551  0.67205293  0.67362250  1
  Sb  Sb79  1  0.67171865  0.33010886  0.33328330  1
  Sb  Sb80  1  0.00815941  0.16812626  0.83774670  1
  Sb  Sb81  1  0.83940915  0.83066070  0.33031721  1
  Sb  Sb82  1  0.49770113  0.83242717  -0.00743730  1
  Sb  Sb83  1  0.49455806  -0.00170336  0.83152331  1
  Sb  Sb84  1  0.83646625  -0.00482609  0.83569751  1
  Sb  Sb85  1  0.00127935  -0.00818061  0.00093473  1
  Sb  Sb86  1  0.00159184  -0.00011999  0.66758673  1
  Sb  Sb87  1  0.67056323  0.66949731  0.33157082  1
  Sb  Sb88  1  0.66406082  0.32782298  0.66729953  1
  Sb  Sb89  1  0.16198993  0.49899938  -0.00484561  1
  Sb  Sb90  1  0.32633775  0.32904374  0.33561794  1
  Sb  Sb91  1  0.50038605  -0.00510149  0.50075100  1
  Sb  Sb92  1  0.67227622  0.83606282  0.16481131  1
  Sb  Sb93  1  0.00463593  0.33768361  0.00311810  1
  Sb  Sb94  1  0.16585632  0.00668180  0.16410695  1
  Sb  Sb95  1  0.50159520  0.50093863  0.66848186  1
  Sb  Sb96  1  0.82901434  0.83458068  0.67066729  1
  Sb  Sb97  1  0.00184570  -0.00108368  0.33118390  1
  Sb  Sb98  1  0.49659316  0.33737447  0.50432107  1
  Sb  Sb99  1  0.83661754  0.34049279  0.83268935  1
  Sb  Sb100  1  0.00328826  0.50316164  0.50328976  1
  Sb  Sb101  1  0.32993994  0.66281613  -0.00705202  1
  Sb  Sb102  1  0.16507941  0.49904476  0.33484732  1
  Sb  Sb103  1  0.49738987  0.16784653  0.33684765  1
  Sb  Sb104  1  0.49430474  0.16752835  -0.00313603  1
  Sb  Sb105  1  0.83871307  0.16852194  0.00004576  1
  Sb  Sb106  1  0.66712641  -0.00417486  -0.00061255  1
  Sb  Sb107  1  0.16403493  0.66515745  0.16542510  1
  Te  Te108  1  0.16600030  0.16726262  0.16710727  1
  Te  Te109  1  0.16589598  0.16974126  0.49753448  1
  Te  Te110  1  0.16844359  0.16879243  0.83339198  1
  Te  Te111  1  0.16782592  0.49113393  0.16572546  1
  Te  Te112  1  0.17138068  0.50115974  0.50151719  1
  Te  Te113  1  0.16946224  0.50304234  0.83236303  1
  Te  Te114  1  0.16133356  0.83415810  0.16844755  1
  Te  Te115  1  0.16898457  0.83221328  0.50180255  1
  Te  Te116  1  0.16628935  0.83106631  0.83146659  1
  Te  Te117  1  0.50433524  0.16359727  0.16795048  1
  Te  Te118  1  0.50684693  0.16901430  0.50508364  1
  Te  Te119  1  0.49471340  0.16744111  0.82927250  1
  Te  Te120  1  0.50618643  0.49967640  0.17153637  1
  Te  Te121  1  0.49627136  0.50563882  0.49835452  1
  Te  Te122  1  0.49796269  0.50233052  0.83296587  1
  Te  Te123  1  0.49866050  0.83887176  0.16688968  1
  Te  Te124  1  0.49925646  0.82809024  0.50379578  1
  Te  Te125  1  0.50199557  0.83106193  0.82939386  1
  Te  Te126  1  0.83231668  0.16918825  0.16557248  1
  Te  Te127  1  0.83149489  0.17145325  0.50188354  1
  Te  Te128  1  0.83445746  0.16655374  0.83031933  1
  Te  Te129  1  0.82991080  0.49711419  0.16872763  1
  Te  Te130  1  0.83374169  0.49532722  0.49748929  1
  Te  Te131  1  0.83185047  0.50179412  0.83423421  1
  Te  Te132  1  0.83924020  0.83392496  0.16204176  1
  Te  Te133  1  0.82841192  0.83269417  0.50059386  1
  Te  Te134  1  0.83237357  0.83082528  0.83639636  1
  Te  Te135  1  0.16721756  -0.00019044  -0.00568440  1
  Te  Te136  1  0.16973520  0.00001919  0.33333655  1
  Te  Te137  1  0.17011519  0.00857697  0.67089357  1
  Te  Te138  1  0.16881062  0.33182189  -0.00080483  1
  Te  Te139  1  0.16202195  0.33141919  0.33498673  1
  Te  Te140  1  0.16990353  0.32903890  0.66473315  1
  Te  Te141  1  0.16227439  0.67044019  -0.00279835  1
  Te  Te142  1  0.16156541  0.67017989  0.33502571  1
  Te  Te143  1  0.16670628  0.66500014  0.66466058  1
  Te  Te144  1  0.49890310  0.00003059  0.00931404  1
  Te  Te145  1  0.49931422  0.00021049  0.33029074  1
  Te  Te146  1  0.49972712  0.00018127  0.66666205  1
  Te  Te147  1  0.49343224  0.33354663  -0.00669462  1
  Te  Te148  1  0.49954643  0.34040494  0.33442266  1
  Te  Te149  1  0.49504594  0.32991845  0.67081501  1
  Te  Te150  1  0.50319143  0.66712071  -0.00540061  1
  Te  Te151  1  0.50100919  0.66237722  0.33549864  1
  Te  Te152  1  0.49995197  0.67127985  0.66697656  1
  Te  Te153  1  0.83293269  -0.00193033  0.00604361  1
  Te  Te154  1  0.82801944  -0.00040817  0.32758220  1
  Te  Te155  1  0.82832482  0.00623323  0.66664137  1
  Te  Te156  1  0.83420168  0.33841880  0.00492815  1
  Te  Te157  1  0.83763473  0.33597826  0.33221609  1
  Te  Te158  1  0.83404584  0.33171958  0.66474450  1
  Te  Te159  1  0.83446661  0.66642392  -0.00337538  1
  Te  Te160  1  0.83862913  0.66155676  0.33535383  1
  Te  Te161  1  0.83288776  0.66087456  0.67376123  1
  Te  Te162  1  0.00702905  0.16729734  0.00611758  1
  Te  Te163  1  0.00502222  0.16968329  0.32949867  1
  Te  Te164  1  -0.00326994  0.16580912  0.66648235  1
  Te  Te165  1  -0.00551560  0.50644539  -0.00370181  1
  Te  Te166  1  -0.00301875  0.50047479  0.33365528  1
  Te  Te167  1  -0.00795371  0.49929233  0.67322279  1
  Te  Te168  1  0.00156504  0.82977951  -0.00079168  1
  Te  Te169  1  0.00401960  0.83183431  0.33408568  1
  Te  Te170  1  -0.00160350  0.83451664  0.66357579  1
  Te  Te171  1  0.32901606  0.16992810  -0.00160093  1
  Te  Te172  1  0.33014015  0.16178177  0.33419875  1
  Te  Te173  1  0.33351560  0.16489753  0.66663035  1
  Te  Te174  1  0.33393428  0.49411908  -0.00397509  1
  Te  Te175  1  0.33606103  0.50113158  0.33470516  1
  Te  Te176  1  0.33503481  0.49450767  0.66750492  1
  Te  Te177  1  0.32714532  0.83266183  -0.00373737  1
  Te  Te178  1  0.32767454  0.83812033  0.33431822  1
  Te  Te179  1  0.33694370  0.83593680  0.66693870  1
  Te  Te180  1  0.66767392  0.16675725  0.00461241  1
  Te  Te181  1  0.66590815  0.16184072  0.33313190  1
  Te  Te182  1  0.66765721  0.16171769  0.66660225  1
  Te  Te183  1  0.67065740  0.50279059  -0.00121895  1
  Te  Te184  1  0.66861489  0.50077896  0.33185610  1
  Te  Te185  1  0.67076876  0.49787760  0.67081792  1
  Te  Te186  1  0.66791440  0.82828353  -0.00391268  1
  Te  Te187  1  0.66636714  0.83812296  0.33492378  1
  Te  Te188  1  0.66414125  0.83849485  0.66670966  1
  Te  Te189  1  -0.00452068  0.00110485  0.16744414  1
  Te  Te190  1  -0.00148638  -0.00998241  0.49917880  1
  Te  Te191  1  0.00643287  -0.00482751  0.83326710  1
  Te  Te192  1  0.00022978  0.33235280  0.16936731  1
  Te  Te193  1  0.00180305  0.33424711  0.49553178  1
  Te  Te194  1  0.00637201  0.33793628  0.83354464  1
  Te  Te195  1  0.00083640  0.67045811  0.16898500  1
  Te  Te196  1  0.00230948  0.67007668  0.49700359  1
  Te  Te197  1  0.00215172  0.66678414  0.83434194  1
  Te  Te198  1  0.33497276  0.00686251  0.16966767  1
  Te  Te199  1  0.33413418  -0.00451166  0.50078672  1
  Te  Te200  1  0.33063626  -0.00495678  0.82963168  1
  Te  Te201  1  0.33045747  0.32561393  0.16772430  1
  Te  Te202  1  0.32895255  0.33664110  0.50284773  1
  Te  Te203  1  0.33163850  0.33260943  0.83107948  1
  Te  Te204  1  0.33375549  0.66505436  0.16539356  1
  Te  Te205  1  0.33173062  0.66718084  0.50053733  1
  Te  Te206  1  0.33219071  0.67256308  0.83314916  1
  Te  Te207  1  0.66844120  0.00181095  0.16690296  1
  Te  Te208  1  0.66596061  0.00022363  0.49990477  1
  Te  Te209  1  0.66641062  -0.00416223  0.82994893  1
  Te  Te210  1  0.66887394  0.33257190  0.16661461  1
  Te  Te211  1  0.67036011  0.33004671  0.49976215  1
  Te  Te212  1  0.66421765  0.33630880  0.83381891  1
  Te  Te213  1  0.66652426  0.66268779  0.16153625  1
  Te  Te214  1  0.66459033  0.67144959  0.49949987  1
  Te  Te215  1  0.66580357  0.66719577  0.83438200  1
