# generated using pymatgen
data_AgSbTe2
_symmetry_space_group_name_H-M   'P 1'
_cell_length_a   18.33461188
_cell_length_b   18.33113391
_cell_length_c   18.32845303
_cell_angle_alpha   90.00122613
_cell_angle_beta   90.00028406
_cell_angle_gamma   89.99826570
_symmetry_Int_Tables_number   1
_chemical_formula_structural   AgSbTe2
_chemical_formula_sum   'Ag54 Sb54 Te108'
_cell_volume   6160.08722182
_cell_formula_units_Z   54
loop_
 _symmetry_equiv_pos_site_id
 _symmetry_equiv_pos_as_xyz
  1  'x, y, z'
loop_
 _atom_site_type_symbol
 _atom_site_label
 _atom_site_symmetry_multiplicity
 _atom_site_fract_x
 _atom_site_fract_y
 _atom_site_fract_z
 _atom_site_occupancy
  Ag  Ag0  1  0.49593222  -0.00541386  0.50220887  1
  Ag  Ag1  1  0.82882058  0.83101218  0.00596298  1
  Ag  Ag2  1  0.82547557  -0.00357350  0.83968270  1
  Ag  Ag3  1  0.66296381  0.00074840  0.65869959  1
  Ag  Ag4  1  0.49776004  0.50930547  0.33408893  1
  Ag  Ag5  1  -0.00855241  -0.00313152  0.66489606  1
  Ag  Ag6  1  0.16825356  0.16709439  0.00358411  1
  Ag  Ag7  1  -0.00092227  0.83442012  0.48889888  1
  Ag  Ag8  1  0.51055827  0.83433774  0.00711957  1
  Ag  Ag9  1  0.49850698  0.50145214  0.66080370  1
  Ag  Ag10  1  0.66309023  0.15727790  0.49489305  1
  Ag  Ag11  1  0.34106995  0.84125722  0.49626776  1
  Ag  Ag12  1  0.49707572  0.66706621  0.16872090  1
  Ag  Ag13  1  0.65925560  0.84100304  0.49149873  1
  Ag  Ag14  1  0.49943572  0.15087359  0.00388217  1
  Ag  Ag15  1  0.18036568  -0.00010582  0.49807217  1
  Ag  Ag16  1  0.83071859  0.15365125  0.33151460  1
  Ag  Ag17  1  0.16025627  0.83091505  0.33451408  1
  Ag  Ag18  1  -0.00169530  0.34251025  0.00193682  1
  Ag  Ag19  1  -0.00814434  0.83130546  0.16904525  1
  Ag  Ag20  1  -0.00630459  0.16196529  0.16528995  1
  Ag  Ag21  1  0.66353689  0.32892599  0.66177760  1
  Ag  Ag22  1  0.17333703  0.50822685  0.32761412  1
  Ag  Ag23  1  0.33608694  0.50124501  0.84067884  1
  Ag  Ag24  1  0.00130684  0.67128887  0.32290268  1
  Ag  Ag25  1  0.49994500  0.50579079  0.00225826  1
  Ag  Ag26  1  0.34015138  0.33757071  0.66395577  1
  Ag  Ag27  1  0.16345987  0.66399335  0.16849853  1
  Ag  Ag28  1  0.67230673  0.83656728  0.16789390  1
  Ag  Ag29  1  0.83030727  0.83609925  0.32748729  1
  Ag  Ag30  1  0.82965364  -0.00414472  0.16376644  1
  Ag  Ag31  1  0.33739317  0.66526397  0.66425403  1
  Ag  Ag32  1  0.83436935  0.67355206  0.84134853  1
  Ag  Ag33  1  0.34594302  -0.00083907  0.00044730  1
  Ag  Ag34  1  -0.00518457  0.83432053  0.84585755  1
  Ag  Ag35  1  0.83319292  0.33339016  0.83445627  1
  Ag  Ag36  1  0.66374642  -0.00480771  0.00827999  1
  Ag  Ag37  1  0.83615551  0.51161189  0.00060087  1
  Ag  Ag38  1  0.16616005  0.32979643  0.50005614  1
  Ag  Ag39  1  0.32744919  0.50319938  0.16325788  1
  Ag  Ag40  1  0.50370031  -0.00156349  0.83431439  1
  Ag  Ag41  1  0.00415121  0.51402361  0.16256300  1
  Ag  Ag42  1  0.67086965  0.15504917  0.17003148  1
  Ag  Ag43  1  0.50381026  0.83201093  0.33440078  1
  Ag  Ag44  1  0.33940308  0.15423747  0.49970554  1
  Ag  Ag45  1  0.50141705  0.67665824  0.49157476  1
  Ag  Ag46  1  0.66266550  0.50077833  0.49836971  1
  Ag  Ag47  1  0.34022404  -0.00334646  0.34263190  1
  Ag  Ag48  1  0.16316905  0.49931315  0.00864440  1
  Ag  Ag49  1  0.67237009  0.67634642  0.00194153  1
  Ag  Ag50  1  0.33989974  -0.00063083  0.65493965  1
  Ag  Ag51  1  -0.00678239  0.66524274  0.00655257  1
  Ag  Ag52  1  0.83035245  0.33277949  0.50177313  1
  Ag  Ag53  1  0.66435695  -0.00406557  0.33427286  1
  Sb  Sb54  1  -0.00186993  0.16097602  0.49380808  1
  Sb  Sb55  1  0.83243381  0.83594059  0.66802213  1
  Sb  Sb56  1  0.00400880  0.67244848  0.66719316  1
  Sb  Sb57  1  0.17177359  0.66976921  0.49299736  1
  Sb  Sb58  1  0.16296944  -0.00468533  0.17036892  1
  Sb  Sb59  1  0.33004362  0.33406731  -0.00417874  1
  Sb  Sb60  1  0.50418626  0.16045046  0.33051298  1
  Sb  Sb61  1  -0.00056789  0.33762564  0.32859674  1
  Sb  Sb62  1  -0.00350282  -0.00432728  -0.00062770  1
  Sb  Sb63  1  0.66688222  0.16244385  0.83426892  1
  Sb  Sb64  1  0.16884475  0.16479403  0.66721628  1
  Sb  Sb65  1  0.50737632  -0.00809529  0.16688566  1
  Sb  Sb66  1  0.33434135  0.67148703  0.33558837  1
  Sb  Sb67  1  0.67001375  0.83632825  0.83834263  1
  Sb  Sb68  1  0.66720656  0.32797114  0.33864890  1
  Sb  Sb69  1  0.33204606  0.83213145  0.82979157  1
  Sb  Sb70  1  0.16294156  0.16342492  0.33091421  1
  Sb  Sb71  1  0.66316578  0.50002066  0.83190653  1
  Sb  Sb72  1  0.33554535  0.66811699  -0.00009100  1
  Sb  Sb73  1  0.66211372  0.66955454  0.66824129  1
  Sb  Sb74  1  0.50333585  0.33153012  0.83283540  1
  Sb  Sb75  1  0.00044310  0.50523732  0.84178282  1
  Sb  Sb76  1  0.33513481  0.16770180  0.83010522  1
  Sb  Sb77  1  0.33305275  0.33172462  0.33931757  1
  Sb  Sb78  1  0.50108124  0.33923202  0.16556865  1
  Sb  Sb79  1  0.50082884  0.16465828  0.66627234  1
  Sb  Sb80  1  0.83527369  0.67441208  0.16140243  1
  Sb  Sb81  1  0.66703056  0.67525978  0.32786376  1
  Sb  Sb82  1  0.16795055  -0.00140938  0.83102595  1
  Sb  Sb83  1  0.33887504  0.50173025  0.49780222  1
  Sb  Sb84  1  0.16416656  0.83230667  0.00729949  1
  Sb  Sb85  1  0.82764260  -0.00063436  0.49677091  1
  Sb  Sb86  1  0.16708693  0.83551102  0.65724789  1
  Sb  Sb87  1  0.16465628  0.34005150  0.16942055  1
  Sb  Sb88  1  0.50022305  0.83344764  0.66273579  1
  Sb  Sb89  1  0.16384181  0.66640274  0.84090760  1
  Sb  Sb90  1  0.83122511  0.16197440  0.00522222  1
  Sb  Sb91  1  0.83402404  0.32868142  0.16599265  1
  Sb  Sb92  1  -0.00253324  0.32820211  0.66869742  1
  Sb  Sb93  1  0.83042121  0.16464385  0.66053267  1
  Sb  Sb94  1  -0.00243023  0.50414725  0.49429322  1
  Sb  Sb95  1  -0.00197017  0.16162829  0.84026471  1
  Sb  Sb96  1  0.82758800  0.66714442  0.50270277  1
  Sb  Sb97  1  0.50195085  0.33219490  0.50155355  1
  Sb  Sb98  1  0.83191811  0.50472565  0.32824066  1
  Sb  Sb99  1  0.33565355  0.83191431  0.17132894  1
  Sb  Sb100  1  0.17468299  0.50027636  0.66393669  1
  Sb  Sb101  1  0.67101025  0.33136439  -0.00333011  1
  Sb  Sb102  1  -0.00346545  -0.00849014  0.33600652  1
  Sb  Sb103  1  0.33461034  0.16669290  0.16863502  1
  Sb  Sb104  1  0.50333093  0.67036972  0.83655879  1
  Sb  Sb105  1  0.66729855  0.50483030  0.16784340  1
  Sb  Sb106  1  0.82819110  0.49890970  0.67158483  1
  Sb  Sb107  1  0.16328187  0.33525838  0.83164174  1
  Te  Te108  1  0.16545162  0.16677747  0.16337792  1
  Te  Te109  1  0.16658181  0.16452426  0.49913869  1
  Te  Te110  1  0.16682296  0.16739373  0.84423076  1
  Te  Te111  1  0.16481084  0.50167998  0.16756434  1
  Te  Te112  1  0.16665649  0.49870688  0.49432289  1
  Te  Te113  1  0.17301298  0.49977579  0.83714400  1
  Te  Te114  1  0.16538945  0.82758667  0.17352879  1
  Te  Te115  1  0.16474645  0.83557836  0.49299210  1
  Te  Te116  1  0.15843968  0.83248336  0.83378819  1
  Te  Te117  1  0.50225956  0.17080738  0.16278547  1
  Te  Te118  1  0.50093427  0.16219511  0.49840447  1
  Te  Te119  1  0.49984748  0.16075145  0.84225044  1
  Te  Te120  1  0.50186818  0.50530724  0.16697948  1
  Te  Te121  1  0.50274482  0.49859611  0.49975109  1
  Te  Te122  1  0.49649866  0.49998866  0.83564884  1
  Te  Te123  1  0.50022173  0.82715675  0.16671217  1
  Te  Te124  1  0.50073593  0.83432696  0.50020581  1
  Te  Te125  1  0.49884208  0.83814342  0.84063042  1
  Te  Te126  1  0.83183429  0.16204574  0.17055394  1
  Te  Te127  1  0.83032971  0.17111567  0.49368585  1
  Te  Te128  1  0.83382035  0.16473546  0.83320501  1
  Te  Te129  1  0.83647105  0.49688412  0.16115564  1
  Te  Te130  1  0.82825571  0.49734517  0.50055568  1
  Te  Te131  1  0.83296628  0.49776359  0.83903088  1
  Te  Te132  1  0.83205676  0.83571600  0.16634921  1
  Te  Te133  1  0.83522173  0.83183321  0.49608517  1
  Te  Te134  1  0.83577214  0.83607166  0.83433671  1
  Te  Te135  1  0.16720969  0.00203616  0.00073451  1
  Te  Te136  1  0.16975414  -0.00329667  0.33746310  1
  Te  Te137  1  0.17520785  0.00159479  0.66216215  1
  Te  Te138  1  0.16223997  0.33556658  -0.00040623  1
  Te  Te139  1  0.16644659  0.33439996  0.34074131  1
  Te  Te140  1  0.16833653  0.33267003  0.66111601  1
  Te  Te141  1  0.16441315  0.66255355  0.00681822  1
  Te  Te142  1  0.16605491  0.66768474  0.32961967  1
  Te  Te143  1  0.17473949  0.66683685  0.66756537  1
  Te  Te144  1  0.50366644  -0.00493535  0.00367590  1
  Te  Te145  1  0.50152351  -0.00298495  0.33500532  1
  Te  Te146  1  0.50092581  -0.00012827  0.66598131  1
  Te  Te147  1  0.50016700  0.34431768  -0.00204174  1
  Te  Te148  1  0.49932113  0.34420713  0.33351922  1
  Te  Te149  1  0.50148464  0.33637011  0.66772935  1
  Te  Te150  1  0.50072385  0.66710278  0.00112023  1
  Te  Te151  1  0.50138499  0.66915378  0.33370430  1
  Te  Te152  1  0.49715397  0.66251480  0.66836706  1
  Te  Te153  1  0.83020211  -0.00354465  0.00024105  1
  Te  Te154  1  0.83066040  -0.00339319  0.33104021  1
  Te  Te155  1  0.82976598  0.00089180  0.67319287  1
  Te  Te156  1  0.83707033  0.33124054  -0.00282839  1
  Te  Te157  1  0.83339372  0.33610209  0.33980757  1
  Te  Te158  1  0.82968577  0.33231563  0.66631834  1
  Te  Te159  1  0.83308336  0.66916728  -0.00047926  1
  Te  Te160  1  0.83871023  0.67249560  0.33560840  1
  Te  Te161  1  0.83406642  0.66549344  0.67675857  1
  Te  Te162  1  0.00163696  0.16498091  0.00551206  1
  Te  Te163  1  -0.00570389  0.16821370  0.32598138  1
  Te  Te164  1  0.00069468  0.15829062  0.66696580  1
  Te  Te165  1  -0.00027185  0.50254889  0.00220094  1
  Te  Te166  1  0.00088843  0.50573731  0.32668269  1
  Te  Te167  1  0.00200928  0.49987763  0.66718526  1
  Te  Te168  1  -0.00046626  0.82958367  0.00439479  1
  Te  Te169  1  -0.00068425  0.83184482  0.33059613  1
  Te  Te170  1  0.00007873  0.83830075  0.66209284  1
  Te  Te171  1  0.33567820  0.16630450  -0.00003371  1
  Te  Te172  1  0.33364743  0.16090231  0.33727563  1
  Te  Te173  1  0.33461567  0.16343266  0.66125708  1
  Te  Te174  1  0.33365136  0.50026634  0.00154162  1
  Te  Te175  1  0.33387854  0.49952885  0.32915741  1
  Te  Te176  1  0.33767164  0.49890206  0.66537922  1
  Te  Te177  1  0.33273072  0.83669660  -0.00098487  1
  Te  Te178  1  0.33927368  0.83728849  0.33580446  1
  Te  Te179  1  0.33334581  0.83744222  0.66243631  1
  Te  Te180  1  0.66290199  0.16308712  0.00345857  1
  Te  Te181  1  0.66879631  0.16176192  0.33330811  1
  Te  Te182  1  0.66518497  0.16556806  0.66061813  1
  Te  Te183  1  0.66629232  0.49937539  0.00059280  1
  Te  Te184  1  0.66362673  0.50052125  0.33632751  1
  Te  Te185  1  0.66082849  0.50089753  0.66261348  1
  Te  Te186  1  0.66847210  0.83543064  0.00028179  1
  Te  Te187  1  0.66622530  0.83485891  0.33146231  1
  Te  Te188  1  0.66584762  0.83791746  0.65711121  1
  Te  Te189  1  -0.00480002  -0.00244970  0.16770332  1
  Te  Te190  1  -0.00337029  -0.00383644  0.50410874  1
  Te  Te191  1  0.00004428  -0.00522007  0.82829089  1
  Te  Te192  1  0.00015341  0.32780290  0.16112049  1
  Te  Te193  1  -0.00097959  0.33313682  0.50110355  1
  Te  Te194  1  -0.00520505  0.33281644  0.83695651  1
  Te  Te195  1  -0.00181474  0.66938619  0.16616846  1
  Te  Te196  1  -0.00013526  0.67302711  0.49990211  1
  Te  Te197  1  -0.00358279  0.67242021  0.83542536  1
  Te  Te198  1  0.33126823  0.00090398  0.16047128  1
  Te  Te199  1  0.33584118  -0.00187794  0.49836740  1
  Te  Te200  1  0.33708130  -0.00060048  0.83939008  1
  Te  Te201  1  0.33301872  0.34044586  0.16709782  1
  Te  Te202  1  0.33083095  0.33243269  0.50464143  1
  Te  Te203  1  0.33256990  0.33810589  0.82502296  1
  Te  Te204  1  0.33457203  0.66284357  0.16675909  1
  Te  Te205  1  0.33925143  0.67008157  0.50350330  1
  Te  Te206  1  0.33273975  0.66374930  0.82775901  1
  Te  Te207  1  0.66842084  -0.00244089  0.16733142  1
  Te  Te208  1  0.66789958  0.00004038  0.49827454  1
  Te  Te209  1  0.66542882  0.00000558  0.82985198  1
  Te  Te210  1  0.66785485  0.32522259  0.16690373  1
  Te  Te211  1  0.66820377  0.33356649  0.50344231  1
  Te  Te212  1  0.67270445  0.33166999  0.82566259  1
  Te  Te213  1  0.65978493  0.67098616  0.16191894  1
  Te  Te214  1  0.66077542  0.66484879  0.50026995  1
  Te  Te215  1  0.67240098  0.66772173  0.83922634  1
