# generated using pymatgen
data_AgSbTe2
_symmetry_space_group_name_H-M   'P 1'
_cell_length_a   18.34207365
_cell_length_b   18.34030295
_cell_length_c   18.34000505
_cell_angle_alpha   89.99760294
_cell_angle_beta   90.00166103
_cell_angle_gamma   90.00040175
_symmetry_Int_Tables_number   1
_chemical_formula_structural   AgSbTe2
_chemical_formula_sum   'Ag54 Sb54 Te108'
_cell_volume   6169.56279129
_cell_formula_units_Z   54
loop_
 _symmetry_equiv_pos_site_id
 _symmetry_equiv_pos_as_xyz
  1  'x, y, z'
loop_
 _atom_site_type_symbol
 _atom_site_label
 _atom_site_symmetry_multiplicity
 _atom_site_fract_x
 _atom_site_fract_y
 _atom_site_fract_z
 _atom_site_occupancy
  Ag  Ag0  1  0.32997095  0.01473531  0.33118903  1
  Ag  Ag1  1  0.66899990  0.32702452  0.00555948  1
  Ag  Ag2  1  0.16886354  0.00726384  0.16099521  1
  Ag  Ag3  1  0.83378227  0.33188269  0.16439825  1
  Ag  Ag4  1  0.33521119  0.32976483  0.66772258  1
  Ag  Ag5  1  0.16923678  0.84701152  0.00115102  1
  Ag  Ag6  1  0.49850494  0.65493443  0.83386133  1
  Ag  Ag7  1  0.66375396  0.16719784  0.49688317  1
  Ag  Ag8  1  0.48817137  0.00923803  0.16557417  1
  Ag  Ag9  1  0.83265975  0.01143215  0.50204701  1
  Ag  Ag10  1  0.33527469  0.32885509  0.32994017  1
  Ag  Ag11  1  0.16798470  0.00104780  0.84298809  1
  Ag  Ag12  1  0.82198783  0.17010457  0.00007740  1
  Ag  Ag13  1  0.49117217  0.48921638  0.67402293  1
  Ag  Ag14  1  0.33228456  0.16980162  0.16925772  1
  Ag  Ag15  1  0.83593728  0.32919567  0.49413814  1
  Ag  Ag16  1  0.16737077  0.33290191  0.49562280  1
  Ag  Ag17  1  0.32712521  0.48800667  0.16010834  1
  Ag  Ag18  1  0.33702827  0.16931847  0.48471960  1
  Ag  Ag19  1  0.32987200  0.33323590  0.00523806  1
  Ag  Ag20  1  0.00130681  0.32955716  0.00192583  1
  Ag  Ag21  1  0.66876285  0.65214185  0.33366107  1
  Ag  Ag22  1  0.65795786  0.16876485  0.16027309  1
  Ag  Ag23  1  0.16589536  0.49471105  0.00222261  1
  Ag  Ag24  1  0.49803945  0.17034969  0.66844463  1
  Ag  Ag25  1  0.33195358  0.83358847  0.83503886  1
  Ag  Ag26  1  0.50922228  0.16872727  0.00769417  1
  Ag  Ag27  1  0.84297811  0.48601842  0.00447296  1
  Ag  Ag28  1  0.82943243  0.16549794  0.66733137  1
  Ag  Ag29  1  0.67198946  0.01433456  0.00096688  1
  Ag  Ag30  1  0.16622200  0.16911356  0.00534803  1
  Ag  Ag31  1  0.00940976  0.49138579  0.16027440  1
  Ag  Ag32  1  0.65887380  0.33203922  0.32939248  1
  Ag  Ag33  1  0.49502346  0.48870833  0.33248896  1
  Ag  Ag34  1  0.00931004  0.50035294  0.84137963  1
  Ag  Ag35  1  0.17745203  0.17001855  0.32426710  1
  Ag  Ag36  1  0.67047381  0.84395451  0.49910885  1
  Ag  Ag37  1  0.33002431  0.49836020  0.84203730  1
  Ag  Ag38  1  0.32861358  0.01295729  0.66803446  1
  Ag  Ag39  1  0.83622922  0.49559580  0.32666620  1
  Ag  Ag40  1  0.49735446  0.33404001  0.83425492  1
  Ag  Ag41  1  0.17074223  0.49686229  0.67727287  1
  Ag  Ag42  1  0.16819759  0.49357244  0.32414372  1
  Ag  Ag43  1  0.83471813  0.84724446  0.66573941  1
  Ag  Ag44  1  0.00874505  0.17201789  0.16160845  1
  Ag  Ag45  1  0.33212218  0.65270073  -0.00344756  1
  Ag  Ag46  1  0.16795597  0.84138721  0.32972380  1
  Ag  Ag47  1  0.00404541  0.01271362  -0.00167077  1
  Ag  Ag48  1  -0.00089828  0.65938067  0.33382272  1
  Ag  Ag49  1  0.83168467  0.66326678  0.83301355  1
  Ag  Ag50  1  -0.00195411  0.66507001  0.66826765  1
  Ag  Ag51  1  0.66522990  0.16721145  0.84714573  1
  Ag  Ag52  1  0.49027190  0.17109458  0.32296706  1
  Ag  Ag53  1  0.00346562  0.00229285  0.67307101  1
  Sb  Sb54  1  0.00461547  0.82946024  0.83390907  1
  Sb  Sb55  1  0.16628513  0.66502254  0.16584222  1
  Sb  Sb56  1  0.00511026  -0.00024476  0.33088168  1
  Sb  Sb57  1  0.66700372  0.49302882  0.49711111  1
  Sb  Sb58  1  0.49236290  0.84019108  -0.00253721  1
  Sb  Sb59  1  -0.00252941  0.83499186  0.50070466  1
  Sb  Sb60  1  0.16844256  0.16972016  0.66839928  1
  Sb  Sb61  1  0.66629994  0.00519052  0.66955505  1
  Sb  Sb62  1  0.66361440  0.83752800  0.83134453  1
  Sb  Sb63  1  0.00270743  0.33659847  0.32503532  1
  Sb  Sb64  1  0.66353469  0.49434230  0.83540981  1
  Sb  Sb65  1  0.16645506  0.32724367  0.16781442  1
  Sb  Sb66  1  0.66741743  0.84213878  0.17041710  1
  Sb  Sb67  1  0.16360724  0.83180743  0.66679460  1
  Sb  Sb68  1  0.49478164  0.00745917  0.83694132  1
  Sb  Sb69  1  0.50101731  0.66457112  0.50349897  1
  Sb  Sb70  1  0.00083041  0.16798847  0.49586425  1
  Sb  Sb71  1  0.33242888  0.65815990  0.32726584  1
  Sb  Sb72  1  0.66945131  0.66639587  0.66399481  1
  Sb  Sb73  1  0.83619197  0.49386279  0.66890455  1
  Sb  Sb74  1  0.49541899  0.49020498  0.00095115  1
  Sb  Sb75  1  0.50201730  0.83700015  0.66870450  1
  Sb  Sb76  1  0.00082421  0.49778260  0.49737640  1
  Sb  Sb77  1  0.33747850  0.17160657  0.83855972  1
  Sb  Sb78  1  0.66422922  0.48998076  0.16790499  1
  Sb  Sb79  1  0.00395151  0.66062428  -0.00007071  1
  Sb  Sb80  1  0.16379215  0.00675188  0.49872234  1
  Sb  Sb81  1  0.66232040  0.00948165  0.33027227  1
  Sb  Sb82  1  0.83880488  0.83827933  -0.00561357  1
  Sb  Sb83  1  0.32987996  0.66084370  0.67270175  1
  Sb  Sb84  1  -0.00325504  0.17055761  0.84100802  1
  Sb  Sb85  1  0.49621953  0.83614577  0.33356820  1
  Sb  Sb86  1  0.83415669  0.65642842  0.16297003  1
  Sb  Sb87  1  0.33167172  0.49069604  0.49925277  1
  Sb  Sb88  1  0.83223009  0.17415751  0.33107739  1
  Sb  Sb89  1  0.66321241  0.66135892  0.00338273  1
  Sb  Sb90  1  0.00246858  0.83443085  0.16532594  1
  Sb  Sb91  1  0.33555027  0.84420470  0.50288429  1
  Sb  Sb92  1  0.83270925  0.66337201  0.50213169  1
  Sb  Sb93  1  0.83790603  -0.00026061  0.83042833  1
  Sb  Sb94  1  0.49956700  0.32759677  0.16408714  1
  Sb  Sb95  1  0.49855010  0.66683574  0.16326418  1
  Sb  Sb96  1  0.33039270  0.83806248  0.16226216  1
  Sb  Sb97  1  0.32898557  0.00931985  0.00116603  1
  Sb  Sb98  1  0.50369100  0.00620015  0.49679034  1
  Sb  Sb99  1  0.66232758  0.32983706  0.66602011  1
  Sb  Sb100  1  0.49842397  0.32992242  0.50012518  1
  Sb  Sb101  1  0.00323026  0.33217445  0.67251915  1
  Sb  Sb102  1  0.83688649  0.82801036  0.33810655  1
  Sb  Sb103  1  0.82914002  0.33455279  0.83820202  1
  Sb  Sb104  1  0.16766271  0.66517939  0.83525840  1
  Sb  Sb105  1  0.83716925  0.01056203  0.16881604  1
  Sb  Sb106  1  0.17201312  0.33198093  0.83572501  1
  Sb  Sb107  1  0.16714300  0.66034486  0.49866677  1
  Te  Te108  1  0.16827609  0.16640642  0.16678771  1
  Te  Te109  1  0.17013217  0.17214756  0.49910596  1
  Te  Te110  1  0.16528460  0.16219523  0.83630419  1
  Te  Te111  1  0.16768297  0.50093787  0.16429346  1
  Te  Te112  1  0.16667793  0.49331743  0.49688489  1
  Te  Te113  1  0.16881410  0.49911292  0.83631355  1
  Te  Te114  1  0.16626169  0.83960189  0.16700609  1
  Te  Te115  1  0.16802384  0.83329706  0.49338345  1
  Te  Te116  1  0.17175023  0.83624013  0.83532202  1
  Te  Te117  1  0.49890229  0.16546220  0.16677207  1
  Te  Te118  1  0.49836011  0.16603970  0.50610057  1
  Te  Te119  1  0.50376367  0.17055530  0.82929692  1
  Te  Te120  1  0.49379266  0.50220667  0.17216835  1
  Te  Te121  1  0.49940751  0.50047347  0.49570022  1
  Te  Te122  1  0.49701494  0.49616052  0.83453438  1
  Te  Te123  1  0.49956963  0.84317777  0.16613363  1
  Te  Te124  1  0.50901474  0.83423911  0.50153026  1
  Te  Te125  1  0.49462737  0.82930981  0.83266704  1
  Te  Te126  1  0.83355887  0.17111552  0.16308901  1
  Te  Te127  1  0.83504702  0.16891185  0.49832103  1
  Te  Te128  1  0.82836512  0.16702522  0.83383778  1
  Te  Te129  1  0.83198072  0.49331414  0.16544433  1
  Te  Te130  1  0.83315134  0.49270926  0.49603747  1
  Te  Te131  1  0.83147457  0.50219261  0.83567683  1
  Te  Te132  1  0.83421264  0.83277200  0.16652526  1
  Te  Te133  1  0.83012625  0.83156530  0.50569423  1
  Te  Te134  1  0.83222045  0.82861222  0.82662991  1
  Te  Te135  1  0.16729812  0.00325356  0.00071887  1
  Te  Te136  1  0.16960645  0.00265984  0.33325451  1
  Te  Te137  1  0.16693076  -0.00127777  0.66637576  1
  Te  Te138  1  0.16792682  0.33378021  -0.00093728  1
  Te  Te139  1  0.16774091  0.33278365  0.33453513  1
  Te  Te140  1  0.17057172  0.33724755  0.66487844  1
  Te  Te141  1  0.17144554  0.65999267  -0.00022874  1
  Te  Te142  1  0.16331272  0.65861190  0.33329767  1
  Te  Te143  1  0.15968868  0.66113707  0.66606171  1
  Te  Te144  1  0.50140383  0.00682336  0.00363047  1
  Te  Te145  1  0.49409182  0.00474518  0.32929136  1
  Te  Te146  1  0.49387380  0.00515316  0.66745310  1
  Te  Te147  1  0.49964812  0.32835973  -0.00252667  1
  Te  Te148  1  0.49902576  0.33075209  0.33420195  1
  Te  Te149  1  0.49687271  0.33211762  0.66715355  1
  Te  Te150  1  0.49581824  0.66812066  -0.00528780  1
  Te  Te151  1  0.50492037  0.66648817  0.33307522  1
  Te  Te152  1  0.50024003  0.66466789  0.67202231  1
  Te  Te153  1  0.83733780  0.00457201  -0.00040879  1
  Te  Te154  1  0.83532663  -0.00229797  0.33928355  1
  Te  Te155  1  0.83334913  0.00417668  0.66496074  1
  Te  Te156  1  0.83272976  0.33017359  -0.00140368  1
  Te  Te157  1  0.83686362  0.33696982  0.33317343  1
  Te  Te158  1  0.83339037  0.32750135  0.66415868  1
  Te  Te159  1  0.83300993  0.66929793  -0.00478030  1
  Te  Te160  1  0.83327766  0.66051794  0.33295982  1
  Te  Te161  1  0.83696878  0.66103715  0.67028448  1
  Te  Te162  1  0.00683250  0.16887176  0.00107785  1
  Te  Te163  1  0.00362115  0.16572229  0.32561712  1
  Te  Te164  1  -0.00298320  0.16360425  0.66860765  1
  Te  Te165  1  0.00126516  0.50018337  0.00127646  1
  Te  Te166  1  0.00210034  0.50062921  0.33110786  1
  Te  Te167  1  0.00251325  0.50064742  0.66941802  1
  Te  Te168  1  0.00821292  0.83639624  0.00019792  1
  Te  Te169  1  0.00672397  0.82758805  0.33303753  1
  Te  Te170  1  -0.00432048  0.83406620  0.66745577  1
  Te  Te171  1  0.32783159  0.17248909  0.00321213  1
  Te  Te172  1  0.33400905  0.17022401  0.32978952  1
  Te  Te173  1  0.33338949  0.16943298  0.67333225  1
  Te  Te174  1  0.33416753  0.49429078  0.00134724  1
  Te  Te175  1  0.33247410  0.49565756  0.33261483  1
  Te  Te176  1  0.33252049  0.49622547  0.66545889  1
  Te  Te177  1  0.32740365  0.83371495  -0.00455607  1
  Te  Te178  1  0.32805091  0.82981048  0.33403631  1
  Te  Te179  1  0.33278491  0.83430060  0.67115888  1
  Te  Te180  1  0.66560491  0.16994883  0.00354998  1
  Te  Te181  1  0.66534989  0.17198792  0.33689751  1
  Te  Te182  1  0.66787453  0.16660810  0.65644386  1
  Te  Te183  1  0.67377002  0.49474658  0.00134814  1
  Te  Te184  1  0.66497439  0.49441329  0.33216878  1
  Te  Te185  1  0.65792243  0.49924863  0.66586802  1
  Te  Te186  1  0.66689989  0.83442036  0.00067827  1
  Te  Te187  1  0.66733784  0.83713820  0.33802967  1
  Te  Te188  1  0.67255065  0.83480419  0.66242832  1
  Te  Te189  1  0.00469070  0.00382402  0.16296345  1
  Te  Te190  1  -0.00622508  0.00067584  0.50557585  1
  Te  Te191  1  0.00486172  -0.00114305  0.83417459  1
  Te  Te192  1  -0.00489537  0.33398931  0.16087749  1
  Te  Te193  1  -0.00047514  0.33219143  0.50400649  1
  Te  Te194  1  -0.00020906  0.34076480  0.84020164  1
  Te  Te195  1  -0.00109018  0.66161320  0.17176800  1
  Te  Te196  1  -0.00013815  0.66690219  0.50137314  1
  Te  Te197  1  -0.00244184  0.66194092  0.83192540  1
  Te  Te198  1  0.32984982  0.00328375  0.16843709  1
  Te  Te199  1  0.33288465  0.00801337  0.50130393  1
  Te  Te200  1  0.33010210  -0.00109076  0.83144032  1
  Te  Te201  1  0.33423777  0.33112744  0.16825965  1
  Te  Te202  1  0.33054613  0.32771273  0.49938809  1
  Te  Te203  1  0.33654782  0.33727646  0.83039242  1
  Te  Te204  1  0.33397133  0.66427710  0.15849897  1
  Te  Te205  1  0.33424261  0.67304104  0.50070750  1
  Te  Te206  1  0.33475698  0.66049348  0.83604156  1
  Te  Te207  1  0.66903423  0.00725457  0.16217591  1
  Te  Te208  1  0.67119033  0.00336839  0.49957578  1
  Te  Te209  1  0.66568620  0.00463673  0.83965259  1
  Te  Te210  1  0.67046289  0.32823709  0.16808248  1
  Te  Te211  1  0.67197748  0.32814851  0.49610131  1
  Te  Te212  1  0.66060199  0.32750053  0.83580877  1
  Te  Te213  1  0.66603154  0.67047920  0.17368270  1
  Te  Te214  1  0.66699202  0.66715988  0.49353274  1
  Te  Te215  1  0.66532025  0.66780232  0.83355670  1
