# generated using pymatgen
data_AgSbTe2
_symmetry_space_group_name_H-M   'P 1'
_cell_length_a   18.32552866
_cell_length_b   18.31961127
_cell_length_c   18.32694632
_cell_angle_alpha   90.00335771
_cell_angle_beta   90.00020652
_cell_angle_gamma   90.00111460
_symmetry_Int_Tables_number   1
_chemical_formula_structural   AgSbTe2
_chemical_formula_sum   'Ag54 Sb54 Te108'
_cell_volume   6152.65938582
_cell_formula_units_Z   54
loop_
 _symmetry_equiv_pos_site_id
 _symmetry_equiv_pos_as_xyz
  1  'x, y, z'
loop_
 _atom_site_type_symbol
 _atom_site_label
 _atom_site_symmetry_multiplicity
 _atom_site_fract_x
 _atom_site_fract_y
 _atom_site_fract_z
 _atom_site_occupancy
  Ag  Ag0  1  0.83665697  0.17569147  -0.00372046  1
  Ag  Ag1  1  0.67297512  0.33776455  0.67437841  1
  Ag  Ag2  1  0.16606143  0.66262888  0.50147874  1
  Ag  Ag3  1  0.16120916  0.17568764  -0.00327935  1
  Ag  Ag4  1  -0.00232696  0.17732864  0.50379063  1
  Ag  Ag5  1  -0.01038127  0.33193520  0.66212232  1
  Ag  Ag6  1  0.49845389  0.82413198  -0.00177803  1
  Ag  Ag7  1  0.33522654  0.50221583  0.16535490  1
  Ag  Ag8  1  0.83511050  0.17032357  0.33958661  1
  Ag  Ag9  1  0.17719071  0.66551530  0.84130540  1
  Ag  Ag10  1  0.82322838  0.33255976  0.82673800  1
  Ag  Ag11  1  -0.00002381  0.00747860  0.33400698  1
  Ag  Ag12  1  0.66828594  0.82134789  0.51061689  1
  Ag  Ag13  1  0.34205057  0.82325863  0.83712348  1
  Ag  Ag14  1  0.65972830  0.50054939  0.16161942  1
  Ag  Ag15  1  0.33765385  0.50089282  0.49203685  1
  Ag  Ag16  1  0.49614949  -0.00337635  0.16767581  1
  Ag  Ag17  1  0.16532804  0.66600833  0.15845921  1
  Ag  Ag18  1  0.66762988  0.18111599  0.83114646  1
  Ag  Ag19  1  -0.00220242  0.49556127  0.49856720  1
  Ag  Ag20  1  0.50296307  0.17624853  0.33737355  1
  Ag  Ag21  1  0.33489832  0.65781813  0.33152317  1
  Ag  Ag22  1  0.49427068  0.50083150  0.00209964  1
  Ag  Ag23  1  0.51004285  0.34118693  0.83177136  1
  Ag  Ag24  1  0.16689500  -0.00656948  0.16419257  1
  Ag  Ag25  1  0.50654666  0.33759066  0.50330565  1
  Ag  Ag26  1  0.50635304  0.17213658  0.66503984  1
  Ag  Ag27  1  0.33035411  0.66235195  -0.00232136  1
  Ag  Ag28  1  0.17537208  0.50291962  0.00066786  1
  Ag  Ag29  1  0.33615917  0.66558705  0.67788015  1
  Ag  Ag30  1  0.83543439  0.17444043  0.66659727  1
  Ag  Ag31  1  -0.00229910  0.33571660  -0.00277489  1
  Ag  Ag32  1  -0.00411831  0.49646552  0.83899529  1
  Ag  Ag33  1  0.66515984  0.82653082  0.83189133  1
  Ag  Ag34  1  -0.00093568  0.33269894  0.34224368  1
  Ag  Ag35  1  0.83244861  0.65934543  0.49988489  1
  Ag  Ag36  1  0.66532412  0.65835797  0.66794053  1
  Ag  Ag37  1  -0.00108114  0.01364308  0.66230807  1
  Ag  Ag38  1  0.66620594  0.50013602  0.50532797  1
  Ag  Ag39  1  0.66862615  0.33704616  -0.01206161  1
  Ag  Ag40  1  0.83464357  0.33763493  0.50794545  1
  Ag  Ag41  1  0.00213576  0.82648310  0.16449175  1
  Ag  Ag42  1  0.16667349  0.82078802  0.00097872  1
  Ag  Ag43  1  0.49677706  0.66216350  0.83466851  1
  Ag  Ag44  1  0.83275640  0.83173040  -0.00431713  1
  Ag  Ag45  1  0.83908263  0.66551519  0.16592638  1
  Ag  Ag46  1  0.49527848  0.49849240  0.33066391  1
  Ag  Ag47  1  0.83142858  0.83434606  0.67042129  1
  Ag  Ag48  1  0.49978443  0.82729241  0.32825587  1
  Ag  Ag49  1  0.15450330  0.16844097  0.67033470  1
  Ag  Ag50  1  0.33508207  0.34415397  0.00024653  1
  Ag  Ag51  1  0.00244368  0.50271388  0.16553888  1
  Ag  Ag52  1  0.33721546  0.34092367  0.33210736  1
  Ag  Ag53  1  0.66696632  0.49448595  0.83334128  1
  Sb  Sb54  1  0.67105806  0.17432079  0.50587899  1
  Sb  Sb55  1  0.83207456  0.49608537  0.33502317  1
  Sb  Sb56  1  0.50168767  0.00483178  0.49635836  1
  Sb  Sb57  1  0.32915672  -0.00414727  0.66711102  1
  Sb  Sb58  1  0.33180338  0.00071000  0.33040406  1
  Sb  Sb59  1  0.00369022  0.66205548  0.33141340  1
  Sb  Sb60  1  0.66290535  0.66015334  -0.00624790  1
  Sb  Sb61  1  -0.00394985  0.66167282  0.66581336  1
  Sb  Sb62  1  0.33774889  0.50415631  0.83741905  1
  Sb  Sb63  1  0.33749027  0.82116008  0.50299538  1
  Sb  Sb64  1  -0.00502988  0.17622332  0.82877199  1
  Sb  Sb65  1  0.16181828  0.34056138  0.50142989  1
  Sb  Sb66  1  0.49788632  0.66589705  0.16275290  1
  Sb  Sb67  1  0.17236107  0.50070087  0.32731560  1
  Sb  Sb68  1  0.00142098  0.00358552  0.00075190  1
  Sb  Sb69  1  0.83555265  -0.00407994  0.16651051  1
  Sb  Sb70  1  0.83033401  0.83476673  0.33415531  1
  Sb  Sb71  1  -0.00512592  0.82987566  0.49717539  1
  Sb  Sb72  1  0.16463659  -0.00392591  0.83844051  1
  Sb  Sb73  1  -0.00313659  0.82614579  0.83840551  1
  Sb  Sb74  1  0.33023276  0.82400847  0.16146681  1
  Sb  Sb75  1  0.83408198  0.00570717  0.83276346  1
  Sb  Sb76  1  0.33644449  0.16728335  0.83366517  1
  Sb  Sb77  1  0.33573747  0.33936138  0.66792916  1
  Sb  Sb78  1  0.50171212  -0.00058744  0.83723886  1
  Sb  Sb79  1  -0.00031084  0.16943812  0.16904044  1
  Sb  Sb80  1  0.66571065  0.33596197  0.33627077  1
  Sb  Sb81  1  0.50141427  0.65816704  0.50446158  1
  Sb  Sb82  1  0.16650638  0.33892760  0.83578819  1
  Sb  Sb83  1  0.49989666  0.33557194  0.16659953  1
  Sb  Sb84  1  0.82956968  0.66171130  0.83193953  1
  Sb  Sb85  1  0.16447279  0.16804278  0.33264430  1
  Sb  Sb86  1  0.66193709  0.66436476  0.33792154  1
  Sb  Sb87  1  0.16560661  0.33854996  0.16324841  1
  Sb  Sb88  1  0.33292040  0.17328596  0.16595969  1
  Sb  Sb89  1  0.16285144  -0.00335108  0.49664752  1
  Sb  Sb90  1  0.66650621  0.17372429  0.16302695  1
  Sb  Sb91  1  0.16947602  0.83037548  0.32757031  1
  Sb  Sb92  1  0.33264156  -0.00326383  0.00146697  1
  Sb  Sb93  1  0.66861996  0.00087735  0.33302071  1
  Sb  Sb94  1  0.16115895  0.83275788  0.67182154  1
  Sb  Sb95  1  0.66795427  0.82566739  0.16281146  1
  Sb  Sb96  1  0.50068008  0.17318589  -0.00015882  1
  Sb  Sb97  1  0.83465546  0.33908234  0.16560148  1
  Sb  Sb98  1  0.83405161  0.00386372  0.50077589  1
  Sb  Sb99  1  0.67157947  0.00273528  0.66710447  1
  Sb  Sb100  1  0.83245319  0.49888101  0.00075045  1
  Sb  Sb101  1  0.50185500  0.49623253  0.66941811  1
  Sb  Sb102  1  0.83147260  0.49649159  0.66510476  1
  Sb  Sb103  1  0.50604392  0.83469242  0.66856228  1
  Sb  Sb104  1  0.00464484  0.65878715  0.00139957  1
  Sb  Sb105  1  0.16656139  0.49890903  0.67131321  1
  Sb  Sb106  1  0.33060292  0.17645112  0.50058120  1
  Sb  Sb107  1  0.66602395  0.00267886  0.00037458  1
  Te  Te108  1  0.16667437  0.16242144  0.16154146  1
  Te  Te109  1  0.16127001  0.16531407  0.50351758  1
  Te  Te110  1  0.16786576  0.16495040  0.83503296  1
  Te  Te111  1  0.16443097  0.50441895  0.16169712  1
  Te  Te112  1  0.16243303  0.50421263  0.50129736  1
  Te  Te113  1  0.16346834  0.50522815  0.83835724  1
  Te  Te114  1  0.16428205  0.82932674  0.16181697  1
  Te  Te115  1  0.16671780  0.82541566  0.50120976  1
  Te  Te116  1  0.16542604  0.82786256  0.84002496  1
  Te  Te117  1  0.50040132  0.16133320  0.17090462  1
  Te  Te118  1  0.50038930  0.17247604  0.49882339  1
  Te  Te119  1  0.50482636  0.16764374  0.83102591  1
  Te  Te120  1  0.49968077  0.50130034  0.16475272  1
  Te  Te121  1  0.50252557  0.49609572  0.49914517  1
  Te  Te122  1  0.50321974  0.50026468  0.83586317  1
  Te  Te123  1  0.49974097  0.83391860  0.16486496  1
  Te  Te124  1  0.50570468  0.83505905  0.49883919  1
  Te  Te125  1  0.50122483  0.83275587  0.83543526  1
  Te  Te126  1  0.83157143  0.16487400  0.16224842  1
  Te  Te127  1  0.83580695  0.17031977  0.50079199  1
  Te  Te128  1  0.82953038  0.17137812  0.83486618  1
  Te  Te129  1  0.83756084  0.50656466  0.16861087  1
  Te  Te130  1  0.83280871  0.49857359  0.49900070  1
  Te  Te131  1  0.83229723  0.49414199  0.83414211  1
  Te  Te132  1  0.83706473  0.82834956  0.16507143  1
  Te  Te133  1  0.82900491  0.82946867  0.50135780  1
  Te  Te134  1  0.83101154  0.83258647  0.83486701  1
  Te  Te135  1  0.16668600  0.00260935  0.00554606  1
  Te  Te136  1  0.16094480  -0.00070105  0.32689479  1
  Te  Te137  1  0.16093183  0.00472175  0.66640390  1
  Te  Te138  1  0.16716485  0.33459656  -0.00043125  1
  Te  Te139  1  0.16726144  0.33234731  0.33338367  1
  Te  Te140  1  0.16730977  0.32705064  0.66866079  1
  Te  Te141  1  0.16824610  0.66443087  -0.00044180  1
  Te  Te142  1  0.17319010  0.66706225  0.33752955  1
  Te  Te143  1  0.16890289  0.66757502  0.66504258  1
  Te  Te144  1  0.49894835  -0.00333482  0.00572608  1
  Te  Te145  1  0.49990820  0.00096817  0.32884741  1
  Te  Te146  1  0.49821815  0.00990704  0.66610745  1
  Te  Te147  1  0.49909644  0.33627237  -0.00090401  1
  Te  Te148  1  0.49929478  0.33554133  0.33402411  1
  Te  Te149  1  0.49948808  0.33031152  0.66711365  1
  Te  Te150  1  0.49677297  0.66551493  -0.00286280  1
  Te  Te151  1  0.49514105  0.66464993  0.33377083  1
  Te  Te152  1  0.50178985  0.66928155  0.67282437  1
  Te  Te153  1  0.83380290  -0.00365404  0.00055343  1
  Te  Te154  1  0.83975995  0.00661580  0.33282538  1
  Te  Te155  1  0.83943974  -0.00090412  0.66632789  1
  Te  Te156  1  0.83381918  0.33311752  -0.00043621  1
  Te  Te157  1  0.83626522  0.32920712  0.33532430  1
  Te  Te158  1  0.83256505  0.33251663  0.66694006  1
  Te  Te159  1  0.83318748  0.67193827  0.00147550  1
  Te  Te160  1  0.83382996  0.66762693  0.33649594  1
  Te  Te161  1  0.82908598  0.67152299  0.66373882  1
  Te  Te162  1  -0.00112406  0.17097124  -0.00097978  1
  Te  Te163  1  -0.00126693  0.17085637  0.33558728  1
  Te  Te164  1  -0.00280494  0.17103704  0.66639249  1
  Te  Te165  1  -0.00158732  0.49524217  0.00186461  1
  Te  Te166  1  0.00033020  0.49484961  0.33302661  1
  Te  Te167  1  0.00099497  0.49371864  0.66295967  1
  Te  Te168  1  -0.00002804  0.83597854  0.00377813  1
  Te  Te169  1  0.00008587  0.83539536  0.32800257  1
  Te  Te170  1  -0.00701657  0.83272949  0.66717155  1
  Te  Te171  1  0.32966257  0.17140102  -0.00107453  1
  Te  Te172  1  0.33802660  0.17239714  0.33393539  1
  Te  Te173  1  0.33428918  0.16549832  0.66688783  1
  Te  Te174  1  0.33427243  0.50128750  -0.00016024  1
  Te  Te175  1  0.33491361  0.49841527  0.33196070  1
  Te  Te176  1  0.33309284  0.50726806  0.65873377  1
  Te  Te177  1  0.33446279  0.83046998  -0.00298954  1
  Te  Te178  1  0.34014425  0.83206475  0.33370057  1
  Te  Te179  1  0.33208630  0.82743503  0.67191282  1
  Te  Te180  1  0.66978846  0.17144176  -0.00490316  1
  Te  Te181  1  0.66693208  0.16729371  0.33368190  1
  Te  Te182  1  0.66897982  0.16920192  0.66972622  1
  Te  Te183  1  0.66519609  0.49716081  -0.00194088  1
  Te  Te184  1  0.65973902  0.50012927  0.33331917  1
  Te  Te185  1  0.66594609  0.49927527  0.66708974  1
  Te  Te186  1  0.66569821  0.83233265  -0.00275847  1
  Te  Te187  1  0.66043096  0.83274853  0.33216797  1
  Te  Te188  1  0.67032521  0.83592034  0.66792585  1
  Te  Te189  1  0.00277087  -0.00094137  0.16873508  1
  Te  Te190  1  0.00030025  0.00013378  0.49859811  1
  Te  Te191  1  0.00029282  -0.00101411  0.82516377  1
  Te  Te192  1  -0.00033221  0.33830918  0.16379735  1
  Te  Te193  1  -0.00081127  0.33463482  0.50094985  1
  Te  Te194  1  0.00107797  0.33887873  0.83505714  1
  Te  Te195  1  0.00166527  0.66534158  0.16699089  1
  Te  Te196  1  -0.00208854  0.66124548  0.49894113  1
  Te  Te197  1  0.00155830  0.65722220  0.83242036  1
  Te  Te198  1  0.33174295  0.00079334  0.16734356  1
  Te  Te199  1  0.33185946  -0.00059315  0.49933699  1
  Te  Te200  1  0.33335922  -0.01053206  0.83308383  1
  Te  Te201  1  0.33303827  0.34080151  0.16618562  1
  Te  Te202  1  0.33593562  0.34054096  0.49774020  1
  Te  Te203  1  0.33850012  0.33381325  0.83753131  1
  Te  Te204  1  0.33094746  0.66143377  0.16570939  1
  Te  Te205  1  0.33310422  0.66103920  0.49618780  1
  Te  Te206  1  0.33485112  0.66577586  0.83489308  1
  Te  Te207  1  0.66112171  -0.00017879  0.16712953  1
  Te  Te208  1  0.66688891  -0.01207962  0.49962464  1
  Te  Te209  1  0.66712378  -0.01146620  0.83353951  1
  Te  Te210  1  0.66711546  0.34155618  0.16101349  1
  Te  Te211  1  0.66767380  0.33749831  0.50333422  1
  Te  Te212  1  0.66598911  0.33656747  0.83168960  1
  Te  Te213  1  0.67183694  0.65923258  0.16643444  1
  Te  Te214  1  0.66837519  0.66263714  0.50418868  1
  Te  Te215  1  0.66500032  0.66619548  0.82804895  1
