# generated using pymatgen
data_AgSbTe2
_symmetry_space_group_name_H-M   'P 1'
_cell_length_a   18.33219627
_cell_length_b   18.33253250
_cell_length_c   18.33674291
_cell_angle_alpha   90.00322230
_cell_angle_beta   90.00098238
_cell_angle_gamma   89.99688946
_symmetry_Int_Tables_number   1
_chemical_formula_structural   AgSbTe2
_chemical_formula_sum   'Ag54 Sb54 Te108'
_cell_volume   6162.53156004
_cell_formula_units_Z   54
loop_
 _symmetry_equiv_pos_site_id
 _symmetry_equiv_pos_as_xyz
  1  'x, y, z'
loop_
 _atom_site_type_symbol
 _atom_site_label
 _atom_site_symmetry_multiplicity
 _atom_site_fract_x
 _atom_site_fract_y
 _atom_site_fract_z
 _atom_site_occupancy
  Ag  Ag0  1  0.83592383  0.66646795  0.49189842  1
  Ag  Ag1  1  0.32769900  -0.00303241  0.00551178  1
  Ag  Ag2  1  0.67499852  0.17617270  0.17032497  1
  Ag  Ag3  1  0.33198484  0.83653299  0.16299426  1
  Ag  Ag4  1  0.66678686  0.00217352  0.33273068  1
  Ag  Ag5  1  0.32682683  0.32921312  -0.00337827  1
  Ag  Ag6  1  0.67907054  0.65939850  0.66175934  1
  Ag  Ag7  1  0.84146996  0.83030840  0.00150624  1
  Ag  Ag8  1  -0.00872381  0.66368063  0.32941026  1
  Ag  Ag9  1  0.33027747  0.16056651  0.16059408  1
  Ag  Ag10  1  0.67079335  0.33787379  0.66507780  1
  Ag  Ag11  1  0.00264820  0.82335450  0.84148429  1
  Ag  Ag12  1  -0.00435740  0.49820006  0.16116380  1
  Ag  Ag13  1  -0.00672117  0.17463417  0.16152966  1
  Ag  Ag14  1  0.16623554  0.33969783  0.83227328  1
  Ag  Ag15  1  0.83504432  0.33904017  0.17139260  1
  Ag  Ag16  1  0.83569293  0.17176035  0.67003658  1
  Ag  Ag17  1  0.48819292  0.82896455  0.00149424  1
  Ag  Ag18  1  0.15644008  0.65957690  0.83515286  1
  Ag  Ag19  1  0.84412055  0.66825072  0.83295905  1
  Ag  Ag20  1  0.83516032  0.82274226  0.33077399  1
  Ag  Ag21  1  0.31980563  0.33305325  0.67379405  1
  Ag  Ag22  1  0.16918316  0.00064469  0.16295284  1
  Ag  Ag23  1  0.83655457  0.82049143  0.66487679  1
  Ag  Ag24  1  0.32864216  0.83366440  0.49531385  1
  Ag  Ag25  1  0.83758540  0.17044006  0.00125219  1
  Ag  Ag26  1  0.00275475  0.50944107  0.84226443  1
  Ag  Ag27  1  0.83418918  0.50703934  0.32853442  1
  Ag  Ag28  1  0.83462230  0.33602792  0.48972398  1
  Ag  Ag29  1  0.16596611  0.49633552  0.67654893  1
  Ag  Ag30  1  0.16381322  0.82968831  -0.00197552  1
  Ag  Ag31  1  0.49992163  0.49980607  0.67271448  1
  Ag  Ag32  1  0.33208713  0.67298068  0.32983374  1
  Ag  Ag33  1  0.16203415  0.17603774  0.66797173  1
  Ag  Ag34  1  0.33610410  -0.00719886  0.32445751  1
  Ag  Ag35  1  -0.00153633  0.34083810  0.00468371  1
  Ag  Ag36  1  0.67907310  0.66492352  0.33207416  1
  Ag  Ag37  1  0.67042104  0.17030160  0.49125514  1
  Ag  Ag38  1  0.67886981  0.33510162  0.01050060  1
  Ag  Ag39  1  0.49886863  -0.00253578  0.49794432  1
  Ag  Ag40  1  0.67464062  0.33503344  0.32714459  1
  Ag  Ag41  1  -0.00864072  0.34139143  0.32477963  1
  Ag  Ag42  1  0.50729941  0.66581859  0.16563899  1
  Ag  Ag43  1  -0.00274961  0.82936605  0.50265938  1
  Ag  Ag44  1  -0.00479627  0.66723681  0.68219878  1
  Ag  Ag45  1  0.00598200  -0.00882528  0.00278431  1
  Ag  Ag46  1  0.15986694  0.50134141  -0.00336117  1
  Ag  Ag47  1  0.15854521  0.33422492  0.50740946  1
  Ag  Ag48  1  0.32834945  0.16763107  0.84255688  1
  Ag  Ag49  1  -0.00257907  0.66536307  -0.00504217  1
  Ag  Ag50  1  0.49653031  0.50251087  -0.00109334  1
  Ag  Ag51  1  0.32459238  0.83460938  0.84515209  1
  Ag  Ag52  1  0.83442500  0.65970919  0.17672183  1
  Ag  Ag53  1  0.67753928  0.49590483  0.16646155  1
  Sb  Sb54  1  0.16564671  0.16830076  0.33351606  1
  Sb  Sb55  1  0.16479344  0.83172000  0.32854590  1
  Sb  Sb56  1  -0.00174062  -0.00275284  0.32628609  1
  Sb  Sb57  1  0.49944228  0.16832199  0.00207218  1
  Sb  Sb58  1  0.16640183  -0.00052975  0.83977141  1
  Sb  Sb59  1  0.33221231  0.33315128  0.33001023  1
  Sb  Sb60  1  0.50695969  0.50300196  0.32985234  1
  Sb  Sb61  1  0.67194298  0.82878547  0.83505791  1
  Sb  Sb62  1  0.66549233  0.17080876  0.83598180  1
  Sb  Sb63  1  0.00095074  0.82924894  0.16227234  1
  Sb  Sb64  1  0.32442705  0.50062622  0.83507194  1
  Sb  Sb65  1  0.00321773  0.16803958  0.83840468  1
  Sb  Sb66  1  0.66891765  0.49637690  0.49679418  1
  Sb  Sb67  1  0.32770599  0.66988655  0.00267241  1
  Sb  Sb68  1  0.16955792  0.00209657  0.49566235  1
  Sb  Sb69  1  0.83204434  0.17010711  0.32963179  1
  Sb  Sb70  1  0.00035935  0.33865200  0.66803018  1
  Sb  Sb71  1  0.33545570  0.16445695  0.49877054  1
  Sb  Sb72  1  0.50458013  0.33129646  0.50194670  1
  Sb  Sb73  1  0.67362758  0.66131864  0.00472274  1
  Sb  Sb74  1  0.66793704  0.00238100  0.65999821  1
  Sb  Sb75  1  0.67391442  0.49979885  0.83827973  1
  Sb  Sb76  1  0.83968103  0.33873305  0.83615890  1
  Sb  Sb77  1  0.66595185  0.83107485  0.16747803  1
  Sb  Sb78  1  0.16386025  0.16823653  -0.00252219  1
  Sb  Sb79  1  0.33169575  0.50334810  0.50135255  1
  Sb  Sb80  1  0.49474224  -0.00400301  0.16858081  1
  Sb  Sb81  1  0.49297498  0.33564879  0.83376453  1
  Sb  Sb82  1  0.50777869  0.33919027  0.16335722  1
  Sb  Sb83  1  0.16296610  0.83033486  0.67249881  1
  Sb  Sb84  1  0.50469728  0.66947882  0.49595915  1
  Sb  Sb85  1  0.49965185  0.83289031  0.32906514  1
  Sb  Sb86  1  0.33168895  0.00394999  0.66861136  1
  Sb  Sb87  1  0.50315775  0.82669458  0.67016458  1
  Sb  Sb88  1  0.50145231  0.17224128  0.66577448  1
  Sb  Sb89  1  0.16094249  0.66886882  0.16099784  1
  Sb  Sb90  1  0.66623863  0.00438278  0.00827033  1
  Sb  Sb91  1  0.16003511  0.50062253  0.32979950  1
  Sb  Sb92  1  0.49966293  0.66517631  0.83950551  1
  Sb  Sb93  1  0.67029078  0.83443375  0.49784549  1
  Sb  Sb94  1  0.49677901  -0.00208874  0.83234166  1
  Sb  Sb95  1  0.15905125  0.33022693  0.16221657  1
  Sb  Sb96  1  0.83083896  -0.00119982  0.49774061  1
  Sb  Sb97  1  -0.00062947  -0.00523842  0.67182959  1
  Sb  Sb98  1  0.15910734  0.66371222  0.50387455  1
  Sb  Sb99  1  0.33100669  0.66363655  0.66547314  1
  Sb  Sb100  1  0.83899113  0.50154481  0.00750582  1
  Sb  Sb101  1  0.50286316  0.16548518  0.33160529  1
  Sb  Sb102  1  0.33159782  0.50047351  0.16324578  1
  Sb  Sb103  1  -0.00521586  0.16609822  0.49764508  1
  Sb  Sb104  1  -0.00187525  0.50381317  0.49941392  1
  Sb  Sb105  1  0.83558096  0.50231292  0.66301470  1
  Sb  Sb106  1  0.83485808  -0.00559391  0.83544170  1
  Sb  Sb107  1  0.83694785  0.00075855  0.16601584  1
  Te  Te108  1  0.16980756  0.16342243  0.16669049  1
  Te  Te109  1  0.16613635  0.17151605  0.50541237  1
  Te  Te110  1  0.17016820  0.16863659  0.82800919  1
  Te  Te111  1  0.16052268  0.49925193  0.15985137  1
  Te  Te112  1  0.16627740  0.49440665  0.50339676  1
  Te  Te113  1  0.16323948  0.49977653  0.83610425  1
  Te  Te114  1  0.17072268  0.83658622  0.16151200  1
  Te  Te115  1  0.16705363  0.83297109  0.50155655  1
  Te  Te116  1  0.16507469  0.83309036  0.83638558  1
  Te  Te117  1  0.49804467  0.16771663  0.16575579  1
  Te  Te118  1  0.50670235  0.16095572  0.50061201  1
  Te  Te119  1  0.48945278  0.16567739  0.83329118  1
  Te  Te120  1  0.50028545  0.50609666  0.16235308  1
  Te  Te121  1  0.49956026  0.50062627  0.50727615  1
  Te  Te122  1  0.50165769  0.50093312  0.83539220  1
  Te  Te123  1  0.49656581  0.82752091  0.16198102  1
  Te  Te124  1  0.49563216  0.83615760  0.50153945  1
  Te  Te125  1  0.49475799  0.83264802  0.83902560  1
  Te  Te126  1  0.83398624  0.16705430  0.16331821  1
  Te  Te127  1  0.83060758  0.16923695  0.50360154  1
  Te  Te128  1  0.83392272  0.16678959  0.83450814  1
  Te  Te129  1  0.83483311  0.49929552  0.16852695  1
  Te  Te130  1  0.83340844  0.49798979  0.49202711  1
  Te  Te131  1  0.84119348  0.50651949  0.83159012  1
  Te  Te132  1  0.83339647  0.83081786  0.16498699  1
  Te  Te133  1  0.83504025  0.83149864  0.50280025  1
  Te  Te134  1  0.83745888  0.82876286  0.83393033  1
  Te  Te135  1  0.16772501  -0.00090996  0.00310222  1
  Te  Te136  1  0.17153619  0.00027859  0.32720134  1
  Te  Te137  1  0.16586754  0.00786671  0.66516163  1
  Te  Te138  1  0.16614746  0.33486201  -0.00176227  1
  Te  Te139  1  0.16369602  0.33476483  0.34072317  1
  Te  Te140  1  0.16339954  0.33497025  0.66756836  1
  Te  Te141  1  0.16180607  0.66615514  -0.00375032  1
  Te  Te142  1  0.17190192  0.66542984  0.33510561  1
  Te  Te143  1  0.16242787  0.66206879  0.67140025  1
  Te  Te144  1  0.49636479  -0.00579068  0.00016877  1
  Te  Te145  1  0.50035236  -0.00088636  0.33674188  1
  Te  Te146  1  0.50079170  -0.00158644  0.66020374  1
  Te  Te147  1  0.49493509  0.33687083  -0.00108182  1
  Te  Te148  1  0.50669139  0.33534048  0.33352356  1
  Te  Te149  1  0.50598312  0.33948662  0.66738958  1
  Te  Te150  1  0.50320718  0.66678595  0.00476543  1
  Te  Te151  1  0.49423044  0.66649527  0.32836643  1
  Te  Te152  1  0.50158818  0.66095406  0.66577041  1
  Te  Te153  1  0.83521378  -0.00236507  0.00057379  1
  Te  Te154  1  0.82896551  -0.00818997  0.33303190  1
  Te  Te155  1  0.83312180  0.00533729  0.66666105  1
  Te  Te156  1  0.83590199  0.33189905  0.00080866  1
  Te  Te157  1  0.83294689  0.33083715  0.33223227  1
  Te  Te158  1  0.83287328  0.33320158  0.66832420  1
  Te  Te159  1  0.83612115  0.66886318  -0.00303129  1
  Te  Te160  1  0.83439483  0.66679649  0.33398746  1
  Te  Te161  1  0.83583741  0.66417105  0.66472554  1
  Te  Te162  1  -0.00277766  0.16871203  0.00198302  1
  Te  Te163  1  -0.00009128  0.16727302  0.32671940  1
  Te  Te164  1  -0.00205852  0.16437366  0.66699801  1
  Te  Te165  1  -0.00035444  0.50107072  0.00093369  1
  Te  Te166  1  -0.00327552  0.49967824  0.33196263  1
  Te  Te167  1  0.00400740  0.50586748  0.66755908  1
  Te  Te168  1  0.00166269  0.83144483  0.00168111  1
  Te  Te169  1  -0.00267749  0.83100759  0.33385484  1
  Te  Te170  1  -0.00291613  0.82965227  0.66496494  1
  Te  Te171  1  0.33330439  0.16743805  0.00028479  1
  Te  Te172  1  0.33415731  0.16369212  0.32851363  1
  Te  Te173  1  0.33262400  0.17270519  0.66651867  1
  Te  Te174  1  0.33587879  0.49602451  -0.00045341  1
  Te  Te175  1  0.33373014  0.50382750  0.33283401  1
  Te  Te176  1  0.33192456  0.49474154  0.66784432  1
  Te  Te177  1  0.33005706  0.83182134  0.00220045  1
  Te  Te178  1  0.33292647  0.83427191  0.33165240  1
  Te  Te179  1  0.33333151  0.83409586  0.66574772  1
  Te  Te180  1  0.66972627  0.17269123  0.00417107  1
  Te  Te181  1  0.66771625  0.16889070  0.33119885  1
  Te  Te182  1  0.66994836  0.17019290  0.66760849  1
  Te  Te183  1  0.66168501  0.49495114  0.00441698  1
  Te  Te184  1  0.67017583  0.50104437  0.32918961  1
  Te  Te185  1  0.66695816  0.50037780  0.66758956  1
  Te  Te186  1  0.67020176  0.83440812  -0.00027421  1
  Te  Te187  1  0.66944324  0.82842246  0.33316580  1
  Te  Te188  1  0.67273098  0.83073547  0.66670413  1
  Te  Te189  1  0.00476971  0.00489762  0.16196534  1
  Te  Te190  1  0.00160035  -0.00702649  0.49802716  1
  Te  Te191  1  -0.00001034  -0.00579239  0.84227899  1
  Te  Te192  1  -0.00214620  0.33401868  0.16575510  1
  Te  Te193  1  -0.00397812  0.33206392  0.49791761  1
  Te  Te194  1  0.00588301  0.33542688  0.83779570  1
  Te  Te195  1  -0.00334722  0.66368291  0.16994989  1
  Te  Te196  1  -0.00381091  0.66986599  0.48923148  1
  Te  Te197  1  0.00086748  0.66764305  0.83749953  1
  Te  Te198  1  0.33363479  -0.00061586  0.16541467  1
  Te  Te199  1  0.33564683  -0.00373575  0.49771549  1
  Te  Te200  1  0.33310720  -0.00120177  0.83796829  1
  Te  Te201  1  0.33329166  0.33038064  0.16533817  1
  Te  Te202  1  0.33317262  0.33314493  0.50023734  1
  Te  Te203  1  0.32766243  0.33343336  0.83358487  1
  Te  Te204  1  0.33136253  0.66828681  0.16898754  1
  Te  Te205  1  0.33372996  0.67212469  0.49666271  1
  Te  Te206  1  0.33132907  0.67372468  0.83315104  1
  Te  Te207  1  0.66503957  0.00558298  0.17321986  1
  Te  Te208  1  0.66315761  0.00491968  0.49320002  1
  Te  Te209  1  0.66487361  0.00073682  0.83395319  1
  Te  Te210  1  0.67010237  0.33492228  0.16666369  1
  Te  Te211  1  0.67028493  0.33040333  0.50261534  1
  Te  Te212  1  0.66681883  0.33351608  0.82906729  1
  Te  Te213  1  0.67073680  0.66449880  0.16968608  1
  Te  Te214  1  0.67143541  0.66640463  0.49858855  1
  Te  Te215  1  0.66846374  0.66530873  0.82580919  1
