# generated using pymatgen
data_AgSbTe2
_symmetry_space_group_name_H-M   'P 1'
_cell_length_a   18.32720990
_cell_length_b   18.32356743
_cell_length_c   18.31726987
_cell_angle_alpha   89.99833563
_cell_angle_beta   89.99893564
_cell_angle_gamma   90.00127910
_symmetry_Int_Tables_number   1
_chemical_formula_structural   AgSbTe2
_chemical_formula_sum   'Ag54 Sb54 Te108'
_cell_volume   6151.30311423
_cell_formula_units_Z   54
loop_
 _symmetry_equiv_pos_site_id
 _symmetry_equiv_pos_as_xyz
  1  'x, y, z'
loop_
 _atom_site_type_symbol
 _atom_site_label
 _atom_site_symmetry_multiplicity
 _atom_site_fract_x
 _atom_site_fract_y
 _atom_site_fract_z
 _atom_site_occupancy
  Ag  Ag0  1  0.33731057  0.32990222  0.33711158  1
  Ag  Ag1  1  0.00177439  -0.00160764  0.66368582  1
  Ag  Ag2  1  0.82784224  0.67082891  0.50042642  1
  Ag  Ag3  1  0.16434495  0.66993197  0.49537689  1
  Ag  Ag4  1  -0.00490573  0.00287008  -0.00171765  1
  Ag  Ag5  1  0.49927402  0.33571236  0.16910729  1
  Ag  Ag6  1  0.83225012  -0.00653458  0.83690219  1
  Ag  Ag7  1  0.67617409  -0.00183768  -0.00485205  1
  Ag  Ag8  1  0.00259554  -0.00269195  0.33982247  1
  Ag  Ag9  1  0.66930460  0.50377982  0.16685411  1
  Ag  Ag10  1  0.33080202  0.00052309  0.65822214  1
  Ag  Ag11  1  0.16549297  0.83471386  0.33561602  1
  Ag  Ag12  1  0.66279638  0.33812668  0.33469193  1
  Ag  Ag13  1  0.66172325  0.16053012  0.49984165  1
  Ag  Ag14  1  0.15748490  0.16336362  0.00043275  1
  Ag  Ag15  1  0.82709789  0.83004633  0.34132806  1
  Ag  Ag16  1  0.49971288  0.16423838  0.33646634  1
  Ag  Ag17  1  0.82774849  0.83220910  0.66467493  1
  Ag  Ag18  1  0.67122574  0.82672992  0.82859283  1
  Ag  Ag19  1  0.83398321  0.34113393  0.49647199  1
  Ag  Ag20  1  0.83143445  0.50636313  0.33661646  1
  Ag  Ag21  1  0.51030478  0.66249311  0.82717422  1
  Ag  Ag22  1  0.32827101  0.49580758  0.50029000  1
  Ag  Ag23  1  0.83939563  0.15763830  -0.00479566  1
  Ag  Ag24  1  0.50163141  0.34204304  0.83792153  1
  Ag  Ag25  1  0.16553951  0.49998565  0.00299464  1
  Ag  Ag26  1  0.82620656  0.67386947  0.82778501  1
  Ag  Ag27  1  0.16779270  0.33546602  0.49225643  1
  Ag  Ag28  1  0.66917305  0.83024159  0.49941420  1
  Ag  Ag29  1  0.49697099  -0.00852552  0.49818031  1
  Ag  Ag30  1  0.66761609  0.67090924  0.33936837  1
  Ag  Ag31  1  0.16419410  0.66371168  0.17219254  1
  Ag  Ag32  1  0.66708957  0.67020443  0.66300497  1
  Ag  Ag33  1  0.50960138  0.83660987  0.34122195  1
  Ag  Ag34  1  0.33695930  0.16244990  0.49859503  1
  Ag  Ag35  1  0.66793356  0.16434072  0.83176826  1
  Ag  Ag36  1  -0.00616059  0.83206709  0.49606009  1
  Ag  Ag37  1  0.49962045  0.49934261  -0.00536551  1
  Ag  Ag38  1  0.33831254  0.16945816  0.82897320  1
  Ag  Ag39  1  0.17327042  -0.00240670  0.49679881  1
  Ag  Ag40  1  0.15895469  0.83576460  0.00525566  1
  Ag  Ag41  1  0.66335824  0.51025133  0.83949769  1
  Ag  Ag42  1  -0.00317364  0.49807528  0.83716481  1
  Ag  Ag43  1  0.51056675  0.83308724  0.65635595  1
  Ag  Ag44  1  -0.00450080  0.16374954  0.84144773  1
  Ag  Ag45  1  0.83265590  0.83868949  -0.00665154  1
  Ag  Ag46  1  0.00162066  0.50625688  0.49711988  1
  Ag  Ag47  1  0.33175165  0.00377453  0.34089368  1
  Ag  Ag48  1  0.00139129  0.16831265  0.16005653  1
  Ag  Ag49  1  0.00100149  0.49712894  0.16693330  1
  Ag  Ag50  1  0.34484717  0.49537031  0.83130039  1
  Ag  Ag51  1  0.16782689  0.33786174  0.17133874  1
  Ag  Ag52  1  0.51055198  0.67464219  0.50218517  1
  Ag  Ag53  1  0.66816894  0.82657872  0.17674471  1
  Sb  Sb54  1  0.83273083  0.50689394  0.66212122  1
  Sb  Sb55  1  0.83330032  -0.00635099  0.50339569  1
  Sb  Sb56  1  0.66808819  0.67079393  -0.00194942  1
  Sb  Sb57  1  0.33497427  0.32986209  0.66182149  1
  Sb  Sb58  1  0.83333397  0.33492023  0.17150450  1
  Sb  Sb59  1  0.33911620  0.67135346  0.66329247  1
  Sb  Sb60  1  0.16194251  0.50402271  0.33194903  1
  Sb  Sb61  1  0.67005552  0.16719534  0.16696753  1
  Sb  Sb62  1  0.50091491  0.50606000  0.67008981  1
  Sb  Sb63  1  -0.00019730  0.16251531  0.49979645  1
  Sb  Sb64  1  0.83022812  0.16327144  0.33266812  1
  Sb  Sb65  1  0.33281696  0.66529196  -0.00143901  1
  Sb  Sb66  1  0.83207256  0.15882359  0.66975901  1
  Sb  Sb67  1  0.33249653  0.49803103  0.16851374  1
  Sb  Sb68  1  0.66835651  -0.00440964  0.33357557  1
  Sb  Sb69  1  0.66550205  0.33825404  0.66310756  1
  Sb  Sb70  1  0.66761310  0.50489112  0.49717179  1
  Sb  Sb71  1  0.00039012  0.33105781  0.33411823  1
  Sb  Sb72  1  -0.00038289  0.67058563  0.00025951  1
  Sb  Sb73  1  0.32919214  0.16874360  0.16930270  1
  Sb  Sb74  1  0.16574095  0.66453843  0.83251044  1
  Sb  Sb75  1  0.16994161  0.33357224  0.83523928  1
  Sb  Sb76  1  0.50001611  0.33446965  0.49697174  1
  Sb  Sb77  1  0.33041611  0.00226661  -0.00116071  1
  Sb  Sb78  1  0.33820275  0.83395604  0.83212822  1
  Sb  Sb79  1  0.17007238  0.16364874  0.33178618  1
  Sb  Sb80  1  0.33295119  0.33379521  0.00215876  1
  Sb  Sb81  1  -0.00067721  0.32915011  0.66547291  1
  Sb  Sb82  1  0.66828841  -0.00859820  0.66875327  1
  Sb  Sb83  1  0.50052120  0.16952183  0.00074891  1
  Sb  Sb84  1  0.83375624  -0.00180651  0.16137981  1
  Sb  Sb85  1  -0.00456567  0.67048426  0.33611176  1
  Sb  Sb86  1  -0.00364800  0.83351687  0.17110197  1
  Sb  Sb87  1  0.00100292  0.32801255  0.00126984  1
  Sb  Sb88  1  0.33661078  0.66655485  0.33844027  1
  Sb  Sb89  1  0.66597152  0.33145287  0.00226739  1
  Sb  Sb90  1  0.50544427  -0.00168705  0.82800600  1
  Sb  Sb91  1  0.50648829  0.82963523  0.00054713  1
  Sb  Sb92  1  0.83457597  0.50197272  0.00124104  1
  Sb  Sb93  1  0.33597747  0.83769482  0.49917137  1
  Sb  Sb94  1  0.16753727  0.16539223  0.66833207  1
  Sb  Sb95  1  0.16384244  -0.00089667  0.17098267  1
  Sb  Sb96  1  0.16446777  0.83479498  0.66192531  1
  Sb  Sb97  1  -0.00746051  0.83524232  0.83070312  1
  Sb  Sb98  1  0.83481930  0.66775618  0.16949310  1
  Sb  Sb99  1  0.50216865  0.00341001  0.17414620  1
  Sb  Sb100  1  0.16113617  0.00073673  0.83106934  1
  Sb  Sb101  1  0.82877077  0.33337271  0.82889171  1
  Sb  Sb102  1  0.50507885  0.49994687  0.33195254  1
  Sb  Sb103  1  0.50069316  0.66268568  0.16863588  1
  Sb  Sb104  1  0.50104624  0.16028802  0.66180293  1
  Sb  Sb105  1  -0.00589847  0.67145992  0.66375621  1
  Sb  Sb106  1  0.33555504  0.83336819  0.16987988  1
  Sb  Sb107  1  0.16593784  0.50074343  0.66572930  1
  Te  Te108  1  0.16246418  0.17046035  0.16221842  1
  Te  Te109  1  0.16937065  0.16504131  0.49997233  1
  Te  Te110  1  0.16513129  0.16877206  0.83833177  1
  Te  Te111  1  0.16567014  0.49961811  0.16581253  1
  Te  Te112  1  0.16456010  0.49992135  0.49867009  1
  Te  Te113  1  0.16117526  0.49948183  0.83743202  1
  Te  Te114  1  0.16607913  0.82951410  0.16701777  1
  Te  Te115  1  0.16613582  0.83488696  0.49807290  1
  Te  Te116  1  0.16660687  0.83131628  0.83864732  1
  Te  Te117  1  0.50040020  0.17365447  0.17162981  1
  Te  Te118  1  0.50045365  0.16849497  0.49661266  1
  Te  Te119  1  0.50097628  0.16623753  0.83317840  1
  Te  Te120  1  0.50240067  0.49687499  0.16164255  1
  Te  Te121  1  0.49610996  0.50405955  0.50117506  1
  Te  Te122  1  0.50169607  0.50163039  0.83408246  1
  Te  Te123  1  0.50663117  0.83214702  0.17009506  1
  Te  Te124  1  0.49975986  0.83186349  0.49785081  1
  Te  Te125  1  0.50584459  0.82892577  0.83426928  1
  Te  Te126  1  0.83947887  0.16801273  0.16149916  1
  Te  Te127  1  0.82940675  0.16730336  0.50069513  1
  Te  Te128  1  0.83197070  0.16778428  0.83532610  1
  Te  Te129  1  0.83269501  0.50051282  0.17033473  1
  Te  Te130  1  0.83462775  0.50341272  0.49677484  1
  Te  Te131  1  0.83387859  0.50136174  0.83319752  1
  Te  Te132  1  0.82799848  0.83127524  0.16712469  1
  Te  Te133  1  0.83293944  0.83226710  0.50018693  1
  Te  Te134  1  0.83185391  0.83324823  0.83335905  1
  Te  Te135  1  0.16394917  0.00002137  0.00036735  1
  Te  Te136  1  0.16528409  -0.00285148  0.33633848  1
  Te  Te137  1  0.16610696  -0.00064618  0.66090156  1
  Te  Te138  1  0.16753587  0.33653483  0.00412881  1
  Te  Te139  1  0.16891073  0.33336074  0.33235655  1
  Te  Te140  1  0.16676526  0.33320100  0.65511225  1
  Te  Te141  1  0.16611131  0.66472921  0.00157040  1
  Te  Te142  1  0.16809451  0.67136189  0.33492234  1
  Te  Te143  1  0.16646835  0.66835947  0.65781870  1
  Te  Te144  1  0.49985741  -0.00037334  0.00175347  1
  Te  Te145  1  0.50039862  -0.00083455  0.33786523  1
  Te  Te146  1  0.49703465  -0.00621055  0.66058492  1
  Te  Te147  1  0.49920792  0.33763607  0.00120917  1
  Te  Te148  1  0.50081876  0.33309467  0.33218711  1
  Te  Te149  1  0.50019210  0.33247473  0.67644489  1
  Te  Te150  1  0.49953321  0.66097557  -0.00267354  1
  Te  Te151  1  0.50409406  0.67064964  0.33637015  1
  Te  Te152  1  0.50459514  0.67287166  0.66506167  1
  Te  Te153  1  0.83430667  -0.00038091  -0.00245807  1
  Te  Te154  1  0.83849888  -0.00570225  0.33296079  1
  Te  Te155  1  0.83751794  -0.00701785  0.67365179  1
  Te  Te156  1  0.83275006  0.32771371  -0.00090868  1
  Te  Te157  1  0.82968370  0.33197433  0.33798458  1
  Te  Te158  1  0.83267228  0.33311217  0.65558586  1
  Te  Te159  1  0.83430859  0.67206378  -0.00557541  1
  Te  Te160  1  0.82916714  0.66825704  0.33579133  1
  Te  Te161  1  0.82886802  0.67215966  0.66531463  1
  Te  Te162  1  0.00033814  0.16451042  -0.00091759  1
  Te  Te163  1  -0.00050277  0.15958464  0.33015591  1
  Te  Te164  1  -0.00013335  0.15921442  0.67325668  1
  Te  Te165  1  0.00200268  0.50015757  0.00113495  1
  Te  Te166  1  -0.00598543  0.49875377  0.33535400  1
  Te  Te167  1  -0.00028436  0.49937138  0.66536378  1
  Te  Te168  1  -0.00126588  0.83835108  0.00193809  1
  Te  Te169  1  0.00220035  0.83663915  0.33564315  1
  Te  Te170  1  -0.00294280  0.83851189  0.66101697  1
  Te  Te171  1  0.32939764  0.16658366  -0.00592724  1
  Te  Te172  1  0.33634143  0.16647587  0.33614838  1
  Te  Te173  1  0.33419005  0.16138539  0.66664224  1
  Te  Te174  1  0.33187305  0.49929347  -0.00472833  1
  Te  Te175  1  0.33344368  0.49584714  0.33812334  1
  Te  Te176  1  0.33279231  0.50008151  0.66772839  1
  Te  Te177  1  0.32529580  0.83411765  0.00137264  1
  Te  Te178  1  0.32926032  0.83716557  0.33281116  1
  Te  Te179  1  0.33576487  0.84034890  0.66820247  1
  Te  Te180  1  0.66813418  0.16244008  -0.00241401  1
  Te  Te181  1  0.66329566  0.16688379  0.33546192  1
  Te  Te182  1  0.66652573  0.16838114  0.66616908  1
  Te  Te183  1  0.66646296  0.49943628  0.00071632  1
  Te  Te184  1  0.66961488  0.49916554  0.33101778  1
  Te  Te185  1  0.66727282  0.50674916  0.67663504  1
  Te  Te186  1  0.66946164  0.83704363  -0.00410842  1
  Te  Te187  1  0.66723036  0.83360433  0.33613743  1
  Te  Te188  1  0.66722562  0.83153564  0.66531550  1
  Te  Te189  1  0.00019132  0.00304124  0.16312648  1
  Te  Te190  1  0.00004571  -0.00225838  0.49995557  1
  Te  Te191  1  -0.00325598  0.00168324  0.83524726  1
  Te  Te192  1  0.00366795  0.33598655  0.16817066  1
  Te  Te193  1  0.00078995  0.33432852  0.49997718  1
  Te  Te194  1  0.00002441  0.33500730  0.83167743  1
  Te  Te195  1  0.00479569  0.65989000  0.16791432  1
  Te  Te196  1  -0.00047721  0.66697686  0.49997594  1
  Te  Te197  1  -0.00321861  0.66110904  0.83132366  1
  Te  Te198  1  0.33305871  0.00140438  0.17494300  1
  Te  Te199  1  0.33427526  0.00174218  0.49824896  1
  Te  Te200  1  0.33340673  0.00413350  0.83032066  1
  Te  Te201  1  0.33316371  0.33344685  0.17389806  1
  Te  Te202  1  0.33207418  0.33213325  0.49709397  1
  Te  Te203  1  0.33697245  0.33280605  0.83218839  1
  Te  Te204  1  0.32537708  0.66559562  0.16764622  1
  Te  Te205  1  0.32841478  0.65916350  0.50072936  1
  Te  Te206  1  0.33662212  0.66128454  0.83066387  1
  Te  Te207  1  0.66626324  -0.00359579  0.15893827  1
  Te  Te208  1  0.66321962  0.00147021  0.50165211  1
  Te  Te209  1  0.66968693  0.00332839  0.83391516  1
  Te  Te210  1  0.66511784  0.33600675  0.17199487  1
  Te  Te211  1  0.66836768  0.33397694  0.49647055  1
  Te  Te212  1  0.66249416  0.32924396  0.83254306  1
  Te  Te213  1  0.66648189  0.66501806  0.17165272  1
  Te  Te214  1  0.66770266  0.66733699  0.49975794  1
  Te  Te215  1  0.66714434  0.66765424  0.83522391  1
