# generated using pymatgen
data_AgSbTe2
_symmetry_space_group_name_H-M   'P 1'
_cell_length_a   18.35343800
_cell_length_b   18.35405799
_cell_length_c   18.33473710
_cell_angle_alpha   90.00217829
_cell_angle_beta   89.99877317
_cell_angle_gamma   89.99834200
_symmetry_Int_Tables_number   1
_chemical_formula_structural   AgSbTe2
_chemical_formula_sum   'Ag54 Sb54 Te108'
_cell_volume   6176.24073056
_cell_formula_units_Z   54
loop_
 _symmetry_equiv_pos_site_id
 _symmetry_equiv_pos_as_xyz
  1  'x, y, z'
loop_
 _atom_site_type_symbol
 _atom_site_label
 _atom_site_symmetry_multiplicity
 _atom_site_fract_x
 _atom_site_fract_y
 _atom_site_fract_z
 _atom_site_occupancy
  Ag  Ag0  1  0.66607245  0.50387360  0.16374447  1
  Ag  Ag1  1  0.66425581  0.33027247  0.00054828  1
  Ag  Ag2  1  0.83429005  0.00372684  0.15538291  1
  Ag  Ag3  1  -0.00374749  0.66594695  0.33520958  1
  Ag  Ag4  1  0.15939460  -0.00022596  0.50001187  1
  Ag  Ag5  1  -0.00398510  0.83157889  0.16348986  1
  Ag  Ag6  1  0.33383444  0.17621297  0.15849429  1
  Ag  Ag7  1  0.67509306  0.66766157  0.32815786  1
  Ag  Ag8  1  0.83521875  0.31941229  0.49686694  1
  Ag  Ag9  1  0.51029921  0.66187499  0.16703041  1
  Ag  Ag10  1  -0.00921424  0.32463795  0.00118055  1
  Ag  Ag11  1  0.83702935  0.00552703  0.50668891  1
  Ag  Ag12  1  0.83369692  0.16157239  0.66022713  1
  Ag  Ag13  1  0.15103085  0.00058358  0.83261011  1
  Ag  Ag14  1  0.83384494  0.84190960  0.66564034  1
  Ag  Ag15  1  0.83299514  0.66966471  0.49559411  1
  Ag  Ag16  1  0.66873853  0.32836643  0.67440810  1
  Ag  Ag17  1  0.50789833  0.34428674  0.16062518  1
  Ag  Ag18  1  -0.00820853  0.15750253  0.83334755  1
  Ag  Ag19  1  -0.00807434  0.00656401  -0.00842821  1
  Ag  Ag20  1  0.33980299  0.66452128  0.00279896  1
  Ag  Ag21  1  0.83351958  0.16442202  -0.00228169  1
  Ag  Ag22  1  0.32371003  0.50731521  0.49381356  1
  Ag  Ag23  1  0.67925503  0.15872933  0.50327695  1
  Ag  Ag24  1  0.16436360  0.50536047  0.33559877  1
  Ag  Ag25  1  0.50357610  0.33163823  0.84363898  1
  Ag  Ag26  1  0.50255054  0.67095971  0.49391325  1
  Ag  Ag27  1  0.33427173  0.00683858  -0.00289206  1
  Ag  Ag28  1  -0.00811360  0.16504579  0.50162698  1
  Ag  Ag29  1  0.15385071  0.33388642  0.49756992  1
  Ag  Ag30  1  -0.00545400  0.00066871  0.67703898  1
  Ag  Ag31  1  0.15778311  0.16558117  0.33702011  1
  Ag  Ag32  1  -0.00415620  0.50318806  0.17127978  1
  Ag  Ag33  1  0.33396376  0.83118075  0.50317172  1
  Ag  Ag34  1  0.67572555  0.16085311  0.83607794  1
  Ag  Ag35  1  0.66716778  0.66563049  0.00517748  1
  Ag  Ag36  1  0.67580227  0.00565892  -0.00244611  1
  Ag  Ag37  1  0.34065652  0.49723700  0.16585893  1
  Ag  Ag38  1  0.50076538  0.49616009  0.00566635  1
  Ag  Ag39  1  0.67645197  0.84047170  0.83204267  1
  Ag  Ag40  1  0.16393293  0.82989747  0.33828553  1
  Ag  Ag41  1  0.00343543  0.49645028  0.49429031  1
  Ag  Ag42  1  0.82989947  0.66494939  0.16799126  1
  Ag  Ag43  1  0.16402584  0.66696441  0.49493458  1
  Ag  Ag44  1  0.51417346  -0.00689208  0.49922306  1
  Ag  Ag45  1  0.83131886  0.33002815  0.16477104  1
  Ag  Ag46  1  0.83714170  0.16494493  0.34620968  1
  Ag  Ag47  1  0.83169656  0.67877109  0.84077308  1
  Ag  Ag48  1  0.33298734  0.15806335  0.83981057  1
  Ag  Ag49  1  0.83787983  0.00106713  0.83329762  1
  Ag  Ag50  1  0.67290874  0.83764363  0.50445805  1
  Ag  Ag51  1  -0.00884227  0.84642705  0.83764553  1
  Ag  Ag52  1  0.34130983  0.32897249  0.00285835  1
  Ag  Ag53  1  0.33332856  0.84136462  0.83382104  1
  Sb  Sb54  1  0.67113944  0.33701521  0.32847260  1
  Sb  Sb55  1  0.66808818  0.17091196  0.16487798  1
  Sb  Sb56  1  0.16885045  0.32514242  0.83028611  1
  Sb  Sb57  1  0.16581876  0.49925363  0.65622843  1
  Sb  Sb58  1  0.66981785  0.66461226  0.66672692  1
  Sb  Sb59  1  0.83885132  0.50072473  0.33123679  1
  Sb  Sb60  1  0.49773505  0.83027215  0.33645243  1
  Sb  Sb61  1  -0.00223492  0.83662407  0.49956329  1
  Sb  Sb62  1  0.50063851  0.82833155  -0.00034519  1
  Sb  Sb63  1  0.66847385  0.49824377  0.84039992  1
  Sb  Sb64  1  0.50110855  0.50020396  0.66815406  1
  Sb  Sb65  1  0.16598569  0.83481185  0.00208763  1
  Sb  Sb66  1  0.82887672  0.49546379  0.00427115  1
  Sb  Sb67  1  0.33011662  -0.00023765  0.33193337  1
  Sb  Sb68  1  -0.00604968  0.32657095  0.66722939  1
  Sb  Sb69  1  0.50407359  0.16709748  0.33328241  1
  Sb  Sb70  1  0.83335851  0.49751477  0.66384491  1
  Sb  Sb71  1  -0.00240882  0.16695833  0.16731028  1
  Sb  Sb72  1  -0.00071599  0.33681072  0.33222855  1
  Sb  Sb73  1  0.50813696  0.16593984  0.66737213  1
  Sb  Sb74  1  0.33839720  0.33161497  0.67045794  1
  Sb  Sb75  1  0.15927546  0.16404567  0.66291113  1
  Sb  Sb76  1  0.49636971  0.50199620  0.32697646  1
  Sb  Sb77  1  0.83230973  0.83993722  -0.00633998  1
  Sb  Sb78  1  0.50436187  -0.00126364  0.16602360  1
  Sb  Sb79  1  0.16553310  0.16574784  0.00254714  1
  Sb  Sb80  1  0.33083949  0.33430280  0.32799642  1
  Sb  Sb81  1  0.17028178  0.49916269  0.00755315  1
  Sb  Sb82  1  0.33368874  0.66866908  0.66603483  1
  Sb  Sb83  1  0.50708818  0.83485562  0.66568643  1
  Sb  Sb84  1  0.16231717  0.67561540  0.83060508  1
  Sb  Sb85  1  0.16373976  0.33292469  0.17044976  1
  Sb  Sb86  1  -0.00413955  0.67228027  0.66047298  1
  Sb  Sb87  1  0.67146720  -0.00440772  0.33346453  1
  Sb  Sb88  1  0.32896002  0.83039331  0.16604423  1
  Sb  Sb89  1  0.16028424  0.83628407  0.66209315  1
  Sb  Sb90  1  0.50475673  0.00353391  0.83194865  1
  Sb  Sb91  1  0.32943057  0.16453607  0.50066967  1
  Sb  Sb92  1  -0.00226499  0.49913139  0.83636187  1
  Sb  Sb93  1  0.50463562  0.33483685  0.49756734  1
  Sb  Sb94  1  0.16339237  0.66561882  0.17176812  1
  Sb  Sb95  1  0.50532953  0.66419963  0.83759616  1
  Sb  Sb96  1  -0.00564832  0.66777960  0.00533061  1
  Sb  Sb97  1  0.50303265  0.17301075  -0.00033688  1
  Sb  Sb98  1  0.82850795  0.32519351  0.83568404  1
  Sb  Sb99  1  0.16176644  0.00144535  0.16541728  1
  Sb  Sb100  1  0.33096290  0.66581170  0.33205326  1
  Sb  Sb101  1  -0.00165997  -0.00266158  0.33255341  1
  Sb  Sb102  1  0.32802392  0.00024926  0.66992304  1
  Sb  Sb103  1  0.83701997  0.83338402  0.33721176  1
  Sb  Sb104  1  0.67519456  0.00402656  0.66962899  1
  Sb  Sb105  1  0.66962292  0.50268822  0.49316024  1
  Sb  Sb106  1  0.67406609  0.82830907  0.16480486  1
  Sb  Sb107  1  0.33315760  0.50028041  0.83911414  1
  Te  Te108  1  0.17280324  0.16583349  0.17494529  1
  Te  Te109  1  0.16620254  0.16457780  0.49709350  1
  Te  Te110  1  0.16816785  0.16073472  0.83224712  1
  Te  Te111  1  0.16213449  0.49943165  0.17411481  1
  Te  Te112  1  0.16464644  0.49985849  0.49490722  1
  Te  Te113  1  0.16554885  0.50155070  0.83101947  1
  Te  Te114  1  0.16044391  0.83382510  0.17416297  1
  Te  Te115  1  0.16404307  0.83555130  0.49832024  1
  Te  Te116  1  0.17261329  0.83925583  0.83214866  1
  Te  Te117  1  0.49412427  0.16646063  0.16819556  1
  Te  Te118  1  0.50125501  0.16452805  0.49944585  1
  Te  Te119  1  0.49889807  0.17119891  0.83292141  1
  Te  Te120  1  0.49874482  0.50253606  0.16487040  1
  Te  Te121  1  0.49819211  0.50333179  0.49887718  1
  Te  Te122  1  0.50007850  0.49468989  0.83937172  1
  Te  Te123  1  0.49899024  0.82592888  0.16852404  1
  Te  Te124  1  0.49862992  0.83272141  0.50060798  1
  Te  Te125  1  0.49449096  0.83241989  0.83141354  1
  Te  Te126  1  0.83279113  0.16723269  0.15746452  1
  Te  Te127  1  0.83494361  0.16452977  0.50216013  1
  Te  Te128  1  0.83260000  0.16537896  0.83810114  1
  Te  Te129  1  0.83459348  0.49864482  0.16746410  1
  Te  Te130  1  0.83831681  0.50953275  0.49819017  1
  Te  Te131  1  0.83458372  0.51240883  0.83241216  1
  Te  Te132  1  0.83696062  0.83379207  0.16946260  1
  Te  Te133  1  0.83255231  0.83075741  0.50210371  1
  Te  Te134  1  0.83250525  0.83567785  0.83220569  1
  Te  Te135  1  0.17219473  0.00001036  -0.00392841  1
  Te  Te136  1  0.16473568  0.00277933  0.33560242  1
  Te  Te137  1  0.15834861  0.00006225  0.66804909  1
  Te  Te138  1  0.16832193  0.33365585  -0.00169451  1
  Te  Te139  1  0.16577617  0.32794834  0.33962495  1
  Te  Te140  1  0.16740936  0.33208926  0.65777066  1
  Te  Te141  1  0.17393988  0.66623863  -0.00151146  1
  Te  Te142  1  0.16434960  0.66687072  0.33693304  1
  Te  Te143  1  0.16525115  0.66715514  0.65750279  1
  Te  Te144  1  0.49553700  -0.00144372  0.00061461  1
  Te  Te145  1  0.50026527  -0.00089433  0.34040913  1
  Te  Te146  1  0.49794185  0.00066611  0.65660295  1
  Te  Te147  1  0.50056266  0.33463798  0.00414848  1
  Te  Te148  1  0.50130846  0.33353794  0.32276030  1
  Te  Te149  1  0.50703706  0.33345507  0.66913033  1
  Te  Te150  1  0.50183916  0.66174518  0.00185934  1
  Te  Te151  1  0.50383151  0.66606698  0.33300031  1
  Te  Te152  1  0.50151390  0.66618213  0.65717369  1
  Te  Te153  1  0.83283451  0.00085163  -0.00226053  1
  Te  Te154  1  0.83342370  0.00426236  0.33355086  1
  Te  Te155  1  0.83537305  0.00117871  0.66723611  1
  Te  Te156  1  0.83196551  0.33051435  0.00113067  1
  Te  Te157  1  0.83395487  0.32726019  0.33251285  1
  Te  Te158  1  0.82869158  0.33001546  0.66370475  1
  Te  Te159  1  0.82965291  0.66432263  0.00452219  1
  Te  Te160  1  0.83560020  0.66734233  0.33033972  1
  Te  Te161  1  0.83255688  0.66829823  0.66374126  1
  Te  Te162  1  0.00023370  0.16532984  0.00024144  1
  Te  Te163  1  -0.00205237  0.16698667  0.33553546  1
  Te  Te164  1  -0.00555461  0.16260953  0.66738802  1
  Te  Te165  1  0.00195932  0.49810169  0.00530121  1
  Te  Te166  1  0.00377924  0.50322918  0.33407373  1
  Te  Te167  1  -0.00064061  0.49835138  0.65997857  1
  Te  Te168  1  0.00095529  0.83587836  -0.00114412  1
  Te  Te169  1  0.00368794  0.82839007  0.32979524  1
  Te  Te170  1  -0.00573216  0.83838892  0.67478470  1
  Te  Te171  1  0.33167974  0.16820347  -0.00075766  1
  Te  Te172  1  0.33317194  0.16652543  0.33061178  1
  Te  Te173  1  0.33349954  0.16745359  0.67626748  1
  Te  Te174  1  0.33622694  0.50033235  0.00411517  1
  Te  Te175  1  0.32696705  0.49985861  0.33279841  1
  Te  Te176  1  0.33400039  0.49988532  0.65837379  1
  Te  Te177  1  0.33336438  0.83074388  -0.00136583  1
  Te  Te178  1  0.32574055  0.83305378  0.33916611  1
  Te  Te179  1  0.33310508  0.83330296  0.66482520  1
  Te  Te180  1  0.66868877  0.16574167  -0.00101376  1
  Te  Te181  1  0.67230138  0.16553115  0.33760883  1
  Te  Te182  1  0.67279998  0.16969606  0.66676928  1
  Te  Te183  1  0.66319658  0.50007607  0.00499169  1
  Te  Te184  1  0.66650837  0.50711169  0.32520435  1
  Te  Te185  1  0.66638748  0.48992584  0.66647320  1
  Te  Te186  1  0.66575006  0.83145492  -0.00462510  1
  Te  Te187  1  0.66619081  0.82794091  0.33997639  1
  Te  Te188  1  0.67316985  0.83188791  0.66770831  1
  Te  Te189  1  -0.00471250  -0.00196227  0.16206118  1
  Te  Te190  1  -0.00233019  0.00221340  0.49771845  1
  Te  Te191  1  -0.00429125  0.00210431  0.83567664  1
  Te  Te192  1  -0.00379153  0.33508196  0.16196736  1
  Te  Te193  1  -0.00452256  0.33152257  0.50129840  1
  Te  Te194  1  0.00068722  0.33064577  0.83832446  1
  Te  Te195  1  -0.00320255  0.66614213  0.16907334  1
  Te  Te196  1  -0.00022669  0.66994184  0.49656513  1
  Te  Te197  1  -0.00436177  0.66898202  0.83426950  1
  Te  Te198  1  0.33486734  -0.00106701  0.16079027  1
  Te  Te199  1  0.32233700  -0.00350529  0.50087370  1
  Te  Te200  1  0.34018420  -0.00010777  0.83560892  1
  Te  Te201  1  0.33000735  0.33625278  0.16289810  1
  Te  Te202  1  0.33750434  0.33482013  0.50081864  1
  Te  Te203  1  0.33642405  0.33238695  0.83867763  1
  Te  Te204  1  0.33313515  0.66366837  0.16377379  1
  Te  Te205  1  0.33263298  0.66830802  0.49931802  1
  Te  Te206  1  0.33318398  0.66913856  0.83660886  1
  Te  Te207  1  0.67109555  -0.00077943  0.16089455  1
  Te  Te208  1  0.67161383  -0.00110419  0.50037987  1
  Te  Te209  1  0.66815124  0.00034066  0.83625287  1
  Te  Te210  1  0.66919070  0.33600024  0.16224428  1
  Te  Te211  1  0.67023762  0.33314111  0.49654765  1
  Te  Te212  1  0.66479340  0.33134540  0.83866649  1
  Te  Te213  1  0.66894195  0.66691688  0.16570007  1
  Te  Te214  1  0.66829858  0.66691701  0.49986565  1
  Te  Te215  1  0.66978311  0.66871949  0.83656958  1
