# generated using pymatgen
data_AgSbTe2
_symmetry_space_group_name_H-M   'P 1'
_cell_length_a   18.37186729
_cell_length_b   18.35945155
_cell_length_c   18.36011485
_cell_angle_alpha   89.99634883
_cell_angle_beta   89.99779028
_cell_angle_gamma   90.00275425
_symmetry_Int_Tables_number   1
_chemical_formula_structural   AgSbTe2
_chemical_formula_sum   'Ag54 Sb54 Te108'
_cell_volume   6192.81911300
_cell_formula_units_Z   54
loop_
 _symmetry_equiv_pos_site_id
 _symmetry_equiv_pos_as_xyz
  1  'x, y, z'
loop_
 _atom_site_type_symbol
 _atom_site_label
 _atom_site_symmetry_multiplicity
 _atom_site_fract_x
 _atom_site_fract_y
 _atom_site_fract_z
 _atom_site_occupancy
  Ag  Ag0  1  -0.00809250  0.00000760  0.32802701  1
  Ag  Ag1  1  0.65585274  0.49488379  0.16304900  1
  Ag  Ag2  1  0.34122434  0.32553241  0.00116403  1
  Ag  Ag3  1  0.65964116  0.32238050  0.00076501  1
  Ag  Ag4  1  0.66716684  0.00439214  0.33119034  1
  Ag  Ag5  1  -0.00231821  0.83685000  0.83745425  1
  Ag  Ag6  1  0.65922560  0.00311032  -0.00323914  1
  Ag  Ag7  1  0.65621189  0.31948391  0.32081346  1
  Ag  Ag8  1  0.49979703  0.31932863  0.84454780  1
  Ag  Ag9  1  0.83140300  0.67018859  0.83983514  1
  Ag  Ag10  1  0.17159058  0.33083267  0.83511740  1
  Ag  Ag11  1  0.50109920  0.00592190  0.83505699  1
  Ag  Ag12  1  0.49803094  0.16102452  0.67971439  1
  Ag  Ag13  1  0.49713521  0.84104094  0.67929489  1
  Ag  Ag14  1  0.34462777  0.84461156  0.83310553  1
  Ag  Ag15  1  0.17450409  0.49295864  0.32688848  1
  Ag  Ag16  1  0.16876538  0.49824809  0.67182737  1
  Ag  Ag17  1  0.50164312  0.84089850  -0.00482239  1
  Ag  Ag18  1  0.00362079  0.50544534  0.16109796  1
  Ag  Ag19  1  0.17895550  0.84421280  0.66970579  1
  Ag  Ag20  1  0.00015545  -0.00227951  -0.00274946  1
  Ag  Ag21  1  0.34081834  0.32927772  0.32593802  1
  Ag  Ag22  1  0.66327204  0.17187978  0.17124512  1
  Ag  Ag23  1  0.34347355  0.16317868  0.83594293  1
  Ag  Ag24  1  0.81728833  0.33486891  0.83578576  1
  Ag  Ag25  1  -0.00497981  0.50069013  0.83878559  1
  Ag  Ag26  1  0.65636131  0.16176044  0.48603830  1
  Ag  Ag27  1  0.33775746  0.16345285  0.51211429  1
  Ag  Ag28  1  0.17150737  0.16993336  0.33150398  1
  Ag  Ag29  1  0.83022416  0.66840302  0.16244182  1
  Ag  Ag30  1  0.17025853  0.66283165  0.16626042  1
  Ag  Ag31  1  0.49781324  0.48888874  0.32496110  1
  Ag  Ag32  1  0.17735219  0.16181157  0.67518336  1
  Ag  Ag33  1  0.34056942  0.00353408  -0.00475688  1
  Ag  Ag34  1  0.83093884  0.84029940  0.32550382  1
  Ag  Ag35  1  0.33577954  0.66582087  0.00231348  1
  Ag  Ag36  1  0.18217483  0.16705474  -0.00831361  1
  Ag  Ag37  1  0.00555882  -0.00156878  0.67903433  1
  Ag  Ag38  1  0.50145305  0.65995134  0.16535902  1
  Ag  Ag39  1  0.33682480  0.00109756  0.67475898  1
  Ag  Ag40  1  -0.00230874  0.82996232  0.15620982  1
  Ag  Ag41  1  0.50025855  0.16525977  -0.00504296  1
  Ag  Ag42  1  0.34335533  0.84167538  0.51161370  1
  Ag  Ag43  1  0.82359402  0.83476666  -0.00127529  1
  Ag  Ag44  1  0.65963951  0.84230753  0.83539679  1
  Ag  Ag45  1  0.33864512  0.49977667  0.16621615  1
  Ag  Ag46  1  0.50162931  0.17045334  0.33143883  1
  Ag  Ag47  1  0.50143016  0.33470216  0.16330374  1
  Ag  Ag48  1  0.66115948  0.84385470  0.50984077  1
  Ag  Ag49  1  0.66612399  0.48930256  0.83987154  1
  Ag  Ag50  1  0.49868060  0.67281070  0.49198162  1
  Ag  Ag51  1  0.81759362  0.16318456  0.33188171  1
  Ag  Ag52  1  0.65686911  0.16332336  0.83562530  1
  Ag  Ag53  1  0.65474904  0.00117700  0.67772774  1
  Sb  Sb54  1  0.83118645  0.49878685  0.32809529  1
  Sb  Sb55  1  -0.00391822  0.16428944  0.16644733  1
  Sb  Sb56  1  0.00051730  0.32968738  0.32990561  1
  Sb  Sb57  1  0.17242653  0.33554109  0.16334603  1
  Sb  Sb58  1  0.82974001  0.83654366  0.67260409  1
  Sb  Sb59  1  0.17355601  0.00266051  0.83306323  1
  Sb  Sb60  1  0.83637217  0.49938496  0.67365724  1
  Sb  Sb61  1  0.82741880  -0.00137547  0.83525021  1
  Sb  Sb62  1  0.50058580  0.49495473  0.00444885  1
  Sb  Sb63  1  0.82576982  0.33726526  0.16136973  1
  Sb  Sb64  1  0.66170030  0.66898285  -0.00051792  1
  Sb  Sb65  1  0.83303178  -0.00424772  0.16684677  1
  Sb  Sb66  1  0.00039577  0.67112800  0.32885770  1
  Sb  Sb67  1  0.82879254  0.16318721  0.66666920  1
  Sb  Sb68  1  0.50404098  0.83929000  0.33140996  1
  Sb  Sb69  1  0.82559229  0.67098412  0.49788896  1
  Sb  Sb70  1  0.16404364  0.83480340  0.33564431  1
  Sb  Sb71  1  0.82787889  0.00001616  0.49752377  1
  Sb  Sb72  1  0.33607944  0.66365331  0.32853765  1
  Sb  Sb73  1  0.00180820  0.67047369  0.67134066  1
  Sb  Sb74  1  0.00116787  0.16260596  0.83438825  1
  Sb  Sb75  1  0.50167035  0.00050892  0.50886576  1
  Sb  Sb76  1  0.00247830  0.32880188  0.67191352  1
  Sb  Sb77  1  0.50292181  0.66962558  0.83853506  1
  Sb  Sb78  1  0.66459307  0.66903413  0.33020143  1
  Sb  Sb79  1  0.82687498  0.33097266  0.50111342  1
  Sb  Sb80  1  0.50243471  0.00359037  0.15972010  1
  Sb  Sb81  1  0.33589449  0.49604280  0.83716162  1
  Sb  Sb82  1  0.16776443  0.49603978  0.00116636  1
  Sb  Sb83  1  0.33405624  0.32580812  0.67143941  1
  Sb  Sb84  1  -0.00073128  0.32883001  -0.00132866  1
  Sb  Sb85  1  -0.00219186  0.83720930  0.50314264  1
  Sb  Sb86  1  0.82421257  0.16143077  0.00196066  1
  Sb  Sb87  1  0.16435358  0.66491932  0.83790357  1
  Sb  Sb88  1  0.66875718  0.83479958  0.16244588  1
  Sb  Sb89  1  0.66200269  0.49786515  0.49642991  1
  Sb  Sb90  1  0.33523720  0.49737061  0.49485937  1
  Sb  Sb91  1  0.83125170  0.50543869  0.00015062  1
  Sb  Sb92  1  0.33903711  0.17074698  0.16094182  1
  Sb  Sb93  1  0.33427105  0.67311568  0.67191297  1
  Sb  Sb94  1  0.66361255  0.67244873  0.66989078  1
  Sb  Sb95  1  0.16556047  -0.00086542  0.16548506  1
  Sb  Sb96  1  0.16895160  0.00079419  0.50274710  1
  Sb  Sb97  1  0.17085033  0.83866862  -0.00488082  1
  Sb  Sb98  1  0.49858396  0.32919248  0.49682878  1
  Sb  Sb99  1  0.16949795  0.33121112  0.50272322  1
  Sb  Sb100  1  0.00202041  0.16372450  0.49964772  1
  Sb  Sb101  1  0.00312083  0.50111924  0.50057115  1
  Sb  Sb102  1  0.49735363  0.49964825  0.66562494  1
  Sb  Sb103  1  0.33751137  0.00722181  0.33372390  1
  Sb  Sb104  1  0.00240341  0.67073392  0.00173408  1
  Sb  Sb105  1  0.33142800  0.82796796  0.16132543  1
  Sb  Sb106  1  0.66318742  0.32646604  0.67304014  1
  Sb  Sb107  1  0.17429542  0.66827128  0.49705263  1
  Te  Te108  1  0.16380764  0.16769804  0.16794529  1
  Te  Te109  1  0.17219761  0.16696517  0.49902672  1
  Te  Te110  1  0.16453316  0.17001712  0.83338420  1
  Te  Te111  1  0.16370866  0.50139444  0.16766227  1
  Te  Te112  1  0.16721735  0.50039749  0.49723825  1
  Te  Te113  1  0.16716654  0.49756139  0.83140555  1
  Te  Te114  1  0.16166189  0.82800956  0.16746153  1
  Te  Te115  1  0.16995627  0.83175075  0.50764440  1
  Te  Te116  1  0.15948050  0.83120487  0.82773399  1
  Te  Te117  1  0.50373679  0.16908411  0.16836548  1
  Te  Te118  1  0.49762853  0.16593246  0.49401625  1
  Te  Te119  1  0.49763033  0.16479717  0.83484754  1
  Te  Te120  1  0.49951401  0.49831041  0.16625107  1
  Te  Te121  1  0.49965325  0.50712093  0.49586339  1
  Te  Te122  1  0.50627994  0.50040520  0.83074365  1
  Te  Te123  1  0.49928240  0.82796670  0.16201721  1
  Te  Te124  1  0.50149417  0.83322735  0.49439265  1
  Te  Te125  1  0.50079038  0.83063122  0.83482406  1
  Te  Te126  1  0.82907841  0.17009929  0.17239119  1
  Te  Te127  1  0.83048576  0.16754869  0.49463867  1
  Te  Te128  1  0.83246410  0.17326716  0.83362740  1
  Te  Te129  1  0.84130525  0.50635360  0.16637914  1
  Te  Te130  1  0.83328759  0.50181078  0.50096356  1
  Te  Te131  1  0.83243675  0.49973032  0.83408335  1
  Te  Te132  1  0.83464785  0.82974443  0.16499719  1
  Te  Te133  1  0.82522398  0.83203877  0.49466246  1
  Te  Te134  1  0.83566798  0.83184598  0.83688182  1
  Te  Te135  1  0.16234384  0.00639990  -0.00014809  1
  Te  Te136  1  0.16918724  0.00369584  0.33353428  1
  Te  Te137  1  0.16760885  0.00176518  0.66739078  1
  Te  Te138  1  0.16624232  0.32687173  -0.00298905  1
  Te  Te139  1  0.16775421  0.33404818  0.33361869  1
  Te  Te140  1  0.16800668  0.33263763  0.67037363  1
  Te  Te141  1  0.17291461  0.66638865  0.00566441  1
  Te  Te142  1  0.16763619  0.66373509  0.32862184  1
  Te  Te143  1  0.16680541  0.65945719  0.66578723  1
  Te  Te144  1  0.50120822  0.00148424  -0.00276851  1
  Te  Te145  1  0.50508956  0.00631743  0.32811991  1
  Te  Te146  1  0.49766382  -0.00092686  0.67084133  1
  Te  Te147  1  0.50079206  0.33267514  0.00292481  1
  Te  Te148  1  0.50054210  0.33293249  0.33452514  1
  Te  Te149  1  0.49873739  0.33069359  0.66922209  1
  Te  Te150  1  0.49610771  0.67276662  0.00474004  1
  Te  Te151  1  0.49971850  0.66869873  0.32958509  1
  Te  Te152  1  0.49897239  0.66805137  0.66278714  1
  Te  Te153  1  0.83851330  -0.00526944  0.00007393  1
  Te  Te154  1  0.83199102  0.00144103  0.33292770  1
  Te  Te155  1  0.84504162  0.00058251  0.66523329  1
  Te  Te156  1  0.83090438  0.33232696  -0.00555366  1
  Te  Te157  1  0.83067079  0.32674846  0.33322811  1
  Te  Te158  1  0.83416815  0.33201480  0.67501366  1
  Te  Te159  1  0.83459331  0.67401759  0.00041174  1
  Te  Te160  1  0.83309635  0.67092192  0.32943212  1
  Te  Te161  1  0.83352358  0.66685390  0.67008135  1
  Te  Te162  1  -0.00212280  0.16046057  0.00223506  1
  Te  Te163  1  0.00976271  0.16214433  0.33271257  1
  Te  Te164  1  0.00304959  0.16016246  0.66584858  1
  Te  Te165  1  -0.00000282  0.49934917  -0.00112497  1
  Te  Te166  1  0.00202934  0.49967902  0.33116078  1
  Te  Te167  1  0.00706741  0.49896356  0.66950742  1
  Te  Te168  1  0.00513665  0.83571460  -0.00119211  1
  Te  Te169  1  -0.00296712  0.83885920  0.33484822  1
  Te  Te170  1  -0.00124628  0.83768548  0.67002612  1
  Te  Te171  1  0.33834233  0.16656388  -0.00106467  1
  Te  Te172  1  0.33226776  0.17007068  0.32778270  1
  Te  Te173  1  0.33504725  0.16486179  0.66883522  1
  Te  Te174  1  0.33330362  0.50029457  0.00435130  1
  Te  Te175  1  0.33478352  0.49753677  0.32997300  1
  Te  Te176  1  0.32932030  0.49924694  0.66510258  1
  Te  Te177  1  0.33583172  0.84028581  -0.00492582  1
  Te  Te178  1  0.33173746  0.83547692  0.33687448  1
  Te  Te179  1  0.33585901  0.83592867  0.66929408  1
  Te  Te180  1  0.66438344  0.16414482  -0.00267935  1
  Te  Te181  1  0.66293786  0.16565617  0.33169247  1
  Te  Te182  1  0.66419493  0.16101392  0.67523710  1
  Te  Te183  1  0.66764120  0.49974266  0.00059233  1
  Te  Te184  1  0.66284884  0.49910165  0.32915522  1
  Te  Te185  1  0.66741485  0.49898142  0.66885703  1
  Te  Te186  1  0.66530687  0.83516883  -0.00266015  1
  Te  Te187  1  0.67151890  0.83692075  0.33070974  1
  Te  Te188  1  0.66310428  0.83873284  0.66844085  1
  Te  Te189  1  -0.00056690  -0.00512160  0.16812027  1
  Te  Te190  1  0.00004900  -0.00025369  0.49216608  1
  Te  Te191  1  -0.00252456  -0.00321975  0.83646255  1
  Te  Te192  1  -0.00164447  0.33973263  0.16556358  1
  Te  Te193  1  -0.00311505  0.33350222  0.50092191  1
  Te  Te194  1  0.00861465  0.33923754  0.83406010  1
  Te  Te195  1  -0.00248021  0.66929331  0.16696679  1
  Te  Te196  1  -0.00053128  0.66776124  0.50186316  1
  Te  Te197  1  -0.00416519  0.66188623  0.83535441  1
  Te  Te198  1  0.33283354  -0.00279840  0.15964764  1
  Te  Te199  1  0.33418131  0.00137331  0.50011226  1
  Te  Te200  1  0.33478861  0.00172901  0.83348008  1
  Te  Te201  1  0.33595052  0.33678324  0.16472160  1
  Te  Te202  1  0.33318642  0.32683977  0.49205264  1
  Te  Te203  1  0.33536831  0.33072427  0.83791779  1
  Te  Te204  1  0.33326186  0.66287328  0.16327609  1
  Te  Te205  1  0.33886671  0.67043463  0.50139619  1
  Te  Te206  1  0.33227813  0.66597653  0.84105091  1
  Te  Te207  1  0.66773799  0.00429070  0.16471363  1
  Te  Te208  1  0.66653787  0.00196548  0.49490043  1
  Te  Te209  1  0.66559297  0.00020340  0.83428758  1
  Te  Te210  1  0.66503902  0.33471808  0.16329677  1
  Te  Te211  1  0.66610000  0.32662503  0.49688902  1
  Te  Te212  1  0.66088602  0.33163434  0.83512731  1
  Te  Te213  1  0.66730685  0.66072117  0.16456947  1
  Te  Te214  1  0.65965024  0.67012249  0.50146902  1
  Te  Te215  1  0.67251910  0.66581026  0.83433604  1
