# generated using pymatgen
data_AgSbTe2
_symmetry_space_group_name_H-M   'P 1'
_cell_length_a   18.34222947
_cell_length_b   18.35090826
_cell_length_c   18.34273591
_cell_angle_alpha   89.99951019
_cell_angle_beta   89.99909785
_cell_angle_gamma   90.00426749
_symmetry_Int_Tables_number   1
_chemical_formula_structural   AgSbTe2
_chemical_formula_sum   'Ag54 Sb54 Te108'
_cell_volume   6174.10197872
_cell_formula_units_Z   54
loop_
 _symmetry_equiv_pos_site_id
 _symmetry_equiv_pos_as_xyz
  1  'x, y, z'
loop_
 _atom_site_type_symbol
 _atom_site_label
 _atom_site_symmetry_multiplicity
 _atom_site_fract_x
 _atom_site_fract_y
 _atom_site_fract_z
 _atom_site_occupancy
  Ag  Ag0  1  0.01543508  0.16684350  0.83361980  1
  Ag  Ag1  1  0.00084193  0.66482363  0.32630986  1
  Ag  Ag2  1  0.32422599  0.15697140  0.51345017  1
  Ag  Ag3  1  0.17222667  0.16379004  0.67587659  1
  Ag  Ag4  1  0.67245300  0.51236875  0.50184320  1
  Ag  Ag5  1  0.17018706  0.83209885  -0.00182592  1
  Ag  Ag6  1  0.16900300  0.66285601  0.83442629  1
  Ag  Ag7  1  0.83728786  0.66756987  0.17172704  1
  Ag  Ag8  1  0.66496467  0.82805337  0.49921548  1
  Ag  Ag9  1  0.00793780  0.33317025  -0.00024492  1
  Ag  Ag10  1  0.01215466  0.00154568  -0.00005937  1
  Ag  Ag11  1  0.33170665  0.83552153  0.82996817  1
  Ag  Ag12  1  0.66125777  0.66623888  0.66055006  1
  Ag  Ag13  1  0.33019794  0.33398075  0.33266001  1
  Ag  Ag14  1  0.33027483  0.67166102  0.67343513  1
  Ag  Ag15  1  0.48830165  0.32260776  0.83282746  1
  Ag  Ag16  1  0.83458028  0.66780026  0.49839149  1
  Ag  Ag17  1  0.48593969  0.66567147  0.83084383  1
  Ag  Ag18  1  0.83549847  0.34314442  0.50002281  1
  Ag  Ag19  1  0.32866079  -0.00617281  -0.00703204  1
  Ag  Ag20  1  0.32710072  0.83425551  0.50810941  1
  Ag  Ag21  1  0.00819013  0.16782308  0.50449967  1
  Ag  Ag22  1  0.00354180  0.50363642  0.49710848  1
  Ag  Ag23  1  0.17162987  0.51177796  0.66903548  1
  Ag  Ag24  1  0.49862027  0.83002841  0.33299758  1
  Ag  Ag25  1  0.49407789  0.01082575  0.83275822  1
  Ag  Ag26  1  0.65952524  0.50064389  0.82467343  1
  Ag  Ag27  1  0.66609644  0.82599844  0.17101534  1
  Ag  Ag28  1  0.16662348  0.50494269  0.00286773  1
  Ag  Ag29  1  0.32690290  0.67321298  -0.00932856  1
  Ag  Ag30  1  0.16745746  0.34230987  0.15643725  1
  Ag  Ag31  1  0.48527796  0.16663536  -0.01350159  1
  Ag  Ag32  1  0.84130168  0.83128920  0.66358949  1
  Ag  Ag33  1  0.48907308  0.17006819  0.67581129  1
  Ag  Ag34  1  0.66608985  0.50818362  0.16776111  1
  Ag  Ag35  1  0.66942052  0.66743787  0.34318828  1
  Ag  Ag36  1  0.49281087  0.50236683  0.67059236  1
  Ag  Ag37  1  0.16688465  0.50242653  0.32090677  1
  Ag  Ag38  1  0.16453563  0.66817589  0.50616983  1
  Ag  Ag39  1  0.84224816  -0.00810742  0.50320581  1
  Ag  Ag40  1  0.16842162  0.16272582  -0.00554603  1
  Ag  Ag41  1  0.33115581  -0.00477198  0.67400637  1
  Ag  Ag42  1  0.32526547  0.82831939  0.15857084  1
  Ag  Ag43  1  0.00977543  0.82091793  0.16308099  1
  Ag  Ag44  1  0.16992695  0.33026427  0.83798402  1
  Ag  Ag45  1  0.33391767  0.16000830  0.82951193  1
  Ag  Ag46  1  0.16697670  -0.00673082  0.50080965  1
  Ag  Ag47  1  0.00963406  0.66563711  0.00608831  1
  Ag  Ag48  1  0.32404286  0.50807172  0.16501693  1
  Ag  Ag49  1  0.66523250  0.16550130  0.16052271  1
  Ag  Ag50  1  0.17073355  0.83089072  0.67023640  1
  Ag  Ag51  1  0.64996337  0.17181539  0.83453066  1
  Ag  Ag52  1  0.16726674  -0.00082816  0.15418555  1
  Ag  Ag53  1  0.00833779  0.50495621  0.16692606  1
  Sb  Sb54  1  0.49656889  0.50573188  0.33730124  1
  Sb  Sb55  1  0.49461266  0.49663353  -0.00568878  1
  Sb  Sb56  1  0.01200745  0.83781400  0.83844257  1
  Sb  Sb57  1  0.65973066  -0.00471980  0.66660871  1
  Sb  Sb58  1  0.00355842  -0.00599893  0.33206034  1
  Sb  Sb59  1  0.16739581  0.17214784  0.33324241  1
  Sb  Sb60  1  0.66300896  0.00068074  -0.00057332  1
  Sb  Sb61  1  0.83043323  0.82863436  0.33809428  1
  Sb  Sb62  1  0.16204482  0.66563974  0.16046153  1
  Sb  Sb63  1  0.66133435  0.34215147  0.33288114  1
  Sb  Sb64  1  0.50208472  0.66695434  0.16235809  1
  Sb  Sb65  1  0.83061885  -0.00090863  0.82894334  1
  Sb  Sb66  1  0.17459653  0.00273815  0.83576455  1
  Sb  Sb67  1  0.49940261  0.66774642  0.50535354  1
  Sb  Sb68  1  0.49353707  -0.00127169  0.16087577  1
  Sb  Sb69  1  0.83701054  0.66703510  0.83090096  1
  Sb  Sb70  1  0.00308591  0.33275813  0.66877293  1
  Sb  Sb71  1  0.83853977  0.16545006  -0.00109716  1
  Sb  Sb72  1  0.33061976  -0.00018190  0.33373783  1
  Sb  Sb73  1  0.49437349  0.33363770  0.16000763  1
  Sb  Sb74  1  0.83563264  0.33270219  0.82835599  1
  Sb  Sb75  1  0.83450176  0.50626645  0.66366967  1
  Sb  Sb76  1  0.49238036  0.82976124  0.66506805  1
  Sb  Sb77  1  0.33316688  0.50240310  0.83546648  1
  Sb  Sb78  1  0.00705535  0.33987734  0.33203686  1
  Sb  Sb79  1  0.84006012  0.50340876  0.33482559  1
  Sb  Sb80  1  0.32539973  0.33353897  -0.00038075  1
  Sb  Sb81  1  0.17039372  0.82509465  0.33143290  1
  Sb  Sb82  1  0.83985492  0.50149117  0.00093778  1
  Sb  Sb83  1  0.32977001  0.66600937  0.33362098  1
  Sb  Sb84  1  0.01138373  0.00008556  0.67003399  1
  Sb  Sb85  1  0.49849015  0.16348208  0.33470736  1
  Sb  Sb86  1  0.50043045  0.33454295  0.50587153  1
  Sb  Sb87  1  0.83807957  -0.00706874  0.17024549  1
  Sb  Sb88  1  0.83801011  0.33984835  0.17125743  1
  Sb  Sb89  1  0.49306888  -0.00232196  0.50682786  1
  Sb  Sb90  1  0.33128654  0.33251687  0.66682490  1
  Sb  Sb91  1  0.00245022  0.82935610  0.49621967  1
  Sb  Sb92  1  0.33298844  0.16534385  0.16192683  1
  Sb  Sb93  1  0.67072865  0.33378978  -0.00095107  1
  Sb  Sb94  1  0.00037049  0.16866552  0.16464648  1
  Sb  Sb95  1  0.00643782  0.66716496  0.66638160  1
  Sb  Sb96  1  0.83493248  0.16024870  0.66517456  1
  Sb  Sb97  1  0.66528706  0.66656606  -0.00127417  1
  Sb  Sb98  1  0.66672405  0.16400992  0.50388260  1
  Sb  Sb99  1  0.49116793  0.83574305  0.00124548  1
  Sb  Sb100  1  0.66552589  0.33975875  0.66700317  1
  Sb  Sb101  1  0.66628689  -0.00714599  0.33383439  1
  Sb  Sb102  1  0.65828629  0.83032148  0.83106319  1
  Sb  Sb103  1  0.32861744  0.50318710  0.49971861  1
  Sb  Sb104  1  0.84116347  0.83160444  -0.00196927  1
  Sb  Sb105  1  0.16430774  0.33601223  0.50323407  1
  Sb  Sb106  1  0.00398840  0.49745916  0.83418526  1
  Sb  Sb107  1  0.83326111  0.16673721  0.33483965  1
  Te  Te108  1  0.16551848  0.16248043  0.16315549  1
  Te  Te109  1  0.16730092  0.17040513  0.49842553  1
  Te  Te110  1  0.17180230  0.16607003  0.83452563  1
  Te  Te111  1  0.16644456  0.50144237  0.16357710  1
  Te  Te112  1  0.16490471  0.50094895  0.50999401  1
  Te  Te113  1  0.16599936  0.50021254  0.83073548  1
  Te  Te114  1  0.16771320  0.83602514  0.16699552  1
  Te  Te115  1  0.16742646  0.83198315  0.49854044  1
  Te  Te116  1  0.17158448  0.82872342  0.83286398  1
  Te  Te117  1  0.50456526  0.16648164  0.16561628  1
  Te  Te118  1  0.49660318  0.16640648  0.50442301  1
  Te  Te119  1  0.49533699  0.16719599  0.83150292  1
  Te  Te120  1  0.50517409  0.49819934  0.16689160  1
  Te  Te121  1  0.50482734  0.49903750  0.50589195  1
  Te  Te122  1  0.50095109  0.50529533  0.83049107  1
  Te  Te123  1  0.50447888  0.83440572  0.16913488  1
  Te  Te124  1  0.50123104  0.83434205  0.49621730  1
  Te  Te125  1  0.49349076  0.82638527  0.83394610  1
  Te  Te126  1  0.82756713  0.16635718  0.16718641  1
  Te  Te127  1  0.83599737  0.16185787  0.50086931  1
  Te  Te128  1  0.83180903  0.16652605  0.83179286  1
  Te  Te129  1  0.82701809  0.50484321  0.16769427  1
  Te  Te130  1  0.83373263  0.50599435  0.50027999  1
  Te  Te131  1  0.82346067  0.49921518  0.83257653  1
  Te  Te132  1  0.82864381  0.82951807  0.16568867  1
  Te  Te133  1  0.83532347  0.82930111  0.50338574  1
  Te  Te134  1  0.83128657  0.83336455  0.82538859  1
  Te  Te135  1  0.16915529  -0.00171595  -0.00236659  1
  Te  Te136  1  0.16626081  0.00101937  0.34064934  1
  Te  Te137  1  0.17208190  0.00099984  0.66119240  1
  Te  Te138  1  0.16511832  0.33417495  -0.00087805  1
  Te  Te139  1  0.17038224  0.34005577  0.32888434  1
  Te  Te140  1  0.16633457  0.32629414  0.67338665  1
  Te  Te141  1  0.16795899  0.66787355  0.00000191  1
  Te  Te142  1  0.16444455  0.66121919  0.34377525  1
  Te  Te143  1  0.16749487  0.66971789  0.66716251  1
  Te  Te144  1  0.49564399  0.00569312  -0.00547154  1
  Te  Te145  1  0.49905568  -0.00710111  0.33290313  1
  Te  Te146  1  0.49292605  0.00478250  0.67184441  1
  Te  Te147  1  0.50213269  0.32708264  -0.00732001  1
  Te  Te148  1  0.49352906  0.33394519  0.33258710  1
  Te  Te149  1  0.49976312  0.33618332  0.67320865  1
  Te  Te150  1  0.49502946  0.66542852  -0.00736903  1
  Te  Te151  1  0.50485753  0.66991480  0.33200246  1
  Te  Te152  1  0.49851740  0.66387751  0.67028383  1
  Te  Te153  1  0.83908034  -0.00152472  0.00022028  1
  Te  Te154  1  0.83483083  -0.00057910  0.34311413  1
  Te  Te155  1  0.83106226  -0.00768154  0.66161590  1
  Te  Te156  1  0.84483707  0.33330734  0.00147950  1
  Te  Te157  1  0.83299718  0.33371371  0.34070834  1
  Te  Te158  1  0.83400964  0.33210159  0.65908444  1
  Te  Te159  1  0.83868529  0.66702247  0.00414836  1
  Te  Te160  1  0.83294612  0.66611378  0.33466260  1
  Te  Te161  1  0.83181710  0.67190015  0.66316609  1
  Te  Te162  1  0.00503496  0.16555219  -0.00032370  1
  Te  Te163  1  -0.00034603  0.16745403  0.34112489  1
  Te  Te164  1  0.00475605  0.16595797  0.66674595  1
  Te  Te165  1  0.00532686  0.50223727  0.00061395  1
  Te  Te166  1  0.00643275  0.50501800  0.33327170  1
  Te  Te167  1  0.00537729  0.49950285  0.66326529  1
  Te  Te168  1  0.00626774  0.83341111  0.00350311  1
  Te  Te169  1  0.00019687  0.82618025  0.32486300  1
  Te  Te170  1  0.00474290  0.83450285  0.66808039  1
  Te  Te171  1  0.32930507  0.16602284  -0.00099086  1
  Te  Te172  1  0.33456616  0.17101125  0.33465562  1
  Te  Te173  1  0.33184185  0.16991334  0.66833726  1
  Te  Te174  1  0.32904022  0.50296651  0.00521559  1
  Te  Te175  1  0.32958957  0.49848092  0.32964357  1
  Te  Te176  1  0.33291295  0.50447683  0.66540824  1
  Te  Te177  1  0.33061253  0.83344261  0.00075209  1
  Te  Te178  1  0.33721252  0.83264226  0.33193204  1
  Te  Te179  1  0.33140862  0.83301258  0.66673345  1
  Te  Te180  1  0.66868779  0.16676719  -0.00209907  1
  Te  Te181  1  0.66498041  0.16739762  0.33056849  1
  Te  Te182  1  0.66418576  0.16618560  0.67046553  1
  Te  Te183  1  0.66653082  0.49954125  0.00402677  1
  Te  Te184  1  0.66444953  0.50645890  0.33560185  1
  Te  Te185  1  0.66803128  0.50506080  0.66400778  1
  Te  Te186  1  0.66793508  0.83405449  0.00315465  1
  Te  Te187  1  0.66457862  0.82786853  0.33412347  1
  Te  Te188  1  0.66200479  0.82839335  0.66454548  1
  Te  Te189  1  0.00385339  -0.00007745  0.16400777  1
  Te  Te190  1  0.00273529  0.00026726  0.49988340  1
  Te  Te191  1  -0.00355436  0.00632897  0.83857009  1
  Te  Te192  1  0.00418317  0.33862001  0.16416803  1
  Te  Te193  1  -0.00343809  0.33561289  0.49926627  1
  Te  Te194  1  0.00319133  0.32900689  0.83799913  1
  Te  Te195  1  -0.00142974  0.66406414  0.16700058  1
  Te  Te196  1  0.00033090  0.66453777  0.50070852  1
  Te  Te197  1  0.00508105  0.66647369  0.83914858  1
  Te  Te198  1  0.32783100  -0.00426054  0.16436387  1
  Te  Te199  1  0.32879601  -0.00149417  0.50098487  1
  Te  Te200  1  0.33514746  -0.00186141  0.83329782  1
  Te  Te201  1  0.32850362  0.33458008  0.16840720  1
  Te  Te202  1  0.33340697  0.33225858  0.49501139  1
  Te  Te203  1  0.33112714  0.32916575  0.83372457  1
  Te  Te204  1  0.33530307  0.66775815  0.16647786  1
  Te  Te205  1  0.33026569  0.67067489  0.50185689  1
  Te  Te206  1  0.32841170  0.66467088  0.83291896  1
  Te  Te207  1  0.66846474  0.00023922  0.16723436  1
  Te  Te208  1  0.66842755  -0.00565607  0.49975309  1
  Te  Te209  1  0.65940920  0.00367690  0.83372574  1
  Te  Te210  1  0.66809395  0.33331250  0.16715442  1
  Te  Te211  1  0.67191649  0.33388465  0.49897276  1
  Te  Te212  1  0.66768812  0.33397887  0.83346394  1
  Te  Te213  1  0.66892176  0.66712456  0.16428548  1
  Te  Te214  1  0.66383898  0.66913142  0.50093234  1
  Te  Te215  1  0.66943768  0.66324507  0.83075084  1
