# generated using pymatgen
data_AgSbTe2
_symmetry_space_group_name_H-M   'P 1'
_cell_length_a   18.31465863
_cell_length_b   18.30942873
_cell_length_c   18.31235325
_cell_angle_alpha   90.00013390
_cell_angle_beta   89.99979385
_cell_angle_gamma   89.99918184
_symmetry_Int_Tables_number   1
_chemical_formula_structural   AgSbTe2
_chemical_formula_sum   'Ag54 Sb54 Te108'
_cell_volume   6140.69857278
_cell_formula_units_Z   54
loop_
 _symmetry_equiv_pos_site_id
 _symmetry_equiv_pos_as_xyz
  1  'x, y, z'
loop_
 _atom_site_type_symbol
 _atom_site_label
 _atom_site_symmetry_multiplicity
 _atom_site_fract_x
 _atom_site_fract_y
 _atom_site_fract_z
 _atom_site_occupancy
  Ag  Ag0  1  0.83243773  0.16460497  0.66879371  1
  Ag  Ag1  1  0.67264947  0.50141712  0.15608627  1
  Ag  Ag2  1  0.16406420  0.32765533  0.16652972  1
  Ag  Ag3  1  0.66751778  -0.00165397  0.32676973  1
  Ag  Ag4  1  0.67134875  0.66280359  0.66929036  1
  Ag  Ag5  1  0.16966781  0.00279776  0.16380295  1
  Ag  Ag6  1  0.83378729  0.33104809  0.83258557  1
  Ag  Ag7  1  0.50680551  0.66622390  0.83275245  1
  Ag  Ag8  1  0.82796154  0.50638543  -0.00047409  1
  Ag  Ag9  1  0.66873011  0.16563054  0.50862272  1
  Ag  Ag10  1  0.83429187  0.67421187  0.16226880  1
  Ag  Ag11  1  -0.00430057  0.50192504  0.16422494  1
  Ag  Ag12  1  0.82981468  0.83432728  0.67165849  1
  Ag  Ag13  1  -0.00087375  0.00171471  0.00285964  1
  Ag  Ag14  1  0.66967051  0.32886740  0.66943671  1
  Ag  Ag15  1  0.33131054  0.33042965  0.00128255  1
  Ag  Ag16  1  0.17193652  0.00301976  0.83363908  1
  Ag  Ag17  1  0.82819007  0.66555129  0.83540273  1
  Ag  Ag18  1  -0.00765997  0.66526624  0.33324473  1
  Ag  Ag19  1  0.50639957  0.50486683  -0.00542921  1
  Ag  Ag20  1  0.16387209  0.67084748  0.50328572  1
  Ag  Ag21  1  0.83385881  0.16140587  0.33688744  1
  Ag  Ag22  1  0.50249679  0.49866450  0.67315336  1
  Ag  Ag23  1  0.16132487  0.16666870  0.66781882  1
  Ag  Ag24  1  0.33811194  0.67949709  -0.00114018  1
  Ag  Ag25  1  0.49957310  0.32452189  0.50505731  1
  Ag  Ag26  1  -0.00010634  0.33299016  0.33030344  1
  Ag  Ag27  1  0.33366657  0.15935707  0.83093613  1
  Ag  Ag28  1  0.17175834  0.00105833  0.50342389  1
  Ag  Ag29  1  -0.00325688  0.16794015  0.82705437  1
  Ag  Ag30  1  0.16606358  0.49471325  0.66759968  1
  Ag  Ag31  1  0.66736251  0.49967783  0.83536066  1
  Ag  Ag32  1  -0.00420955  0.16694579  0.50817905  1
  Ag  Ag33  1  0.83334082  0.83614982  0.32075786  1
  Ag  Ag34  1  0.50571492  0.16539488  0.66707222  1
  Ag  Ag35  1  0.32861017  0.32476026  0.32657347  1
  Ag  Ag36  1  -0.00481736  0.32898694  0.66915524  1
  Ag  Ag37  1  0.49770659  0.83504528  -0.00477546  1
  Ag  Ag38  1  0.49850828  -0.00241362  0.16455128  1
  Ag  Ag39  1  0.83299642  -0.00654747  0.16420173  1
  Ag  Ag40  1  0.33462733  -0.00354849  -0.00123900  1
  Ag  Ag41  1  0.83013436  0.83278726  0.00271170  1
  Ag  Ag42  1  0.00036430  0.32949397  -0.00000811  1
  Ag  Ag43  1  0.50329879  0.83727637  0.67422504  1
  Ag  Ag44  1  0.33063575  0.83919224  0.15892066  1
  Ag  Ag45  1  0.33424783  0.00178622  0.67542240  1
  Ag  Ag46  1  0.67462469  0.67165373  0.33502043  1
  Ag  Ag47  1  -0.00723759  0.66282373  0.66504721  1
  Ag  Ag48  1  0.33702994  0.00333957  0.32775013  1
  Ag  Ag49  1  -0.00472182  0.83481506  0.16445918  1
  Ag  Ag50  1  0.49620389  0.00359858  0.50191200  1
  Ag  Ag51  1  0.33645523  0.84033209  0.83945496  1
  Ag  Ag52  1  0.66580816  -0.00058690  0.00444970  1
  Ag  Ag53  1  0.66858714  0.16959139  0.82549372  1
  Sb  Sb54  1  0.67093653  0.83262342  0.16535477  1
  Sb  Sb55  1  0.49931631  0.66971337  0.50822652  1
  Sb  Sb56  1  0.66339940  0.83387381  0.83341373  1
  Sb  Sb57  1  0.67032512  0.33123548  0.33805905  1
  Sb  Sb58  1  0.33262433  0.50202067  0.16289539  1
  Sb  Sb59  1  0.16245085  0.16479240  0.33956150  1
  Sb  Sb60  1  0.00011054  0.16553492  0.16523976  1
  Sb  Sb61  1  0.33435778  0.32696824  0.66993232  1
  Sb  Sb62  1  0.50412132  0.16348523  0.34071812  1
  Sb  Sb63  1  0.83608442  0.66757263  0.50149606  1
  Sb  Sb64  1  0.16237966  0.32710742  0.83512969  1
  Sb  Sb65  1  0.33329294  0.67171625  0.32729903  1
  Sb  Sb66  1  0.83191758  0.32917952  0.50678864  1
  Sb  Sb67  1  0.16609252  0.67019652  0.82958914  1
  Sb  Sb68  1  0.49614892  0.32979072  0.16746565  1
  Sb  Sb69  1  -0.00196714  0.66813643  -0.00041115  1
  Sb  Sb70  1  0.83854307  0.33316756  0.16205661  1
  Sb  Sb71  1  -0.00125757  0.83724891  0.49819558  1
  Sb  Sb72  1  0.16887164  0.32995497  0.49928373  1
  Sb  Sb73  1  0.33479827  0.16352874  0.50537847  1
  Sb  Sb74  1  0.66627136  0.83960046  0.50082522  1
  Sb  Sb75  1  0.33339879  0.49881066  0.50209470  1
  Sb  Sb76  1  0.66614477  0.66834724  -0.00341076  1
  Sb  Sb77  1  0.16507112  0.49686575  -0.00407682  1
  Sb  Sb78  1  0.49932278  0.16281400  -0.00792401  1
  Sb  Sb79  1  0.83496382  0.00013406  0.83745732  1
  Sb  Sb80  1  0.33885874  0.49897893  0.83447968  1
  Sb  Sb81  1  0.66850499  0.33280910  -0.00586802  1
  Sb  Sb82  1  0.33450707  0.67243977  0.67217884  1
  Sb  Sb83  1  0.83055003  0.49918038  0.67443745  1
  Sb  Sb84  1  0.83240270  0.00235277  0.49651656  1
  Sb  Sb85  1  0.16658500  0.16310110  -0.00710092  1
  Sb  Sb86  1  0.33250159  0.15885134  0.16117551  1
  Sb  Sb87  1  0.16474524  0.49908591  0.33536354  1
  Sb  Sb88  1  0.66519840  0.49636373  0.50575948  1
  Sb  Sb89  1  0.33442428  0.83801290  0.50143710  1
  Sb  Sb90  1  0.16995372  0.83683502  0.00058665  1
  Sb  Sb91  1  0.83411229  0.50350424  0.32329863  1
  Sb  Sb92  1  0.49460996  -0.00441023  0.83291623  1
  Sb  Sb93  1  0.50231344  0.49976469  0.33175826  1
  Sb  Sb94  1  0.16164395  0.83601695  0.33147089  1
  Sb  Sb95  1  0.50656640  0.67146529  0.16028719  1
  Sb  Sb96  1  0.15970672  0.66800674  0.16879668  1
  Sb  Sb97  1  0.83437507  0.16377525  -0.00355569  1
  Sb  Sb98  1  -0.00239316  0.00121678  0.32788967  1
  Sb  Sb99  1  0.50473604  0.33653171  0.82906095  1
  Sb  Sb100  1  0.00283279  0.00454267  0.67015453  1
  Sb  Sb101  1  0.50440564  0.83730600  0.32882666  1
  Sb  Sb102  1  0.66262118  0.00369034  0.66785579  1
  Sb  Sb103  1  0.16617445  0.83772085  0.66721025  1
  Sb  Sb104  1  0.00009046  0.49639455  0.49957000  1
  Sb  Sb105  1  0.66817034  0.16562284  0.16610419  1
  Sb  Sb106  1  -0.00629844  0.49510195  0.83627500  1
  Sb  Sb107  1  0.00051592  0.83741468  0.83690128  1
  Te  Te108  1  0.16632026  0.16620232  0.16893538  1
  Te  Te109  1  0.16346345  0.16263022  0.50676565  1
  Te  Te110  1  0.16584268  0.16244638  0.82677497  1
  Te  Te111  1  0.16124669  0.49799130  0.16604683  1
  Te  Te112  1  0.16646598  0.50257900  0.50773114  1
  Te  Te113  1  0.16581251  0.50046465  0.82670522  1
  Te  Te114  1  0.16323307  0.83677038  0.16700425  1
  Te  Te115  1  0.16661686  0.83680312  0.49930450  1
  Te  Te116  1  0.17265592  0.84023702  0.83287846  1
  Te  Te117  1  0.50074356  0.15896509  0.16649311  1
  Te  Te118  1  0.50196299  0.16420729  0.50616270  1
  Te  Te119  1  0.50167413  0.16893837  0.82623308  1
  Te  Te120  1  0.50294961  0.50097835  0.16177011  1
  Te  Te121  1  0.49995751  0.49812625  0.50559602  1
  Te  Te122  1  0.50477697  0.50308313  0.83397709  1
  Te  Te123  1  0.49757189  0.83802270  0.16136827  1
  Te  Te124  1  0.50006851  0.83910438  0.50783865  1
  Te  Te125  1  0.49773127  0.82856088  0.83391554  1
  Te  Te126  1  0.83308287  0.16073205  0.17099899  1
  Te  Te127  1  0.83313085  0.16681627  0.50337675  1
  Te  Te128  1  0.83346240  0.16704751  0.83064190  1
  Te  Te129  1  0.83421842  0.50016410  0.15931784  1
  Te  Te130  1  0.83267476  0.49794844  0.49722148  1
  Te  Te131  1  0.82844537  0.50375517  0.83950660  1
  Te  Te132  1  0.83430556  0.83368930  0.16386105  1
  Te  Te133  1  0.83297570  0.83489430  0.50842965  1
  Te  Te134  1  0.83315947  0.83006871  0.83329362  1
  Te  Te135  1  0.16678074  0.00039487  0.00295057  1
  Te  Te136  1  0.17076139  0.00029157  0.33120695  1
  Te  Te137  1  0.16945954  0.00333129  0.66612610  1
  Te  Te138  1  0.16450202  0.33273223  0.00505989  1
  Te  Te139  1  0.16509565  0.33181437  0.33015131  1
  Te  Te140  1  0.16473651  0.33212972  0.66645252  1
  Te  Te141  1  0.17443036  0.66455735  -0.00063049  1
  Te  Te142  1  0.16311915  0.66686507  0.33931948  1
  Te  Te143  1  0.16496742  0.66615129  0.66354147  1
  Te  Te144  1  0.49847229  -0.00192668  0.00149970  1
  Te  Te145  1  0.50058043  -0.00067569  0.33304198  1
  Te  Te146  1  0.49767184  -0.00078778  0.66552464  1
  Te  Te147  1  0.49710094  0.33537259  0.00104776  1
  Te  Te148  1  0.49780718  0.33232433  0.33708480  1
  Te  Te149  1  0.50031080  0.33272838  0.66465258  1
  Te  Te150  1  0.49995908  0.66748529  -0.00390805  1
  Te  Te151  1  0.50446766  0.66824428  0.33485889  1
  Te  Te152  1  0.50233480  0.66718618  0.67129942  1
  Te  Te153  1  0.83485813  -0.00274395  0.00330683  1
  Te  Te154  1  0.83058258  -0.00156060  0.33079031  1
  Te  Te155  1  0.83339230  -0.00099163  0.66676447  1
  Te  Te156  1  0.83650141  0.33405610  -0.00524206  1
  Te  Te157  1  0.83912449  0.33015411  0.33247197  1
  Te  Te158  1  0.83393949  0.33172912  0.67180284  1
  Te  Te159  1  0.83293182  0.66926739  -0.00049530  1
  Te  Te160  1  0.83407651  0.66919779  0.33284029  1
  Te  Te161  1  0.83293087  0.66624382  0.66800303  1
  Te  Te162  1  0.00015206  0.16831705  -0.00589673  1
  Te  Te163  1  -0.00465025  0.16995173  0.33635797  1
  Te  Te164  1  -0.00324890  0.16683178  0.66743062  1
  Te  Te165  1  -0.00247540  0.49720446  0.00393228  1
  Te  Te166  1  0.00044410  0.49892094  0.32894629  1
  Te  Te167  1  0.00140379  0.49896146  0.66728456  1
  Te  Te168  1  -0.00492439  0.83623752  0.00363081  1
  Te  Te169  1  -0.00662121  0.82969456  0.33060418  1
  Te  Te170  1  -0.00442194  0.82906294  0.66723658  1
  Te  Te171  1  0.33304901  0.16789754  -0.00675291  1
  Te  Te172  1  0.33438063  0.16563206  0.33350217  1
  Te  Te173  1  0.33420325  0.16232959  0.67101295  1
  Te  Te174  1  0.33720803  0.49335060  -0.00025260  1
  Te  Te175  1  0.33355472  0.49480903  0.33213778  1
  Te  Te176  1  0.33594194  0.50054608  0.66822963  1
  Te  Te177  1  0.33400490  0.83628297  -0.00012579  1
  Te  Te178  1  0.33494140  0.83861020  0.32718202  1
  Te  Te179  1  0.33635459  0.83973410  0.67019685  1
  Te  Te180  1  0.66616685  0.16148615  -0.00488118  1
  Te  Te181  1  0.67241813  0.16318717  0.33592065  1
  Te  Te182  1  0.66828112  0.16628941  0.66721205  1
  Te  Te183  1  0.66650948  0.50036433  -0.00250440  1
  Te  Te184  1  0.66679537  0.50274520  0.33160623  1
  Te  Te185  1  0.66366752  0.49974617  0.67112129  1
  Te  Te186  1  0.66616263  0.83919873  -0.00036977  1
  Te  Te187  1  0.67231338  0.83386578  0.33390669  1
  Te  Te188  1  0.66765903  0.83025582  0.66711210  1
  Te  Te189  1  0.00055156  -0.00138370  0.16325473  1
  Te  Te190  1  0.00496280  0.00585945  0.49817661  1
  Te  Te191  1  0.00566223  0.00441305  0.83927339  1
  Te  Te192  1  0.00289064  0.33266358  0.16530068  1
  Te  Te193  1  0.00083290  0.32893204  0.50144560  1
  Te  Te194  1  -0.00356120  0.32964344  0.83259962  1
  Te  Te195  1  -0.00432319  0.66697120  0.16795260  1
  Te  Te196  1  0.00303422  0.66645828  0.50059256  1
  Te  Te197  1  -0.00327681  0.66706823  0.82884600  1
  Te  Te198  1  0.33170549  -0.00107995  0.16504045  1
  Te  Te199  1  0.33332756  0.00022197  0.49577787  1
  Te  Te200  1  0.33304037  0.00027866  0.83515275  1
  Te  Te201  1  0.32887880  0.33350831  0.16595936  1
  Te  Te202  1  0.33824680  0.33136129  0.49503921  1
  Te  Te203  1  0.33196876  0.32968354  0.83939979  1
  Te  Te204  1  0.33273749  0.67269959  0.16195153  1
  Te  Te205  1  0.32665293  0.66786374  0.49749570  1
  Te  Te206  1  0.33403427  0.66931857  0.83897738  1
  Te  Te207  1  0.66772579  0.00058152  0.16658970  1
  Te  Te208  1  0.66303468  0.00610092  0.49652069  1
  Te  Te209  1  0.66636970  0.00607127  0.83861772  1
  Te  Te210  1  0.66551409  0.33976677  0.16761417  1
  Te  Te211  1  0.66148326  0.32806693  0.50580249  1
  Te  Te212  1  0.67109730  0.33249618  0.82915413  1
  Te  Te213  1  0.67242774  0.66231084  0.17009833  1
  Te  Te214  1  0.66578660  0.66595439  0.50058664  1
  Te  Te215  1  0.66796342  0.66645155  0.83048068  1
