# generated using pymatgen
data_AgSbTe2
_symmetry_space_group_name_H-M   'P 1'
_cell_length_a   18.30255591
_cell_length_b   18.30439844
_cell_length_c   18.30324059
_cell_angle_alpha   89.99900908
_cell_angle_beta   90.00022966
_cell_angle_gamma   90.00007484
_symmetry_Int_Tables_number   1
_chemical_formula_structural   AgSbTe2
_chemical_formula_sum   'Ag54 Sb54 Te108'
_cell_volume   6131.90180112
_cell_formula_units_Z   54
loop_
 _symmetry_equiv_pos_site_id
 _symmetry_equiv_pos_as_xyz
  1  'x, y, z'
loop_
 _atom_site_type_symbol
 _atom_site_label
 _atom_site_symmetry_multiplicity
 _atom_site_fract_x
 _atom_site_fract_y
 _atom_site_fract_z
 _atom_site_occupancy
  Ag  Ag0  1  0.83847220  0.50353431  0.66407992  1
  Ag  Ag1  1  0.83027052  0.33875751  0.50200058  1
  Ag  Ag2  1  0.33665885  0.16311800  0.50479986  1
  Ag  Ag3  1  0.83803785  0.82997516  0.33474019  1
  Ag  Ag4  1  0.16461079  -0.00327021  0.83507876  1
  Ag  Ag5  1  0.83308250  0.66333978  0.49960616  1
  Ag  Ag6  1  0.00481401  0.50160103  0.83383662  1
  Ag  Ag7  1  0.00188782  0.67041312  0.00038371  1
  Ag  Ag8  1  0.16643639  0.16239843  0.67062010  1
  Ag  Ag9  1  0.50114337  0.00351947  0.15894980  1
  Ag  Ag10  1  0.66315312  0.16011136  0.49380940  1
  Ag  Ag11  1  0.49647269  0.84015231  -0.00289333  1
  Ag  Ag12  1  0.66800662  0.00261910  0.32888118  1
  Ag  Ag13  1  -0.00058891  -0.00654914  0.32854727  1
  Ag  Ag14  1  0.17034483  0.83505341  0.00426800  1
  Ag  Ag15  1  0.33043833  0.50541150  0.16518310  1
  Ag  Ag16  1  0.16943893  0.33641427  0.16696789  1
  Ag  Ag17  1  0.00308284  0.66603461  0.67197570  1
  Ag  Ag18  1  0.66935987  0.66701554  0.66930531  1
  Ag  Ag19  1  0.00145669  0.16395991  0.16143617  1
  Ag  Ag20  1  0.16603353  0.67101088  0.83496003  1
  Ag  Ag21  1  0.50284243  0.15801847  -0.00049864  1
  Ag  Ag22  1  0.32623561  0.66757250  0.33059013  1
  Ag  Ag23  1  0.50090690  0.00062284  0.49947373  1
  Ag  Ag24  1  0.66325838  0.49480880  0.16843679  1
  Ag  Ag25  1  0.65893351  0.00078815  0.00474787  1
  Ag  Ag26  1  0.16614448  0.67107800  0.16283413  1
  Ag  Ag27  1  0.16144155  0.50495674  0.67189466  1
  Ag  Ag28  1  0.00300632  -0.00298148  0.67781910  1
  Ag  Ag29  1  0.50262551  0.32772419  0.84099956  1
  Ag  Ag30  1  0.00114987  -0.00213522  -0.00293305  1
  Ag  Ag31  1  0.00220038  0.67150852  0.32894037  1
  Ag  Ag32  1  0.66995958  0.66915377  0.00011947  1
  Ag  Ag33  1  0.66535194  0.83783071  0.49770074  1
  Ag  Ag34  1  0.50380583  0.33092685  0.16108128  1
  Ag  Ag35  1  0.32754303  0.50497426  0.83481837  1
  Ag  Ag36  1  0.66753440  0.33121078  0.32613418  1
  Ag  Ag37  1  0.16394758  0.83354730  0.32570653  1
  Ag  Ag38  1  0.83136511  0.33174797  0.83074721  1
  Ag  Ag39  1  0.84465554  0.00288693  0.83388858  1
  Ag  Ag40  1  0.49663639  0.00164274  0.84143933  1
  Ag  Ag41  1  0.33034413  0.82990188  0.16255613  1
  Ag  Ag42  1  0.33223821  0.83495142  0.83804025  1
  Ag  Ag43  1  0.49895236  0.83459691  0.67294321  1
  Ag  Ag44  1  0.83082707  0.50444901  0.33617733  1
  Ag  Ag45  1  0.32627668  0.66647184  0.66917594  1
  Ag  Ag46  1  0.50721335  0.50075277  0.32797922  1
  Ag  Ag47  1  0.66390188  0.16902663  0.16753834  1
  Ag  Ag48  1  0.66374310  0.32966549  0.00700371  1
  Ag  Ag49  1  0.32982945  0.16063911  0.83060942  1
  Ag  Ag50  1  0.16552156  -0.00519030  0.16363849  1
  Ag  Ag51  1  0.00589012  0.15842664  0.83721512  1
  Ag  Ag52  1  0.16813808  0.00021336  0.50237089  1
  Ag  Ag53  1  0.00408948  0.50107807  0.16387588  1
  Sb  Sb54  1  0.66736878  0.50026110  0.83790505  1
  Sb  Sb55  1  -0.00342302  0.33061572  0.00037769  1
  Sb  Sb56  1  0.49895996  0.83261302  0.33074596  1
  Sb  Sb57  1  0.66914481  0.50069766  0.49440277  1
  Sb  Sb58  1  0.16473729  0.50580658  -0.00138350  1
  Sb  Sb59  1  0.50601508  0.32640620  0.49796775  1
  Sb  Sb60  1  0.16304626  0.32777732  0.49647653  1
  Sb  Sb61  1  0.67016702  0.66768930  0.33130097  1
  Sb  Sb62  1  0.32896740  -0.00403263  0.66939960  1
  Sb  Sb63  1  0.33829186  0.33320558  0.00042465  1
  Sb  Sb64  1  0.17014097  0.83342074  0.66936551  1
  Sb  Sb65  1  0.50350093  0.67194361  0.50049573  1
  Sb  Sb66  1  0.83167479  0.16636078  0.33394771  1
  Sb  Sb67  1  0.33669355  0.83673331  0.50079531  1
  Sb  Sb68  1  0.16695205  0.33296914  0.83846417  1
  Sb  Sb69  1  0.49493622  0.66595974  0.16526493  1
  Sb  Sb70  1  -0.00532960  0.33538127  0.32925851  1
  Sb  Sb71  1  0.84067483  0.66675472  0.82936505  1
  Sb  Sb72  1  0.49535705  0.16032932  0.67198157  1
  Sb  Sb73  1  0.83359742  0.83511603  0.00293404  1
  Sb  Sb74  1  0.33267627  -0.00485398  0.33284220  1
  Sb  Sb75  1  0.83044577  0.82821842  0.66338868  1
  Sb  Sb76  1  0.33857452  0.33814467  0.33073978  1
  Sb  Sb77  1  0.16426576  0.50605072  0.33105422  1
  Sb  Sb78  1  0.32883141  0.66945086  -0.00024201  1
  Sb  Sb79  1  0.33577805  -0.00238876  -0.00184408  1
  Sb  Sb80  1  0.49959648  0.50486651  0.66645125  1
  Sb  Sb81  1  0.66861674  -0.00339596  0.66701334  1
  Sb  Sb82  1  0.16511570  0.15867062  0.33305029  1
  Sb  Sb83  1  0.50118635  0.50083322  0.00406820  1
  Sb  Sb84  1  0.66005331  0.83557644  0.16848065  1
  Sb  Sb85  1  0.33294830  0.49916080  0.49895186  1
  Sb  Sb86  1  0.00877553  0.83448185  0.16752958  1
  Sb  Sb87  1  0.66472061  0.16520259  0.83611253  1
  Sb  Sb88  1  0.83234733  -0.00108151  0.50169715  1
  Sb  Sb89  1  0.82696398  0.33574216  0.16587875  1
  Sb  Sb90  1  0.66028840  0.83417333  0.83261086  1
  Sb  Sb91  1  0.83729150  0.16905193  0.66864234  1
  Sb  Sb92  1  0.00625008  0.83505548  0.83420980  1
  Sb  Sb93  1  -0.00078666  0.16262560  0.50174524  1
  Sb  Sb94  1  0.49272611  0.66914802  0.83492293  1
  Sb  Sb95  1  0.16351115  0.67261159  0.50104079  1
  Sb  Sb96  1  0.33454927  0.16537017  0.16398304  1
  Sb  Sb97  1  0.66834080  0.33720068  0.66737747  1
  Sb  Sb98  1  0.16903457  0.15847995  -0.00301952  1
  Sb  Sb99  1  -0.00241677  0.83388073  0.49763467  1
  Sb  Sb100  1  0.50212958  0.16684853  0.32752619  1
  Sb  Sb101  1  -0.00002832  0.33617715  0.67023751  1
  Sb  Sb102  1  0.83432807  0.50028320  -0.00029911  1
  Sb  Sb103  1  0.83449576  -0.00040383  0.16459119  1
  Sb  Sb104  1  0.82875541  0.16517924  -0.00095876  1
  Sb  Sb105  1  -0.00183173  0.50256045  0.50091708  1
  Sb  Sb106  1  0.33288419  0.33686810  0.66898425  1
  Sb  Sb107  1  0.84101267  0.66481102  0.17152732  1
  Te  Te108  1  0.16521377  0.16197043  0.16517902  1
  Te  Te109  1  0.16880539  0.16167667  0.50493528  1
  Te  Te110  1  0.16675261  0.16587465  0.83117914  1
  Te  Te111  1  0.16688764  0.50300523  0.16680918  1
  Te  Te112  1  0.16699849  0.49781997  0.50829839  1
  Te  Te113  1  0.16608034  0.49938389  0.83140413  1
  Te  Te114  1  0.16986884  0.83377252  0.16570335  1
  Te  Te115  1  0.16838606  0.84126944  0.49453386  1
  Te  Te116  1  0.17202155  0.83418744  0.83557383  1
  Te  Te117  1  0.50078717  0.16511029  0.16192957  1
  Te  Te118  1  0.50071248  0.16128583  0.50140047  1
  Te  Te119  1  0.49785527  0.16525214  0.83667207  1
  Te  Te120  1  0.49854536  0.49895523  0.16908005  1
  Te  Te121  1  0.49972137  0.49793551  0.49368703  1
  Te  Te122  1  0.49541950  0.49691648  0.83353192  1
  Te  Te123  1  0.49278822  0.83803285  0.16235890  1
  Te  Te124  1  0.50392962  0.83919072  0.50182209  1
  Te  Te125  1  0.49426943  0.83573514  0.83487333  1
  Te  Te126  1  0.83540258  0.16805571  0.16653144  1
  Te  Te127  1  0.82756112  0.17126195  0.50136110  1
  Te  Te128  1  0.83846638  0.16642643  0.83244789  1
  Te  Te129  1  0.83620831  0.49945372  0.17076189  1
  Te  Te130  1  0.83309604  0.50068926  0.49993169  1
  Te  Te131  1  0.83643784  0.49848529  0.82979145  1
  Te  Te132  1  0.82976392  0.83207493  0.17522557  1
  Te  Te133  1  0.82751876  0.83054166  0.49577140  1
  Te  Te134  1  0.83179524  0.83967238  0.83336150  1
  Te  Te135  1  0.16300653  -0.00401659  -0.00063635  1
  Te  Te136  1  0.16518811  -0.00497031  0.32986862  1
  Te  Te137  1  0.16317646  0.00017206  0.66938507  1
  Te  Te138  1  0.16560926  0.33128359  0.00887653  1
  Te  Te139  1  0.16546188  0.33357243  0.32669831  1
  Te  Te140  1  0.16652210  0.33353341  0.66493072  1
  Te  Te141  1  0.16266425  0.67163298  -0.00078774  1
  Te  Te142  1  0.16393825  0.67099496  0.33412149  1
  Te  Te143  1  0.16432435  0.66579222  0.66730787  1
  Te  Te144  1  0.50076148  -0.00199660  0.00074538  1
  Te  Te145  1  0.50401636  -0.00057154  0.33394444  1
  Te  Te146  1  0.50033899  -0.00538501  0.66567172  1
  Te  Te147  1  0.50445448  0.33434943  0.00068113  1
  Te  Te148  1  0.50637300  0.33716875  0.32961536  1
  Te  Te149  1  0.50116515  0.33420110  0.67332780  1
  Te  Te150  1  0.50838550  0.67291537  -0.00054967  1
  Te  Te151  1  0.49649725  0.66148470  0.33344639  1
  Te  Te152  1  0.50259635  0.67182806  0.66725349  1
  Te  Te153  1  0.83736262  -0.00127445  -0.00634844  1
  Te  Te154  1  0.83307911  -0.00319822  0.33417838  1
  Te  Te155  1  0.84019952  -0.00067587  0.67250980  1
  Te  Te156  1  0.82554209  0.33310304  -0.00702481  1
  Te  Te157  1  0.82747143  0.33749931  0.33573956  1
  Te  Te158  1  0.83339560  0.33994866  0.66864637  1
  Te  Te159  1  0.83409558  0.66842859  -0.00106278  1
  Te  Te160  1  0.83686922  0.66610752  0.33719717  1
  Te  Te161  1  0.83575735  0.66285184  0.66315034  1
  Te  Te162  1  -0.00014732  0.16270071  -0.00012244  1
  Te  Te163  1  -0.00060405  0.16242764  0.32776248  1
  Te  Te164  1  0.00459459  0.16370481  0.67066383  1
  Te  Te165  1  -0.00085095  0.50415104  0.00073960  1
  Te  Te166  1  -0.00400160  0.50378646  0.32962261  1
  Te  Te167  1  0.00039350  0.50266763  0.66921410  1
  Te  Te168  1  0.00183111  0.83222484  0.00072273  1
  Te  Te169  1  -0.00034798  0.83299825  0.33301939  1
  Te  Te170  1  -0.00034860  0.83145805  0.66565800  1
  Te  Te171  1  0.34087571  0.16730503  -0.00600785  1
  Te  Te172  1  0.33344001  0.16834235  0.33851348  1
  Te  Te173  1  0.32856991  0.16739424  0.66954502  1
  Te  Te174  1  0.33295165  0.50110285  0.00019307  1
  Te  Te175  1  0.33269909  0.50585324  0.33012914  1
  Te  Te176  1  0.33184961  0.50623704  0.66951246  1
  Te  Te177  1  0.33302085  0.83218734  -0.00056854  1
  Te  Te178  1  0.32996899  0.82715148  0.33040454  1
  Te  Te179  1  0.33788584  0.82692137  0.66982777  1
  Te  Te180  1  0.66271076  0.16362175  0.00224059  1
  Te  Te181  1  0.66626588  0.16333084  0.33025722  1
  Te  Te182  1  0.66609924  0.16739763  0.66097907  1
  Te  Te183  1  0.66787014  0.50215815  0.00633559  1
  Te  Te184  1  0.66835670  0.50009078  0.32883397  1
  Te  Te185  1  0.66948741  0.50602031  0.66631719  1
  Te  Te186  1  0.66485593  0.83549436  0.00025365  1
  Te  Te187  1  0.66736970  0.83657586  0.33615118  1
  Te  Te188  1  0.66279471  0.82850945  0.66274312  1
  Te  Te189  1  0.00108574  0.00215545  0.16680836  1
  Te  Te190  1  0.00388982  0.00043382  0.49468738  1
  Te  Te191  1  0.00364764  -0.00002537  0.83534956  1
  Te  Te192  1  0.00298816  0.33354855  0.16543433  1
  Te  Te193  1  -0.00753067  0.33172921  0.49825771  1
  Te  Te194  1  -0.00305180  0.33618692  0.83549393  1
  Te  Te195  1  0.00544766  0.66407971  0.16651605  1
  Te  Te196  1  -0.00460858  0.66729385  0.49890744  1
  Te  Te197  1  0.00539040  0.66470100  0.83337207  1
  Te  Te198  1  0.33275917  -0.00237861  0.16789319  1
  Te  Te199  1  0.33355796  0.00403348  0.50063164  1
  Te  Te200  1  0.33283597  0.00012871  0.83211915  1
  Te  Te201  1  0.33461624  0.33693021  0.16731894  1
  Te  Te202  1  0.33334679  0.32477656  0.49902737  1
  Te  Te203  1  0.33640457  0.33413469  0.83342934  1
  Te  Te204  1  0.32855816  0.66563085  0.16735538  1
  Te  Te205  1  0.33403116  0.66706861  0.50169080  1
  Te  Te206  1  0.32719487  0.66506793  0.83214852  1
  Te  Te207  1  0.66637935  0.00265786  0.16665611  1
  Te  Te208  1  0.66577910  0.00034525  0.49966703  1
  Te  Te209  1  0.66049557  0.00048016  0.83644457  1
  Te  Te210  1  0.66471480  0.33184488  0.16640315  1
  Te  Te211  1  0.67076747  0.32947015  0.49623361  1
  Te  Te212  1  0.66649831  0.33324449  0.83645021  1
  Te  Te213  1  0.66713476  0.66352654  0.16147160  1
  Te  Te214  1  0.67011255  0.66954566  0.50242108  1
  Te  Te215  1  0.66839197  0.66666620  0.83389245  1
