# generated using pymatgen
data_AgSbTe2
_symmetry_space_group_name_H-M   'P 1'
_cell_length_a   18.35508018
_cell_length_b   18.34781409
_cell_length_c   18.34627478
_cell_angle_alpha   90.00181452
_cell_angle_beta   89.99753465
_cell_angle_gamma   89.99669161
_symmetry_Int_Tables_number   1
_chemical_formula_structural   AgSbTe2
_chemical_formula_sum   'Ag54 Sb54 Te108'
_cell_volume   6178.57765602
_cell_formula_units_Z   54
loop_
 _symmetry_equiv_pos_site_id
 _symmetry_equiv_pos_as_xyz
  1  'x, y, z'
loop_
 _atom_site_type_symbol
 _atom_site_label
 _atom_site_symmetry_multiplicity
 _atom_site_fract_x
 _atom_site_fract_y
 _atom_site_fract_z
 _atom_site_occupancy
  Ag  Ag0  1  0.33091151  0.16109790  0.50461911  1
  Ag  Ag1  1  0.67579306  0.34192080  0.33626143  1
  Ag  Ag2  1  0.16431365  0.16416554  0.33947969  1
  Ag  Ag3  1  0.49953622  0.67305391  0.83030595  1
  Ag  Ag4  1  0.50243192  0.83285020  -0.00978648  1
  Ag  Ag5  1  -0.00307023  0.32970491  0.01551454  1
  Ag  Ag6  1  -0.00670000  0.83407306  0.17485525  1
  Ag  Ag7  1  0.16667034  -0.00454397  0.82989874  1
  Ag  Ag8  1  0.67486255  0.51002391  0.17478856  1
  Ag  Ag9  1  0.83617120  0.83258778  0.66008739  1
  Ag  Ag10  1  -0.00374226  0.00627891  0.66752735  1
  Ag  Ag11  1  0.67450365  0.34024020  0.66138338  1
  Ag  Ag12  1  0.66824136  0.66454988  0.66324033  1
  Ag  Ag13  1  0.50379870  -0.00151124  0.50257281  1
  Ag  Ag14  1  0.67568840  0.82964034  0.17520040  1
  Ag  Ag15  1  0.32995758  0.83652685  0.50383281  1
  Ag  Ag16  1  0.83200133  -0.00579705  0.50068764  1
  Ag  Ag17  1  0.83424920  0.67373212  0.49865547  1
  Ag  Ag18  1  0.16295372  0.67015741  0.16939319  1
  Ag  Ag19  1  0.15575554  0.33703099  0.17482899  1
  Ag  Ag20  1  0.49863358  -0.00670060  0.82570464  1
  Ag  Ag21  1  -0.00865591  0.67454128  0.33148975  1
  Ag  Ag22  1  0.83902766  0.33633084  0.17797713  1
  Ag  Ag23  1  0.50467840  0.66934651  0.17520384  1
  Ag  Ag24  1  0.83068700  0.49094118  0.65746180  1
  Ag  Ag25  1  -0.00014903  0.16238636  0.82338590  1
  Ag  Ag26  1  0.83387781  0.82550437  0.33643597  1
  Ag  Ag27  1  0.32951100  0.15839874  0.82645046  1
  Ag  Ag28  1  -0.00003892  0.83614398  0.83188833  1
  Ag  Ag29  1  -0.00049347  0.17638045  0.16850449  1
  Ag  Ag30  1  0.50285614  0.16338839  0.33445715  1
  Ag  Ag31  1  0.51152702  0.50971807  0.33660235  1
  Ag  Ag32  1  0.67347706  0.66799010  0.33549473  1
  Ag  Ag33  1  0.34346843  0.67002178  0.66716181  1
  Ag  Ag34  1  0.83975911  0.17697542  0.66769544  1
  Ag  Ag35  1  0.16718336  0.67573055  0.83236138  1
  Ag  Ag36  1  0.51280067  0.50336087  0.65936596  1
  Ag  Ag37  1  -0.00600932  0.48982443  0.17074552  1
  Ag  Ag38  1  -0.00533087  0.83274268  0.49478384  1
  Ag  Ag39  1  -0.00950314  0.32564164  0.66296427  1
  Ag  Ag40  1  0.83475671  0.32878081  0.81910918  1
  Ag  Ag41  1  -0.00496127  0.33665062  0.33186964  1
  Ag  Ag42  1  0.33440369  0.83580478  0.82717998  1
  Ag  Ag43  1  0.51250989  0.83196983  0.33212819  1
  Ag  Ag44  1  0.15902078  0.83205154  -0.00637161  1
  Ag  Ag45  1  0.83656388  0.33298715  0.50102246  1
  Ag  Ag46  1  0.66426970  0.83494912  0.83595587  1
  Ag  Ag47  1  0.66650505  -0.01188820  0.33478636  1
  Ag  Ag48  1  0.83902318  0.83303699  -0.00217035  1
  Ag  Ag49  1  0.67388715  0.15855283  0.82833821  1
  Ag  Ag50  1  0.15618873  0.32677427  0.49495030  1
  Ag  Ag51  1  0.83172686  0.50090083  0.33811049  1
  Ag  Ag52  1  0.15737137  0.16840124  0.66438646  1
  Ag  Ag53  1  0.15483448  0.83504387  0.33104055  1
  Sb  Sb54  1  0.66982125  0.50092651  0.49516527  1
  Sb  Sb55  1  0.83495126  0.50207108  0.00314441  1
  Sb  Sb56  1  0.16179272  0.49625034  0.66665066  1
  Sb  Sb57  1  0.50225743  0.33030695  0.49802426  1
  Sb  Sb58  1  0.16232919  0.66684697  0.49960733  1
  Sb  Sb59  1  0.33424325  0.33403541  0.66524337  1
  Sb  Sb60  1  0.33362239  -0.00435980  -0.00461423  1
  Sb  Sb61  1  0.83448711  -0.00014693  0.82648682  1
  Sb  Sb62  1  0.66862386  0.50293327  0.83284669  1
  Sb  Sb63  1  0.33395837  0.50175281  0.50038044  1
  Sb  Sb64  1  0.50547057  0.83025327  0.66623350  1
  Sb  Sb65  1  0.33238677  0.50223225  0.17057953  1
  Sb  Sb66  1  -0.00016484  -0.00109638  -0.00572394  1
  Sb  Sb67  1  0.16385578  0.00171377  0.50292920  1
  Sb  Sb68  1  0.50440945  0.67088997  0.49971759  1
  Sb  Sb69  1  0.32556419  0.33019448  -0.00170477  1
  Sb  Sb70  1  0.50217242  0.16906708  0.66408816  1
  Sb  Sb71  1  0.32973140  -0.00369983  0.66715884  1
  Sb  Sb72  1  0.83433260  -0.00014560  0.17379426  1
  Sb  Sb73  1  0.33497723  0.50431811  0.82980505  1
  Sb  Sb74  1  0.50223569  -0.00803280  0.17007424  1
  Sb  Sb75  1  0.50584674  0.33265880  0.83208634  1
  Sb  Sb76  1  0.66673557  -0.00424486  0.00096226  1
  Sb  Sb77  1  0.15993738  0.50086343  0.33268381  1
  Sb  Sb78  1  0.16345914  -0.00331317  0.16556820  1
  Sb  Sb79  1  0.33332318  0.67077802  -0.00571592  1
  Sb  Sb80  1  0.67124553  0.16514198  0.16805028  1
  Sb  Sb81  1  0.50524978  0.33913131  0.17159105  1
  Sb  Sb82  1  0.50297946  0.50636391  0.00208376  1
  Sb  Sb83  1  0.83507033  0.66679199  0.17577972  1
  Sb  Sb84  1  -0.00423865  0.50049807  0.49653110  1
  Sb  Sb85  1  0.83556284  0.16530769  -0.00493902  1
  Sb  Sb86  1  0.66618595  0.16622226  0.50250396  1
  Sb  Sb87  1  0.00045150  0.66919711  0.00624327  1
  Sb  Sb88  1  0.33016238  0.33294492  0.33508997  1
  Sb  Sb89  1  0.33211256  0.83170361  0.16809873  1
  Sb  Sb90  1  0.16404689  0.50409278  0.00168271  1
  Sb  Sb91  1  0.50036250  0.16124402  0.00085269  1
  Sb  Sb92  1  0.16331574  0.16207055  -0.00144467  1
  Sb  Sb93  1  0.16084499  0.83618645  0.66851950  1
  Sb  Sb94  1  -0.00452948  0.66755248  0.66335069  1
  Sb  Sb95  1  0.33461843  0.66976774  0.33806947  1
  Sb  Sb96  1  0.83200420  0.66945579  0.82518170  1
  Sb  Sb97  1  0.00163960  0.16695049  0.50111840  1
  Sb  Sb98  1  0.67235743  -0.00167512  0.66400578  1
  Sb  Sb99  1  0.15825882  0.32764634  0.83223420  1
  Sb  Sb100  1  0.83411691  0.16920773  0.33900990  1
  Sb  Sb101  1  -0.00208020  0.50001565  0.83539024  1
  Sb  Sb102  1  -0.00426965  -0.00123266  0.33881466  1
  Sb  Sb103  1  0.67101412  0.83305159  0.49881068  1
  Sb  Sb104  1  0.33776976  -0.00159631  0.33699907  1
  Sb  Sb105  1  0.32777029  0.16818811  0.17062610  1
  Sb  Sb106  1  0.67388991  0.33308897  0.00023912  1
  Sb  Sb107  1  0.66715809  0.67092385  0.00319518  1
  Te  Te108  1  0.16129168  0.16625952  0.16763329  1
  Te  Te109  1  0.16882073  0.16690403  0.50029012  1
  Te  Te110  1  0.16348613  0.16331521  0.83097446  1
  Te  Te111  1  0.16301038  0.50372213  0.16762397  1
  Te  Te112  1  0.16713698  0.49082298  0.50048274  1
  Te  Te113  1  0.16693207  0.50929561  0.83331498  1
  Te  Te114  1  0.16718612  0.83078988  0.17085656  1
  Te  Te115  1  0.16754719  0.83281831  0.49599656  1
  Te  Te116  1  0.16442159  0.83438335  0.82978315  1
  Te  Te117  1  0.49884068  0.16635601  0.17220970  1
  Te  Te118  1  0.49664118  0.16314742  0.49567643  1
  Te  Te119  1  0.49770591  0.16378651  0.83456435  1
  Te  Te120  1  0.50073776  0.50680050  0.17005861  1
  Te  Te121  1  0.49919003  0.49951086  0.50006013  1
  Te  Te122  1  0.50140960  0.50482446  0.83222836  1
  Te  Te123  1  0.49833707  0.82903441  0.17266710  1
  Te  Te124  1  0.49627377  0.83733736  0.49801686  1
  Te  Te125  1  0.50101063  0.83308626  0.82800281  1
  Te  Te126  1  0.83882825  0.16833608  0.16453718  1
  Te  Te127  1  0.83321243  0.16768966  0.50804784  1
  Te  Te128  1  0.83546363  0.16621528  0.82978248  1
  Te  Te129  1  0.83466116  0.49953272  0.16837654  1
  Te  Te130  1  0.83443291  0.49606156  0.49850132  1
  Te  Te131  1  0.83281571  0.49540053  0.83427640  1
  Te  Te132  1  0.83241097  0.83344104  0.17090993  1
  Te  Te133  1  0.83415939  0.83340055  0.49744587  1
  Te  Te134  1  0.83584400  0.83441293  0.83441824  1
  Te  Te135  1  0.16699916  -0.00867631  -0.00588189  1
  Te  Te136  1  0.16727142  -0.00033402  0.33414151  1
  Te  Te137  1  0.16302283  0.00682661  0.67019523  1
  Te  Te138  1  0.15761987  0.33367337  0.00196676  1
  Te  Te139  1  0.16365877  0.33376957  0.33363560  1
  Te  Te140  1  0.16690256  0.32879653  0.66427966  1
  Te  Te141  1  0.16706743  0.67294134  0.00005721  1
  Te  Te142  1  0.16593935  0.66985674  0.33111995  1
  Te  Te143  1  0.16569954  0.66247961  0.67016182  1
  Te  Te144  1  0.49988415  -0.00670382  -0.00584203  1
  Te  Te145  1  0.50325065  -0.00144185  0.33546029  1
  Te  Te146  1  0.50131849  0.00210518  0.66546274  1
  Te  Te147  1  0.49790293  0.33303748  0.00184544  1
  Te  Te148  1  0.50185748  0.32918155  0.33077042  1
  Te  Te149  1  0.50426061  0.34058704  0.66733971  1
  Te  Te150  1  0.49978858  0.67265565  -0.00337779  1
  Te  Te151  1  0.50110598  0.66952423  0.33325215  1
  Te  Te152  1  0.50418343  0.66408123  0.66615774  1
  Te  Te153  1  0.83288700  -0.00824333  0.00287760  1
  Te  Te154  1  0.82872854  0.00148656  0.34079559  1
  Te  Te155  1  0.83634895  -0.00703346  0.66131963  1
  Te  Te156  1  0.83904411  0.33350503  0.00385673  1
  Te  Te157  1  0.83459798  0.33006148  0.33578428  1
  Te  Te158  1  0.83052781  0.33302290  0.66369206  1
  Te  Te159  1  0.83345702  0.67416357  -0.00557461  1
  Te  Te160  1  0.83335915  0.66483685  0.33528277  1
  Te  Te161  1  0.82948816  0.67154432  0.65961899  1
  Te  Te162  1  0.00025987  0.16926916  0.00234075  1
  Te  Te163  1  0.00342499  0.16688240  0.33106840  1
  Te  Te164  1  0.00024416  0.16658013  0.66489715  1
  Te  Te165  1  0.00017705  0.49542540  0.00748342  1
  Te  Te166  1  -0.00321641  0.49947720  0.32973163  1
  Te  Te167  1  -0.00913065  0.49708309  0.66649450  1
  Te  Te168  1  -0.00005927  0.83344695  -0.00559344  1
  Te  Te169  1  -0.00318217  0.83573754  0.33605263  1
  Te  Te170  1  -0.00357455  0.83055557  0.67041710  1
  Te  Te171  1  0.33285492  0.16592573  -0.00929929  1
  Te  Te172  1  0.33081080  0.16655557  0.33729413  1
  Te  Te173  1  0.33399312  0.16702818  0.66649362  1
  Te  Te174  1  0.33343153  0.49819143  -0.00042826  1
  Te  Te175  1  0.34707165  0.50043033  0.33481199  1
  Te  Te176  1  0.33532333  0.50605097  0.66610879  1
  Te  Te177  1  0.33604881  0.83261758  -0.00705965  1
  Te  Te178  1  0.33075523  0.83328763  0.33785974  1
  Te  Te179  1  0.33049994  0.83010331  0.66659290  1
  Te  Te180  1  0.66598478  0.16620612  -0.00923271  1
  Te  Te181  1  0.66341469  0.16923991  0.33212875  1
  Te  Te182  1  0.66816333  0.16783613  0.67087395  1
  Te  Te183  1  0.66631350  0.49955334  0.01218974  1
  Te  Te184  1  0.66918091  0.50065172  0.33189419  1
  Te  Te185  1  0.66989016  0.50147660  0.66970004  1
  Te  Te186  1  0.66382917  0.83411454  -0.00358686  1
  Te  Te187  1  0.67023063  0.83031936  0.33477863  1
  Te  Te188  1  0.67302387  0.83091062  0.67027455  1
  Te  Te189  1  0.00010584  -0.00901524  0.16531648  1
  Te  Te190  1  -0.00315477  -0.00598334  0.50567173  1
  Te  Te191  1  0.00005333  0.00024179  0.82920124  1
  Te  Te192  1  0.00077822  0.33260285  0.17187656  1
  Te  Te193  1  -0.00081184  0.33366650  0.49935222  1
  Te  Te194  1  -0.00455768  0.33494922  0.82245864  1
  Te  Te195  1  0.00213562  0.67618081  0.17058724  1
  Te  Te196  1  -0.00327313  0.67037157  0.49309341  1
  Te  Te197  1  0.00339221  0.66862118  0.83589093  1
  Te  Te198  1  0.33371479  0.00301834  0.16522828  1
  Te  Te199  1  0.33712960  -0.00104426  0.50117223  1
  Te  Te200  1  0.33463691  -0.00173141  0.83158153  1
  Te  Te201  1  0.32418238  0.33308709  0.16516726  1
  Te  Te202  1  0.33259153  0.32809747  0.50061059  1
  Te  Te203  1  0.33195007  0.33117061  0.83379415  1
  Te  Te204  1  0.32977505  0.66645631  0.16621957  1
  Te  Te205  1  0.33188215  0.67081658  0.50707055  1
  Te  Te206  1  0.33395433  0.67007268  0.82819974  1
  Te  Te207  1  0.66658290  -0.00478562  0.17328127  1
  Te  Te208  1  0.66578700  0.00109414  0.49502271  1
  Te  Te209  1  0.66396399  -0.00129047  0.83350760  1
  Te  Te210  1  0.67275713  0.33241481  0.17003670  1
  Te  Te211  1  0.66881017  0.33288043  0.49958599  1
  Te  Te212  1  0.67227435  0.33427203  0.83154197  1
  Te  Te213  1  0.66502752  0.66955876  0.16944151  1
  Te  Te214  1  0.67163672  0.66629758  0.50007279  1
  Te  Te215  1  0.66376799  0.67087432  0.83262064  1
