# generated using pymatgen
data_AgSbTe2
_symmetry_space_group_name_H-M   'P 1'
_cell_length_a   18.34420218
_cell_length_b   18.33744763
_cell_length_c   18.34159002
_cell_angle_alpha   89.99939097
_cell_angle_beta   90.00135462
_cell_angle_gamma   89.99951524
_symmetry_Int_Tables_number   1
_chemical_formula_structural   AgSbTe2
_chemical_formula_sum   'Ag54 Sb54 Te108'
_cell_volume   6169.85128862
_cell_formula_units_Z   54
loop_
 _symmetry_equiv_pos_site_id
 _symmetry_equiv_pos_as_xyz
  1  'x, y, z'
loop_
 _atom_site_type_symbol
 _atom_site_label
 _atom_site_symmetry_multiplicity
 _atom_site_fract_x
 _atom_site_fract_y
 _atom_site_fract_z
 _atom_site_occupancy
  Ag  Ag0  1  0.49336924  0.00704648  0.83206454  1
  Ag  Ag1  1  -0.01133314  0.33381147  0.66364259  1
  Ag  Ag2  1  0.83012021  0.82224768  0.33470401  1
  Ag  Ag3  1  0.83504884  0.82948684  0.66583170  1
  Ag  Ag4  1  0.32971993  -0.00156060  -0.01220703  1
  Ag  Ag5  1  0.00090713  0.49894462  0.82488072  1
  Ag  Ag6  1  0.33230343  0.49387545  0.82356440  1
  Ag  Ag7  1  0.67646027  0.33687360  0.65882391  1
  Ag  Ag8  1  0.33351914  0.49937610  0.17467690  1
  Ag  Ag9  1  0.50523183  0.33974987  0.49748870  1
  Ag  Ag10  1  -0.00022380  -0.00272636  0.34589437  1
  Ag  Ag11  1  0.16548925  0.15997317  0.66658516  1
  Ag  Ag12  1  0.16366729  0.84428792  0.66552495  1
  Ag  Ag13  1  0.66629159  0.18062520  0.50859883  1
  Ag  Ag14  1  0.50660722  0.83207635  0.00001518  1
  Ag  Ag15  1  0.82545668  0.33452080  0.81844116  1
  Ag  Ag16  1  0.00381751  -0.00769177  -0.00562031  1
  Ag  Ag17  1  0.83491860  0.66470880  0.17549883  1
  Ag  Ag18  1  0.66690336  0.83381995  0.83194850  1
  Ag  Ag19  1  0.82745986  0.50300110  0.34455808  1
  Ag  Ag20  1  -0.00315666  0.83035463  0.16500327  1
  Ag  Ag21  1  0.16043910  0.66513188  0.16895498  1
  Ag  Ag22  1  0.66904787  0.66028267  0.34316616  1
  Ag  Ag23  1  0.66119910  0.16942108  0.82753561  1
  Ag  Ag24  1  0.67339710  0.66829672  -0.00260332  1
  Ag  Ag25  1  0.00801783  0.00187780  0.66718881  1
  Ag  Ag26  1  0.50995173  0.65529892  0.49848110  1
  Ag  Ag27  1  0.66997280  0.65970935  0.66110216  1
  Ag  Ag28  1  0.33472330  0.33805965  0.66414407  1
  Ag  Ag29  1  0.16745669  0.50250530  -0.00200687  1
  Ag  Ag30  1  0.65958188  0.34238275  0.34870883  1
  Ag  Ag31  1  0.17017461  0.34222234  0.50456165  1
  Ag  Ag32  1  0.67110948  0.49458051  0.49880272  1
  Ag  Ag33  1  0.50133879  0.18267265  0.33585210  1
  Ag  Ag34  1  0.33869254  0.16884582  0.82844863  1
  Ag  Ag35  1  0.83384048  0.17993608  0.66640388  1
  Ag  Ag36  1  -0.01475558  0.49886442  0.50454388  1
  Ag  Ag37  1  0.32154733  0.00688210  0.67063617  1
  Ag  Ag38  1  0.50659701  0.82959350  0.33321766  1
  Ag  Ag39  1  0.82723321  0.65897419  0.49895125  1
  Ag  Ag40  1  0.16662293  0.65982287  0.50084232  1
  Ag  Ag41  1  0.81724352  0.34858626  0.50776254  1
  Ag  Ag42  1  0.83459850  0.49276480  0.65622762  1
  Ag  Ag43  1  0.83277510  0.82908246  -0.00089111  1
  Ag  Ag44  1  0.50302424  0.33127465  0.82715239  1
  Ag  Ag45  1  0.17263027  -0.00015207  0.82345531  1
  Ag  Ag46  1  0.33338187  0.66081031  0.66336871  1
  Ag  Ag47  1  0.50672486  0.49589542  0.33916218  1
  Ag  Ag48  1  0.34732873  0.33686994  0.34767366  1
  Ag  Ag49  1  0.82964457  0.34259856  0.17360722  1
  Ag  Ag50  1  0.16573762  0.00123606  0.51235471  1
  Ag  Ag51  1  0.50312967  0.33611129  0.18285841  1
  Ag  Ag52  1  -0.00533263  0.66920477  0.00276064  1
  Ag  Ag53  1  0.33686557  0.49753835  0.50261360  1
  Sb  Sb54  1  0.00064062  0.50482100  0.16819776  1
  Sb  Sb55  1  -0.00161604  0.16329320  0.16771687  1
  Sb  Sb56  1  0.83252213  0.66283360  0.82920392  1
  Sb  Sb57  1  0.66509786  0.50100333  0.17533743  1
  Sb  Sb58  1  0.33032041  0.82664079  0.16647618  1
  Sb  Sb59  1  -0.00059603  0.82847641  0.49953795  1
  Sb  Sb60  1  0.50043459  0.16398718  -0.00172611  1
  Sb  Sb61  1  0.33322222  0.82716378  0.50260054  1
  Sb  Sb62  1  0.66995553  -0.00164381  0.33625667  1
  Sb  Sb63  1  -0.00254872  0.17205380  0.50420987  1
  Sb  Sb64  1  -0.00444983  0.83135007  0.83447637  1
  Sb  Sb65  1  0.33292312  0.66837869  -0.00399767  1
  Sb  Sb66  1  0.16675504  0.50166005  0.33646282  1
  Sb  Sb67  1  0.50083937  0.66316317  0.82767632  1
  Sb  Sb68  1  0.83806843  -0.00044002  0.50218309  1
  Sb  Sb69  1  0.49675349  0.50305640  0.00382124  1
  Sb  Sb70  1  0.83616230  -0.00542843  0.16668270  1
  Sb  Sb71  1  0.17106316  0.16848421  0.34374575  1
  Sb  Sb72  1  0.66733257  0.34012573  -0.00465531  1
  Sb  Sb73  1  -0.00247366  0.66415273  0.66679860  1
  Sb  Sb74  1  0.66750987  0.00313008  0.66697993  1
  Sb  Sb75  1  0.16430204  0.49858696  0.66578707  1
  Sb  Sb76  1  0.16760881  0.16781083  -0.00853009  1
  Sb  Sb77  1  0.50147702  0.17106237  0.66569984  1
  Sb  Sb78  1  -0.00850909  0.66889081  0.33197352  1
  Sb  Sb79  1  0.50134213  0.83226377  0.66724990  1
  Sb  Sb80  1  0.16413939  0.83060094  -0.00536772  1
  Sb  Sb81  1  0.16807208  0.33212988  0.82354673  1
  Sb  Sb82  1  -0.00208396  0.33687821  -0.00668751  1
  Sb  Sb83  1  0.82791122  0.17194009  0.34110681  1
  Sb  Sb84  1  0.67216094  0.82925443  0.16434820  1
  Sb  Sb85  1  0.16618861  0.66763312  0.82895098  1
  Sb  Sb86  1  0.66829047  0.82768414  0.50375984  1
  Sb  Sb87  1  0.33688958  0.17654621  0.50946769  1
  Sb  Sb88  1  -0.00000260  0.16885950  0.82838267  1
  Sb  Sb89  1  0.83638417  0.50609024  -0.00133867  1
  Sb  Sb90  1  0.50281505  0.66287750  0.17257599  1
  Sb  Sb91  1  0.83292228  0.16311620  -0.00610908  1
  Sb  Sb92  1  0.33409710  0.33360002  -0.00567947  1
  Sb  Sb93  1  0.33418798  0.17387011  0.16333114  1
  Sb  Sb94  1  0.66630785  0.17253874  0.16705393  1
  Sb  Sb95  1  0.50180125  0.49695886  0.65796847  1
  Sb  Sb96  1  0.34017604  0.65875579  0.33996295  1
  Sb  Sb97  1  0.83464636  0.00249119  0.83020618  1
  Sb  Sb98  1  0.16779208  0.34078858  0.17231990  1
  Sb  Sb99  1  0.66638998  0.49893355  0.82482434  1
  Sb  Sb100  1  0.49722115  0.00183054  0.16381393  1
  Sb  Sb101  1  0.49453627  0.00301007  0.50457741  1
  Sb  Sb102  1  0.16502817  -0.00642960  0.16487829  1
  Sb  Sb103  1  0.16403806  0.83152766  0.33813302  1
  Sb  Sb104  1  -0.00536478  0.33279377  0.34231320  1
  Sb  Sb105  1  0.33801588  0.83637479  0.83120941  1
  Sb  Sb106  1  0.33093654  0.00465706  0.33880271  1
  Sb  Sb107  1  0.66629301  -0.00688502  -0.00496057  1
  Te  Te108  1  0.16679722  0.16767775  0.16731369  1
  Te  Te109  1  0.16666257  0.16332978  0.50620553  1
  Te  Te110  1  0.17066304  0.16236575  0.82748771  1
  Te  Te111  1  0.16932935  0.50472357  0.16419644  1
  Te  Te112  1  0.17684935  0.50108335  0.49967740  1
  Te  Te113  1  0.16674992  0.49973169  0.83632035  1
  Te  Te114  1  0.16145635  0.82562425  0.16667931  1
  Te  Te115  1  0.16635846  0.83334274  0.50476755  1
  Te  Te116  1  0.16610571  0.83796904  0.82734785  1
  Te  Te117  1  0.49932799  0.17387542  0.17164103  1
  Te  Te118  1  0.50373661  0.16804914  0.49575444  1
  Te  Te119  1  0.49955848  0.16693659  0.83380188  1
  Te  Te120  1  0.49540304  0.49562478  0.17164114  1
  Te  Te121  1  0.49722438  0.49955435  0.49806785  1
  Te  Te122  1  0.49539792  0.49520028  0.83520504  1
  Te  Te123  1  0.49921627  0.83293512  0.16584605  1
  Te  Te124  1  0.50051260  0.83427288  0.49514997  1
  Te  Te125  1  0.50509120  0.83183370  0.83642706  1
  Te  Te126  1  0.83298308  0.17083972  0.16711647  1
  Te  Te127  1  0.82913177  0.16760684  0.50592789  1
  Te  Te128  1  0.82993499  0.17161007  0.82810136  1
  Te  Te129  1  0.83369045  0.50312201  0.16652102  1
  Te  Te130  1  0.83033476  0.50256444  0.50020010  1
  Te  Te131  1  0.83515724  0.49421873  0.83143166  1
  Te  Te132  1  0.83720933  0.82888506  0.16719684  1
  Te  Te133  1  0.83406046  0.83097073  0.49816899  1
  Te  Te134  1  0.82899028  0.83379724  0.83379819  1
  Te  Te135  1  0.16659553  -0.00020166  -0.00225221  1
  Te  Te136  1  0.16186436  0.00019422  0.33501093  1
  Te  Te137  1  0.16589210  0.00065592  0.66763691  1
  Te  Te138  1  0.16506105  0.33846714  0.00184184  1
  Te  Te139  1  0.16681757  0.33290016  0.34046410  1
  Te  Te140  1  0.17481528  0.33111013  0.66338534  1
  Te  Te141  1  0.16473314  0.66444555  0.00151161  1
  Te  Te142  1  0.16896282  0.66810882  0.33476743  1
  Te  Te143  1  0.16731632  0.66758696  0.66276182  1
  Te  Te144  1  0.49760105  -0.00461320  -0.00383118  1
  Te  Te145  1  0.49939209  -0.00836781  0.33288065  1
  Te  Te146  1  0.49580591  -0.00039191  0.67222075  1
  Te  Te147  1  0.50048148  0.33322988  -0.00672100  1
  Te  Te148  1  0.50161566  0.33804062  0.33760263  1
  Te  Te149  1  0.49443052  0.33227786  0.66742772  1
  Te  Te150  1  0.50199178  0.67153821  0.00104644  1
  Te  Te151  1  0.50556042  0.66793659  0.33680514  1
  Te  Te152  1  0.50198000  0.66705575  0.65979617  1
  Te  Te153  1  0.83863527  -0.00645762  -0.00124169  1
  Te  Te154  1  0.83897179  -0.00183506  0.33342130  1
  Te  Te155  1  0.83697482  -0.01048303  0.66647822  1
  Te  Te156  1  0.83438263  0.33237590  0.00923071  1
  Te  Te157  1  0.83035681  0.33561723  0.33456638  1
  Te  Te158  1  0.83310010  0.33468891  0.66379660  1
  Te  Te159  1  0.83404805  0.67041962  -0.00322864  1
  Te  Te160  1  0.83093240  0.66498815  0.33467552  1
  Te  Te161  1  0.83221521  0.66953365  0.66387624  1
  Te  Te162  1  0.00073655  0.15840053  -0.00089373  1
  Te  Te163  1  -0.00021838  0.15806730  0.33388914  1
  Te  Te164  1  -0.00140370  0.16769417  0.66709837  1
  Te  Te165  1  0.00396718  0.50415665  -0.00031797  1
  Te  Te166  1  -0.00551292  0.49980807  0.33976376  1
  Te  Te167  1  -0.00257792  0.49780375  0.66540035  1
  Te  Te168  1  -0.00140811  0.83108881  0.00092834  1
  Te  Te169  1  -0.00326869  0.83743315  0.32955857  1
  Te  Te170  1  -0.00008443  0.83452639  0.66695229  1
  Te  Te171  1  0.33274937  0.15912227  -0.00720614  1
  Te  Te172  1  0.33871558  0.17318996  0.33198294  1
  Te  Te173  1  0.33266079  0.16538239  0.67067883  1
  Te  Te174  1  0.32946326  0.50114901  -0.00195468  1
  Te  Te175  1  0.33271545  0.49529880  0.33400148  1
  Te  Te176  1  0.33245132  0.50067131  0.66559750  1
  Te  Te177  1  0.33606851  0.83759447  0.00004305  1
  Te  Te178  1  0.33783236  0.83453967  0.33191822  1
  Te  Te179  1  0.33094809  0.82896144  0.66738718  1
  Te  Te180  1  0.66760405  0.16629338  -0.00786431  1
  Te  Te181  1  0.66175132  0.16754123  0.33401453  1
  Te  Te182  1  0.66953343  0.16854260  0.66842842  1
  Te  Te183  1  0.66598041  0.50795081  -0.00228919  1
  Te  Te184  1  0.66701352  0.50026462  0.33550803  1
  Te  Te185  1  0.67160435  0.49883977  0.66234279  1
  Te  Te186  1  0.66857157  0.82890978  -0.00229499  1
  Te  Te187  1  0.66969843  0.83071848  0.33316664  1
  Te  Te188  1  0.66942340  0.83269922  0.67054491  1
  Te  Te189  1  0.00067886  -0.00527168  0.15861612  1
  Te  Te190  1  0.00417309  -0.00015454  0.50488197  1
  Te  Te191  1  0.00290271  -0.00013292  0.83079324  1
  Te  Te192  1  -0.00393123  0.33228801  0.16757739  1
  Te  Te193  1  0.00797822  0.33728535  0.50489463  1
  Te  Te194  1  -0.00216473  0.33752336  0.82774677  1
  Te  Te195  1  -0.00216397  0.66903650  0.16501306  1
  Te  Te196  1  0.00252383  0.66108671  0.49909683  1
  Te  Te197  1  0.00032436  0.66029663  0.83928968  1
  Te  Te198  1  0.33210999  0.00038084  0.16447582  1
  Te  Te199  1  0.32673653  0.00026780  0.50510702  1
  Te  Te200  1  0.33414994  -0.00213589  0.83022063  1
  Te  Te201  1  0.33574657  0.33910075  0.16342983  1
  Te  Te202  1  0.33359022  0.33457994  0.50320165  1
  Te  Te203  1  0.33423909  0.33252466  0.83042282  1
  Te  Te204  1  0.33090958  0.66035092  0.16574973  1
  Te  Te205  1  0.33038234  0.66263442  0.50311754  1
  Te  Te206  1  0.33333505  0.65956491  0.82694811  1
  Te  Te207  1  0.66658807  0.00234814  0.16489684  1
  Te  Te208  1  0.66485866  0.00681137  0.50027452  1
  Te  Te209  1  0.66174682  0.00052839  0.83272321  1
  Te  Te210  1  0.66620410  0.33475959  0.16407788  1
  Te  Te211  1  0.66355151  0.33521914  0.50247278  1
  Te  Te212  1  0.66612137  0.33228144  0.83055867  1
  Te  Te213  1  0.67187515  0.66617941  0.16256896  1
  Te  Te214  1  0.66779645  0.66676656  0.50141574  1
  Te  Te215  1  0.66581030  0.66938021  0.83160954  1
