# generated using pymatgen
data_AgSbTe2
_symmetry_space_group_name_H-M   'P 1'
_cell_length_a   18.33350053
_cell_length_b   18.32973502
_cell_length_c   18.33060890
_cell_angle_alpha   89.99924226
_cell_angle_beta   90.00017574
_cell_angle_gamma   90.00267940
_symmetry_Int_Tables_number   1
_chemical_formula_structural   AgSbTe2
_chemical_formula_sum   'Ag54 Sb54 Te108'
_cell_volume   6159.96824279
_cell_formula_units_Z   54
loop_
 _symmetry_equiv_pos_site_id
 _symmetry_equiv_pos_as_xyz
  1  'x, y, z'
loop_
 _atom_site_type_symbol
 _atom_site_label
 _atom_site_symmetry_multiplicity
 _atom_site_fract_x
 _atom_site_fract_y
 _atom_site_fract_z
 _atom_site_occupancy
  Ag  Ag0  1  0.00315263  0.49623387  0.17560617  1
  Ag  Ag1  1  0.83059323  -0.00123251  0.17197901  1
  Ag  Ag2  1  0.33694780  0.83456387  0.17726686  1
  Ag  Ag3  1  -0.00267310  0.49882523  0.82769080  1
  Ag  Ag4  1  0.33600324  -0.00765395  0.65412978  1
  Ag  Ag5  1  0.82587554  0.66033810  0.50337754  1
  Ag  Ag6  1  0.48995655  -0.01006117  0.49610121  1
  Ag  Ag7  1  0.82923009  0.33784478  0.82224792  1
  Ag  Ag8  1  0.50362842  0.66201987  0.82321436  1
  Ag  Ag9  1  -0.00467809  0.49578677  0.49794367  1
  Ag  Ag10  1  0.82987496  0.65724756  0.82234225  1
  Ag  Ag11  1  0.33354637  0.50444943  0.17111416  1
  Ag  Ag12  1  0.65629491  0.82250574  0.49482122  1
  Ag  Ag13  1  0.50646445  0.33697234  0.82426598  1
  Ag  Ag14  1  0.16619810  0.33962188  0.17818990  1
  Ag  Ag15  1  0.34450302  0.67132080  0.66316095  1
  Ag  Ag16  1  0.16482950  0.50092737  0.65280407  1
  Ag  Ag17  1  0.66219024  0.66847229  0.65928605  1
  Ag  Ag18  1  0.17682515  0.83494951  0.33560280  1
  Ag  Ag19  1  0.50132390  0.49417463  0.00071842  1
  Ag  Ag20  1  0.66543780  0.17154551  0.82809607  1
  Ag  Ag21  1  0.50235359  0.33343889  0.50046880  1
  Ag  Ag22  1  -0.00082954  0.83368800  0.49943279  1
  Ag  Ag23  1  0.82979698  0.17460802  0.34347657  1
  Ag  Ag24  1  0.50220887  0.82875714  0.65823716  1
  Ag  Ag25  1  0.16599801  0.66458000  0.82872263  1
  Ag  Ag26  1  0.50045705  0.17150957  -0.00726799  1
  Ag  Ag27  1  0.16396903  0.50065570  0.33525239  1
  Ag  Ag28  1  0.65853797  -0.00745667  0.33348372  1
  Ag  Ag29  1  0.33679823  0.15758868  0.49909085  1
  Ag  Ag30  1  0.16199705  0.33520060  0.49652950  1
  Ag  Ag31  1  0.49728356  -0.00302023  0.17795004  1
  Ag  Ag32  1  0.50503166  0.16448786  0.66390934  1
  Ag  Ag33  1  -0.00392662  0.33446899  0.66224397  1
  Ag  Ag34  1  0.34331073  0.84356801  0.49561405  1
  Ag  Ag35  1  0.16973823  -0.00262471  0.17713362  1
  Ag  Ag36  1  0.66587752  0.66531170  0.34247414  1
  Ag  Ag37  1  0.82783568  0.49606472  0.33614483  1
  Ag  Ag38  1  0.83643362  0.33797493  0.50122158  1
  Ag  Ag39  1  0.33622527  0.33168716  0.33672280  1
  Ag  Ag40  1  0.67305252  0.50784509  0.49630748  1
  Ag  Ag41  1  0.00048180  0.33320650  -0.00417296  1
  Ag  Ag42  1  0.65705333  0.83204632  0.17775458  1
  Ag  Ag43  1  0.82661346  0.16742539  0.66112710  1
  Ag  Ag44  1  0.33756090  -0.00579728  0.33626118  1
  Ag  Ag45  1  0.17361575  -0.00286629  0.49478062  1
  Ag  Ag46  1  0.66595167  0.50343887  0.17810568  1
  Ag  Ag47  1  0.66290933  0.34022936  0.33771888  1
  Ag  Ag48  1  0.00234323  0.00665330  0.00484895  1
  Ag  Ag49  1  0.82583393  0.83023831  0.66020118  1
  Ag  Ag50  1  0.51058970  0.67689391  0.50488853  1
  Ag  Ag51  1  0.00012850  0.17494535  0.50068296  1
  Ag  Ag52  1  0.49815422  0.83768601  0.34055994  1
  Ag  Ag53  1  0.16561449  0.83470539  0.01272173  1
  Sb  Sb54  1  0.83183058  0.16836559  -0.00054966  1
  Sb  Sb55  1  0.00167825  0.83262126  0.17154909  1
  Sb  Sb56  1  0.66530281  0.16610511  0.16831212  1
  Sb  Sb57  1  0.33456512  0.16452843  0.17604270  1
  Sb  Sb58  1  0.82684474  0.83186039  0.33999040  1
  Sb  Sb59  1  0.50121223  0.50301853  0.33446171  1
  Sb  Sb60  1  0.49756573  0.33236811  0.17078291  1
  Sb  Sb61  1  0.33261892  0.50074466  0.83502768  1
  Sb  Sb62  1  0.83234115  0.00117645  0.49694302  1
  Sb  Sb63  1  0.83200044  0.49941446  0.00419193  1
  Sb  Sb64  1  0.33979778  0.16811643  0.82380708  1
  Sb  Sb65  1  0.66857204  0.33694929  0.65880789  1
  Sb  Sb66  1  0.66192084  -0.00274816  0.65704915  1
  Sb  Sb67  1  0.16724177  -0.00501483  0.83143907  1
  Sb  Sb68  1  0.66672598  0.83348692  0.82734987  1
  Sb  Sb69  1  0.33406572  0.66693348  -0.00260713  1
  Sb  Sb70  1  0.00028701  0.33563211  0.33874448  1
  Sb  Sb71  1  0.83632449  0.33290343  0.17404539  1
  Sb  Sb72  1  0.00166418  0.66454526  -0.00119278  1
  Sb  Sb73  1  0.50058794  0.66861180  0.17121377  1
  Sb  Sb74  1  -0.00422488  0.66451756  0.33703093  1
  Sb  Sb75  1  0.49691820  0.50266220  0.66385431  1
  Sb  Sb76  1  0.16778460  0.66623063  0.16789033  1
  Sb  Sb77  1  0.83775206  0.49983007  0.65762156  1
  Sb  Sb78  1  0.66867224  0.49922265  0.82881811  1
  Sb  Sb79  1  0.49643491  0.83282789  0.00206736  1
  Sb  Sb80  1  0.33346712  0.50135889  0.49655589  1
  Sb  Sb81  1  -0.00201486  0.66122090  0.66394971  1
  Sb  Sb82  1  0.16709648  0.16985280  0.66109956  1
  Sb  Sb83  1  0.00192167  0.00416789  0.66415786  1
  Sb  Sb84  1  0.50121131  0.00080633  0.82767234  1
  Sb  Sb85  1  0.83338829  0.00206517  0.83322584  1
  Sb  Sb86  1  0.33294996  0.33421467  0.65804648  1
  Sb  Sb87  1  0.16884542  0.16394118  0.00196828  1
  Sb  Sb88  1  0.83024491  0.66727023  0.17178039  1
  Sb  Sb89  1  0.83644595  0.83361330  -0.00194120  1
  Sb  Sb90  1  0.00041784  0.16800558  0.17167331  1
  Sb  Sb91  1  0.66782200  0.00083007  0.00887069  1
  Sb  Sb92  1  0.66796704  0.33436823  0.00235934  1
  Sb  Sb93  1  0.33149752  -0.00106593  0.00816937  1
  Sb  Sb94  1  0.16516344  0.16787858  0.33859279  1
  Sb  Sb95  1  0.50324174  0.16189038  0.33966641  1
  Sb  Sb96  1  0.16699794  0.50156202  0.00456544  1
  Sb  Sb97  1  0.00029872  0.82852538  0.82784220  1
  Sb  Sb98  1  0.33762198  0.66961168  0.33876026  1
  Sb  Sb99  1  0.16720408  0.66508944  0.50128451  1
  Sb  Sb100  1  0.33397652  0.83120727  0.82693952  1
  Sb  Sb101  1  0.16888114  0.82995282  0.65877136  1
  Sb  Sb102  1  -0.00500061  0.17406026  0.82834506  1
  Sb  Sb103  1  0.66606679  0.16710955  0.50127172  1
  Sb  Sb104  1  0.66469942  0.66514742  -0.00056184  1
  Sb  Sb105  1  0.33243041  0.33330670  0.00656364  1
  Sb  Sb106  1  0.00103643  -0.00117969  0.33440879  1
  Sb  Sb107  1  0.16610899  0.33825957  0.82925293  1
  Te  Te108  1  0.16711918  0.16464173  0.16664832  1
  Te  Te109  1  0.16369054  0.17052128  0.50113219  1
  Te  Te110  1  0.16668744  0.16661372  0.83305345  1
  Te  Te111  1  0.16657206  0.49885193  0.17090026  1
  Te  Te112  1  0.16637178  0.49856525  0.49613803  1
  Te  Te113  1  0.16429210  0.50459673  0.83715777  1
  Te  Te114  1  0.16690205  0.83442439  0.17228841  1
  Te  Te115  1  0.16284214  0.83225494  0.49509080  1
  Te  Te116  1  0.16678452  0.82600094  0.83349903  1
  Te  Te117  1  0.49874632  0.16119507  0.16184453  1
  Te  Te118  1  0.49919509  0.17407044  0.50458687  1
  Te  Te119  1  0.50402043  0.16791166  0.82833007  1
  Te  Te120  1  0.49952803  0.50059598  0.16526227  1
  Te  Te121  1  0.50128326  0.49165628  0.49934847  1
  Te  Te122  1  0.50117106  0.49770411  0.83545669  1
  Te  Te123  1  0.49902316  0.83589859  0.16667180  1
  Te  Te124  1  0.49962300  0.83353632  0.50171177  1
  Te  Te125  1  0.50001823  0.82836410  0.83225784  1
  Te  Te126  1  0.83387965  0.16192199  0.16779962  1
  Te  Te127  1  0.83451438  0.16737736  0.50127159  1
  Te  Te128  1  0.82803814  0.17035828  0.82946347  1
  Te  Te129  1  0.83239520  0.50068845  0.17389117  1
  Te  Te130  1  0.83435385  0.49873388  0.49725619  1
  Te  Te131  1  0.83548303  0.49726242  0.83648831  1
  Te  Te132  1  0.83360601  0.83766231  0.16676193  1
  Te  Te133  1  0.83899047  0.83544634  0.50308185  1
  Te  Te134  1  0.83356870  0.83153429  0.82603285  1
  Te  Te135  1  0.16321021  -0.00403666  -0.00056125  1
  Te  Te136  1  0.16886619  0.00145781  0.33606411  1
  Te  Te137  1  0.17159901  -0.00016132  0.66134864  1
  Te  Te138  1  0.16290916  0.33362736  0.00057420  1
  Te  Te139  1  0.16867318  0.33304843  0.33478756  1
  Te  Te140  1  0.16476904  0.33896335  0.66191028  1
  Te  Te141  1  0.16784730  0.67226330  -0.00540171  1
  Te  Te142  1  0.16678302  0.66295665  0.33288856  1
  Te  Te143  1  0.16571450  0.66216765  0.66952546  1
  Te  Te144  1  0.49965254  0.00283694  -0.00214050  1
  Te  Te145  1  0.49856487  0.00040093  0.33528982  1
  Te  Te146  1  0.49745593  -0.00018715  0.66270939  1
  Te  Te147  1  0.50049944  0.33327135  0.00292970  1
  Te  Te148  1  0.49942775  0.33100719  0.33621775  1
  Te  Te149  1  0.50046573  0.33248404  0.66618429  1
  Te  Te150  1  0.49941090  0.66316265  -0.00770087  1
  Te  Te151  1  0.50542443  0.67286040  0.33845854  1
  Te  Te152  1  0.50091753  0.66537950  0.66487875  1
  Te  Te153  1  0.83884471  -0.00004378  0.00519866  1
  Te  Te154  1  0.83378846  -0.00063176  0.32908524  1
  Te  Te155  1  0.83299968  0.00238892  0.66719109  1
  Te  Te156  1  0.83716417  0.33292367  -0.00366996  1
  Te  Te157  1  0.83140436  0.33428551  0.33785058  1
  Te  Te158  1  0.83349189  0.33185017  0.66328346  1
  Te  Te159  1  0.83318463  0.66747914  -0.01009775  1
  Te  Te160  1  0.82769112  0.66296998  0.33942857  1
  Te  Te161  1  0.83166844  0.66725581  0.66376804  1
  Te  Te162  1  0.00042493  0.16890677  -0.00072196  1
  Te  Te163  1  -0.00866755  0.16602473  0.33945842  1
  Te  Te164  1  -0.00314164  0.17154292  0.66184451  1
  Te  Te165  1  -0.00041320  0.49582639  0.00116669  1
  Te  Te166  1  0.00327693  0.50097565  0.33545469  1
  Te  Te167  1  0.00354149  0.49579584  0.66380914  1
  Te  Te168  1  0.00477684  0.83326983  0.00048675  1
  Te  Te169  1  0.00732656  0.83205674  0.33838743  1
  Te  Te170  1  -0.00178360  0.83594650  0.66104928  1
  Te  Te171  1  0.33921034  0.16614681  -0.00351729  1
  Te  Te172  1  0.33389154  0.16939535  0.34136574  1
  Te  Te173  1  0.33779260  0.16687729  0.65764532  1
  Te  Te174  1  0.33955682  0.49935954  0.00737407  1
  Te  Te175  1  0.33157614  0.50058022  0.32859277  1
  Te  Te176  1  0.32485988  0.50388869  0.66831062  1
  Te  Te177  1  0.32693595  0.83431518  0.00548577  1
  Te  Te178  1  0.33487685  0.83242805  0.33525179  1
  Te  Te179  1  0.33603686  0.83253519  0.66181044  1
  Te  Te180  1  0.66233468  0.16741359  -0.00440052  1
  Te  Te181  1  0.67254018  0.16922396  0.33346863  1
  Te  Te182  1  0.66625361  0.16498934  0.67016997  1
  Te  Te183  1  0.66132134  0.49995904  0.00718805  1
  Te  Te184  1  0.66458332  0.50052681  0.33593566  1
  Te  Te185  1  0.66496825  0.50736437  0.65927660  1
  Te  Te186  1  0.66830930  0.83378687  0.00756979  1
  Te  Te187  1  0.66578001  0.83271619  0.33401517  1
  Te  Te188  1  0.66569309  0.83070625  0.66326703  1
  Te  Te189  1  0.00587148  0.00020705  0.16419681  1
  Te  Te190  1  0.00310212  -0.00179135  0.50172051  1
  Te  Te191  1  0.00069432  0.00049440  0.83846635  1
  Te  Te192  1  0.00369513  0.33638467  0.16396270  1
  Te  Te193  1  -0.00003711  0.33418921  0.50087101  1
  Te  Te194  1  -0.00147183  0.33803774  0.83117079  1
  Te  Te195  1  -0.00223052  0.65825794  0.16622431  1
  Te  Te196  1  -0.00449127  0.66528273  0.50005514  1
  Te  Te197  1  -0.00281228  0.66109626  0.83211534  1
  Te  Te198  1  0.33177510  -0.00308787  0.17276485  1
  Te  Te199  1  0.33128396  0.00003415  0.49826337  1
  Te  Te200  1  0.33242370  0.00013124  0.83000055  1
  Te  Te201  1  0.32751263  0.33278265  0.17383749  1
  Te  Te202  1  0.33315965  0.33612488  0.49492882  1
  Te  Te203  1  0.33979410  0.33342505  0.83437700  1
  Te  Te204  1  0.33469018  0.66692613  0.16687019  1
  Te  Te205  1  0.33608902  0.66809994  0.50533529  1
  Te  Te206  1  0.33714914  0.66656939  0.82743440  1
  Te  Te207  1  0.66391252  -0.00115244  0.17311433  1
  Te  Te208  1  0.66344057  -0.00387555  0.49258914  1
  Te  Te209  1  0.66841042  0.00237372  0.83580320  1
  Te  Te210  1  0.66764873  0.33772301  0.17411926  1
  Te  Te211  1  0.66794063  0.33390425  0.49664542  1
  Te  Te212  1  0.66603611  0.33244747  0.83481342  1
  Te  Te213  1  0.66704438  0.66705438  0.16777951  1
  Te  Te214  1  0.66804823  0.66614144  0.50022506  1
  Te  Te215  1  0.66733441  0.66732158  0.83057718  1
