# generated using pymatgen
data_AgSbTe2
_symmetry_space_group_name_H-M   'P 1'
_cell_length_a   18.36411447
_cell_length_b   18.36166083
_cell_length_c   18.35622915
_cell_angle_alpha   90.00106928
_cell_angle_beta   90.00159658
_cell_angle_gamma   90.00150207
_symmetry_Int_Tables_number   1
_chemical_formula_structural   AgSbTe2
_chemical_formula_sum   'Ag54 Sb54 Te108'
_cell_volume   6189.64045470
_cell_formula_units_Z   54
loop_
 _symmetry_equiv_pos_site_id
 _symmetry_equiv_pos_as_xyz
  1  'x, y, z'
loop_
 _atom_site_type_symbol
 _atom_site_label
 _atom_site_symmetry_multiplicity
 _atom_site_fract_x
 _atom_site_fract_y
 _atom_site_fract_z
 _atom_site_occupancy
  Ag  Ag0  1  0.00901434  0.67006594  0.68063155  1
  Ag  Ag1  1  0.32543613  -0.00794044  0.67424240  1
  Ag  Ag2  1  0.83553729  0.66710084  0.50904401  1
  Ag  Ag3  1  0.17553142  0.33709068  0.15524093  1
  Ag  Ag4  1  0.49952332  0.66208210  0.15756194  1
  Ag  Ag5  1  0.67017385  0.83002353  0.83946631  1
  Ag  Ag6  1  0.50025037  0.34230881  0.16398106  1
  Ag  Ag7  1  0.00336717  0.52127732  0.84217072  1
  Ag  Ag8  1  0.49530623  0.66705300  0.83736082  1
  Ag  Ag9  1  0.33616577  0.82681621  0.15673367  1
  Ag  Ag10  1  0.84432886  0.50801658  0.00078703  1
  Ag  Ag11  1  0.84485244  0.67034680  0.83475375  1
  Ag  Ag12  1  0.66262982  0.17834707  0.16149214  1
  Ag  Ag13  1  0.00839207  0.17354243  0.15320734  1
  Ag  Ag14  1  0.16310357  0.17547038  -0.00212440  1
  Ag  Ag15  1  0.82940510  0.83018794  0.32113600  1
  Ag  Ag16  1  0.66732283  0.34420492  -0.00095721  1
  Ag  Ag17  1  0.16310529  0.66590685  0.51417228  1
  Ag  Ag18  1  0.32941062  0.49911427  0.16208759  1
  Ag  Ag19  1  0.65960003  0.82698859  0.15775062  1
  Ag  Ag20  1  0.84685402  -0.01195921  0.83497674  1
  Ag  Ag21  1  0.00590026  0.83608046  0.83716062  1
  Ag  Ag22  1  0.84106050  0.82738495  -0.00290643  1
  Ag  Ag23  1  0.66514794  0.00132188  0.67033170  1
  Ag  Ag24  1  0.50051597  0.66536879  0.50851481  1
  Ag  Ag25  1  0.16144375  0.67466401  0.83395042  1
  Ag  Ag26  1  0.32676469  -0.01329588  -0.00308543  1
  Ag  Ag27  1  0.16554339  0.50151020  0.31513957  1
  Ag  Ag28  1  0.16515750  0.83076371  -0.00469971  1
  Ag  Ag29  1  0.66683746  0.50249102  0.49859217  1
  Ag  Ag30  1  0.33277984  0.17456686  0.15949245  1
  Ag  Ag31  1  0.00873862  0.34390738  -0.00247989  1
  Ag  Ag32  1  0.66224312  0.33365136  0.67343717  1
  Ag  Ag33  1  0.01065239  0.49744650  0.15389409  1
  Ag  Ag34  1  0.00583397  0.14958309  0.83561833  1
  Ag  Ag35  1  0.16827389  0.83195032  0.68145689  1
  Ag  Ag36  1  0.00657752  0.65888678  -0.00676978  1
  Ag  Ag37  1  0.66661393  0.33644264  0.31670540  1
  Ag  Ag38  1  0.50084545  0.50324258  0.66619174  1
  Ag  Ag39  1  0.49341494  0.16966935  0.66867368  1
  Ag  Ag40  1  0.00521877  -0.00323458  0.67950718  1
  Ag  Ag41  1  0.32502279  0.66908812  -0.00379469  1
  Ag  Ag42  1  0.00223267  0.16613698  0.51535867  1
  Ag  Ag43  1  0.50510629  0.82962351  0.32649789  1
  Ag  Ag44  1  0.32104738  0.33777954  0.00230736  1
  Ag  Ag45  1  0.16383498  0.33132840  0.84127441  1
  Ag  Ag46  1  0.66427249  0.49689084  0.16373950  1
  Ag  Ag47  1  0.32772615  0.67003148  0.67792653  1
  Ag  Ag48  1  0.15916179  0.48991159  -0.00097430  1
  Ag  Ag49  1  0.16134941  -0.01022993  0.83563931  1
  Ag  Ag50  1  0.32149875  0.82974760  0.83723191  1
  Ag  Ag51  1  0.66794109  0.66598524  -0.00093022  1
  Ag  Ag52  1  0.16709997  0.16076694  0.68156109  1
  Ag  Ag53  1  0.00627287  -0.00081467  -0.00584851  1
  Sb  Sb54  1  0.83781600  0.16564701  0.66876528  1
  Sb  Sb55  1  0.66810365  -0.00457924  -0.00234991  1
  Sb  Sb56  1  0.33331285  0.66644758  0.32736480  1
  Sb  Sb57  1  0.83619105  0.83193207  0.67701712  1
  Sb  Sb58  1  0.83348037  0.16334180  0.33076518  1
  Sb  Sb59  1  0.33544550  0.50344289  0.49786153  1
  Sb  Sb60  1  -0.00296561  0.50064422  0.50230036  1
  Sb  Sb61  1  -0.00088578  0.83392098  0.50830929  1
  Sb  Sb62  1  0.32499989  0.15888841  0.83964674  1
  Sb  Sb63  1  0.50059853  0.16530754  0.33242812  1
  Sb  Sb64  1  0.00169095  0.82994837  0.15604278  1
  Sb  Sb65  1  0.49600754  -0.00376582  0.83212275  1
  Sb  Sb66  1  0.66950536  0.17222169  0.50139419  1
  Sb  Sb67  1  0.83423933  0.50540398  0.32745448  1
  Sb  Sb68  1  0.83485899  -0.00597839  0.50737924  1
  Sb  Sb69  1  0.66448496  0.66709827  0.67337294  1
  Sb  Sb70  1  0.49913833  0.50358446  0.33116729  1
  Sb  Sb71  1  0.49653124  0.82945124  0.66784380  1
  Sb  Sb72  1  -0.00090808  0.33340314  0.67679584  1
  Sb  Sb73  1  0.33435333  0.33531367  0.67660165  1
  Sb  Sb74  1  0.83788971  0.33609636  0.83671211  1
  Sb  Sb75  1  0.16903820  0.50365965  0.67575446  1
  Sb  Sb76  1  0.17096521  0.66138557  0.15423051  1
  Sb  Sb77  1  0.16462338  0.33708432  0.50160181  1
  Sb  Sb78  1  0.66598325  0.66486036  0.32742866  1
  Sb  Sb79  1  0.49603710  0.83063202  0.00114690  1
  Sb  Sb80  1  0.33578660  0.33516139  0.32242265  1
  Sb  Sb81  1  0.50196813  0.33732514  0.49784840  1
  Sb  Sb82  1  0.83005948  0.66635482  0.15679641  1
  Sb  Sb83  1  0.50036300  -0.00517823  0.50454481  1
  Sb  Sb84  1  0.00065892  0.66613686  0.32821838  1
  Sb  Sb85  1  0.33249181  0.82983728  0.50320887  1
  Sb  Sb86  1  0.00118611  -0.00069001  0.32997612  1
  Sb  Sb87  1  0.83281538  0.33851396  0.50131670  1
  Sb  Sb88  1  0.16469674  -0.00451701  0.51293908  1
  Sb  Sb89  1  0.49744058  0.33846349  0.83836471  1
  Sb  Sb90  1  0.66701144  0.82596958  0.50157406  1
  Sb  Sb91  1  0.66723256  -0.00057210  0.33426807  1
  Sb  Sb92  1  0.32880500  0.16583699  0.50309775  1
  Sb  Sb93  1  0.49487759  0.16975200  -0.00287991  1
  Sb  Sb94  1  0.66928373  0.16392941  0.83583288  1
  Sb  Sb95  1  0.16569073  0.17224160  0.32595745  1
  Sb  Sb96  1  0.66987246  0.50485559  0.83853332  1
  Sb  Sb97  1  -0.00243968  0.33410523  0.32336742  1
  Sb  Sb98  1  0.84153184  0.16699624  -0.00054655  1
  Sb  Sb99  1  0.49712299  0.50375237  -0.00014277  1
  Sb  Sb100  1  0.16678466  0.82549598  0.32795758  1
  Sb  Sb101  1  0.33143932  -0.00263548  0.32633885  1
  Sb  Sb102  1  0.32737996  0.50925088  0.84076687  1
  Sb  Sb103  1  0.83135708  0.50327084  0.67291802  1
  Sb  Sb104  1  0.83084915  0.33468151  0.16375773  1
  Sb  Sb105  1  0.83549882  -0.00277144  0.15930488  1
  Sb  Sb106  1  0.16725001  0.00563152  0.15451175  1
  Sb  Sb107  1  0.49978598  -0.00216981  0.16500568  1
  Te  Te108  1  0.16756906  0.17211987  0.16247807  1
  Te  Te109  1  0.16099068  0.16752760  0.49547472  1
  Te  Te110  1  0.16650597  0.17094984  0.83764465  1
  Te  Te111  1  0.16791430  0.50017963  0.15930020  1
  Te  Te112  1  0.16597466  0.50537391  0.50529128  1
  Te  Te113  1  0.16265969  0.49541033  0.83839511  1
  Te  Te114  1  0.17144346  0.83426656  0.16317393  1
  Te  Te115  1  0.16570670  0.82455068  0.49714436  1
  Te  Te116  1  0.16751052  0.83218158  0.83461249  1
  Te  Te117  1  0.50051264  0.16643207  0.16769795  1
  Te  Te118  1  0.49911996  0.16609072  0.50631755  1
  Te  Te119  1  0.50091908  0.16971372  0.82643550  1
  Te  Te120  1  0.50197702  0.50187397  0.16748623  1
  Te  Te121  1  0.50391912  0.50435855  0.50061942  1
  Te  Te122  1  0.49937442  0.50421598  0.82622312  1
  Te  Te123  1  0.49979722  0.83371059  0.16756095  1
  Te  Te124  1  0.50020679  0.82653125  0.49514126  1
  Te  Te125  1  0.50963167  0.82801677  0.83096573  1
  Te  Te126  1  0.82813443  0.16419430  0.16748975  1
  Te  Te127  1  0.84008260  0.16596284  0.49869163  1
  Te  Te128  1  0.83822959  0.16345524  0.83333523  1
  Te  Te129  1  0.82723394  0.50079460  0.16188237  1
  Te  Te130  1  0.82889041  0.50623707  0.49772947  1
  Te  Te131  1  0.83966440  0.50435454  0.84044990  1
  Te  Te132  1  0.83316616  0.83324266  0.16221097  1
  Te  Te133  1  0.83311889  0.82616982  0.49891840  1
  Te  Te134  1  0.82744593  0.83103186  0.83638864  1
  Te  Te135  1  0.16755017  -0.00601658  -0.00318262  1
  Te  Te136  1  0.16684862  -0.00034583  0.33899749  1
  Te  Te137  1  0.16558130  0.00070522  0.67174016  1
  Te  Te138  1  0.16441713  0.33188837  0.00240607  1
  Te  Te139  1  0.16535574  0.34147211  0.33250403  1
  Te  Te140  1  0.16722294  0.32812198  0.67019600  1
  Te  Te141  1  0.16558908  0.67044782  -0.00459331  1
  Te  Te142  1  0.16617497  0.66172330  0.33926801  1
  Te  Te143  1  0.16791311  0.66555976  0.67172050  1
  Te  Te144  1  0.48926079  0.00289894  -0.00113796  1
  Te  Te145  1  0.49904112  -0.00780904  0.33658468  1
  Te  Te146  1  0.50050875  0.00474757  0.66620258  1
  Te  Te147  1  0.50964090  0.33272581  0.00495884  1
  Te  Te148  1  0.50632139  0.33294365  0.32757195  1
  Te  Te149  1  0.50104677  0.33378618  0.66630324  1
  Te  Te150  1  0.50395293  0.66740857  0.00024692  1
  Te  Te151  1  0.49967656  0.67045794  0.33193169  1
  Te  Te152  1  0.49914014  0.66498724  0.66748914  1
  Te  Te153  1  0.83515300  -0.00431092  -0.00747066  1
  Te  Te154  1  0.83388383  -0.00887655  0.33606787  1
  Te  Te155  1  0.83437938  -0.00072445  0.67336401  1
  Te  Te156  1  0.82530687  0.33523669  -0.00101934  1
  Te  Te157  1  0.82543989  0.33322982  0.33580146  1
  Te  Te158  1  0.82539832  0.33416235  0.66798941  1
  Te  Te159  1  0.83143064  0.66754296  -0.00303978  1
  Te  Te160  1  0.83359660  0.67138903  0.33690646  1
  Te  Te161  1  0.83644142  0.66551017  0.67018762  1
  Te  Te162  1  0.00081182  0.15975667  -0.00289501  1
  Te  Te163  1  -0.00089148  0.16693135  0.32724521  1
  Te  Te164  1  0.00468520  0.16701871  0.67198868  1
  Te  Te165  1  -0.00029138  0.50029971  -0.00111235  1
  Te  Te166  1  0.00344909  0.49884785  0.33186780  1
  Te  Te167  1  -0.00019937  0.50390802  0.67164989  1
  Te  Te168  1  0.00046911  0.83666964  -0.00076751  1
  Te  Te169  1  -0.00499047  0.83349747  0.32952295  1
  Te  Te170  1  0.00402900  0.83260078  0.66969431  1
  Te  Te171  1  0.32995819  0.17417586  0.00223806  1
  Te  Te172  1  0.33403732  0.16596988  0.32580198  1
  Te  Te173  1  0.33153279  0.16644825  0.66668018  1
  Te  Te174  1  0.33199243  0.50195665  0.00359756  1
  Te  Te175  1  0.32806657  0.49924351  0.32763829  1
  Te  Te176  1  0.33981140  0.50298330  0.66530225  1
  Te  Te177  1  0.33401457  0.82955078  -0.00174338  1
  Te  Te178  1  0.33605992  0.83464009  0.32788603  1
  Te  Te179  1  0.33016190  0.83207332  0.66908634  1
  Te  Te180  1  0.66714275  0.16149601  0.00400080  1
  Te  Te181  1  0.66638769  0.17051376  0.33120113  1
  Te  Te182  1  0.66636906  0.16685249  0.66643403  1
  Te  Te183  1  0.66230055  0.50327028  0.00268581  1
  Te  Te184  1  0.66655872  0.49660412  0.33047856  1
  Te  Te185  1  0.66458409  0.49867941  0.66830885  1
  Te  Te186  1  0.66683806  0.83366105  0.00058969  1
  Te  Te187  1  0.66811759  0.83396432  0.33272785  1
  Te  Te188  1  0.66577423  0.83870839  0.66797753  1
  Te  Te189  1  0.00018923  0.00561890  0.16159503  1
  Te  Te190  1  -0.00100642  0.00487831  0.50182564  1
  Te  Te191  1  0.00367462  -0.00548366  0.83336173  1
  Te  Te192  1  -0.00126318  0.33465809  0.15972390  1
  Te  Te193  1  -0.00103730  0.32881780  0.49968067  1
  Te  Te194  1  0.00212275  0.33093963  0.83855658  1
  Te  Te195  1  0.00077948  0.66009572  0.16059226  1
  Te  Te196  1  -0.00063783  0.66570006  0.49870895  1
  Te  Te197  1  0.00142626  0.67609241  0.83555879  1
  Te  Te198  1  0.33271191  -0.00075095  0.16083409  1
  Te  Te199  1  0.33278583  -0.00016856  0.50737667  1
  Te  Te200  1  0.33196297  -0.00637630  0.83308756  1
  Te  Te201  1  0.33562231  0.33524508  0.16247930  1
  Te  Te202  1  0.33353944  0.33317834  0.49766827  1
  Te  Te203  1  0.33035354  0.33549908  0.84158575  1
  Te  Te204  1  0.33719179  0.66615988  0.16260157  1
  Te  Te205  1  0.33694457  0.66605193  0.50317769  1
  Te  Te206  1  0.33615395  0.66837371  0.83508785  1
  Te  Te207  1  0.66782578  -0.00331941  0.16855725  1
  Te  Te208  1  0.66832591  0.00219011  0.50697046  1
  Te  Te209  1  0.66371141  -0.00218673  0.82997094  1
  Te  Te210  1  0.66690351  0.33438302  0.16066672  1
  Te  Te211  1  0.66663356  0.34024793  0.51033880  1
  Te  Te212  1  0.66619035  0.33278783  0.83507324  1
  Te  Te213  1  0.66387293  0.66923543  0.16393396  1
  Te  Te214  1  0.66403363  0.66214341  0.50143024  1
  Te  Te215  1  0.66146123  0.66874615  0.83757091  1
