# generated using pymatgen
data_AgSbTe2
_symmetry_space_group_name_H-M   'P 1'
_cell_length_a   18.34271286
_cell_length_b   18.34732169
_cell_length_c   18.33642306
_cell_angle_alpha   90.00115618
_cell_angle_beta   90.00176842
_cell_angle_gamma   90.00123099
_symmetry_Int_Tables_number   1
_chemical_formula_structural   AgSbTe2
_chemical_formula_sum   'Ag54 Sb54 Te108'
_cell_volume   6170.93346025
_cell_formula_units_Z   54
loop_
 _symmetry_equiv_pos_site_id
 _symmetry_equiv_pos_as_xyz
  1  'x, y, z'
loop_
 _atom_site_type_symbol
 _atom_site_label
 _atom_site_symmetry_multiplicity
 _atom_site_fract_x
 _atom_site_fract_y
 _atom_site_fract_z
 _atom_site_occupancy
  Ag  Ag0  1  0.83227107  0.16294971  0.67197029  1
  Ag  Ag1  1  0.50443925  0.50860595  0.67559692  1
  Ag  Ag2  1  0.15707479  0.32748926  0.16483099  1
  Ag  Ag3  1  0.66495950  0.83550673  0.16501518  1
  Ag  Ag4  1  0.82199363  0.83656636  0.32490193  1
  Ag  Ag5  1  -0.00557513  -0.00044503  0.67042107  1
  Ag  Ag6  1  0.66393179  0.49608422  0.83930415  1
  Ag  Ag7  1  0.34597604  0.00093555  0.32207625  1
  Ag  Ag8  1  0.16851255  0.66168207  0.83318875  1
  Ag  Ag9  1  0.66674844  0.66841013  0.32480878  1
  Ag  Ag10  1  0.16805566  0.33334731  0.84008965  1
  Ag  Ag11  1  0.50018277  -0.00341086  0.49761137  1
  Ag  Ag12  1  0.50208279  -0.00211753  0.83655452  1
  Ag  Ag13  1  0.83477082  0.33073169  0.16870125  1
  Ag  Ag14  1  0.66570113  0.34137182  0.00135614  1
  Ag  Ag15  1  -0.01107435  0.66261275  0.32788781  1
  Ag  Ag16  1  -0.01037519  0.83573475  0.16655553  1
  Ag  Ag17  1  0.50101600  0.67516328  0.16507558  1
  Ag  Ag18  1  0.50492744  0.50886978  0.32958916  1
  Ag  Ag19  1  0.82218554  0.83228871  0.00684411  1
  Ag  Ag20  1  0.50238487  0.83527710  0.66848790  1
  Ag  Ag21  1  0.50267538  0.83371873  0.32321247  1
  Ag  Ag22  1  0.66716233  0.33669123  0.32761975  1
  Ag  Ag23  1  0.66485540  -0.00855090  0.32763255  1
  Ag  Ag24  1  -0.00667803  0.16517801  0.83546013  1
  Ag  Ag25  1  -0.00465226  0.16688466  0.16253536  1
  Ag  Ag26  1  0.50417168  0.50788502  0.00016962  1
  Ag  Ag27  1  0.34636174  -0.00010049  0.67331160  1
  Ag  Ag28  1  0.82500462  0.50403481  0.00526374  1
  Ag  Ag29  1  0.66353368  0.66269062  0.00304449  1
  Ag  Ag30  1  0.34720871  0.50664103  0.83650512  1
  Ag  Ag31  1  -0.01294792  0.33855321  0.32753925  1
  Ag  Ag32  1  0.66994876  0.16619770  0.83392050  1
  Ag  Ag33  1  -0.00872087  0.67244823  0.66386244  1
  Ag  Ag34  1  0.15549436  0.16433848  0.67321661  1
  Ag  Ag35  1  0.83129718  -0.00717351  0.16541103  1
  Ag  Ag36  1  0.50349947  0.15152389  0.00034692  1
  Ag  Ag37  1  0.34565201  0.32845538  0.32809301  1
  Ag  Ag38  1  0.82040876  0.00120245  0.83984568  1
  Ag  Ag39  1  0.50169893  0.66920578  0.49289177  1
  Ag  Ag40  1  0.34827170  0.83818884  0.16237759  1
  Ag  Ag41  1  0.50255960  0.33552529  0.49445767  1
  Ag  Ag42  1  -0.00576660  0.49635879  0.16782769  1
  Ag  Ag43  1  0.66360928  0.66753835  0.67017454  1
  Ag  Ag44  1  0.82375923  0.49747095  0.32496265  1
  Ag  Ag45  1  0.66414431  -0.00107128  0.67006081  1
  Ag  Ag46  1  0.33780442  0.83395082  0.84237550  1
  Ag  Ag47  1  0.83124537  0.16811140  0.32437604  1
  Ag  Ag48  1  0.49869488  -0.00723799  0.16607535  1
  Ag  Ag49  1  0.17005917  0.00171004  0.16810195  1
  Ag  Ag50  1  0.34034854  -0.00658295  0.00285153  1
  Ag  Ag51  1  0.50254843  0.83186960  0.00669034  1
  Ag  Ag52  1  0.66439534  0.33147321  0.67361477  1
  Ag  Ag53  1  0.34473314  0.67349934  -0.00196006  1
  Sb  Sb54  1  0.17135658  0.33114474  0.49745027  1
  Sb  Sb55  1  0.33687045  0.16516167  0.49895917  1
  Sb  Sb56  1  0.83088626  0.32835877  0.83861502  1
  Sb  Sb57  1  0.33481919  0.50185010  0.16341296  1
  Sb  Sb58  1  -0.00499803  0.33171061  0.66451752  1
  Sb  Sb59  1  0.82555076  0.66669480  0.49645424  1
  Sb  Sb60  1  0.17457170  0.83357750  0.00164694  1
  Sb  Sb61  1  0.17124890  0.83484358  0.32814364  1
  Sb  Sb62  1  0.50468515  0.16152886  0.67165660  1
  Sb  Sb63  1  0.82800571  0.66960453  0.16799199  1
  Sb  Sb64  1  0.16952534  0.16656524  -0.00129138  1
  Sb  Sb65  1  0.17047831  0.66683619  0.50338971  1
  Sb  Sb66  1  0.00230171  0.83626860  0.83614492  1
  Sb  Sb67  1  0.66346168  0.50044423  0.49859546  1
  Sb  Sb68  1  0.82778348  0.16459817  0.00138923  1
  Sb  Sb69  1  0.82692426  -0.00013348  0.49775805  1
  Sb  Sb70  1  0.50767966  0.16186414  0.32895401  1
  Sb  Sb71  1  0.50474212  0.33241796  0.16803004  1
  Sb  Sb72  1  -0.00404906  0.49765346  0.83665913  1
  Sb  Sb73  1  0.49995747  0.67134375  0.83868449  1
  Sb  Sb74  1  0.17043224  0.83714456  0.67009415  1
  Sb  Sb75  1  0.83270295  0.67145547  0.83424114  1
  Sb  Sb76  1  -0.00184055  0.50129129  0.49430424  1
  Sb  Sb77  1  0.34220020  0.66877683  0.32749307  1
  Sb  Sb78  1  0.66046306  -0.00242357  0.00085940  1
  Sb  Sb79  1  0.16864662  0.49807521  0.32966372  1
  Sb  Sb80  1  -0.00642333  0.33327292  0.00674397  1
  Sb  Sb81  1  0.66593261  0.16642807  0.50348871  1
  Sb  Sb82  1  0.33933952  0.67206102  0.67427240  1
  Sb  Sb83  1  0.50282775  0.33287336  0.83352487  1
  Sb  Sb84  1  0.66976927  0.16244824  0.16298814  1
  Sb  Sb85  1  0.82683060  0.83814931  0.66912741  1
  Sb  Sb86  1  -0.00212704  0.16544033  0.49969846  1
  Sb  Sb87  1  0.33211039  0.16099193  0.16749993  1
  Sb  Sb88  1  0.33682600  0.16452627  0.83389523  1
  Sb  Sb89  1  -0.00336592  0.66796702  0.00321249  1
  Sb  Sb90  1  0.66274658  0.83307547  0.49121365  1
  Sb  Sb91  1  0.33933217  0.33322803  0.00289589  1
  Sb  Sb92  1  0.17150564  0.49761209  0.67161449  1
  Sb  Sb93  1  0.82735407  0.33294478  0.49215232  1
  Sb  Sb94  1  0.33926205  0.33006232  0.66550127  1
  Sb  Sb95  1  0.17235893  0.00115991  0.49771867  1
  Sb  Sb96  1  0.66967484  0.50480067  0.16399869  1
  Sb  Sb97  1  -0.00225398  0.83348423  0.49743388  1
  Sb  Sb98  1  0.16854757  0.66871763  0.16438689  1
  Sb  Sb99  1  0.82444100  0.49787672  0.67029157  1
  Sb  Sb100  1  0.16936945  0.50019022  0.00105080  1
  Sb  Sb101  1  0.00070260  -0.00073849  0.00170963  1
  Sb  Sb102  1  0.34129438  0.83454375  0.49614762  1
  Sb  Sb103  1  0.17107647  0.00215903  0.83596514  1
  Sb  Sb104  1  0.16242568  0.16719106  0.33245899  1
  Sb  Sb105  1  0.66110756  0.83431360  0.83945940  1
  Sb  Sb106  1  0.34129158  0.49957427  0.50336639  1
  Sb  Sb107  1  -0.00616427  -0.00111780  0.33085480  1
  Te  Te108  1  0.16037764  0.16544873  0.16625549  1
  Te  Te109  1  0.16607845  0.16664304  0.51116978  1
  Te  Te110  1  0.16439186  0.17035277  0.83160936  1
  Te  Te111  1  0.16064211  0.49646502  0.16495147  1
  Te  Te112  1  0.16828337  0.49946240  0.50250461  1
  Te  Te113  1  0.16325223  0.49713722  0.83412958  1
  Te  Te114  1  0.15974200  0.83823880  0.16533179  1
  Te  Te115  1  0.16750411  0.83299693  0.50032309  1
  Te  Te116  1  0.17201638  0.82789371  0.83456606  1
  Te  Te117  1  0.49906018  0.16400498  0.15961423  1
  Te  Te118  1  0.50025350  0.16570529  0.49941233  1
  Te  Te119  1  0.50462673  0.16390523  0.83890268  1
  Te  Te120  1  0.49896599  0.50095716  0.16824982  1
  Te  Te121  1  0.50017917  0.50041353  0.49447540  1
  Te  Te122  1  0.50316705  0.49832251  0.83390076  1
  Te  Te123  1  0.50303729  0.83333049  0.16672851  1
  Te  Te124  1  0.49989713  0.83465781  0.50871402  1
  Te  Te125  1  0.49657546  0.83654969  0.82815032  1
  Te  Te126  1  0.83594468  0.16608072  0.16633416  1
  Te  Te127  1  0.83303063  0.16628078  0.50193826  1
  Te  Te128  1  0.83289888  0.16217586  0.83415004  1
  Te  Te129  1  0.83569875  0.50180663  0.16652186  1
  Te  Te130  1  0.83355035  0.50042238  0.48858029  1
  Te  Te131  1  0.82680497  0.49923674  0.83992978  1
  Te  Te132  1  0.83127571  0.83415658  0.16656840  1
  Te  Te133  1  0.83344443  0.83272400  0.48591893  1
  Te  Te134  1  0.83517405  0.84266822  0.83846608  1
  Te  Te135  1  0.17365199  0.00119654  0.00713050  1
  Te  Te136  1  0.17176286  0.00125928  0.32853423  1
  Te  Te137  1  0.16249244  0.00368555  0.66559139  1
  Te  Te138  1  0.16848570  0.33338261  0.00110990  1
  Te  Te139  1  0.16875882  0.33190611  0.32898379  1
  Te  Te140  1  0.16756270  0.32871703  0.66700129  1
  Te  Te141  1  0.16701949  0.66563343  -0.00609629  1
  Te  Te142  1  0.16294465  0.66671091  0.33549346  1
  Te  Te143  1  0.16606747  0.66588686  0.67224815  1
  Te  Te144  1  0.50102240  -0.00557056  0.00053840  1
  Te  Te145  1  0.50332282  0.00061556  0.33046792  1
  Te  Te146  1  0.50341420  0.00075268  0.66966459  1
  Te  Te147  1  0.50596157  0.34261163  0.00049187  1
  Te  Te148  1  0.50320556  0.32828977  0.33392380  1
  Te  Te149  1  0.50400881  0.33348430  0.66381314  1
  Te  Te150  1  0.50253741  0.66870233  0.00088612  1
  Te  Te151  1  0.50240692  0.66806354  0.33139498  1
  Te  Te152  1  0.50276677  0.66634166  0.66800216  1
  Te  Te153  1  0.83466301  -0.00429396  0.00094218  1
  Te  Te154  1  0.82794459  0.00068692  0.33200885  1
  Te  Te155  1  0.82997456  0.00183199  0.66502419  1
  Te  Te156  1  0.82661536  0.33560882  0.00608245  1
  Te  Te157  1  0.82994062  0.33286999  0.33091247  1
  Te  Te158  1  0.82577663  0.32885684  0.66432533  1
  Te  Te159  1  0.82808432  0.66809311  -0.00093039  1
  Te  Te160  1  0.83045434  0.66541140  0.33401690  1
  Te  Te161  1  0.83217277  0.66674132  0.66550485  1
  Te  Te162  1  0.00163079  0.16705645  -0.00186175  1
  Te  Te163  1  -0.00464761  0.16748813  0.33059198  1
  Te  Te164  1  -0.00467618  0.16718080  0.66799022  1
  Te  Te165  1  -0.00594466  0.50024655  0.00510432  1
  Te  Te166  1  0.00248474  0.50127368  0.32862109  1
  Te  Te167  1  -0.00323877  0.50334160  0.66650512  1
  Te  Te168  1  -0.00447192  0.83317069  0.00375783  1
  Te  Te169  1  0.00241914  0.83142815  0.32977292  1
  Te  Te170  1  -0.00293333  0.83278767  0.66741969  1
  Te  Te171  1  0.34138638  0.16476441  0.00012042  1
  Te  Te172  1  0.33084714  0.16633918  0.33360851  1
  Te  Te173  1  0.33301969  0.16163152  0.66589957  1
  Te  Te174  1  0.33762179  0.50116050  -0.00488762  1
  Te  Te175  1  0.33817453  0.49879490  0.33301474  1
  Te  Te176  1  0.34083578  0.49882419  0.67378348  1
  Te  Te177  1  0.33622550  0.83318493  0.00116384  1
  Te  Te178  1  0.33965359  0.83669606  0.32762350  1
  Te  Te179  1  0.33744182  0.83926988  0.66785872  1
  Te  Te180  1  0.66241625  0.17218519  -0.00513559  1
  Te  Te181  1  0.67272236  0.16978063  0.33423953  1
  Te  Te182  1  0.67029785  0.16489112  0.67051159  1
  Te  Te183  1  0.66573289  0.50184465  0.00066476  1
  Te  Te184  1  0.66431949  0.50153121  0.33268926  1
  Te  Te185  1  0.66467136  0.50041392  0.66914769  1
  Te  Te186  1  0.66306359  0.82880144  0.00269908  1
  Te  Te187  1  0.66312107  0.83174497  0.33095487  1
  Te  Te188  1  0.66559701  0.83390325  0.66931618  1
  Te  Te189  1  -0.00577203  0.00025759  0.16811912  1
  Te  Te190  1  0.00250240  -0.00052239  0.50754756  1
  Te  Te191  1  0.00330211  0.00407088  0.83001326  1
  Te  Te192  1  -0.00243811  0.33099599  0.16773873  1
  Te  Te193  1  0.00148644  0.33358716  0.49038706  1
  Te  Te194  1  0.00183978  0.32871256  0.83191115  1
  Te  Te195  1  0.00304259  0.66946381  0.17023223  1
  Te  Te196  1  0.00244317  0.66749268  0.50359229  1
  Te  Te197  1  0.00217818  0.66612150  0.83060496  1
  Te  Te198  1  0.33657799  -0.00093078  0.16505596  1
  Te  Te199  1  0.33998414  -0.00073312  0.50254770  1
  Te  Te200  1  0.33692400  -0.00112236  0.83391211  1
  Te  Te201  1  0.33101505  0.33385494  0.17059390  1
  Te  Te202  1  0.33961844  0.33319079  0.49264240  1
  Te  Te203  1  0.32841175  0.33436486  0.83395432  1
  Te  Te204  1  0.33569782  0.67036015  0.15962090  1
  Te  Te205  1  0.33917902  0.66684893  0.49979678  1
  Te  Te206  1  0.33114156  0.66548327  0.83693318  1
  Te  Te207  1  0.66855506  -0.00209958  0.16821601  1
  Te  Te208  1  0.65988055  -0.00073986  0.50297042  1
  Te  Te209  1  0.66434899  0.00036792  0.83411659  1
  Te  Te210  1  0.67179470  0.32993354  0.16666423  1
  Te  Te211  1  0.66064434  0.33360085  0.49928957  1
  Te  Te212  1  0.66807314  0.33275642  0.83326210  1
  Te  Te213  1  0.66214200  0.67014615  0.16657757  1
  Te  Te214  1  0.65882485  0.66735216  0.50750800  1
  Te  Te215  1  0.66917138  0.66376574  0.83132947  1
