# generated using pymatgen
data_AgSbTe2
_symmetry_space_group_name_H-M   'P 1'
_cell_length_a   18.34891416
_cell_length_b   18.34333742
_cell_length_c   18.34938115
_cell_angle_alpha   89.99917000
_cell_angle_beta   89.99643328
_cell_angle_gamma   90.00276007
_symmetry_Int_Tables_number   1
_chemical_formula_structural   AgSbTe2
_chemical_formula_sum   'Ag54 Sb54 Te108'
_cell_volume   6176.04062924
_cell_formula_units_Z   54
loop_
 _symmetry_equiv_pos_site_id
 _symmetry_equiv_pos_as_xyz
  1  'x, y, z'
loop_
 _atom_site_type_symbol
 _atom_site_label
 _atom_site_symmetry_multiplicity
 _atom_site_fract_x
 _atom_site_fract_y
 _atom_site_fract_z
 _atom_site_occupancy
  Ag  Ag0  1  0.83733488  0.33564442  0.15946913  1
  Ag  Ag1  1  0.33217127  0.34072531  0.32881788  1
  Ag  Ag2  1  0.49664179  0.50111471  0.32714580  1
  Ag  Ag3  1  -0.00369598  0.65533092  -0.00709854  1
  Ag  Ag4  1  0.00411986  0.34111035  0.67699375  1
  Ag  Ag5  1  0.83572788  0.49725784  0.00210266  1
  Ag  Ag6  1  0.33440786  0.65726590  0.33649322  1
  Ag  Ag7  1  0.50146311  0.50024278  0.00721052  1
  Ag  Ag8  1  0.16661643  0.65748451  0.83154275  1
  Ag  Ag9  1  0.67823046  0.33922908  0.00030409  1
  Ag  Ag10  1  -0.00561786  0.00904357  0.33408645  1
  Ag  Ag11  1  0.84704571  0.32882921  0.84625423  1
  Ag  Ag12  1  0.83250757  0.01434521  0.83399385  1
  Ag  Ag13  1  0.33260708  0.82363892  0.82931499  1
  Ag  Ag14  1  0.83241101  0.17154021  0.67534985  1
  Ag  Ag15  1  0.49287808  0.82297765  0.66917420  1
  Ag  Ag16  1  0.17391927  0.33759431  0.15876630  1
  Ag  Ag17  1  0.49429321  0.82381934  0.33119311  1
  Ag  Ag18  1  0.00583141  0.83121091  0.83240622  1
  Ag  Ag19  1  0.50263732  -0.00307054  0.83360436  1
  Ag  Ag20  1  0.16481993  0.49787740  0.33150904  1
  Ag  Ag21  1  0.33671020  0.82946879  0.50812390  1
  Ag  Ag22  1  -0.00721767  0.33765325  -0.00657587  1
  Ag  Ag23  1  0.83309960  0.17926243  0.33446823  1
  Ag  Ag24  1  0.65786461  0.66490520  0.67302951  1
  Ag  Ag25  1  0.84307312  0.49663185  0.32809145  1
  Ag  Ag26  1  0.66710643  0.16982957  0.50281051  1
  Ag  Ag27  1  0.33119096  0.66310849  0.66654365  1
  Ag  Ag28  1  0.49018348  0.50083067  0.66817061  1
  Ag  Ag29  1  0.17219542  0.50056887  0.67609888  1
  Ag  Ag30  1  0.16448673  0.33963994  0.84032891  1
  Ag  Ag31  1  0.83197629  0.18281559  -0.01217312  1
  Ag  Ag32  1  0.49513003  0.33958187  0.16732119  1
  Ag  Ag33  1  -0.00795608  0.17475729  0.83217404  1
  Ag  Ag34  1  0.66295740  0.49787796  0.16416923  1
  Ag  Ag35  1  0.83567064  0.66389788  0.50130561  1
  Ag  Ag36  1  0.33823911  0.17590817  0.49718491  1
  Ag  Ag37  1  0.33140588  0.50067532  0.82969347  1
  Ag  Ag38  1  0.17536771  0.81931717  0.67099160  1
  Ag  Ag39  1  0.33717249  0.83185638  0.16692643  1
  Ag  Ag40  1  0.33133503  0.33662650  0.00827200  1
  Ag  Ag41  1  0.33507268  0.17986849  0.17303473  1
  Ag  Ag42  1  0.66629729  0.65708256  -0.00546716  1
  Ag  Ag43  1  0.66919920  0.00338302  0.33361724  1
  Ag  Ag44  1  -0.00285973  0.49965137  0.49546462  1
  Ag  Ag45  1  0.00455521  0.65819390  0.33502742  1
  Ag  Ag46  1  0.67705564  0.16924659  0.82948135  1
  Ag  Ag47  1  -0.00040817  0.33808353  0.33118039  1
  Ag  Ag48  1  0.00916539  0.65924982  0.67258259  1
  Ag  Ag49  1  0.33035792  0.34376219  0.66908241  1
  Ag  Ag50  1  0.49702894  0.33555677  0.49142746  1
  Ag  Ag51  1  0.16759369  0.49671274  -0.00662463  1
  Ag  Ag52  1  0.49863447  0.65814302  0.16624045  1
  Ag  Ag53  1  0.49729796  0.82189254  -0.00125843  1
  Sb  Sb54  1  0.17268020  0.82190833  -0.00528993  1
  Sb  Sb55  1  0.17090009  0.65927545  0.16335323  1
  Sb  Sb56  1  0.49711889  0.33431423  0.83680822  1
  Sb  Sb57  1  0.83304804  0.82816739  0.33250301  1
  Sb  Sb58  1  0.83111333  0.33629228  0.49955015  1
  Sb  Sb59  1  0.66918303  0.49723711  0.49870837  1
  Sb  Sb60  1  0.16690989  -0.00180063  0.49936671  1
  Sb  Sb61  1  0.50045677  -0.00058879  0.16490905  1
  Sb  Sb62  1  0.83285817  -0.00064804  0.50157961  1
  Sb  Sb63  1  0.16561670  -0.00093322  0.83341286  1
  Sb  Sb64  1  0.83944787  0.65921816  0.83131813  1
  Sb  Sb65  1  0.00076474  0.17378781  0.16417018  1
  Sb  Sb66  1  0.00696775  0.83062863  0.16363734  1
  Sb  Sb67  1  0.66567296  0.33607656  0.67122052  1
  Sb  Sb68  1  0.16675750  0.00699778  0.16823392  1
  Sb  Sb69  1  0.83296779  0.83144575  0.66896301  1
  Sb  Sb70  1  -0.00103721  0.00014312  0.66570506  1
  Sb  Sb71  1  0.33392041  0.00001074  0.33331907  1
  Sb  Sb72  1  0.83331582  0.00974471  0.16436914  1
  Sb  Sb73  1  0.66203172  0.83460714  0.49938013  1
  Sb  Sb74  1  0.16509095  0.66226206  0.50789037  1
  Sb  Sb75  1  0.66650529  0.33357423  0.32845236  1
  Sb  Sb76  1  0.66465515  0.17423358  0.16587269  1
  Sb  Sb77  1  0.66351791  0.66551564  0.33354641  1
  Sb  Sb78  1  0.49972544  0.00154013  0.50205310  1
  Sb  Sb79  1  0.65991100  0.82693442  0.16606823  1
  Sb  Sb80  1  0.16511542  0.17610810  0.33335796  1
  Sb  Sb81  1  0.50048730  0.66134180  0.49952671  1
  Sb  Sb82  1  0.49506195  0.66840323  0.83479728  1
  Sb  Sb83  1  0.33460170  -0.00443920  0.66780941  1
  Sb  Sb84  1  0.66497793  0.00208022  0.00107071  1
  Sb  Sb85  1  0.33654018  0.65822678  -0.00067976  1
  Sb  Sb86  1  0.66198582  0.49724667  0.83901317  1
  Sb  Sb87  1  -0.00188577  0.17401142  0.50234514  1
  Sb  Sb88  1  0.33123809  0.49886420  0.50181497  1
  Sb  Sb89  1  -0.00269537  0.49750649  0.16761909  1
  Sb  Sb90  1  0.66600726  -0.00093736  0.66607172  1
  Sb  Sb91  1  0.17132086  0.33753205  0.50069993  1
  Sb  Sb92  1  0.82908082  0.65906610  0.16872763  1
  Sb  Sb93  1  0.83541481  0.49743662  0.66928512  1
  Sb  Sb94  1  0.33560213  0.00252143  -0.00143102  1
  Sb  Sb95  1  0.33854892  0.49871706  0.16472324  1
  Sb  Sb96  1  0.50086838  0.17103700  0.66744776  1
  Sb  Sb97  1  0.16459121  0.17493359  0.66746613  1
  Sb  Sb98  1  0.00422431  0.82575331  0.50381661  1
  Sb  Sb99  1  0.83150985  0.82848483  -0.00221735  1
  Sb  Sb100  1  0.00652417  0.49802896  0.83286886  1
  Sb  Sb101  1  -0.00210091  0.00385045  -0.00057359  1
  Sb  Sb102  1  0.66327779  0.83520297  0.83384166  1
  Sb  Sb103  1  0.16280754  0.17826416  -0.00058767  1
  Sb  Sb104  1  0.50280869  0.17491042  -0.00086526  1
  Sb  Sb105  1  0.17257716  0.82395415  0.33661470  1
  Sb  Sb106  1  0.33233496  0.17268029  0.83234188  1
  Sb  Sb107  1  0.50144790  0.16998999  0.33376578  1
  Te  Te108  1  0.17404864  0.17481515  0.16672347  1
  Te  Te109  1  0.17419024  0.16554632  0.50093554  1
  Te  Te110  1  0.16240460  0.16793025  0.83224850  1
  Te  Te111  1  0.16793053  0.49498875  0.17011333  1
  Te  Te112  1  0.15700020  0.49979961  0.49103619  1
  Te  Te113  1  0.16955691  0.49789488  0.83357034  1
  Te  Te114  1  0.17620733  0.83347841  0.16529012  1
  Te  Te115  1  0.17345793  0.83219828  0.50560722  1
  Te  Te116  1  0.16716184  0.83325870  0.83016790  1
  Te  Te117  1  0.49469017  0.16883037  0.16543032  1
  Te  Te118  1  0.50112532  0.17154789  0.50111303  1
  Te  Te119  1  0.50027132  0.15787825  0.83348754  1
  Te  Te120  1  0.50147297  0.50015402  0.16719265  1
  Te  Te121  1  0.50158775  0.49486075  0.50124120  1
  Te  Te122  1  0.49364458  0.50082630  0.82893053  1
  Te  Te123  1  0.49635165  0.83316711  0.16786155  1
  Te  Te124  1  0.49598278  0.83372449  0.50007245  1
  Te  Te125  1  0.49813826  0.83396718  0.83210762  1
  Te  Te126  1  0.83283415  0.17449542  0.17566120  1
  Te  Te127  1  0.82966533  0.16372840  0.49196565  1
  Te  Te128  1  0.83397768  0.16975689  0.83205016  1
  Te  Te129  1  0.82742422  0.49695397  0.16661293  1
  Te  Te130  1  0.83630288  0.50313016  0.49769353  1
  Te  Te131  1  0.82914891  0.49122420  0.83938319  1
  Te  Te132  1  0.83445470  0.83479756  0.16481519  1
  Te  Te133  1  0.83346794  0.82720866  0.49994330  1
  Te  Te134  1  0.83642159  0.83329974  0.83477623  1
  Te  Te135  1  0.16636839  0.00014112  0.00137095  1
  Te  Te136  1  0.15948572  -0.00078596  0.33252877  1
  Te  Te137  1  0.16582949  -0.00397835  0.66665315  1
  Te  Te138  1  0.17146695  0.33713911  0.00013107  1
  Te  Te139  1  0.16878151  0.33743685  0.33384805  1
  Te  Te140  1  0.16589615  0.33868026  0.66730627  1
  Te  Te141  1  0.15917073  0.65819895  -0.00349416  1
  Te  Te142  1  0.16956650  0.66010571  0.33024286  1
  Te  Te143  1  0.16848861  0.66309712  0.66964872  1
  Te  Te144  1  0.50090514  -0.00534571  -0.00390926  1
  Te  Te145  1  0.50258362  -0.00101445  0.33331330  1
  Te  Te146  1  0.50169602  -0.00437808  0.67121066  1
  Te  Te147  1  0.49037436  0.33865366  0.00371065  1
  Te  Te148  1  0.49933850  0.33495197  0.33072894  1
  Te  Te149  1  0.49698994  0.33839742  0.66813757  1
  Te  Te150  1  0.50209501  0.66307635  0.00041202  1
  Te  Te151  1  0.49739450  0.66512177  0.33386164  1
  Te  Te152  1  0.49662627  0.66412016  0.66627722  1
  Te  Te153  1  0.83195935  0.00124546  -0.00396360  1
  Te  Te154  1  0.83372595  -0.00409587  0.33264664  1
  Te  Te155  1  0.83238765  0.00572852  0.67110177  1
  Te  Te156  1  0.83495473  0.33752598  0.00302276  1
  Te  Te157  1  0.83264282  0.33733096  0.33540626  1
  Te  Te158  1  0.83595517  0.32957589  0.66526197  1
  Te  Te159  1  0.83477676  0.65970318  0.00044872  1
  Te  Te160  1  0.83401743  0.66223582  0.33654833  1
  Te  Te161  1  0.83893137  0.66630029  0.66409247  1
  Te  Te162  1  -0.00615075  0.17072958  -0.00313120  1
  Te  Te163  1  -0.00320548  0.17073275  0.33384700  1
  Te  Te164  1  -0.00319439  0.16939936  0.66921682  1
  Te  Te165  1  0.00015427  0.49779199  0.00110258  1
  Te  Te166  1  0.00007513  0.49988522  0.33101983  1
  Te  Te167  1  -0.00047300  0.49982763  0.66552841  1
  Te  Te168  1  0.00131646  0.83408943  -0.00514131  1
  Te  Te169  1  0.00271450  0.82491456  0.33304206  1
  Te  Te170  1  0.00102386  0.83091133  0.67077227  1
  Te  Te171  1  0.33267384  0.17282319  0.00200050  1
  Te  Te172  1  0.33230212  0.16864743  0.33421914  1
  Te  Te173  1  0.33342662  0.16897874  0.66200610  1
  Te  Te174  1  0.33382196  0.49776286  -0.00422530  1
  Te  Te175  1  0.33657952  0.49898601  0.33617464  1
  Te  Te176  1  0.33221148  0.50164771  0.66432054  1
  Te  Te177  1  0.33858772  0.83322700  -0.00359733  1
  Te  Te178  1  0.33574039  0.83539947  0.33296537  1
  Te  Te179  1  0.33416316  0.83226647  0.66787535  1
  Te  Te180  1  0.67048692  0.16942640  -0.00365535  1
  Te  Te181  1  0.66834788  0.16472869  0.33475730  1
  Te  Te182  1  0.66906444  0.16645961  0.66704639  1
  Te  Te183  1  0.66141784  0.49891180  -0.00125365  1
  Te  Te184  1  0.66011198  0.50153484  0.32980399  1
  Te  Te185  1  0.66669222  0.50596250  0.66654852  1
  Te  Te186  1  0.66044887  0.82892527  0.00115839  1
  Te  Te187  1  0.66093247  0.83616603  0.33330130  1
  Te  Te188  1  0.66376915  0.82659072  0.66576828  1
  Te  Te189  1  0.00022118  -0.00143864  0.17460876  1
  Te  Te190  1  -0.00052896  -0.00036804  0.49262047  1
  Te  Te191  1  -0.00350131  -0.00034008  0.83272128  1
  Te  Te192  1  -0.00149280  0.33206627  0.16996863  1
  Te  Te193  1  -0.00043627  0.33794681  0.49457108  1
  Te  Te194  1  0.00309741  0.33441217  0.83376617  1
  Te  Te195  1  -0.00056499  0.66873873  0.16831484  1
  Te  Te196  1  -0.00151070  0.66316183  0.49756044  1
  Te  Te197  1  0.00274373  0.66920774  0.83370703  1
  Te  Te198  1  0.33308244  -0.00285938  0.16638499  1
  Te  Te199  1  0.33372907  0.00281568  0.50033354  1
  Te  Te200  1  0.33643858  -0.00088610  0.83351853  1
  Te  Te201  1  0.33363401  0.33599966  0.16972139  1
  Te  Te202  1  0.33664479  0.33410688  0.49943861  1
  Te  Te203  1  0.33064133  0.33597623  0.82668278  1
  Te  Te204  1  0.33764797  0.67244341  0.16928640  1
  Te  Te205  1  0.33428867  0.67053258  0.49799046  1
  Te  Te206  1  0.32960871  0.66475459  0.83222744  1
  Te  Te207  1  0.66750935  -0.00107513  0.17272433  1
  Te  Te208  1  0.66651149  0.00572873  0.49572001  1
  Te  Te209  1  0.66761659  0.00474118  0.83357240  1
  Te  Te210  1  0.66415931  0.33663999  0.16114210  1
  Te  Te211  1  0.65975594  0.32887466  0.50307235  1
  Te  Te212  1  0.66434892  0.32821791  0.83794386  1
  Te  Te213  1  0.66090484  0.65996649  0.16252677  1
  Te  Te214  1  0.67246596  0.66718785  0.50558955  1
  Te  Te215  1  0.67091105  0.66811953  0.83309139  1
