# generated using pymatgen
data_AgSbTe2
_symmetry_space_group_name_H-M   'P 1'
_cell_length_a   18.33648946
_cell_length_b   18.33158401
_cell_length_c   18.33512288
_cell_angle_alpha   89.99696492
_cell_angle_beta   90.00068074
_cell_angle_gamma   90.00245029
_symmetry_Int_Tables_number   1
_chemical_formula_structural   AgSbTe2
_chemical_formula_sum   'Ag54 Sb54 Te108'
_cell_volume   6163.11129644
_cell_formula_units_Z   54
loop_
 _symmetry_equiv_pos_site_id
 _symmetry_equiv_pos_as_xyz
  1  'x, y, z'
loop_
 _atom_site_type_symbol
 _atom_site_label
 _atom_site_symmetry_multiplicity
 _atom_site_fract_x
 _atom_site_fract_y
 _atom_site_fract_z
 _atom_site_occupancy
  Ag  Ag0  1  0.00583886  0.66030372  -0.00648634  1
  Ag  Ag1  1  0.49629691  0.17689411  -0.00292229  1
  Ag  Ag2  1  0.01341656  0.50208489  0.83588511  1
  Ag  Ag3  1  0.17520309  0.33619381  0.16687577  1
  Ag  Ag4  1  0.49698422  0.00014682  0.17707515  1
  Ag  Ag5  1  0.49587646  0.17282059  0.66779974  1
  Ag  Ag6  1  -0.00422741  0.65742701  0.33437737  1
  Ag  Ag7  1  0.49428949  0.33533284  0.82655054  1
  Ag  Ag8  1  0.66480745  0.34207707  0.00682823  1
  Ag  Ag9  1  0.34318129  0.00658063  0.33474669  1
  Ag  Ag10  1  0.66751240  0.65623064  0.33317793  1
  Ag  Ag11  1  0.33634131  0.17643347  0.16095700  1
  Ag  Ag12  1  0.49640421  0.33945944  0.50234682  1
  Ag  Ag13  1  0.65830861  0.83018300  0.49889605  1
  Ag  Ag14  1  0.83481023  0.33333330  0.16827437  1
  Ag  Ag15  1  0.17130847  0.81636569  -0.00140390  1
  Ag  Ag16  1  0.33568470  0.33558808  0.33816367  1
  Ag  Ag17  1  0.49559920  0.49530860  0.00034718  1
  Ag  Ag18  1  0.17694254  0.34480344  0.83458049  1
  Ag  Ag19  1  0.83030729  0.16493863  0.66754255  1
  Ag  Ag20  1  0.84124260  0.66153790  0.83613214  1
  Ag  Ag21  1  0.82919482  0.49874025  0.00417066  1
  Ag  Ag22  1  0.82650894  0.49683529  0.32965624  1
  Ag  Ag23  1  0.33028589  0.65766894  0.00005675  1
  Ag  Ag24  1  0.17509657  0.49967659  0.67638560  1
  Ag  Ag25  1  0.00205999  0.66348916  0.67300619  1
  Ag  Ag26  1  0.82856875  0.17554243  -0.00018783  1
  Ag  Ag27  1  0.33457627  0.49401460  0.15890956  1
  Ag  Ag28  1  0.33544057  0.00107944  0.00244723  1
  Ag  Ag29  1  0.16813865  0.65757913  0.50484193  1
  Ag  Ag30  1  0.16341018  0.65673736  0.83548608  1
  Ag  Ag31  1  0.66439547  0.00068983  0.33686657  1
  Ag  Ag32  1  0.33643495  0.49506234  0.50195984  1
  Ag  Ag33  1  0.49967300  0.65938006  0.16428644  1
  Ag  Ag34  1  0.66295252  0.34092247  0.33096619  1
  Ag  Ag35  1  0.17866207  0.50052588  -0.01137505  1
  Ag  Ag36  1  0.82704882  0.00695733  0.17650395  1
  Ag  Ag37  1  0.49226235  0.49474398  0.65956254  1
  Ag  Ag38  1  0.17923049  0.34023445  0.49900755  1
  Ag  Ag39  1  0.33595644  0.33593164  0.66644406  1
  Ag  Ag40  1  0.82838940  0.83596637  0.66306059  1
  Ag  Ag41  1  0.33540476  0.17848255  0.83624766  1
  Ag  Ag42  1  0.49864650  0.83155214  0.66100510  1
  Ag  Ag43  1  0.65761217  0.50175854  0.49357144  1
  Ag  Ag44  1  0.32738223  0.49583602  0.83335109  1
  Ag  Ag45  1  0.00123542  0.33777663  0.33497148  1
  Ag  Ag46  1  -0.00239401  0.16778211  0.49950718  1
  Ag  Ag47  1  0.50313702  0.49682933  0.34104018  1
  Ag  Ag48  1  0.82480977  0.00065117  0.49532341  1
  Ag  Ag49  1  0.33738712  0.00628740  0.65874513  1
  Ag  Ag50  1  0.66194428  0.65969144  0.00470531  1
  Ag  Ag51  1  -0.00542118  0.00494299  0.33572801  1
  Ag  Ag52  1  0.33845842  0.82768184  0.50231578  1
  Ag  Ag53  1  0.49869212  0.00313545  0.49684722  1
  Sb  Sb54  1  0.16795491  0.17078358  0.33494992  1
  Sb  Sb55  1  0.66565042  0.83279893  0.17304589  1
  Sb  Sb56  1  0.82976982  0.66224776  0.16417298  1
  Sb  Sb57  1  0.00579400  0.33807147  0.66147460  1
  Sb  Sb58  1  0.49570840  0.83088950  -0.00448627  1
  Sb  Sb59  1  0.33383705  0.82880679  0.82951839  1
  Sb  Sb60  1  0.49650905  0.33504178  0.16867152  1
  Sb  Sb61  1  0.17247359  0.00563399  0.16798769  1
  Sb  Sb62  1  0.49659686  0.66293434  0.49750724  1
  Sb  Sb63  1  0.83648595  0.66934718  0.50157522  1
  Sb  Sb64  1  0.65934114  0.49844910  0.17001294  1
  Sb  Sb65  1  0.49675115  0.65766794  0.83690509  1
  Sb  Sb66  1  0.66756626  0.16760539  0.49931803  1
  Sb  Sb67  1  0.66273899  0.49941918  0.83510969  1
  Sb  Sb68  1  0.00410840  0.17601875  0.82994439  1
  Sb  Sb69  1  0.49812683  0.16992809  0.33414883  1
  Sb  Sb70  1  0.00272728  0.49805943  0.49982298  1
  Sb  Sb71  1  0.83496235  0.82817956  -0.00396521  1
  Sb  Sb72  1  0.17077634  0.00023136  0.83378443  1
  Sb  Sb73  1  0.83160185  0.83265588  0.33730144  1
  Sb  Sb74  1  0.83342627  0.16948586  0.33102974  1
  Sb  Sb75  1  0.66071788  0.16950160  0.83434186  1
  Sb  Sb76  1  -0.00277849  0.33991719  0.00406570  1
  Sb  Sb77  1  0.17266993  0.17454817  0.66577698  1
  Sb  Sb78  1  0.83027248  0.33076146  0.49536003  1
  Sb  Sb79  1  0.65920635  0.33440487  0.66240523  1
  Sb  Sb80  1  0.83231848  0.33783809  0.83759788  1
  Sb  Sb81  1  0.16899409  0.83078314  0.33143869  1
  Sb  Sb82  1  0.49636356  0.00634571  0.83000427  1
  Sb  Sb83  1  0.33335696  0.17211435  0.50121182  1
  Sb  Sb84  1  0.00425717  0.49913515  0.16395819  1
  Sb  Sb85  1  0.83442403  -0.00156110  0.83115469  1
  Sb  Sb86  1  0.66052546  -0.00054404  0.00791120  1
  Sb  Sb87  1  0.00052684  0.82251599  0.83235306  1
  Sb  Sb88  1  0.33963581  0.33699453  -0.00334951  1
  Sb  Sb89  1  0.17190136  0.17467985  -0.00054830  1
  Sb  Sb90  1  0.83210242  0.49850058  0.66572049  1
  Sb  Sb91  1  0.66058393  0.16963837  0.16635452  1
  Sb  Sb92  1  0.00154699  0.16944349  0.16953363  1
  Sb  Sb93  1  0.16937306  0.82551710  0.66904751  1
  Sb  Sb94  1  0.33537009  0.66032033  0.33134490  1
  Sb  Sb95  1  -0.00050933  0.83206753  0.16754824  1
  Sb  Sb96  1  0.49972762  0.83162108  0.33925894  1
  Sb  Sb97  1  0.00217085  -0.00328180  0.00569157  1
  Sb  Sb98  1  0.65985424  -0.00085062  0.65929611  1
  Sb  Sb99  1  0.16994887  0.49775761  0.33431233  1
  Sb  Sb100  1  0.00237695  -0.00282386  0.66167810  1
  Sb  Sb101  1  0.33501150  0.83253390  0.16932309  1
  Sb  Sb102  1  0.00148444  0.83439866  0.49973035  1
  Sb  Sb103  1  0.17097399  0.66023038  0.16359208  1
  Sb  Sb104  1  0.66551919  0.82941586  0.82848126  1
  Sb  Sb105  1  0.66914137  0.66518475  0.66431491  1
  Sb  Sb106  1  0.17202898  0.00141999  0.49894164  1
  Sb  Sb107  1  0.33085190  0.65861432  0.66879169  1
  Te  Te108  1  0.17359734  0.17504837  0.16587027  1
  Te  Te109  1  0.15924820  0.17258097  0.50149516  1
  Te  Te110  1  0.17290574  0.17317808  0.83314213  1
  Te  Te111  1  0.17309835  0.49490104  0.16521265  1
  Te  Te112  1  0.16845386  0.49860465  0.49974286  1
  Te  Te113  1  0.16873513  0.50057178  0.83242516  1
  Te  Te114  1  0.16702514  0.83423619  0.15825766  1
  Te  Te115  1  0.17382541  0.83097765  0.50015467  1
  Te  Te116  1  0.16704045  0.82865336  0.83862931  1
  Te  Te117  1  0.49521992  0.16166586  0.16249374  1
  Te  Te118  1  0.50033564  0.16416177  0.50435615  1
  Te  Te119  1  0.49549952  0.17226994  0.83409095  1
  Te  Te120  1  0.49411872  0.50040461  0.16092698  1
  Te  Te121  1  0.49821053  0.50043573  0.49936905  1
  Te  Te122  1  0.49656125  0.49512248  0.83720452  1
  Te  Te123  1  0.50018753  0.83961783  0.16497507  1
  Te  Te124  1  0.49852890  0.83295548  0.50329605  1
  Te  Te125  1  0.50010495  0.83324333  0.82209841  1
  Te  Te126  1  0.83415859  0.16650014  0.16147767  1
  Te  Te127  1  0.83457156  0.16204992  0.50250410  1
  Te  Te128  1  0.83491849  0.16755317  0.83478175  1
  Te  Te129  1  0.83556490  0.49730198  0.16714518  1
  Te  Te130  1  0.83053206  0.49998003  0.49544419  1
  Te  Te131  1  0.83112043  0.50326222  0.83510849  1
  Te  Te132  1  0.83263183  0.84390623  0.16527950  1
  Te  Te133  1  0.83292623  0.83853206  0.50449836  1
  Te  Te134  1  0.83319724  0.82841346  0.82525340  1
  Te  Te135  1  0.17178126  0.00292954  0.00090018  1
  Te  Te136  1  0.16111273  -0.00048308  0.33285446  1
  Te  Te137  1  0.17467138  -0.00144861  0.66690743  1
  Te  Te138  1  0.16324101  0.34026548  0.00067429  1
  Te  Te139  1  0.16862725  0.33418298  0.33464184  1
  Te  Te140  1  0.17142320  0.33915493  0.66460614  1
  Te  Te141  1  0.16717504  0.65960186  0.00184158  1
  Te  Te142  1  0.16335264  0.66585132  0.33495672  1
  Te  Te143  1  0.16391696  0.66199404  0.66605449  1
  Te  Te144  1  0.49586111  0.00005586  -0.00097365  1
  Te  Te145  1  0.50085015  0.00004987  0.33604742  1
  Te  Te146  1  0.49581358  0.00394066  0.66359197  1
  Te  Te147  1  0.50520384  0.33354376  0.00437620  1
  Te  Te148  1  0.50019209  0.33561656  0.33450652  1
  Te  Te149  1  0.49753011  0.33403519  0.66448620  1
  Te  Te150  1  0.49991789  0.66535344  0.00255744  1
  Te  Te151  1  0.50340028  0.66284336  0.32826107  1
  Te  Te152  1  0.49987954  0.66465840  0.66811594  1
  Te  Te153  1  0.83229743  -0.00057831  0.00108141  1
  Te  Te154  1  0.83365515  0.00096240  0.33523412  1
  Te  Te155  1  0.83427004  0.00103053  0.66324156  1
  Te  Te156  1  0.83020699  0.33483453  0.00295740  1
  Te  Te157  1  0.83054394  0.33527991  0.33039404  1
  Te  Te158  1  0.83252564  0.32777162  0.66787623  1
  Te  Te159  1  0.83528685  0.66438055  -0.00105601  1
  Te  Te160  1  0.83084983  0.66339807  0.33230697  1
  Te  Te161  1  0.83698689  0.66787898  0.66999190  1
  Te  Te162  1  -0.00537690  0.16546287  -0.00105252  1
  Te  Te163  1  -0.00032035  0.16736433  0.33710787  1
  Te  Te164  1  -0.00330119  0.16618883  0.66314234  1
  Te  Te165  1  -0.00759991  0.50338088  -0.00156655  1
  Te  Te166  1  -0.00384885  0.49789925  0.33277889  1
  Te  Te167  1  -0.00030009  0.50453026  0.66951393  1
  Te  Te168  1  0.00585844  0.82680767  -0.00025860  1
  Te  Te169  1  0.00052672  0.83226319  0.33394807  1
  Te  Te170  1  -0.00273663  0.82708750  0.66553804  1
  Te  Te171  1  0.33530925  0.16505969  -0.00063478  1
  Te  Te172  1  0.33357726  0.16700615  0.32788455  1
  Te  Te173  1  0.33616940  0.16877136  0.66891117  1
  Te  Te174  1  0.33534952  0.49882990  -0.00080044  1
  Te  Te175  1  0.33702792  0.49758172  0.33807998  1
  Te  Te176  1  0.33457735  0.49814155  0.66499459  1
  Te  Te177  1  0.33066890  0.83606867  -0.00128600  1
  Te  Te178  1  0.33272640  0.83893867  0.34058648  1
  Te  Te179  1  0.33548014  0.83622441  0.66270220  1
  Te  Te180  1  0.66739691  0.16774753  0.00001727  1
  Te  Te181  1  0.66611707  0.16291339  0.33332326  1
  Te  Te182  1  0.66774066  0.16675427  0.66749050  1
  Te  Te183  1  0.66875066  0.50152711  0.00061121  1
  Te  Te184  1  0.66468738  0.49923982  0.33286068  1
  Te  Te185  1  0.66150489  0.49962506  0.65866824  1
  Te  Te186  1  0.66589751  0.82541380  -0.00072751  1
  Te  Te187  1  0.66614480  0.83735072  0.34057100  1
  Te  Te188  1  0.66601987  0.83230951  0.65947964  1
  Te  Te189  1  -0.00145703  0.00098031  0.17334658  1
  Te  Te190  1  0.00153390  0.00253378  0.49635173  1
  Te  Te191  1  0.00216646  0.00231085  0.83373507  1
  Te  Te192  1  -0.00299646  0.33296977  0.17407927  1
  Te  Te193  1  -0.00179386  0.33017518  0.49479109  1
  Te  Te194  1  0.00392178  0.34089453  0.83176976  1
  Te  Te195  1  -0.00115415  0.66670756  0.17375979  1
  Te  Te196  1  0.00444490  0.66643732  0.49499040  1
  Te  Te197  1  0.00186876  0.66139642  0.83420361  1
  Te  Te198  1  0.33594824  -0.00089109  0.16978013  1
  Te  Te199  1  0.33603126  0.00562653  0.49821973  1
  Te  Te200  1  0.33265295  0.00092122  0.83702220  1
  Te  Te201  1  0.33418184  0.33481318  0.17028251  1
  Te  Te202  1  0.33554969  0.33301885  0.49871766  1
  Te  Te203  1  0.33575883  0.33546052  0.83308852  1
  Te  Te204  1  0.33892901  0.66451367  0.16317294  1
  Te  Te205  1  0.32926785  0.66576982  0.49915334  1
  Te  Te206  1  0.32906179  0.66136244  0.83851579  1
  Te  Te207  1  0.66527703  0.00026626  0.17335054  1
  Te  Te208  1  0.66488452  -0.00113850  0.49682671  1
  Te  Te209  1  0.66681343  -0.00131353  0.83486266  1
  Te  Te210  1  0.67276892  0.33295759  0.16906721  1
  Te  Te211  1  0.66102223  0.33698562  0.49462036  1
  Te  Te212  1  0.66100351  0.33352594  0.84040401  1
  Te  Te213  1  0.66207349  0.66750872  0.16861276  1
  Te  Te214  1  0.66703460  0.66691330  0.49597750  1
  Te  Te215  1  0.67010357  0.66594617  0.83811630  1
