# generated using pymatgen
data_AgSbTe2
_symmetry_space_group_name_H-M   'P 1'
_cell_length_a   18.33497749
_cell_length_b   18.33640372
_cell_length_c   18.33233484
_cell_angle_alpha   90.00169594
_cell_angle_beta   90.00091238
_cell_angle_gamma   89.99989819
_symmetry_Int_Tables_number   1
_chemical_formula_structural   AgSbTe2
_chemical_formula_sum   'Ag54 Sb54 Te108'
_cell_volume   6163.28604410
_cell_formula_units_Z   54
loop_
 _symmetry_equiv_pos_site_id
 _symmetry_equiv_pos_as_xyz
  1  'x, y, z'
loop_
 _atom_site_type_symbol
 _atom_site_label
 _atom_site_symmetry_multiplicity
 _atom_site_fract_x
 _atom_site_fract_y
 _atom_site_fract_z
 _atom_site_occupancy
  Ag  Ag0  1  0.48911559  0.83148057  0.33371230  1
  Ag  Ag1  1  0.82463857  0.16663079  0.33749739  1
  Ag  Ag2  1  -0.00109971  0.17173851  0.49854050  1
  Ag  Ag3  1  0.83583835  0.33104511  0.49296953  1
  Ag  Ag4  1  0.83308832  0.83501782  0.33698845  1
  Ag  Ag5  1  0.17607071  0.65954610  0.49242088  1
  Ag  Ag6  1  0.33476983  0.33421769  0.00286298  1
  Ag  Ag7  1  0.82213352  0.33921966  0.17324977  1
  Ag  Ag8  1  0.66550247  0.66137723  0.00327653  1
  Ag  Ag9  1  0.33676847  0.82466161  0.48718439  1
  Ag  Ag10  1  0.17386091  0.33728901  0.17354634  1
  Ag  Ag11  1  0.49635657  0.33605078  0.84129226  1
  Ag  Ag12  1  0.49654803  0.83380218  0.00942560  1
  Ag  Ag13  1  0.16754790  0.16830166  0.66017857  1
  Ag  Ag14  1  0.33178866  0.67212778  0.33293207  1
  Ag  Ag15  1  0.17146478  0.66290301  0.17562373  1
  Ag  Ag16  1  0.66095636  0.49684323  0.48995506  1
  Ag  Ag17  1  0.49891661  0.17129215  0.01457740  1
  Ag  Ag18  1  0.66561371  0.33250884  0.33130667  1
  Ag  Ag19  1  0.49379036  0.50025808  0.33531545  1
  Ag  Ag20  1  0.49648394  0.00708753  0.17146022  1
  Ag  Ag21  1  0.00422038  0.00067227  0.33410811  1
  Ag  Ag22  1  0.50064857  0.33186811  0.16693381  1
  Ag  Ag23  1  0.65902194  0.49621053  0.17134442  1
  Ag  Ag24  1  0.33134810  0.17010464  0.49660369  1
  Ag  Ag25  1  0.00439824  0.16421808  0.82968947  1
  Ag  Ag26  1  0.49875673  0.50217607  0.65210624  1
  Ag  Ag27  1  0.83282377  0.65983631  0.17336127  1
  Ag  Ag28  1  0.33425816  0.82770925  0.17654887  1
  Ag  Ag29  1  -0.00033322  0.49475426  0.49820051  1
  Ag  Ag30  1  0.00494328  0.83862029  0.83330984  1
  Ag  Ag31  1  0.49777881  0.82849972  0.66040253  1
  Ag  Ag32  1  0.83254054  0.66494539  0.49197570  1
  Ag  Ag33  1  0.33806003  0.49942668  0.83567441  1
  Ag  Ag34  1  0.65659348  0.49878186  0.83877049  1
  Ag  Ag35  1  0.17202469  0.66669397  0.83215060  1
  Ag  Ag36  1  0.00410771  0.33335861  0.00207896  1
  Ag  Ag37  1  0.83021909  0.49837293  0.00796423  1
  Ag  Ag38  1  0.50345824  0.17115361  0.33138733  1
  Ag  Ag39  1  0.17553719  0.50603533  0.33566058  1
  Ag  Ag40  1  0.66121934  0.17717921  0.17472972  1
  Ag  Ag41  1  0.83380262  -0.00006051  0.49443558  1
  Ag  Ag42  1  0.66993767  0.17552867  0.49168610  1
  Ag  Ag43  1  0.16599394  0.33985772  0.49224363  1
  Ag  Ag44  1  0.33261568  0.16937281  0.83094676  1
  Ag  Ag45  1  0.83003443  0.83369867  0.65510579  1
  Ag  Ag46  1  0.17785732  -0.00183907  0.17322811  1
  Ag  Ag47  1  0.33755571  0.50042968  0.17375079  1
  Ag  Ag48  1  0.17765356  0.82488727  0.33324235  1
  Ag  Ag49  1  0.83615766  -0.00062608  0.82905651  1
  Ag  Ag50  1  0.33549074  0.50397728  0.48830207  1
  Ag  Ag51  1  0.33199095  -0.01153804  0.33189357  1
  Ag  Ag52  1  0.49419288  0.66100893  0.49590516  1
  Ag  Ag53  1  0.33335776  0.82900576  0.83413247  1
  Sb  Sb54  1  0.50241226  0.49895232  0.00518276  1
  Sb  Sb55  1  0.00178411  0.49749549  0.17406338  1
  Sb  Sb56  1  0.00102696  0.33223791  0.66523639  1
  Sb  Sb57  1  0.66495441  0.33558709  0.65847828  1
  Sb  Sb58  1  0.50179615  -0.00175767  0.49222463  1
  Sb  Sb59  1  0.66361374  0.82758154  0.83410219  1
  Sb  Sb60  1  0.49429554  0.66183701  0.83028153  1
  Sb  Sb61  1  0.83533778  0.66985245  0.83299195  1
  Sb  Sb62  1  -0.00011408  0.66738557  0.66424731  1
  Sb  Sb63  1  0.16537506  -0.00201049  0.83782127  1
  Sb  Sb64  1  -0.00321161  0.16936285  0.17042512  1
  Sb  Sb65  1  0.33761012  0.33631368  0.32944802  1
  Sb  Sb66  1  0.83090086  0.33104873  0.83456929  1
  Sb  Sb67  1  0.49572691  0.16918147  0.66069236  1
  Sb  Sb68  1  0.33480236  0.00341118  0.00655848  1
  Sb  Sb69  1  0.17343676  0.83108624  0.00523788  1
  Sb  Sb70  1  0.66738459  -0.00017540  0.66468195  1
  Sb  Sb71  1  0.83142952  0.49945347  0.33264234  1
  Sb  Sb72  1  0.50067023  0.00195331  0.83753426  1
  Sb  Sb73  1  0.17476046  0.49713735  0.65826826  1
  Sb  Sb74  1  0.66415411  0.00681013  0.33353544  1
  Sb  Sb75  1  0.33401641  -0.00119412  0.66012839  1
  Sb  Sb76  1  0.17219469  0.33575307  0.83330072  1
  Sb  Sb77  1  0.16904479  0.83488202  0.66193817  1
  Sb  Sb78  1  0.16506851  0.00027967  0.49291497  1
  Sb  Sb79  1  0.33382615  0.66686557  0.65677776  1
  Sb  Sb80  1  0.66313744  0.33869878  0.00868679  1
  Sb  Sb81  1  -0.00052796  -0.00037506  0.66077133  1
  Sb  Sb82  1  0.16569553  0.49922580  0.00704578  1
  Sb  Sb83  1  0.33894727  0.16969253  0.17051821  1
  Sb  Sb84  1  0.33471857  0.33502388  0.66736568  1
  Sb  Sb85  1  0.00079467  0.83304646  0.49937884  1
  Sb  Sb86  1  0.00610268  0.83366668  0.16647234  1
  Sb  Sb87  1  0.82872838  0.17268950  0.00517421  1
  Sb  Sb88  1  0.66534611  0.66481997  0.66635019  1
  Sb  Sb89  1  0.17027949  0.16795144  0.33623331  1
  Sb  Sb90  1  0.83005955  0.00083696  0.17298064  1
  Sb  Sb91  1  -0.00276623  0.33011160  0.33276626  1
  Sb  Sb92  1  0.65953092  0.82971810  0.16978692  1
  Sb  Sb93  1  0.66382169  0.17319464  0.83352748  1
  Sb  Sb94  1  0.00328538  0.49847199  0.82993607  1
  Sb  Sb95  1  0.17211252  0.16910597  -0.00053603  1
  Sb  Sb96  1  0.49781614  0.33803357  0.49418464  1
  Sb  Sb97  1  0.66362446  0.82990951  0.49713240  1
  Sb  Sb98  1  0.83712805  0.16286974  0.65735969  1
  Sb  Sb99  1  -0.00309504  0.66224509  0.00081377  1
  Sb  Sb100  1  0.82668892  0.50432444  0.66251067  1
  Sb  Sb101  1  0.66296620  0.66090160  0.33171746  1
  Sb  Sb102  1  0.33735950  0.66291286  0.00489647  1
  Sb  Sb103  1  0.66564301  -0.00276844  0.00159208  1
  Sb  Sb104  1  0.83015764  0.82849363  0.00368595  1
  Sb  Sb105  1  0.49799302  0.66369093  0.17172130  1
  Sb  Sb106  1  -0.00062228  0.00469029  0.00332735  1
  Sb  Sb107  1  0.00519177  0.66887451  0.33474401  1
  Te  Te108  1  0.16681968  0.17213355  0.16781121  1
  Te  Te109  1  0.16779279  0.16630460  0.50055504  1
  Te  Te110  1  0.16806983  0.16682584  0.83211768  1
  Te  Te111  1  0.16871588  0.50040240  0.17092417  1
  Te  Te112  1  0.17389829  0.50038670  0.49831287  1
  Te  Te113  1  0.16940987  0.50411479  0.83101727  1
  Te  Te114  1  0.17122804  0.83006703  0.17130640  1
  Te  Te115  1  0.16963687  0.83017691  0.49637733  1
  Te  Te116  1  0.16828530  0.83186447  0.83219627  1
  Te  Te117  1  0.50068251  0.16896481  0.17017688  1
  Te  Te118  1  0.49686321  0.16715828  0.49652330  1
  Te  Te119  1  0.49641842  0.17003833  0.82908987  1
  Te  Te120  1  0.49864605  0.49802682  0.17049975  1
  Te  Te121  1  0.49800620  0.49937849  0.49658108  1
  Te  Te122  1  0.49888429  0.49791470  0.84006796  1
  Te  Te123  1  0.49507931  0.83013994  0.17087400  1
  Te  Te124  1  0.49772890  0.83204810  0.49655823  1
  Te  Te125  1  0.49727547  0.83347870  0.82988701  1
  Te  Te126  1  0.82769132  0.17053016  0.17240477  1
  Te  Te127  1  0.83502945  0.16993093  0.49730492  1
  Te  Te128  1  0.83352394  0.16349680  0.83256524  1
  Te  Te129  1  0.83580780  0.49881850  0.16742377  1
  Te  Te130  1  0.83074093  0.50023936  0.49955187  1
  Te  Te131  1  0.83273947  0.50043505  0.83231583  1
  Te  Te132  1  0.83328986  0.83044662  0.17010806  1
  Te  Te133  1  0.83281884  0.83248395  0.49870715  1
  Te  Te134  1  0.83229217  0.83641401  0.83532868  1
  Te  Te135  1  0.16631824  0.00001195  0.01282365  1
  Te  Te136  1  0.16745043  0.00039643  0.33010140  1
  Te  Te137  1  0.16668686  0.00696202  0.66813351  1
  Te  Te138  1  0.16873842  0.33397138  0.00330350  1
  Te  Te139  1  0.16454982  0.33538310  0.33349394  1
  Te  Te140  1  0.16699434  0.32826299  0.65970566  1
  Te  Te141  1  0.16540448  0.66604069  -0.00046704  1
  Te  Te142  1  0.16745761  0.66723690  0.33421270  1
  Te  Te143  1  0.16674235  0.66669525  0.66805809  1
  Te  Te144  1  0.50024423  -0.00219138  0.00572293  1
  Te  Te145  1  0.49753309  -0.00335639  0.33010137  1
  Te  Te146  1  0.50034355  -0.00759297  0.66763354  1
  Te  Te147  1  0.49759237  0.33221902  0.00272673  1
  Te  Te148  1  0.50403329  0.33316627  0.32949515  1
  Te  Te149  1  0.50057946  0.33752892  0.67577084  1
  Te  Te150  1  0.50404549  0.67246822  -0.00019958  1
  Te  Te151  1  0.49696502  0.66689945  0.33687815  1
  Te  Te152  1  0.50007927  0.66682695  0.65980404  1
  Te  Te153  1  0.83338015  0.00029109  -0.00293226  1
  Te  Te154  1  0.83291338  0.00181007  0.33454700  1
  Te  Te155  1  0.83400857  -0.00632881  0.66616517  1
  Te  Te156  1  0.83549847  0.33737162  0.00277541  1
  Te  Te157  1  0.83108415  0.33266403  0.33316512  1
  Te  Te158  1  0.83314277  0.33403845  0.65926192  1
  Te  Te159  1  0.82919213  0.66089126  0.00228214  1
  Te  Te160  1  0.83395866  0.66664465  0.33286076  1
  Te  Te161  1  0.83248697  0.67404535  0.66245656  1
  Te  Te162  1  -0.00142362  0.17131735  -0.00390898  1
  Te  Te163  1  -0.00264493  0.16291237  0.33774417  1
  Te  Te164  1  0.00416139  0.16584448  0.66727537  1
  Te  Te165  1  -0.00580750  0.49467295  -0.00224406  1
  Te  Te166  1  0.00884323  0.49983463  0.34057334  1
  Te  Te167  1  0.00014467  0.49976256  0.65825507  1
  Te  Te168  1  -0.00038505  0.83428330  -0.00652711  1
  Te  Te169  1  -0.00709925  0.83941392  0.33328363  1
  Te  Te170  1  -0.00258912  0.83447484  0.67375184  1
  Te  Te171  1  0.33923617  0.17045497  -0.00457644  1
  Te  Te172  1  0.33803718  0.16700700  0.33672415  1
  Te  Te173  1  0.33019035  0.16569984  0.66619914  1
  Te  Te174  1  0.33280018  0.49587586  -0.00231168  1
  Te  Te175  1  0.33410910  0.49876074  0.33160094  1
  Te  Te176  1  0.34105207  0.50136734  0.67582795  1
  Te  Te177  1  0.33840477  0.83404525  -0.00553183  1
  Te  Te178  1  0.33302891  0.83267026  0.33206435  1
  Te  Te179  1  0.33665303  0.83318037  0.67409635  1
  Te  Te180  1  0.65931004  0.16637163  0.00242926  1
  Te  Te181  1  0.66525407  0.16917617  0.33441157  1
  Te  Te182  1  0.66570880  0.16760918  0.65893154  1
  Te  Te183  1  0.66918263  0.50194296  0.00344387  1
  Te  Te184  1  0.66496349  0.49622797  0.33120246  1
  Te  Te185  1  0.65871864  0.50067122  0.66840894  1
  Te  Te186  1  0.65968105  0.82667166  0.00116712  1
  Te  Te187  1  0.67412104  0.83207851  0.33345009  1
  Te  Te188  1  0.66533048  0.83224040  0.66627183  1
  Te  Te189  1  0.00219359  0.00098322  0.17208493  1
  Te  Te190  1  -0.00429870  0.00218136  0.49485226  1
  Te  Te191  1  -0.00142196  0.00213675  0.83555705  1
  Te  Te192  1  0.00349531  0.33296406  0.16247455  1
  Te  Te193  1  0.00073508  0.33245484  0.49963846  1
  Te  Te194  1  0.00100231  0.32875371  0.83765165  1
  Te  Te195  1  -0.00169002  0.66634430  0.16624262  1
  Te  Te196  1  -0.00472657  0.66354631  0.49965376  1
  Te  Te197  1  0.00534649  0.66983499  0.83336218  1
  Te  Te198  1  0.33570858  0.00073465  0.17086438  1
  Te  Te199  1  0.33327431  0.00065545  0.49354745  1
  Te  Te200  1  0.33309764  0.00328020  0.83335611  1
  Te  Te201  1  0.33387211  0.33542732  0.16356189  1
  Te  Te202  1  0.32997756  0.33309760  0.50035228  1
  Te  Te203  1  0.33498202  0.33249045  0.83612327  1
  Te  Te204  1  0.33177242  0.66394294  0.17003240  1
  Te  Te205  1  0.33370458  0.66592788  0.49523814  1
  Te  Te206  1  0.33093730  0.66567257  0.83753810  1
  Te  Te207  1  0.65958096  0.00329451  0.16585138  1
  Te  Te208  1  0.67399866  0.00623249  0.49978824  1
  Te  Te209  1  0.67379838  0.00170057  0.83316594  1
  Te  Te210  1  0.66521853  0.33563717  0.16898147  1
  Te  Te211  1  0.66567635  0.33600125  0.49396829  1
  Te  Te212  1  0.66241922  0.33862206  0.83251169  1
  Te  Te213  1  0.67032180  0.66216893  0.16529445  1
  Te  Te214  1  0.67006738  0.66046009  0.49891972  1
  Te  Te215  1  0.66634247  0.65920336  0.83823473  1
