# generated using pymatgen
data_AgSbTe2
_symmetry_space_group_name_H-M   'P 1'
_cell_length_a   18.32802037
_cell_length_b   18.32378296
_cell_length_c   18.32847726
_cell_angle_alpha   90.00293839
_cell_angle_beta   89.99666750
_cell_angle_gamma   90.00092571
_symmetry_Int_Tables_number   1
_chemical_formula_structural   AgSbTe2
_chemical_formula_sum   'Ag54 Sb54 Te108'
_cell_volume   6155.41135791
_cell_formula_units_Z   54
loop_
 _symmetry_equiv_pos_site_id
 _symmetry_equiv_pos_as_xyz
  1  'x, y, z'
loop_
 _atom_site_type_symbol
 _atom_site_label
 _atom_site_symmetry_multiplicity
 _atom_site_fract_x
 _atom_site_fract_y
 _atom_site_fract_z
 _atom_site_occupancy
  Ag  Ag0  1  0.16824290  0.16763557  0.66981696  1
  Ag  Ag1  1  0.33268077  0.16058158  0.49098377  1
  Ag  Ag2  1  0.50110801  0.33322516  0.84039312  1
  Ag  Ag3  1  0.49766757  0.83643809  0.33455148  1
  Ag  Ag4  1  0.33413340  0.84550916  0.17387621  1
  Ag  Ag5  1  0.49388217  0.16896322  0.00420247  1
  Ag  Ag6  1  0.00115904  0.33450707  0.32735895  1
  Ag  Ag7  1  0.16515448  0.49660714  0.33870127  1
  Ag  Ag8  1  0.17262833  0.00120476  0.16910247  1
  Ag  Ag9  1  0.48693558  0.00194715  0.16719087  1
  Ag  Ag10  1  0.83120609  -0.00238592  0.49947585  1
  Ag  Ag11  1  0.00419047  0.49591076  0.83571190  1
  Ag  Ag12  1  0.67142780  0.66436028  0.00152622  1
  Ag  Ag13  1  0.83645880  0.33191241  0.84088566  1
  Ag  Ag14  1  0.50124026  0.32529803  0.16298776  1
  Ag  Ag15  1  0.83700365  0.83577124  0.33531553  1
  Ag  Ag16  1  0.32801856  0.33081526  0.33278074  1
  Ag  Ag17  1  0.66927052  0.83606511  0.17655613  1
  Ag  Ag18  1  0.32417789  0.49678886  0.83235449  1
  Ag  Ag19  1  0.00556821  0.15761034  0.16545516  1
  Ag  Ag20  1  0.82756870  0.83723374  0.65578592  1
  Ag  Ag21  1  0.16404108  0.33131739  0.83396258  1
  Ag  Ag22  1  0.16278922  0.00694636  0.84054655  1
  Ag  Ag23  1  0.83734008  0.49535265  -0.00037546  1
  Ag  Ag24  1  0.00367455  0.67653754  0.32770498  1
  Ag  Ag25  1  0.32246668  -0.00002409  0.01203811  1
  Ag  Ag26  1  0.83557449  0.33586385  0.16250775  1
  Ag  Ag27  1  0.32859403  0.15758642  0.16996949  1
  Ag  Ag28  1  0.66867429  0.33042837  0.67020853  1
  Ag  Ag29  1  0.66944777  -0.00450258  0.65370238  1
  Ag  Ag30  1  0.67066161  -0.00494450  0.33656672  1
  Ag  Ag31  1  0.00499426  0.00372062  0.01097748  1
  Ag  Ag32  1  0.67635845  0.33401227  -0.00147981  1
  Ag  Ag33  1  0.16641727  0.49447022  0.66285089  1
  Ag  Ag34  1  0.32426460  0.49857126  0.49668009  1
  Ag  Ag35  1  -0.00549279  0.33382105  0.00530697  1
  Ag  Ag36  1  0.16862999  0.16309550  -0.00050471  1
  Ag  Ag37  1  0.83877317  0.00191240  0.83077287  1
  Ag  Ag38  1  -0.00163777  0.84080219  0.17230577  1
  Ag  Ag39  1  0.32948043  -0.00507170  0.32644071  1
  Ag  Ag40  1  0.50942424  0.83646279  0.65671267  1
  Ag  Ag41  1  -0.00260923  0.66458597  0.00846104  1
  Ag  Ag42  1  0.00423397  0.50029782  0.49764901  1
  Ag  Ag43  1  0.16521427  0.00177903  0.49325001  1
  Ag  Ag44  1  0.66847579  0.67925650  0.66636204  1
  Ag  Ag45  1  0.67296993  0.83810238  0.49591994  1
  Ag  Ag46  1  0.83672365  0.66972594  0.16467689  1
  Ag  Ag47  1  0.33417843  0.84061611  0.49055139  1
  Ag  Ag48  1  0.00325715  -0.00839154  0.32855217  1
  Ag  Ag49  1  -0.00769098  0.83765532  0.49091854  1
  Ag  Ag50  1  0.83443603  0.32912490  0.49794456  1
  Ag  Ag51  1  0.66580579  0.15456326  0.50195657  1
  Ag  Ag52  1  0.32949416  0.67034982  0.00835147  1
  Ag  Ag53  1  0.32628702  0.67916749  0.32882816  1
  Sb  Sb54  1  0.49801634  0.16359645  0.66917568  1
  Sb  Sb55  1  0.16605819  0.83561598  0.33343070  1
  Sb  Sb56  1  0.66844503  0.83378733  0.82975019  1
  Sb  Sb57  1  0.49946392  0.00398688  0.83857207  1
  Sb  Sb58  1  0.16257542  0.67348106  0.16823029  1
  Sb  Sb59  1  -0.00172172  0.83338661  0.83548099  1
  Sb  Sb60  1  0.50141815  0.49445970  -0.00071254  1
  Sb  Sb61  1  0.16587775  0.84182269  0.00134898  1
  Sb  Sb62  1  0.49942862  0.66232489  0.83494677  1
  Sb  Sb63  1  0.16529050  0.83585748  0.66230406  1
  Sb  Sb64  1  0.66984133  0.49658346  0.83422620  1
  Sb  Sb65  1  0.33547663  -0.00054579  0.66229116  1
  Sb  Sb66  1  0.50285070  0.33177544  0.49753377  1
  Sb  Sb67  1  0.66648576  0.16281620  0.16936513  1
  Sb  Sb68  1  0.83416636  0.83119781  0.00512963  1
  Sb  Sb69  1  0.66732304  0.16893106  0.83041768  1
  Sb  Sb70  1  0.49936770  0.67115131  0.49859497  1
  Sb  Sb71  1  0.16647816  0.66775280  0.49669356  1
  Sb  Sb72  1  0.33605358  0.66699842  0.66311042  1
  Sb  Sb73  1  -0.00282872  -0.00058730  0.66372423  1
  Sb  Sb74  1  0.83731454  0.50131599  0.66961734  1
  Sb  Sb75  1  0.83531475  0.67244886  0.49494434  1
  Sb  Sb76  1  0.84031038  0.50289178  0.33151307  1
  Sb  Sb77  1  0.49659578  0.50124482  0.66753792  1
  Sb  Sb78  1  0.66990029  0.67671939  0.33105033  1
  Sb  Sb79  1  0.66885983  0.50311892  0.16664710  1
  Sb  Sb80  1  0.16173572  0.49464212  -0.00007988  1
  Sb  Sb81  1  0.66931672  0.00132852  0.00403320  1
  Sb  Sb82  1  0.33155338  0.33101456  0.00368906  1
  Sb  Sb83  1  0.49638416  0.16037920  0.32796917  1
  Sb  Sb84  1  0.50162754  0.67125285  0.16666125  1
  Sb  Sb85  1  0.67096996  0.50121215  0.50184488  1
  Sb  Sb86  1  0.33244100  0.49922977  0.16848128  1
  Sb  Sb87  1  -0.00382208  0.66664754  0.66433143  1
  Sb  Sb88  1  0.83448662  0.66616270  0.83847656  1
  Sb  Sb89  1  0.00225508  0.17036589  0.84025930  1
  Sb  Sb90  1  0.16351058  0.32644288  0.16380828  1
  Sb  Sb91  1  0.16788051  0.16678610  0.33135380  1
  Sb  Sb92  1  0.83754428  -0.00225856  0.16967620  1
  Sb  Sb93  1  0.33271928  0.83223167  0.83483990  1
  Sb  Sb94  1  0.33056517  0.16962713  0.83810473  1
  Sb  Sb95  1  0.83649433  0.16402418  0.66467265  1
  Sb  Sb96  1  0.49107870  0.50374933  0.33333550  1
  Sb  Sb97  1  0.33520834  0.33295626  0.66368259  1
  Sb  Sb98  1  -0.00044503  0.50022950  0.16806589  1
  Sb  Sb99  1  0.16319165  0.33056564  0.50159805  1
  Sb  Sb100  1  0.00246251  0.16376573  0.49332872  1
  Sb  Sb101  1  0.50135398  -0.00176359  0.49212531  1
  Sb  Sb102  1  -0.00321079  0.33358343  0.66768605  1
  Sb  Sb103  1  0.16554413  0.66313150  0.83577922  1
  Sb  Sb104  1  0.49987629  0.83763891  0.00467444  1
  Sb  Sb105  1  0.83617952  0.17082479  0.00189930  1
  Sb  Sb106  1  0.66887233  0.32682087  0.33182080  1
  Sb  Sb107  1  0.83471583  0.16116409  0.33377427  1
  Te  Te108  1  0.16736089  0.16187126  0.16297110  1
  Te  Te109  1  0.16981301  0.16295200  0.50331739  1
  Te  Te110  1  0.16710210  0.16737697  0.83370657  1
  Te  Te111  1  0.16731735  0.49994785  0.17256094  1
  Te  Te112  1  0.16523470  0.49873932  0.50139299  1
  Te  Te113  1  0.16474608  0.49723016  0.83351994  1
  Te  Te114  1  0.16671796  0.84066296  0.16647701  1
  Te  Te115  1  0.16975535  0.83923472  0.50175523  1
  Te  Te116  1  0.16618839  0.84197821  0.82968350  1
  Te  Te117  1  0.49994799  0.16540639  0.16349115  1
  Te  Te118  1  0.49748145  0.16746442  0.50101830  1
  Te  Te119  1  0.49858218  0.17350493  0.83936342  1
  Te  Te120  1  0.50108082  0.48981929  0.16672427  1
  Te  Te121  1  0.49025967  0.50048084  0.50088434  1
  Te  Te122  1  0.49299858  0.49205115  0.83206859  1
  Te  Te123  1  0.49827843  0.83679469  0.16992686  1
  Te  Te124  1  0.49770673  0.83374535  0.49747261  1
  Te  Te125  1  0.49946358  0.83356945  0.82856667  1
  Te  Te126  1  0.83638939  0.17510569  0.16782113  1
  Te  Te127  1  0.83006898  0.16581684  0.50037779  1
  Te  Te128  1  0.83487261  0.16678248  0.83193543  1
  Te  Te129  1  0.83295663  0.49835203  0.16184733  1
  Te  Te130  1  0.83966852  0.49566950  0.50075970  1
  Te  Te131  1  0.83873137  0.49622394  0.83706758  1
  Te  Te132  1  0.83466172  0.83160716  0.17012927  1
  Te  Te133  1  0.83302261  0.83515044  0.49702940  1
  Te  Te134  1  0.83463761  0.83834859  0.82824816  1
  Te  Te135  1  0.16458211  0.00300447  0.00086174  1
  Te  Te136  1  0.16487843  0.00185419  0.33402859  1
  Te  Te137  1  0.16693458  0.00323455  0.66596413  1
  Te  Te138  1  0.16191213  0.32776644  -0.00421003  1
  Te  Te139  1  0.16532333  0.33576885  0.33374702  1
  Te  Te140  1  0.16700393  0.33322677  0.67164621  1
  Te  Te141  1  0.16596184  0.66584746  0.00082436  1
  Te  Te142  1  0.16542634  0.65743274  0.33274449  1
  Te  Te143  1  0.16652111  0.66009737  0.66808889  1
  Te  Te144  1  0.50009782  0.00528986  0.00510515  1
  Te  Te145  1  0.49564176  -0.00440534  0.32656450  1
  Te  Te146  1  0.50679552  -0.00363360  0.67137820  1
  Te  Te147  1  0.49848446  0.32986880  0.00096849  1
  Te  Te148  1  0.49971963  0.33435211  0.32828887  1
  Te  Te149  1  0.50695871  0.33230857  0.67048036  1
  Te  Te150  1  0.50143301  0.66568789  0.00063562  1
  Te  Te151  1  0.49299884  0.67337550  0.33171802  1
  Te  Te152  1  0.50775872  0.67196038  0.66797333  1
  Te  Te153  1  0.83896488  -0.00013190  -0.00610894  1
  Te  Te154  1  0.83610906  -0.00382088  0.33667242  1
  Te  Te155  1  0.83072668  -0.00150300  0.66454816  1
  Te  Te156  1  0.83445422  0.33355709  -0.00042015  1
  Te  Te157  1  0.83520144  0.33440302  0.33290398  1
  Te  Te158  1  0.82905963  0.33305273  0.66605844  1
  Te  Te159  1  0.83467639  0.66437274  0.00330160  1
  Te  Te160  1  0.83769425  0.67041281  0.32713488  1
  Te  Te161  1  0.82766068  0.67051102  0.66794887  1
  Te  Te162  1  0.00237916  0.16592489  0.00519543  1
  Te  Te163  1  0.00075444  0.17363227  0.32625373  1
  Te  Te164  1  0.00892141  0.16688253  0.66579698  1
  Te  Te165  1  -0.00198562  0.49853340  -0.00137016  1
  Te  Te166  1  0.00273635  0.49443257  0.33652395  1
  Te  Te167  1  0.00514049  0.50120751  0.66420923  1
  Te  Te168  1  0.00000323  0.83118463  0.00405646  1
  Te  Te169  1  0.00150787  0.83311448  0.33393216  1
  Te  Te170  1  -0.00528148  0.83089210  0.66075447  1
  Te  Te171  1  0.33137640  0.16431957  0.00407243  1
  Te  Te172  1  0.33359311  0.16760887  0.33112536  1
  Te  Te173  1  0.32995934  0.16643034  0.66059347  1
  Te  Te174  1  0.33258232  0.50391122  -0.00353178  1
  Te  Te175  1  0.32866629  0.49535547  0.33631642  1
  Te  Te176  1  0.32860414  0.50081164  0.66529753  1
  Te  Te177  1  0.33398476  0.83219243  0.00266194  1
  Te  Te178  1  0.33038781  0.83480129  0.33329281  1
  Te  Te179  1  0.33776441  0.83130598  0.66290090  1
  Te  Te180  1  0.66284656  0.17140486  0.00083041  1
  Te  Te181  1  0.66524672  0.15849026  0.34064588  1
  Te  Te182  1  0.66568394  0.16717236  0.66175073  1
  Te  Te183  1  0.67200336  0.49922403  -0.00003943  1
  Te  Te184  1  0.66418172  0.50281817  0.33578707  1
  Te  Te185  1  0.66625248  0.49640447  0.66653574  1
  Te  Te186  1  0.66612440  0.83032257  0.00305188  1
  Te  Te187  1  0.66659107  0.83526367  0.33505234  1
  Te  Te188  1  0.66781173  0.83557596  0.66583053  1
  Te  Te189  1  -0.00189363  -0.00049289  0.16876178  1
  Te  Te190  1  -0.00015797  -0.00142652  0.49672102  1
  Te  Te191  1  0.00028742  -0.00049837  0.83457018  1
  Te  Te192  1  -0.00097247  0.33390371  0.16553256  1
  Te  Te193  1  -0.00427216  0.33252514  0.49828564  1
  Te  Te194  1  -0.00074490  0.33591090  0.83419603  1
  Te  Te195  1  -0.00206254  0.66828194  0.16768820  1
  Te  Te196  1  0.00063811  0.66650351  0.49500922  1
  Te  Te197  1  -0.00003077  0.66194235  0.83868572  1
  Te  Te198  1  0.33118475  0.00100715  0.16670881  1
  Te  Te199  1  0.33312646  0.00025094  0.49752428  1
  Te  Te200  1  0.32887839  0.00031968  0.83607243  1
  Te  Te201  1  0.33393148  0.33129877  0.17116663  1
  Te  Te202  1  0.33383023  0.33344297  0.49538723  1
  Te  Te203  1  0.32991543  0.33644386  0.83291452  1
  Te  Te204  1  0.33364444  0.66859689  0.16780342  1
  Te  Te205  1  0.33226293  0.66644053  0.49466010  1
  Te  Te206  1  0.33302969  0.66225529  0.83754352  1
  Te  Te207  1  0.67006914  -0.00460421  0.17109746  1
  Te  Te208  1  0.66564512  -0.00212480  0.49761839  1
  Te  Te209  1  0.67053358  0.00121923  0.83359352  1
  Te  Te210  1  0.66835783  0.33172278  0.16354330  1
  Te  Te211  1  0.67162047  0.33407825  0.50087992  1
  Te  Te212  1  0.66972798  0.33379616  0.83640084  1
  Te  Te213  1  0.66976956  0.67194560  0.16316829  1
  Te  Te214  1  0.66732909  0.67065607  0.50419244  1
  Te  Te215  1  0.66666488  0.66453280  0.83763892  1
