# generated using pymatgen
data_AgSbTe2
_symmetry_space_group_name_H-M   'P 1'
_cell_length_a   18.31972401
_cell_length_b   18.32196665
_cell_length_c   18.32109317
_cell_angle_alpha   89.99909447
_cell_angle_beta   89.99903873
_cell_angle_gamma   90.00362558
_symmetry_Int_Tables_number   1
_chemical_formula_structural   AgSbTe2
_chemical_formula_sum   'Ag54 Sb54 Te108'
_cell_volume   6149.53669418
_cell_formula_units_Z   54
loop_
 _symmetry_equiv_pos_site_id
 _symmetry_equiv_pos_as_xyz
  1  'x, y, z'
loop_
 _atom_site_type_symbol
 _atom_site_label
 _atom_site_symmetry_multiplicity
 _atom_site_fract_x
 _atom_site_fract_y
 _atom_site_fract_z
 _atom_site_occupancy
  Ag  Ag0  1  0.84157558  0.66489306  0.83322209  1
  Ag  Ag1  1  0.50076156  0.33891303  0.16709798  1
  Ag  Ag2  1  0.49528001  0.50575807  0.00284222  1
  Ag  Ag3  1  0.83344454  0.17351484  0.33135132  1
  Ag  Ag4  1  0.17002180  0.17234487  -0.00184044  1
  Ag  Ag5  1  0.16764830  0.34332779  0.50391341  1
  Ag  Ag6  1  0.33795491  0.82945916  0.16949335  1
  Ag  Ag7  1  0.49703725  0.16707201  0.00077594  1
  Ag  Ag8  1  0.32888032  0.66802193  0.67608291  1
  Ag  Ag9  1  0.32858502  0.50998265  0.83533702  1
  Ag  Ag10  1  0.16386869  0.50327396  0.33292244  1
  Ag  Ag11  1  0.83902332  0.66798978  0.16277348  1
  Ag  Ag12  1  0.16419780  0.66133665  0.50720550  1
  Ag  Ag13  1  0.66208820  0.82922097  0.83144125  1
  Ag  Ag14  1  -0.00413022  0.51039775  0.16898064  1
  Ag  Ag15  1  0.33660960  0.83001974  0.49223096  1
  Ag  Ag16  1  0.33363277  0.82763256  0.83434671  1
  Ag  Ag17  1  0.50002052  -0.00240869  0.50507545  1
  Ag  Ag18  1  0.00200396  0.66705141  0.32512686  1
  Ag  Ag19  1  0.50282267  -0.00551920  0.16760486  1
  Ag  Ag20  1  -0.00211685  0.16647676  0.16738470  1
  Ag  Ag21  1  0.49530996  0.83500361  0.33079347  1
  Ag  Ag22  1  -0.00217028  0.66744748  0.00035977  1
  Ag  Ag23  1  0.16639024  0.66586015  0.82984801  1
  Ag  Ag24  1  0.83900970  0.34546060  0.82847545  1
  Ag  Ag25  1  0.66967404  0.50372662  0.16636194  1
  Ag  Ag26  1  0.83546180  0.82717698  0.00042232  1
  Ag  Ag27  1  0.00068422  0.82757337  0.83721691  1
  Ag  Ag28  1  0.49673955  -0.00419256  0.82816676  1
  Ag  Ag29  1  0.00061158  0.66371221  0.67411248  1
  Ag  Ag30  1  0.66508757  0.33438004  0.33578363  1
  Ag  Ag31  1  -0.00305145  0.34556266  0.67095101  1
  Ag  Ag32  1  0.33140945  0.66601627  -0.00572606  1
  Ag  Ag33  1  0.83883050  0.66595096  0.50552059  1
  Ag  Ag34  1  0.50331340  0.15496896  0.66960370  1
  Ag  Ag35  1  0.66134563  -0.00334427  0.66790833  1
  Ag  Ag36  1  0.16018988  0.50271456  0.67262810  1
  Ag  Ag37  1  0.33595098  0.33939484  0.33261895  1
  Ag  Ag38  1  0.50056547  0.66896550  0.16402495  1
  Ag  Ag39  1  0.16402805  0.34820550  0.82868529  1
  Ag  Ag40  1  0.83375072  -0.01016100  0.16917255  1
  Ag  Ag41  1  0.32864896  0.66812493  0.33077814  1
  Ag  Ag42  1  0.00336569  -0.00922771  0.32862193  1
  Ag  Ag43  1  0.16968566  0.50213620  -0.00843559  1
  Ag  Ag44  1  0.33440700  -0.01360024  0.33120223  1
  Ag  Ag45  1  0.66964688  0.66657715  -0.00289727  1
  Ag  Ag46  1  0.17240743  -0.01106493  0.83278476  1
  Ag  Ag47  1  0.66913402  0.33760866  0.66548469  1
  Ag  Ag48  1  0.50036481  0.83468063  0.66874469  1
  Ag  Ag49  1  -0.00109372  0.82695736  0.16414582  1
  Ag  Ag50  1  0.66928964  0.66578826  0.67222468  1
  Ag  Ag51  1  0.66565648  0.16747865  0.50199746  1
  Ag  Ag52  1  0.83831205  0.50343300  0.33178319  1
  Ag  Ag53  1  0.83861824  0.50369932  0.66714416  1
  Sb  Sb54  1  0.17270134  -0.00360180  0.50268437  1
  Sb  Sb55  1  0.17261785  0.82356143  0.66986611  1
  Sb  Sb56  1  0.16984585  0.33640495  0.16619343  1
  Sb  Sb57  1  -0.00427276  0.16752357  0.49631343  1
  Sb  Sb58  1  0.66392925  -0.00632103  -0.00315840  1
  Sb  Sb59  1  0.33348896  0.33994583  0.00290714  1
  Sb  Sb60  1  0.66469953  0.00259524  0.33513562  1
  Sb  Sb61  1  0.82888610  -0.00490753  0.49519459  1
  Sb  Sb62  1  0.33949658  -0.00960712  0.66604095  1
  Sb  Sb63  1  0.83265265  0.16310295  0.00468692  1
  Sb  Sb64  1  0.33408660  0.34072299  0.66381372  1
  Sb  Sb65  1  0.83618244  0.50805058  -0.00037183  1
  Sb  Sb66  1  -0.00029104  0.33958066  0.33493982  1
  Sb  Sb67  1  0.83175302  0.82781920  0.32851626  1
  Sb  Sb68  1  0.50102900  0.83008873  -0.00038772  1
  Sb  Sb69  1  0.16244726  0.17143007  0.32978778  1
  Sb  Sb70  1  0.33296321  0.16331517  0.83463595  1
  Sb  Sb71  1  0.33693537  0.16259231  0.49943882  1
  Sb  Sb72  1  0.33322015  0.50840481  0.16387787  1
  Sb  Sb73  1  -0.00332790  -0.00636318  0.66547293  1
  Sb  Sb74  1  0.16434842  0.66522395  0.16401457  1
  Sb  Sb75  1  0.17220237  0.82479609  0.33264748  1
  Sb  Sb76  1  0.83079242  0.33945633  0.16491610  1
  Sb  Sb77  1  0.00166490  -0.00633386  0.00548893  1
  Sb  Sb78  1  0.66110816  0.83456132  0.50519030  1
  Sb  Sb79  1  0.49860322  0.33014044  0.83593750  1
  Sb  Sb80  1  0.00167036  0.16392230  0.83815415  1
  Sb  Sb81  1  0.82788762  0.17362440  0.66205443  1
  Sb  Sb82  1  0.49747147  0.67172020  0.83793639  1
  Sb  Sb83  1  0.66619321  0.82687291  0.16240632  1
  Sb  Sb84  1  0.00555818  0.50909870  0.83542157  1
  Sb  Sb85  1  0.00148771  0.50328906  0.49884686  1
  Sb  Sb86  1  0.00451823  0.82838323  0.49819509  1
  Sb  Sb87  1  0.83595845  0.34017980  0.50205842  1
  Sb  Sb88  1  0.33280556  0.16257257  0.16651678  1
  Sb  Sb89  1  0.66826142  0.17004287  0.16957344  1
  Sb  Sb90  1  0.49807661  0.67245221  0.49701014  1
  Sb  Sb91  1  0.66795440  0.49841240  0.49817832  1
  Sb  Sb92  1  0.32981695  0.50862213  0.50088779  1
  Sb  Sb93  1  0.49829120  0.32770460  0.49639982  1
  Sb  Sb94  1  0.16567817  -0.00077935  0.16431327  1
  Sb  Sb95  1  0.49892869  0.50388336  0.32644934  1
  Sb  Sb96  1  0.16347373  0.82627997  -0.00279376  1
  Sb  Sb97  1  0.83233163  -0.00737394  0.83657620  1
  Sb  Sb98  1  0.66487944  0.50655739  0.83648293  1
  Sb  Sb99  1  0.66618689  0.16376356  0.82887413  1
  Sb  Sb100  1  0.50044414  0.50570120  0.67352999  1
  Sb  Sb101  1  0.33321437  -0.00823457  0.00276672  1
  Sb  Sb102  1  0.66617073  0.34068874  -0.00119529  1
  Sb  Sb103  1  0.17016077  0.17442714  0.67130291  1
  Sb  Sb104  1  0.82770340  0.82333993  0.67247074  1
  Sb  Sb105  1  0.00173918  0.34065870  -0.00371761  1
  Sb  Sb106  1  0.50265536  0.16250991  0.33169542  1
  Sb  Sb107  1  0.66822067  0.66295441  0.33175529  1
  Te  Te108  1  0.16135251  0.16789599  0.16024024  1
  Te  Te109  1  0.16658127  0.17001490  0.50086102  1
  Te  Te110  1  0.16648673  0.16614114  0.83902823  1
  Te  Te111  1  0.16207831  0.49837605  0.17067856  1
  Te  Te112  1  0.16719285  0.50192717  0.49906737  1
  Te  Te113  1  0.16719586  0.50416080  0.83244524  1
  Te  Te114  1  0.16513632  0.83489746  0.16477379  1
  Te  Te115  1  0.17517253  0.82743189  0.50159465  1
  Te  Te116  1  0.16786346  0.83030067  0.83317900  1
  Te  Te117  1  0.50054695  0.16264506  0.16332865  1
  Te  Te118  1  0.50386483  0.16059260  0.50296333  1
  Te  Te119  1  0.49965453  0.16116442  0.83420923  1
  Te  Te120  1  0.50038535  0.50261720  0.16261166  1
  Te  Te121  1  0.49850901  0.49810586  0.50067436  1
  Te  Te122  1  0.49286949  0.49792462  0.84180323  1
  Te  Te123  1  0.49996058  0.83191563  0.16598025  1
  Te  Te124  1  0.49558871  0.83774797  0.50143179  1
  Te  Te125  1  0.49952287  0.83688471  0.83369872  1
  Te  Te126  1  0.83601750  0.16750604  0.17053512  1
  Te  Te127  1  0.82806858  0.16494546  0.49297888  1
  Te  Te128  1  0.83408138  0.16697844  0.83405729  1
  Te  Te129  1  0.83363153  0.50327869  0.16703917  1
  Te  Te130  1  0.83366341  0.50733681  0.49897756  1
  Te  Te131  1  0.83169530  0.50299151  0.83078512  1
  Te  Te132  1  0.83349977  0.83058695  0.16404416  1
  Te  Te133  1  0.83331437  0.82540587  0.49935283  1
  Te  Te134  1  0.83536313  0.82869825  0.83813257  1
  Te  Te135  1  0.16736205  0.00638809  -0.00654043  1
  Te  Te136  1  0.16793108  0.00260227  0.33505995  1
  Te  Te137  1  0.16606695  0.00437934  0.67208473  1
  Te  Te138  1  0.16751843  0.33672116  -0.00570470  1
  Te  Te139  1  0.16872512  0.33850369  0.33694052  1
  Te  Te140  1  0.16716021  0.33931331  0.66762663  1
  Te  Te141  1  0.16600429  0.66260433  -0.00396300  1
  Te  Te142  1  0.16534718  0.66293480  0.33368797  1
  Te  Te143  1  0.16644909  0.66301830  0.66767734  1
  Te  Te144  1  0.49919298  0.00319296  0.00321184  1
  Te  Te145  1  0.49734861  -0.00248666  0.32898214  1
  Te  Te146  1  0.50081294  -0.00240096  0.66801381  1
  Te  Te147  1  0.50048526  0.33131022  0.00485791  1
  Te  Te148  1  0.50073496  0.33294970  0.32888784  1
  Te  Te149  1  0.50406836  0.33395847  0.66620268  1
  Te  Te150  1  0.49975561  0.66604026  0.00431237  1
  Te  Te151  1  0.49797840  0.67068473  0.32890093  1
  Te  Te152  1  0.50270122  0.67064165  0.66500226  1
  Te  Te153  1  0.83269988  -0.00503754  0.00717582  1
  Te  Te154  1  0.83558196  -0.00175029  0.32917563  1
  Te  Te155  1  0.82630104  0.00095468  0.66564840  1
  Te  Te156  1  0.83329620  0.33220462  -0.00938469  1
  Te  Te157  1  0.83110706  0.33747900  0.33401178  1
  Te  Te158  1  0.83308115  0.33881078  0.66800641  1
  Te  Te159  1  0.83440946  0.66682196  0.00027188  1
  Te  Te160  1  0.83496848  0.66304139  0.32807218  1
  Te  Te161  1  0.83330989  0.66365478  0.66971499  1
  Te  Te162  1  0.00151586  0.16627125  0.00589704  1
  Te  Te163  1  -0.00490953  0.16816493  0.32882354  1
  Te  Te164  1  -0.00073636  0.16633252  0.66620893  1
  Te  Te165  1  0.00488758  0.50620039  0.00724193  1
  Te  Te166  1  -0.00063138  0.50343967  0.33038512  1
  Te  Te167  1  -0.00059605  0.50226967  0.66783151  1
  Te  Te168  1  -0.00235104  0.82822292  0.00134893  1
  Te  Te169  1  -0.00020482  0.83042800  0.33024640  1
  Te  Te170  1  -0.00068413  0.82828206  0.66963677  1
  Te  Te171  1  0.33418086  0.16817063  0.00088204  1
  Te  Te172  1  0.33218837  0.17140663  0.33317923  1
  Te  Te173  1  0.34131162  0.16758426  0.66640112  1
  Te  Te174  1  0.33120083  0.50566857  -0.00188819  1
  Te  Te175  1  0.33015064  0.50256612  0.33269658  1
  Te  Te176  1  0.33163162  0.50743379  0.67102265  1
  Te  Te177  1  0.33264657  0.82520594  -0.00015618  1
  Te  Te178  1  0.33412724  0.83040472  0.32985829  1
  Te  Te179  1  0.33822705  0.82754824  0.67268303  1
  Te  Te180  1  0.66190806  0.16731640  -0.00093248  1
  Te  Te181  1  0.67061088  0.17115631  0.33716020  1
  Te  Te182  1  0.66306474  0.16969423  0.66364412  1
  Te  Te183  1  0.66231653  0.50612196  0.00479563  1
  Te  Te184  1  0.66854281  0.49497065  0.32951316  1
  Te  Te185  1  0.66855297  0.50111558  0.66703787  1
  Te  Te186  1  0.67102009  0.82648146  -0.00589114  1
  Te  Te187  1  0.65796396  0.83311807  0.33500450  1
  Te  Te188  1  0.66231658  0.83039770  0.67045344  1
  Te  Te189  1  -0.00148579  -0.00376554  0.17066344  1
  Te  Te190  1  0.00132284  -0.00186400  0.49187549  1
  Te  Te191  1  0.00250032  -0.00842229  0.83300235  1
  Te  Te192  1  -0.00041125  0.33046498  0.16563547  1
  Te  Te193  1  0.00527439  0.33213891  0.50728340  1
  Te  Te194  1  0.00137876  0.33096177  0.82933059  1
  Te  Te195  1  0.00036044  0.66878630  0.16665435  1
  Te  Te196  1  0.00149079  0.66817911  0.50033639  1
  Te  Te197  1  0.00013195  0.66919707  0.83321738  1
  Te  Te198  1  0.33626804  -0.00518554  0.17023966  1
  Te  Te199  1  0.33801835  -0.00546090  0.49443648  1
  Te  Te200  1  0.33376070  -0.00491432  0.83432817  1
  Te  Te201  1  0.33878796  0.33277197  0.17184525  1
  Te  Te202  1  0.32957471  0.33260862  0.49482186  1
  Te  Te203  1  0.32824372  0.33475837  0.83264459  1
  Te  Te204  1  0.33405093  0.67020575  0.16942391  1
  Te  Te205  1  0.33163055  0.67148631  0.49475478  1
  Te  Te206  1  0.33372358  0.66807500  0.83414559  1
  Te  Te207  1  0.66627873  0.00036820  0.16602365  1
  Te  Te208  1  0.66188830  0.00339604  0.50439602  1
  Te  Te209  1  0.66332640  -0.00601996  0.82892371  1
  Te  Te210  1  0.66294251  0.33802646  0.16810656  1
  Te  Te211  1  0.66748375  0.33019237  0.50110254  1
  Te  Te212  1  0.66784980  0.33460969  0.82850797  1
  Te  Te213  1  0.66555887  0.66326753  0.16534446  1
  Te  Te214  1  0.67024190  0.66637074  0.50435312  1
  Te  Te215  1  0.66557690  0.66955871  0.83330556  1
