# generated using pymatgen
data_AgSbTe2
_symmetry_space_group_name_H-M   'P 1'
_cell_length_a   18.31032865
_cell_length_b   18.31422303
_cell_length_c   18.31103623
_cell_angle_alpha   89.99967206
_cell_angle_beta   90.00080769
_cell_angle_gamma   90.00125590
_symmetry_Int_Tables_number   1
_chemical_formula_structural   AgSbTe2
_chemical_formula_sum   'Ag54 Sb54 Te108'
_cell_volume   6140.41268304
_cell_formula_units_Z   54
loop_
 _symmetry_equiv_pos_site_id
 _symmetry_equiv_pos_as_xyz
  1  'x, y, z'
loop_
 _atom_site_type_symbol
 _atom_site_label
 _atom_site_symmetry_multiplicity
 _atom_site_fract_x
 _atom_site_fract_y
 _atom_site_fract_z
 _atom_site_occupancy
  Ag  Ag0  1  0.34099007  0.33274897  0.33644120  1
  Ag  Ag1  1  0.16919378  0.84408505  0.65875193  1
  Ag  Ag2  1  0.82561185  -0.00025943  0.16184881  1
  Ag  Ag3  1  0.50347606  0.16592217  0.00085240  1
  Ag  Ag4  1  0.00500752  0.82978116  0.50198459  1
  Ag  Ag5  1  0.66551946  0.16820937  0.50181581  1
  Ag  Ag6  1  0.17243694  0.15618659  0.66899631  1
  Ag  Ag7  1  0.84285943  0.66683391  0.49608610  1
  Ag  Ag8  1  0.49814551  0.48965124  0.66455170  1
  Ag  Ag9  1  0.16242918  0.67569251  0.49699210  1
  Ag  Ag10  1  -0.00074943  0.16541969  0.83201584  1
  Ag  Ag11  1  0.16455067  0.83993031  0.00187314  1
  Ag  Ag12  1  0.00485738  0.33187932  0.66777673  1
  Ag  Ag13  1  0.50258702  0.66228786  0.83505078  1
  Ag  Ag14  1  0.33664503  0.32775918  0.66075178  1
  Ag  Ag15  1  0.66567436  0.16877061  0.83727440  1
  Ag  Ag16  1  0.83396790  0.66589467  0.83595902  1
  Ag  Ag17  1  0.65723318  0.32921876  0.33230764  1
  Ag  Ag18  1  0.33380305  0.83133833  0.16877395  1
  Ag  Ag19  1  0.33762246  0.00132352  0.33232318  1
  Ag  Ag20  1  0.50235003  0.33214966  0.82686139  1
  Ag  Ag21  1  0.82647744  0.50265188  0.33009134  1
  Ag  Ag22  1  0.49173460  0.66808420  0.16683846  1
  Ag  Ag23  1  0.17514481  0.67047117  0.17020514  1
  Ag  Ag24  1  0.49487238  0.16949931  0.66877303  1
  Ag  Ag25  1  0.16874030  0.33048254  0.50302139  1
  Ag  Ag26  1  0.66219602  0.49750667  0.16953239  1
  Ag  Ag27  1  -0.00000257  0.00132129  -0.00323019  1
  Ag  Ag28  1  0.82869891  0.33214152  0.16632906  1
  Ag  Ag29  1  0.00223257  0.66907413  0.66271100  1
  Ag  Ag30  1  0.00086613  0.66734235  0.33900937  1
  Ag  Ag31  1  0.16683653  -0.00383970  0.51038741  1
  Ag  Ag32  1  0.83311439  0.66643301  0.16671953  1
  Ag  Ag33  1  0.01046590  0.00035611  0.67274089  1
  Ag  Ag34  1  0.49384173  0.83879098  0.33045923  1
  Ag  Ag35  1  0.83771178  0.84065449  0.00362205  1
  Ag  Ag36  1  0.17222439  0.83218622  0.33606178  1
  Ag  Ag37  1  0.32418966  0.00496715  0.66119513  1
  Ag  Ag38  1  0.16523741  0.00115580  0.82297416  1
  Ag  Ag39  1  0.67167096  0.00673299  0.00683947  1
  Ag  Ag40  1  0.66531861  0.32461801  0.00203248  1
  Ag  Ag41  1  0.33345577  0.49792883  0.49356383  1
  Ag  Ag42  1  0.49263817  0.83685523  0.66271644  1
  Ag  Ag43  1  0.82236526  0.15990572  0.00185629  1
  Ag  Ag44  1  0.49894071  0.49745386  0.33117681  1
  Ag  Ag45  1  0.33515222  0.16269328  0.16873401  1
  Ag  Ag46  1  0.33382053  0.66838144  0.00650329  1
  Ag  Ag47  1  -0.00123667  0.49832069  0.83000077  1
  Ag  Ag48  1  0.16795855  0.15867353  -0.00665518  1
  Ag  Ag49  1  0.65503090  0.00758328  0.32555455  1
  Ag  Ag50  1  0.49987432  0.16539108  0.33001994  1
  Ag  Ag51  1  0.50074397  0.00068181  0.17083479  1
  Ag  Ag52  1  0.34143619  0.50438558  0.17334990  1
  Ag  Ag53  1  0.65601640  0.32979978  0.66575473  1
  Sb  Sb54  1  0.17033445  0.49947631  0.66502676  1
  Sb  Sb55  1  0.17145315  -0.00519963  0.16609524  1
  Sb  Sb56  1  0.83684347  0.83193962  0.66962426  1
  Sb  Sb57  1  0.66220992  0.83361653  0.16760394  1
  Sb  Sb58  1  -0.00175902  0.50255731  0.16505443  1
  Sb  Sb59  1  0.33107374  0.66757156  0.32761199  1
  Sb  Sb60  1  0.16573768  0.67230895  0.83306880  1
  Sb  Sb61  1  0.00106592  0.83641504  0.82999605  1
  Sb  Sb62  1  0.66206582  0.49464855  0.49480324  1
  Sb  Sb63  1  0.33341782  0.83366644  0.83564649  1
  Sb  Sb64  1  0.83072883  0.50015028  0.66292283  1
  Sb  Sb65  1  0.50312232  0.33279490  0.16825980  1
  Sb  Sb66  1  0.82430293  0.16961871  0.32536911  1
  Sb  Sb67  1  0.83577591  0.33656234  0.49650573  1
  Sb  Sb68  1  0.66858243  0.83754501  0.49817757  1
  Sb  Sb69  1  0.00411711  0.50637969  0.50363482  1
  Sb  Sb70  1  0.16767308  0.33559575  0.17041598  1
  Sb  Sb71  1  -0.00341080  0.32514666  -0.00583575  1
  Sb  Sb72  1  0.66292681  0.00727858  0.66613007  1
  Sb  Sb73  1  0.16761889  0.50231052  0.00131046  1
  Sb  Sb74  1  0.83756605  -0.00327061  0.49542293  1
  Sb  Sb75  1  0.17125643  0.50623985  0.33488952  1
  Sb  Sb76  1  0.49380815  0.00065245  0.49393023  1
  Sb  Sb77  1  0.66830107  0.66356760  0.33151394  1
  Sb  Sb78  1  0.00082644  0.33782378  0.33819327  1
  Sb  Sb79  1  0.82967380  0.33474654  0.83705989  1
  Sb  Sb80  1  -0.00047094  0.16332437  0.50691963  1
  Sb  Sb81  1  0.33266322  -0.00100999  0.00379371  1
  Sb  Sb82  1  0.32630055  0.83105276  0.49526287  1
  Sb  Sb83  1  0.33657771  0.17012818  0.49930681  1
  Sb  Sb84  1  0.49686976  0.66652477  0.49749838  1
  Sb  Sb85  1  0.50050736  0.49628453  0.00246474  1
  Sb  Sb86  1  0.66597028  0.83875619  0.83408275  1
  Sb  Sb87  1  0.83246771  0.50033229  0.00512575  1
  Sb  Sb88  1  0.66449592  0.66813396  0.00184861  1
  Sb  Sb89  1  0.00478115  0.16443698  0.16143661  1
  Sb  Sb90  1  0.66694613  0.66237287  0.66688490  1
  Sb  Sb91  1  0.49483805  0.33156391  0.50184994  1
  Sb  Sb92  1  0.83324643  0.82979915  0.32774150  1
  Sb  Sb93  1  0.33070483  0.66804775  0.66790907  1
  Sb  Sb94  1  0.65941980  0.16905842  0.16297063  1
  Sb  Sb95  1  0.00133974  0.67246924  -0.00099716  1
  Sb  Sb96  1  0.83759930  -0.00100852  0.84063227  1
  Sb  Sb97  1  0.66790310  0.49443481  0.83674819  1
  Sb  Sb98  1  0.49836852  0.83657366  0.00340012  1
  Sb  Sb99  1  0.17473657  0.16150961  0.33603094  1
  Sb  Sb100  1  0.00310012  -0.00410200  0.33222321  1
  Sb  Sb101  1  0.49663536  0.00280189  0.83539665  1
  Sb  Sb102  1  0.83325994  0.16683288  0.67321633  1
  Sb  Sb103  1  0.33432036  0.16624202  0.83279776  1
  Sb  Sb104  1  0.33739734  0.33273246  0.00204800  1
  Sb  Sb105  1  0.33263801  0.49999587  0.83275423  1
  Sb  Sb106  1  0.16878296  0.32634803  0.82740158  1
  Sb  Sb107  1  0.00500165  0.83239580  0.16911465  1
  Te  Te108  1  0.17348748  0.16743988  0.16544354  1
  Te  Te109  1  0.16639033  0.16531383  0.50442440  1
  Te  Te110  1  0.16571750  0.16244140  0.83208954  1
  Te  Te111  1  0.17025637  0.50668019  0.16676146  1
  Te  Te112  1  0.17241522  0.49781227  0.49981404  1
  Te  Te113  1  0.16037084  0.49977425  0.83363889  1
  Te  Te114  1  0.17050910  0.82926644  0.16618242  1
  Te  Te115  1  0.16588376  0.83350996  0.50064509  1
  Te  Te116  1  0.16670586  0.83944580  0.83719487  1
  Te  Te117  1  0.49471462  0.16679642  0.16839425  1
  Te  Te118  1  0.50579949  0.16563037  0.50151923  1
  Te  Te119  1  0.50126869  0.16797158  0.83193399  1
  Te  Te120  1  0.50086077  0.50038984  0.16840805  1
  Te  Te121  1  0.49518849  0.50223855  0.49797795  1
  Te  Te122  1  0.50034075  0.50158693  0.83142485  1
  Te  Te123  1  0.49599406  0.83170900  0.16870528  1
  Te  Te124  1  0.50042864  0.83246783  0.50043879  1
  Te  Te125  1  0.50047720  0.82867729  0.83001750  1
  Te  Te126  1  0.83676928  0.16544453  0.16011337  1
  Te  Te127  1  0.82761056  0.16644311  0.49792181  1
  Te  Te128  1  0.83400117  0.16681299  0.84141178  1
  Te  Te129  1  0.83260341  0.50304084  0.17065488  1
  Te  Te130  1  0.83240995  0.50582617  0.49315523  1
  Te  Te131  1  0.83613182  0.50516142  0.83277104  1
  Te  Te132  1  0.83305531  0.83233616  0.16264161  1
  Te  Te133  1  0.83896567  0.82803084  0.49909644  1
  Te  Te134  1  0.83285367  0.82662959  0.83968280  1
  Te  Te135  1  0.16614080  0.00017686  0.00250741  1
  Te  Te136  1  0.17160210  -0.00653129  0.33406044  1
  Te  Te137  1  0.16663684  -0.00011391  0.66719236  1
  Te  Te138  1  0.16669950  0.32654995  0.00016666  1
  Te  Te139  1  0.16964832  0.33183572  0.33883294  1
  Te  Te140  1  0.16859965  0.33272656  0.66402696  1
  Te  Te141  1  0.16959586  0.67062613  0.00220246  1
  Te  Te142  1  0.16330608  0.67061990  0.33267372  1
  Te  Te143  1  0.16279159  0.66826281  0.66479831  1
  Te  Te144  1  0.50111735  0.00451156  0.00380992  1
  Te  Te145  1  0.49836820  0.00059997  0.33191438  1
  Te  Te146  1  0.49752192  0.00168522  0.66639957  1
  Te  Te147  1  0.50347620  0.32808669  -0.00486861  1
  Te  Te148  1  0.49903440  0.33390364  0.33487940  1
  Te  Te149  1  0.49832440  0.33111280  0.66606274  1
  Te  Te150  1  0.49793981  0.66750974  0.00214444  1
  Te  Te151  1  0.50112589  0.66546531  0.32944686  1
  Te  Te152  1  0.49918719  0.67047770  0.66712011  1
  Te  Te153  1  0.83304754  0.00006235  0.00161205  1
  Te  Te154  1  0.83236957  -0.00004504  0.32636398  1
  Te  Te155  1  0.83799596  -0.00115973  0.66584247  1
  Te  Te156  1  0.82922389  0.33036674  0.00477291  1
  Te  Te157  1  0.83291113  0.33783572  0.32816182  1
  Te  Te158  1  0.83620651  0.33382668  0.66629174  1
  Te  Te159  1  0.83276692  0.66932290  0.00157995  1
  Te  Te160  1  0.83496240  0.66541347  0.33037605  1
  Te  Te161  1  0.83640402  0.66655544  0.66873039  1
  Te  Te162  1  0.00660348  0.16146027  -0.00504149  1
  Te  Te163  1  0.00004949  0.16756196  0.33480816  1
  Te  Te164  1  0.00054700  0.16555434  0.67087924  1
  Te  Te165  1  0.00013122  0.49814428  -0.00789747  1
  Te  Te166  1  -0.00286644  0.50590684  0.33343364  1
  Te  Te167  1  -0.00132879  0.50027791  0.67021596  1
  Te  Te168  1  0.00224417  0.83945299  -0.00014152  1
  Te  Te169  1  0.00344846  0.82844106  0.33729344  1
  Te  Te170  1  0.00220584  0.83317988  0.66388287  1
  Te  Te171  1  0.33519097  0.16733873  0.00455288  1
  Te  Te172  1  0.33810630  0.16732892  0.33230889  1
  Te  Te173  1  0.33332689  0.16696460  0.66555578  1
  Te  Te174  1  0.33275148  0.50426547  0.00611348  1
  Te  Te175  1  0.33595642  0.49760403  0.33247272  1
  Te  Te176  1  0.33915319  0.49755899  0.66615320  1
  Te  Te177  1  0.33062820  0.83085259  0.00536008  1
  Te  Te178  1  0.33408144  0.83535754  0.33051190  1
  Te  Te179  1  0.33226894  0.83612413  0.66584008  1
  Te  Te180  1  0.66414805  0.16715166  -0.00031201  1
  Te  Te181  1  0.66126864  0.16808949  0.33318149  1
  Te  Te182  1  0.66607190  0.17078683  0.66957615  1
  Te  Te183  1  0.66729031  0.49293021  0.00703958  1
  Te  Te184  1  0.66309524  0.49666643  0.33029914  1
  Te  Te185  1  0.65955777  0.49324847  0.66619342  1
  Te  Te186  1  0.67085186  0.84000669  0.00030773  1
  Te  Te187  1  0.66042353  0.84057735  0.33443594  1
  Te  Te188  1  0.66004729  0.83490373  0.66609899  1
  Te  Te189  1  -0.00613594  -0.00084733  0.16283535  1
  Te  Te190  1  0.00463851  -0.00476782  0.50091181  1
  Te  Te191  1  0.00267504  0.00275715  0.83389930  1
  Te  Te192  1  -0.00544816  0.33396503  0.16716501  1
  Te  Te193  1  0.00564573  0.33405546  0.50659060  1
  Te  Te194  1  -0.00024907  0.33107339  0.82755920  1
  Te  Te195  1  -0.00316621  0.66653221  0.16751018  1
  Te  Te196  1  0.00187221  0.66741762  0.50104545  1
  Te  Te197  1  -0.00215794  0.66583289  0.83101097  1
  Te  Te198  1  0.33750273  -0.00000662  0.16980379  1
  Te  Te199  1  0.32740497  -0.00077416  0.49903004  1
  Te  Te200  1  0.32802403  -0.00035699  0.82616515  1
  Te  Te201  1  0.33249313  0.33583739  0.17100839  1
  Te  Te202  1  0.32944063  0.33523403  0.49929323  1
  Te  Te203  1  0.33997524  0.33465125  0.82947175  1
  Te  Te204  1  0.33444285  0.66667438  0.16658065  1
  Te  Te205  1  0.32732659  0.65977427  0.50035359  1
  Te  Te206  1  0.33850380  0.66544433  0.83988180  1
  Te  Te207  1  0.66417838  -0.00052662  0.16667834  1
  Te  Te208  1  0.66989740  0.00592802  0.49661927  1
  Te  Te209  1  0.66622725  0.00729139  0.83609314  1
  Te  Te210  1  0.66870845  0.33480434  0.16989905  1
  Te  Te211  1  0.67030748  0.32865940  0.49881972  1
  Te  Te212  1  0.66327557  0.32996142  0.83189246  1
  Te  Te213  1  0.66880704  0.66227361  0.16547555  1
  Te  Te214  1  0.67394971  0.66712512  0.50028672  1
  Te  Te215  1  0.66470061  0.66600779  0.83412630  1
