# generated using pymatgen
data_AgSbTe2
_symmetry_space_group_name_H-M   'P 1'
_cell_length_a   18.32691490
_cell_length_b   18.32265339
_cell_length_c   18.32362025
_cell_angle_alpha   90.00005656
_cell_angle_beta   90.00011314
_cell_angle_gamma   90.00051591
_symmetry_Int_Tables_number   1
_chemical_formula_structural   AgSbTe2
_chemical_formula_sum   'Ag54 Sb54 Te108'
_cell_volume   6153.02970595
_cell_formula_units_Z   54
loop_
 _symmetry_equiv_pos_site_id
 _symmetry_equiv_pos_as_xyz
  1  'x, y, z'
loop_
 _atom_site_type_symbol
 _atom_site_label
 _atom_site_symmetry_multiplicity
 _atom_site_fract_x
 _atom_site_fract_y
 _atom_site_fract_z
 _atom_site_occupancy
  Ag  Ag0  1  0.49650241  0.17480782  -0.00338805  1
  Ag  Ag1  1  0.33578221  0.49696017  0.17452927  1
  Ag  Ag2  1  0.50072204  0.17840819  0.67215886  1
  Ag  Ag3  1  0.33368755  0.49653838  0.83503994  1
  Ag  Ag4  1  0.66645199  0.83952603  0.84211799  1
  Ag  Ag5  1  0.66076961  0.32909240  -0.00235851  1
  Ag  Ag6  1  0.49577780  0.34160329  0.50422309  1
  Ag  Ag7  1  0.33002827  0.17881666  0.16522893  1
  Ag  Ag8  1  0.32820844  0.65789693  0.32950087  1
  Ag  Ag9  1  0.17602479  0.33665133  0.16440283  1
  Ag  Ag10  1  0.33329160  -0.00479148  0.33355023  1
  Ag  Ag11  1  0.83593725  -0.00552999  0.16754796  1
  Ag  Ag12  1  0.33020310  0.66539180  0.01262668  1
  Ag  Ag13  1  0.49697781  0.49267203  0.00554498  1
  Ag  Ag14  1  0.83908445  0.82947018  0.33121972  1
  Ag  Ag15  1  0.17196404  0.33262004  0.83940903  1
  Ag  Ag16  1  0.49876851  0.49477757  0.66091847  1
  Ag  Ag17  1  0.48822039  0.65869599  0.16591294  1
  Ag  Ag18  1  0.00629191  0.67034357  0.32758839  1
  Ag  Ag19  1  0.82799360  -0.01109508  0.49445137  1
  Ag  Ag20  1  -0.00305761  0.83414493  0.16782233  1
  Ag  Ag21  1  0.67055867  -0.00080160  0.00012293  1
  Ag  Ag22  1  0.17087242  0.66461166  0.16903077  1
  Ag  Ag23  1  0.83435592  0.67223011  0.49565533  1
  Ag  Ag24  1  0.82769353  0.49419098  0.66183372  1
  Ag  Ag25  1  0.15967992  0.83567953  0.00774261  1
  Ag  Ag26  1  0.00562149  0.16002487  0.15849325  1
  Ag  Ag27  1  0.48834994  0.49863325  0.33435885  1
  Ag  Ag28  1  -0.00122342  0.17237113  0.83946721  1
  Ag  Ag29  1  0.16840262  0.16548831  0.00069842  1
  Ag  Ag30  1  0.65677360  0.50141309  0.49912232  1
  Ag  Ag31  1  0.67483236  0.83340444  0.16560795  1
  Ag  Ag32  1  0.00542257  0.49272718  0.83541857  1
  Ag  Ag33  1  0.16616018  0.00704146  0.83991078  1
  Ag  Ag34  1  0.83166891  0.33134193  0.83308717  1
  Ag  Ag35  1  0.66693168  0.83182957  0.49770958  1
  Ag  Ag36  1  0.49725030  0.33409335  0.83716054  1
  Ag  Ag37  1  0.17666958  0.50557949  0.33080651  1
  Ag  Ag38  1  0.33294998  0.34370846  0.33365643  1
  Ag  Ag39  1  -0.00278683  -0.00426537  0.00212824  1
  Ag  Ag40  1  0.33929412  0.49826319  0.48719285  1
  Ag  Ag41  1  0.49308548  0.33814384  0.16062733  1
  Ag  Ag42  1  -0.00718843  0.83276182  0.48921279  1
  Ag  Ag43  1  0.82841829  0.17193392  0.67089159  1
  Ag  Ag44  1  0.83454433  0.50730121  0.33768072  1
  Ag  Ag45  1  0.16218721  0.82593290  0.32784351  1
  Ag  Ag46  1  0.33726581  0.33585435  0.66182151  1
  Ag  Ag47  1  0.33608243  0.82803573  0.49496066  1
  Ag  Ag48  1  0.66880922  0.16790032  0.83603322  1
  Ag  Ag49  1  0.17792762  0.33521373  0.49178365  1
  Ag  Ag50  1  0.00513444  0.67501523  0.00826364  1
  Ag  Ag51  1  0.83818696  0.83548122  0.01083175  1
  Ag  Ag52  1  0.50187294  -0.00098393  0.50021212  1
  Ag  Ag53  1  0.50087078  0.83269298  0.66073295  1
  Sb  Sb54  1  0.66387014  0.49586979  0.83030642  1
  Sb  Sb55  1  0.82853742  0.83341746  0.66181556  1
  Sb  Sb56  1  0.49901962  0.65931366  0.83826360  1
  Sb  Sb57  1  0.66692616  0.66747481  0.33378342  1
  Sb  Sb58  1  0.00231947  0.33404486  0.66872853  1
  Sb  Sb59  1  0.66001410  0.33784597  0.32880685  1
  Sb  Sb60  1  0.83723806  0.67187671  0.17142277  1
  Sb  Sb61  1  0.50048564  0.83365029  -0.00064860  1
  Sb  Sb62  1  0.83324249  0.33031762  0.16321864  1
  Sb  Sb63  1  0.17130931  0.83384222  0.66451144  1
  Sb  Sb64  1  0.00753066  0.34049865  0.33188730  1
  Sb  Sb65  1  0.00529986  0.50312957  0.16389214  1
  Sb  Sb66  1  0.33054067  0.82906962  0.17254671  1
  Sb  Sb67  1  0.50179572  0.00115214  0.16998128  1
  Sb  Sb68  1  0.16987640  0.17044814  0.67446046  1
  Sb  Sb69  1  0.33658806  0.00521421  0.66198001  1
  Sb  Sb70  1  -0.00322848  0.83400566  0.83964676  1
  Sb  Sb71  1  0.17373972  0.49832950  0.00390684  1
  Sb  Sb72  1  -0.00054314  0.33181955  -0.00216219  1
  Sb  Sb73  1  0.50143612  0.66318141  0.49400578  1
  Sb  Sb74  1  0.83608224  0.16429880  0.33644546  1
  Sb  Sb75  1  0.16614754  0.66320087  0.84458722  1
  Sb  Sb76  1  0.66610165  -0.00047747  0.67004103  1
  Sb  Sb77  1  -0.00050149  0.16152291  0.50125617  1
  Sb  Sb78  1  0.33358642  0.17504449  0.84015574  1
  Sb  Sb79  1  0.83375940  0.66327506  0.83042440  1
  Sb  Sb80  1  0.16539530  0.66356209  0.49037342  1
  Sb  Sb81  1  0.83445123  0.16151913  -0.00402625  1
  Sb  Sb82  1  0.83033381  0.50413560  0.00110853  1
  Sb  Sb83  1  0.66579297  0.66615173  0.66518330  1
  Sb  Sb84  1  0.49727016  0.00587759  0.83076968  1
  Sb  Sb85  1  0.82901654  0.33732325  0.50453145  1
  Sb  Sb86  1  0.83491455  0.00378881  0.83535480  1
  Sb  Sb87  1  0.16878274  0.00105598  0.50025408  1
  Sb  Sb88  1  0.33601978  0.65950545  0.66141049  1
  Sb  Sb89  1  0.49708526  0.17228539  0.33211599  1
  Sb  Sb90  1  0.66437838  -0.00290370  0.33141882  1
  Sb  Sb91  1  -0.00135638  0.66557831  0.66416527  1
  Sb  Sb92  1  0.33256582  -0.00323084  0.00418918  1
  Sb  Sb93  1  0.16887226  0.16804752  0.32517138  1
  Sb  Sb94  1  0.66584279  0.66944494  0.00253198  1
  Sb  Sb95  1  0.33673717  0.82877284  0.83035867  1
  Sb  Sb96  1  0.17072495  0.49737854  0.66353757  1
  Sb  Sb97  1  0.16294921  -0.00140914  0.16278961  1
  Sb  Sb98  1  0.49786384  0.82725183  0.33630795  1
  Sb  Sb99  1  0.65804597  0.33342737  0.67220685  1
  Sb  Sb100  1  0.66388935  0.16717613  0.50669701  1
  Sb  Sb101  1  0.65817707  0.50473958  0.17044591  1
  Sb  Sb102  1  0.00297676  -0.00792503  0.32761640  1
  Sb  Sb103  1  0.66490568  0.16283363  0.15799822  1
  Sb  Sb104  1  0.33452176  0.17334947  0.49552961  1
  Sb  Sb105  1  -0.00211349  0.00021027  0.67226109  1
  Sb  Sb106  1  0.00081203  0.50377718  0.50074404  1
  Sb  Sb107  1  0.33947327  0.34029937  0.00421677  1
  Te  Te108  1  0.16633823  0.16732716  0.16112302  1
  Te  Te109  1  0.16549617  0.17342458  0.50145080  1
  Te  Te110  1  0.16540607  0.17024838  0.83895968  1
  Te  Te111  1  0.16982329  0.49783653  0.17019506  1
  Te  Te112  1  0.16921922  0.49501106  0.49573953  1
  Te  Te113  1  0.16697685  0.49555390  0.83268371  1
  Te  Te114  1  0.16471600  0.83231901  0.16642225  1
  Te  Te115  1  0.17098080  0.83414757  0.49614150  1
  Te  Te116  1  0.16675809  0.83348458  0.83563530  1
  Te  Te117  1  0.49715982  0.17032110  0.16280303  1
  Te  Te118  1  0.50022813  0.16369257  0.50358369  1
  Te  Te119  1  0.50033230  0.17040509  0.83440966  1
  Te  Te120  1  0.49752358  0.49840554  0.16643893  1
  Te  Te121  1  0.49893392  0.50144254  0.49956131  1
  Te  Te122  1  0.49931292  0.49487806  0.83074711  1
  Te  Te123  1  0.50353246  0.83223451  0.16704959  1
  Te  Te124  1  0.50118451  0.83031848  0.50000135  1
  Te  Te125  1  0.50410940  0.83441093  0.82956151  1
  Te  Te126  1  0.83767553  0.16102514  0.16725151  1
  Te  Te127  1  0.83284787  0.16509267  0.50687185  1
  Te  Te128  1  0.83389793  0.16948178  0.83067234  1
  Te  Te129  1  0.83188622  0.49920619  0.17185832  1
  Te  Te130  1  0.83480455  0.49952009  0.50025273  1
  Te  Te131  1  0.83269599  0.49553906  0.83206315  1
  Te  Te132  1  0.83494445  0.83380301  0.16876166  1
  Te  Te133  1  0.83175090  0.83258217  0.50086922  1
  Te  Te134  1  0.82794336  0.83381104  0.83061663  1
  Te  Te135  1  0.16580706  -0.00080917  -0.00183189  1
  Te  Te136  1  0.17198800  -0.00400802  0.33431749  1
  Te  Te137  1  0.16734033  0.00168374  0.67502130  1
  Te  Te138  1  0.16571340  0.33009381  0.00069748  1
  Te  Te139  1  0.17102077  0.33495772  0.32963233  1
  Te  Te140  1  0.17336861  0.33332709  0.67147833  1
  Te  Te141  1  0.16591383  0.66627000  0.00729776  1
  Te  Te142  1  0.16657640  0.66620933  0.33037057  1
  Te  Te143  1  0.16699286  0.66699543  0.66936341  1
  Te  Te144  1  0.50313469  0.00356520  0.00049188  1
  Te  Te145  1  0.49601492  0.00064539  0.33887405  1
  Te  Te146  1  0.49993513  -0.00365413  0.66133735  1
  Te  Te147  1  0.50027996  0.33267604  0.00011629  1
  Te  Te148  1  0.49553858  0.33799311  0.33354402  1
  Te  Te149  1  0.49789887  0.33437493  0.66465430  1
  Te  Te150  1  0.49654142  0.66479145  0.00538784  1
  Te  Te151  1  0.49613210  0.66000014  0.32756917  1
  Te  Te152  1  0.49958759  0.66629589  0.66912826  1
  Te  Te153  1  0.83331800  -0.00471431  0.00134126  1
  Te  Te154  1  0.83334581  -0.00355438  0.33378516  1
  Te  Te155  1  0.83287142  0.00462234  0.66066860  1
  Te  Te156  1  0.82675095  0.33459723  -0.00479394  1
  Te  Te157  1  0.83463413  0.33600695  0.33404512  1
  Te  Te158  1  0.83372638  0.33357036  0.67091001  1
  Te  Te159  1  0.83792358  0.67329818  -0.00063280  1
  Te  Te160  1  0.83409077  0.66850882  0.33572236  1
  Te  Te161  1  0.83351037  0.65894951  0.66050293  1
  Te  Te162  1  0.00083966  0.16578709  -0.00068752  1
  Te  Te163  1  0.00094842  0.16651839  0.32753949  1
  Te  Te164  1  -0.00305610  0.16654821  0.67299651  1
  Te  Te165  1  -0.00116492  0.50376668  -0.00466082  1
  Te  Te166  1  -0.00448471  0.50760573  0.33310436  1
  Te  Te167  1  -0.00456231  0.50073050  0.67316612  1
  Te  Te168  1  0.00030274  0.83446478  0.00096250  1
  Te  Te169  1  0.00037203  0.83161329  0.33115651  1
  Te  Te170  1  0.00105982  0.83298588  0.66171571  1
  Te  Te171  1  0.33308953  0.16298763  0.00605149  1
  Te  Te172  1  0.33308365  0.16337315  0.32603017  1
  Te  Te173  1  0.33894926  0.17314077  0.66730402  1
  Te  Te174  1  0.33763828  0.50585205  -0.00350242  1
  Te  Te175  1  0.33245993  0.49983677  0.33119743  1
  Te  Te176  1  0.33719251  0.49556261  0.67118946  1
  Te  Te177  1  0.32969170  0.82717549  -0.00164087  1
  Te  Te178  1  0.33224494  0.83368293  0.33682701  1
  Te  Te179  1  0.33893103  0.83251346  0.66040308  1
  Te  Te180  1  0.66564316  0.16531770  -0.00446833  1
  Te  Te181  1  0.66747904  0.16765665  0.33226057  1
  Te  Te182  1  0.66442411  0.16621699  0.67413086  1
  Te  Te183  1  0.66074914  0.49940512  -0.00011591  1
  Te  Te184  1  0.67374002  0.50096285  0.33886767  1
  Te  Te185  1  0.66579691  0.49986341  0.66194612  1
  Te  Te186  1  0.66793203  0.83575969  0.00149300  1
  Te  Te187  1  0.67135078  0.83377223  0.33501834  1
  Te  Te188  1  0.66156893  0.83307537  0.65977916  1
  Te  Te189  1  -0.00291192  -0.00160324  0.16230682  1
  Te  Te190  1  -0.00229431  -0.00574256  0.50046236  1
  Te  Te191  1  0.00335180  0.00245037  0.83946268  1
  Te  Te192  1  0.00219412  0.33023212  0.16579925  1
  Te  Te193  1  0.00501922  0.33195968  0.49986550  1
  Te  Te194  1  0.00008758  0.33277592  0.83330833  1
  Te  Te195  1  0.00340583  0.66907637  0.16688477  1
  Te  Te196  1  -0.00298943  0.67165865  0.49601378  1
  Te  Te197  1  -0.00072281  0.66296336  0.83687311  1
  Te  Te198  1  0.33382087  0.00087524  0.17202472  1
  Te  Te199  1  0.33612081  -0.00177252  0.49634394  1
  Te  Te200  1  0.32742741  -0.00142139  0.83263362  1
  Te  Te201  1  0.33340371  0.33590206  0.16716534  1
  Te  Te202  1  0.33510207  0.33556373  0.49702436  1
  Te  Te203  1  0.33455367  0.33647678  0.83397334  1
  Te  Te204  1  0.33163324  0.66680748  0.16913611  1
  Te  Te205  1  0.33295245  0.66445340  0.49410160  1
  Te  Te206  1  0.33257116  0.65966235  0.83419795  1
  Te  Te207  1  0.67037254  -0.00474718  0.16238869  1
  Te  Te208  1  0.66592104  -0.00163253  0.49985267  1
  Te  Te209  1  0.66595837  0.00124719  0.83873369  1
  Te  Te210  1  0.66417669  0.33238489  0.16001867  1
  Te  Te211  1  0.66014651  0.33651769  0.49816759  1
  Te  Te212  1  0.66506237  0.33075727  0.83751960  1
  Te  Te213  1  0.66216923  0.67365770  0.16663622  1
  Te  Te214  1  0.67230364  0.66645025  0.49962928  1
  Te  Te215  1  0.66670274  0.67741713  0.83401689  1
