# generated using pymatgen
data_AgSbTe2
_symmetry_space_group_name_H-M   'P 1'
_cell_length_a   18.33185444
_cell_length_b   18.33486819
_cell_length_c   18.33848462
_cell_angle_alpha   89.99813561
_cell_angle_beta   89.99959478
_cell_angle_gamma   89.99918197
_symmetry_Int_Tables_number   1
_chemical_formula_structural   AgSbTe2
_chemical_formula_sum   'Ag54 Sb54 Te108'
_cell_volume   6163.78721029
_cell_formula_units_Z   54
loop_
 _symmetry_equiv_pos_site_id
 _symmetry_equiv_pos_as_xyz
  1  'x, y, z'
loop_
 _atom_site_type_symbol
 _atom_site_label
 _atom_site_symmetry_multiplicity
 _atom_site_fract_x
 _atom_site_fract_y
 _atom_site_fract_z
 _atom_site_occupancy
  Ag  Ag0  1  0.83410106  0.16745781  0.33351387  1
  Ag  Ag1  1  0.49502125  0.83989858  0.66382833  1
  Ag  Ag2  1  0.00005364  0.67377507  -0.00411521  1
  Ag  Ag3  1  0.49534360  0.33370663  0.15407811  1
  Ag  Ag4  1  0.32834580  0.67709617  0.66803885  1
  Ag  Ag5  1  0.00627691  0.67140338  0.67844614  1
  Ag  Ag6  1  0.83522635  0.00435191  0.83663208  1
  Ag  Ag7  1  0.16189497  0.67501433  0.16578424  1
  Ag  Ag8  1  0.32061922  0.83473771  0.17078390  1
  Ag  Ag9  1  -0.00190797  -0.00964025  -0.00046177  1
  Ag  Ag10  1  0.84149894  -0.00645620  0.15457046  1
  Ag  Ag11  1  0.33602495  -0.00067040  0.66594894  1
  Ag  Ag12  1  0.17037880  0.33455818  0.50397075  1
  Ag  Ag13  1  0.65616317  0.16404677  0.83248850  1
  Ag  Ag14  1  0.66088755  0.83033298  0.50065064  1
  Ag  Ag15  1  0.01122889  0.83348670  0.50042285  1
  Ag  Ag16  1  0.49355537  0.83349523  0.34155568  1
  Ag  Ag17  1  0.82943425  0.49901196  0.33117423  1
  Ag  Ag18  1  0.00362573  0.83562537  0.16145059  1
  Ag  Ag19  1  -0.00113040  0.50854798  0.83643045  1
  Ag  Ag20  1  0.33375311  0.15829897  0.51050669  1
  Ag  Ag21  1  0.66719268  0.66626414  0.33520925  1
  Ag  Ag22  1  0.83684124  0.33130648  0.49965681  1
  Ag  Ag23  1  0.00199596  0.83179513  0.83808150  1
  Ag  Ag24  1  0.84082756  0.67526604  0.16369629  1
  Ag  Ag25  1  0.83891787  0.84113911  -0.00160070  1
  Ag  Ag26  1  0.16034990  -0.00846288  0.17130516  1
  Ag  Ag27  1  0.50615009  0.50216113  0.33317061  1
  Ag  Ag28  1  0.66409880  0.83615623  0.82945959  1
  Ag  Ag29  1  0.50036216  0.00775175  0.82965946  1
  Ag  Ag30  1  0.66832868  0.50060224  0.83383267  1
  Ag  Ag31  1  0.00027803  -0.00438834  0.32651873  1
  Ag  Ag32  1  0.33404832  0.32265480  0.67076752  1
  Ag  Ag33  1  0.50000040  0.49299863  -0.00262978  1
  Ag  Ag34  1  0.49179536  0.32093462  0.83673980  1
  Ag  Ag35  1  0.50118860  0.17174795  -0.01250258  1
  Ag  Ag36  1  0.33752716  0.33222152  -0.01041208  1
  Ag  Ag37  1  0.83324289  0.15885890  -0.00689140  1
  Ag  Ag38  1  0.16236811  0.66699297  0.83280143  1
  Ag  Ag39  1  0.34348798  0.16728711  0.82790581  1
  Ag  Ag40  1  -0.00302344  0.15852112  0.83379109  1
  Ag  Ag41  1  0.66740262  0.50557267  0.49770953  1
  Ag  Ag42  1  0.33448662  0.33282342  0.33964508  1
  Ag  Ag43  1  0.16604481  0.67419551  0.50249304  1
  Ag  Ag44  1  0.83094138  0.16567273  0.67797462  1
  Ag  Ag45  1  0.49351226  0.15918534  0.67521886  1
  Ag  Ag46  1  0.15987900  0.50204472  -0.00380813  1
  Ag  Ag47  1  0.83539448  0.50022038  -0.00114198  1
  Ag  Ag48  1  0.48968649  -0.00522524  0.51197574  1
  Ag  Ag49  1  0.16941022  0.83354259  0.33429283  1
  Ag  Ag50  1  0.17232474  0.33565722  0.83133054  1
  Ag  Ag51  1  0.33189351  0.83898136  0.50412284  1
  Ag  Ag52  1  0.33384623  0.83820713  0.82573197  1
  Ag  Ag53  1  0.17088253  -0.01060036  0.49660081  1
  Sb  Sb54  1  0.16585193  0.50456945  0.33018905  1
  Sb  Sb55  1  0.32860107  0.00200844  -0.00536786  1
  Sb  Sb56  1  -0.00196008  0.50908942  0.15975641  1
  Sb  Sb57  1  -0.00161925  0.15678124  0.16041905  1
  Sb  Sb58  1  0.17334422  0.33465834  0.16430794  1
  Sb  Sb59  1  0.00340237  0.16113054  0.50501722  1
  Sb  Sb60  1  -0.00232056  0.67286676  0.33066333  1
  Sb  Sb61  1  0.83306915  0.32779551  0.83205719  1
  Sb  Sb62  1  0.66610180  0.66862794  0.66451552  1
  Sb  Sb63  1  0.66215708  0.33843279  0.33731413  1
  Sb  Sb64  1  0.33527798  0.66891793  0.33669663  1
  Sb  Sb65  1  0.83954215  0.67089337  0.83916225  1
  Sb  Sb66  1  0.16634195  0.17039378  -0.00375143  1
  Sb  Sb67  1  0.33361753  0.50437815  0.16548095  1
  Sb  Sb68  1  0.00514733  -0.00541387  0.66971703  1
  Sb  Sb69  1  0.67411098  -0.00009505  -0.00481298  1
  Sb  Sb70  1  0.33232315  0.49588680  0.83458500  1
  Sb  Sb71  1  0.66671459  0.50120943  0.16607907  1
  Sb  Sb72  1  0.67067774  -0.00483095  0.33545330  1
  Sb  Sb73  1  0.83604034  0.00188798  0.50377046  1
  Sb  Sb74  1  0.49477111  0.66796842  0.83321857  1
  Sb  Sb75  1  0.66058734  0.33376673  -0.00304797  1
  Sb  Sb76  1  0.32923291  -0.00020093  0.33944423  1
  Sb  Sb77  1  0.49876921  0.49889671  0.66789986  1
  Sb  Sb78  1  0.83366859  0.49667296  0.66926111  1
  Sb  Sb79  1  0.50196947  0.16513991  0.33582919  1
  Sb  Sb80  1  0.16080830  0.82934337  0.00375628  1
  Sb  Sb81  1  0.16436418  0.16070878  0.33611672  1
  Sb  Sb82  1  0.16649640  -0.00338149  0.83324576  1
  Sb  Sb83  1  0.33624059  0.50137719  0.49963039  1
  Sb  Sb84  1  0.49802753  0.00091302  0.16314892  1
  Sb  Sb85  1  0.50312300  0.83505248  -0.00406963  1
  Sb  Sb86  1  0.00237254  0.33406818  -0.00235309  1
  Sb  Sb87  1  0.49484085  0.67398405  0.49972511  1
  Sb  Sb88  1  0.33325775  0.16281592  0.16472434  1
  Sb  Sb89  1  0.66217807  0.33213496  0.66802228  1
  Sb  Sb90  1  0.83101097  0.83808553  0.67275771  1
  Sb  Sb91  1  0.67337400  0.66568927  0.00106579  1
  Sb  Sb92  1  0.32588681  0.66442292  -0.00465030  1
  Sb  Sb93  1  0.16707035  0.50286087  0.67228454  1
  Sb  Sb94  1  0.49820430  0.66476696  0.16705679  1
  Sb  Sb95  1  0.49578556  0.32993962  0.50421138  1
  Sb  Sb96  1  -0.00203500  0.50538098  0.50320790  1
  Sb  Sb97  1  0.17138212  0.16686346  0.66768060  1
  Sb  Sb98  1  0.66511511  0.16440980  0.50500622  1
  Sb  Sb99  1  0.00479434  0.33384133  0.66999601  1
  Sb  Sb100  1  0.00278659  0.32864386  0.33534752  1
  Sb  Sb101  1  0.65920696  -0.00088030  0.66885090  1
  Sb  Sb102  1  0.83040795  0.33211957  0.16801493  1
  Sb  Sb103  1  0.83501902  0.83334118  0.33066349  1
  Sb  Sb104  1  0.66917340  0.83214837  0.16670044  1
  Sb  Sb105  1  0.17367838  0.83196308  0.66120290  1
  Sb  Sb106  1  0.66803406  0.16580907  0.16027470  1
  Sb  Sb107  1  0.83673062  0.66514011  0.49656753  1
  Te  Te108  1  0.16610792  0.16066083  0.16703143  1
  Te  Te109  1  0.17126818  0.17430637  0.50067733  1
  Te  Te110  1  0.16065566  0.16856743  0.83387312  1
  Te  Te111  1  0.16548254  0.50606001  0.16042225  1
  Te  Te112  1  0.16630348  0.49690532  0.49771075  1
  Te  Te113  1  0.16536462  0.50071706  0.83717226  1
  Te  Te114  1  0.16425100  0.83297555  0.16742213  1
  Te  Te115  1  0.16824793  0.83195136  0.49766666  1
  Te  Te116  1  0.16619048  0.83146005  0.83462136  1
  Te  Te117  1  0.50035251  0.17075271  0.16517402  1
  Te  Te118  1  0.49670451  0.16113514  0.50286160  1
  Te  Te119  1  0.49993130  0.16489733  0.83155552  1
  Te  Te120  1  0.50006450  0.49670441  0.16851974  1
  Te  Te121  1  0.50615898  0.49935406  0.49704047  1
  Te  Te122  1  0.50392451  0.50065922  0.83498324  1
  Te  Te123  1  0.50012135  0.83429611  0.16798447  1
  Te  Te124  1  0.49896782  0.83471324  0.50086690  1
  Te  Te125  1  0.49977050  0.83456381  0.83221011  1
  Te  Te126  1  0.83243419  0.16344753  0.16757315  1
  Te  Te127  1  0.83392475  0.16946919  0.49613160  1
  Te  Te128  1  0.83676580  0.16698069  0.83560339  1
  Te  Te129  1  0.83297853  0.50063224  0.16621606  1
  Te  Te130  1  0.83047597  0.49649096  0.49840816  1
  Te  Te131  1  0.83292396  0.49701540  0.83565089  1
  Te  Te132  1  0.83520093  0.83401246  0.16366591  1
  Te  Te133  1  0.82712821  0.83401929  0.50130301  1
  Te  Te134  1  0.83344373  0.83693747  0.83630251  1
  Te  Te135  1  0.16026176  0.00238427  0.00376655  1
  Te  Te136  1  0.16336549  -0.00472840  0.33469260  1
  Te  Te137  1  0.17297471  0.00058151  0.65921237  1
  Te  Te138  1  0.17318086  0.33882785  -0.00242326  1
  Te  Te139  1  0.17134165  0.33461233  0.33412313  1
  Te  Te140  1  0.17231480  0.33458548  0.66754509  1
  Te  Te141  1  0.16228749  0.66215192  -0.00146881  1
  Te  Te142  1  0.16691405  0.67016847  0.33274197  1
  Te  Te143  1  0.16655552  0.66652315  0.66733658  1
  Te  Te144  1  0.49917820  0.00474293  -0.00458272  1
  Te  Te145  1  0.50167953  -0.00465489  0.33167106  1
  Te  Te146  1  0.49579460  -0.00031784  0.66909120  1
  Te  Te147  1  0.49778891  0.33263693  -0.00332951  1
  Te  Te148  1  0.49551618  0.33508287  0.33639884  1
  Te  Te149  1  0.49460869  0.33094110  0.67196816  1
  Te  Te150  1  0.50077025  0.66010044  0.00205464  1
  Te  Te151  1  0.50348668  0.66525930  0.33297957  1
  Te  Te152  1  0.49453759  0.67077023  0.66641646  1
  Te  Te153  1  0.83789321  0.00086461  -0.00263770  1
  Te  Te154  1  0.83834722  0.00200909  0.33558734  1
  Te  Te155  1  0.83552200  0.00619486  0.67221384  1
  Te  Te156  1  0.83332800  0.33679647  0.00145920  1
  Te  Te157  1  0.83391542  0.33456140  0.33479518  1
  Te  Te158  1  0.83420605  0.32827089  0.66151682  1
  Te  Te159  1  0.83822390  0.66087803  0.00431036  1
  Te  Te160  1  0.83039160  0.66325234  0.32880069  1
  Te  Te161  1  0.83867595  0.66632871  0.66594277  1
  Te  Te162  1  -0.00478869  0.16697623  -0.00541943  1
  Te  Te163  1  -0.00482661  0.16046163  0.33469395  1
  Te  Te164  1  -0.00589191  0.16558405  0.67226499  1
  Te  Te165  1  -0.00045166  0.50005587  -0.00442560  1
  Te  Te166  1  -0.00628985  0.49850914  0.33342451  1
  Te  Te167  1  -0.00065005  0.50748271  0.67361439  1
  Te  Te168  1  -0.00210614  0.83273847  -0.00060759  1
  Te  Te169  1  0.00146198  0.83641506  0.33652528  1
  Te  Te170  1  -0.00213630  0.83007280  0.66685112  1
  Te  Te171  1  0.33606667  0.17030270  -0.00343810  1
  Te  Te172  1  0.33330795  0.17160427  0.33425315  1
  Te  Te173  1  0.33448911  0.16511695  0.66797355  1
  Te  Te174  1  0.33951425  0.49576304  0.00065433  1
  Te  Te175  1  0.33726031  0.49630278  0.33262560  1
  Te  Te176  1  0.33457506  0.50329020  0.66640478  1
  Te  Te177  1  0.33578397  0.83277149  -0.00406262  1
  Te  Te178  1  0.33349590  0.83355205  0.33491073  1
  Te  Te179  1  0.33568296  0.83559841  0.66607038  1
  Te  Te180  1  0.66813572  0.16674923  -0.00684560  1
  Te  Te181  1  0.67228274  0.16663608  0.33454566  1
  Te  Te182  1  0.66840828  0.16674963  0.67197534  1
  Te  Te183  1  0.66750972  0.50025408  -0.00440304  1
  Te  Te184  1  0.66741034  0.50309901  0.33485057  1
  Te  Te185  1  0.66666437  0.50116285  0.66782080  1
  Te  Te186  1  0.67307368  0.83154532  -0.00625326  1
  Te  Te187  1  0.66482951  0.82866472  0.33512000  1
  Te  Te188  1  0.66060232  0.83167588  0.66748709  1
  Te  Te189  1  -0.00080088  -0.00400568  0.16582646  1
  Te  Te190  1  0.00479830  -0.00535374  0.49985826  1
  Te  Te191  1  -0.00018817  -0.00310310  0.83540517  1
  Te  Te192  1  0.00222639  0.33245669  0.16771507  1
  Te  Te193  1  0.00204662  0.33342700  0.50187530  1
  Te  Te194  1  0.00659783  0.33597639  0.83270013  1
  Te  Te195  1  0.00061107  0.67304242  0.16412454  1
  Te  Te196  1  0.00489700  0.67174937  0.49981369  1
  Te  Te197  1  0.00127275  0.66835577  0.83565685  1
  Te  Te198  1  0.32918631  -0.00566506  0.16610320  1
  Te  Te199  1  0.33231494  0.00002220  0.49968149  1
  Te  Te200  1  0.33305133  -0.00014795  0.83051025  1
  Te  Te201  1  0.33659148  0.33243303  0.16766161  1
  Te  Te202  1  0.33203511  0.33448045  0.50271608  1
  Te  Te203  1  0.33238992  0.33300828  0.83172240  1
  Te  Te204  1  0.32893325  0.67507480  0.16628065  1
  Te  Te205  1  0.32695496  0.67066783  0.50402424  1
  Te  Te206  1  0.32709722  0.67075125  0.82950890  1
  Te  Te207  1  0.67462867  -0.00069558  0.16666806  1
  Te  Te208  1  0.66346067  -0.00601058  0.50022418  1
  Te  Te209  1  0.66694164  -0.00176090  0.83291307  1
  Te  Te210  1  0.65658711  0.33299156  0.16875322  1
  Te  Te211  1  0.67263643  0.33580644  0.50183146  1
  Te  Te212  1  0.66270614  0.33508863  0.83189188  1
  Te  Te213  1  0.67120770  0.66685342  0.17272829  1
  Te  Te214  1  0.66742162  0.66728048  0.49766451  1
  Te  Te215  1  0.66794351  0.66647369  0.83225299  1
