# generated using pymatgen
data_AgSbTe2
_symmetry_space_group_name_H-M   'P 1'
_cell_length_a   18.33460983
_cell_length_b   18.33097222
_cell_length_c   18.33478363
_cell_angle_alpha   89.99941714
_cell_angle_beta   90.00128880
_cell_angle_gamma   89.99735910
_symmetry_Int_Tables_number   1
_chemical_formula_structural   AgSbTe2
_chemical_formula_sum   'Ag54 Sb54 Te108'
_cell_volume   6162.15985492
_cell_formula_units_Z   54
loop_
 _symmetry_equiv_pos_site_id
 _symmetry_equiv_pos_as_xyz
  1  'x, y, z'
loop_
 _atom_site_type_symbol
 _atom_site_label
 _atom_site_symmetry_multiplicity
 _atom_site_fract_x
 _atom_site_fract_y
 _atom_site_fract_z
 _atom_site_occupancy
  Ag  Ag0  1  0.66545942  0.83182472  0.50212944  1
  Ag  Ag1  1  0.00149565  0.84172895  0.50163397  1
  Ag  Ag2  1  0.67718575  0.16825060  0.16206812  1
  Ag  Ag3  1  0.82950427  0.17150694  0.66737583  1
  Ag  Ag4  1  0.16589159  0.66860956  0.51250298  1
  Ag  Ag5  1  -0.00053099  0.00228682  0.66842205  1
  Ag  Ag6  1  0.33079929  0.48814226  0.15487634  1
  Ag  Ag7  1  0.66734463  0.65770337  0.67006693  1
  Ag  Ag8  1  -0.01057355  0.16468963  0.16906786  1
  Ag  Ag9  1  0.50123743  0.00475159  0.50209541  1
  Ag  Ag10  1  0.33431762  0.65684736  -0.00318186  1
  Ag  Ag11  1  0.66305048  0.32585714  0.00055691  1
  Ag  Ag12  1  -0.00613862  0.00059458  0.00105904  1
  Ag  Ag13  1  0.50985988  0.32456503  0.50908295  1
  Ag  Ag14  1  0.16678225  0.82780953  0.66542880  1
  Ag  Ag15  1  -0.00463837  0.16312399  0.49138868  1
  Ag  Ag16  1  0.00892570  0.49972105  0.83428721  1
  Ag  Ag17  1  0.17055910  0.65874476  0.83271080  1
  Ag  Ag18  1  0.83302531  0.49080269  0.66582151  1
  Ag  Ag19  1  0.33417619  0.16787756  0.16003564  1
  Ag  Ag20  1  0.83797352  0.01404100  0.16166564  1
  Ag  Ag21  1  -0.00118645  0.66925517  -0.00067529  1
  Ag  Ag22  1  0.83327155  0.66170397  0.16229699  1
  Ag  Ag23  1  0.83456502  0.32540040  0.17669490  1
  Ag  Ag24  1  0.83329889  0.48600167  0.33381261  1
  Ag  Ag25  1  0.50050104  0.84723685  -0.00217758  1
  Ag  Ag26  1  0.50434938  0.16914158  0.67507807  1
  Ag  Ag27  1  0.16274442  0.00721771  0.16003613  1
  Ag  Ag28  1  0.49589259  0.32638434  0.83008976  1
  Ag  Ag29  1  0.49822305  0.00951799  0.83804703  1
  Ag  Ag30  1  0.33313129  0.83516028  0.50169765  1
  Ag  Ag31  1  -0.01238872  0.32544140  0.33172535  1
  Ag  Ag32  1  0.66931969  0.49223237  0.50430902  1
  Ag  Ag33  1  0.50341374  0.16420797  -0.00369720  1
  Ag  Ag34  1  0.33869027  0.33541480  -0.00387166  1
  Ag  Ag35  1  0.00055065  0.00776531  0.33013550  1
  Ag  Ag36  1  0.33096834  0.00208561  0.32967445  1
  Ag  Ag37  1  0.66586762  0.00828779  0.00124831  1
  Ag  Ag38  1  0.49368864  0.66508160  0.83600483  1
  Ag  Ag39  1  0.66396072  0.33393801  0.66174352  1
  Ag  Ag40  1  0.16339541  0.50179935  0.67658766  1
  Ag  Ag41  1  0.34225087  0.33254343  0.67815782  1
  Ag  Ag42  1  0.33760385  0.17133400  0.84039041  1
  Ag  Ag43  1  0.32945305  0.49362691  0.83725871  1
  Ag  Ag44  1  0.67506869  0.33224649  0.34044212  1
  Ag  Ag45  1  0.16998999  0.50151697  -0.00544905  1
  Ag  Ag46  1  0.50083385  0.00530523  0.15512970  1
  Ag  Ag47  1  0.83617330  0.17197197  0.32114409  1
  Ag  Ag48  1  0.83772866  0.00539126  0.84308234  1
  Ag  Ag49  1  0.66571453  0.66545259  -0.00358358  1
  Ag  Ag50  1  0.16496140  0.32551185  0.16504312  1
  Ag  Ag51  1  0.82652141  0.16495069  0.00776224  1
  Ag  Ag52  1  0.16523134  -0.00179398  0.83710743  1
  Ag  Ag53  1  0.82740426  0.33179573  0.48875296  1
  Sb  Sb54  1  0.16183463  0.49824296  0.33165279  1
  Sb  Sb55  1  -0.00344039  0.32968111  0.66344453  1
  Sb  Sb56  1  0.33317822  0.83874862  0.16688628  1
  Sb  Sb57  1  0.83265899  0.00836354  0.49840846  1
  Sb  Sb58  1  0.00235417  0.16711517  0.83661533  1
  Sb  Sb59  1  0.82763675  0.32760569  0.83433063  1
  Sb  Sb60  1  -0.00410595  0.49789014  0.50363825  1
  Sb  Sb61  1  0.49709374  0.83910756  0.67007465  1
  Sb  Sb62  1  0.50480177  0.49519964  0.33374707  1
  Sb  Sb63  1  0.16703769  0.16867048  0.66913326  1
  Sb  Sb64  1  0.16594181  -0.00341933  0.50150069  1
  Sb  Sb65  1  0.33250430  0.16410886  0.49923627  1
  Sb  Sb66  1  0.66747239  0.83903403  0.16722855  1
  Sb  Sb67  1  -0.00005196  0.84339980  0.16868106  1
  Sb  Sb68  1  0.66514898  0.49881659  0.83073095  1
  Sb  Sb69  1  0.50558557  0.16609478  0.33080878  1
  Sb  Sb70  1  0.33639121  0.50176061  0.50371918  1
  Sb  Sb71  1  0.66547691  0.49330432  0.16666484  1
  Sb  Sb72  1  0.33561948  0.00433129  0.00221879  1
  Sb  Sb73  1  -0.00200316  0.66688415  0.32954773  1
  Sb  Sb74  1  0.66910745  0.66074870  0.33317662  1
  Sb  Sb75  1  0.82934354  0.84100086  0.00088650  1
  Sb  Sb76  1  0.49889913  0.66887835  0.50844836  1
  Sb  Sb77  1  0.50049954  0.83713859  0.33211368  1
  Sb  Sb78  1  0.49503639  0.49452552  -0.00235784  1
  Sb  Sb79  1  0.66910973  0.00452248  0.67067058  1
  Sb  Sb80  1  -0.00054560  0.66870946  0.67047562  1
  Sb  Sb81  1  -0.00099744  0.32972111  0.00376602  1
  Sb  Sb82  1  0.33364010  0.83459487  0.83158608  1
  Sb  Sb83  1  0.83464362  0.66756596  0.83679026  1
  Sb  Sb84  1  0.67072501  0.16992323  0.49800809  1
  Sb  Sb85  1  0.33126606  0.00468214  0.66615378  1
  Sb  Sb86  1  0.83388308  0.83987136  0.33408554  1
  Sb  Sb87  1  0.16358273  0.66619277  0.15998507  1
  Sb  Sb88  1  0.83644056  0.49515944  -0.00107932  1
  Sb  Sb89  1  0.16609476  0.83623191  0.33965298  1
  Sb  Sb90  1  0.00158783  0.83453400  0.83118223  1
  Sb  Sb91  1  0.17090016  0.83174624  -0.00572172  1
  Sb  Sb92  1  0.33481265  0.66175727  0.67389748  1
  Sb  Sb93  1  0.50248454  0.67069392  0.15502698  1
  Sb  Sb94  1  0.16524650  0.33699063  0.49807177  1
  Sb  Sb95  1  0.66523608  0.83363283  0.83179409  1
  Sb  Sb96  1  0.15820406  0.16606681  0.32950408  1
  Sb  Sb97  1  0.66039862  0.16698889  0.84060617  1
  Sb  Sb98  1  0.33221177  0.66916397  0.32922308  1
  Sb  Sb99  1  0.00165799  0.49333650  0.16232730  1
  Sb  Sb100  1  0.83514706  0.83481247  0.66452206  1
  Sb  Sb101  1  0.66873398  0.00675313  0.32931315  1
  Sb  Sb102  1  0.50183245  0.49087261  0.66897955  1
  Sb  Sb103  1  0.83552115  0.66108472  0.49868887  1
  Sb  Sb104  1  0.16842310  0.16949841  0.00150262  1
  Sb  Sb105  1  0.33615561  0.32750342  0.32930745  1
  Sb  Sb106  1  0.17311376  0.33545076  0.83832954  1
  Sb  Sb107  1  0.50131176  0.32602418  0.16192133  1
  Te  Te108  1  0.17393595  0.16595032  0.16557793  1
  Te  Te109  1  0.15821546  0.16751403  0.50079687  1
  Te  Te110  1  0.17398827  0.16045595  0.83407336  1
  Te  Te111  1  0.17052245  0.49928663  0.16393372  1
  Te  Te112  1  0.16613623  0.50598881  0.50160592  1
  Te  Te113  1  0.16914756  0.49841395  0.83419386  1
  Te  Te114  1  0.16700661  0.84011407  0.16648692  1
  Te  Te115  1  0.16576837  0.83076233  0.50536225  1
  Te  Te116  1  0.16719524  0.83740337  0.82679361  1
  Te  Te117  1  0.49324071  0.16298578  0.16484220  1
  Te  Te118  1  0.50036708  0.16597105  0.50008649  1
  Te  Te119  1  0.49731670  0.16640375  0.83379973  1
  Te  Te120  1  0.49227042  0.50127768  0.16771805  1
  Te  Te121  1  0.50621200  0.49801911  0.50126257  1
  Te  Te122  1  0.49386360  0.50513173  0.83222800  1
  Te  Te123  1  0.50087585  0.84236143  0.16102364  1
  Te  Te124  1  0.49922064  0.83676111  0.50160670  1
  Te  Te125  1  0.49939729  0.83178088  0.83747474  1
  Te  Te126  1  0.83339107  0.16921721  0.16362726  1
  Te  Te127  1  0.83648202  0.17175155  0.50815326  1
  Te  Te128  1  0.83580284  0.16238615  0.82667063  1
  Te  Te129  1  0.83317096  0.49811068  0.16712355  1
  Te  Te130  1  0.83050687  0.49555652  0.50295968  1
  Te  Te131  1  0.83735181  0.49937951  0.82903344  1
  Te  Te132  1  0.83324236  0.82370803  0.16795035  1
  Te  Te133  1  0.83310900  0.83175610  0.49940830  1
  Te  Te134  1  0.83341378  0.84488742  0.83237174  1
  Te  Te135  1  0.16672931  -0.00117231  -0.00050514  1
  Te  Te136  1  0.16515993  0.00021205  0.32963605  1
  Te  Te137  1  0.16277936  0.00028466  0.66966205  1
  Te  Te138  1  0.16848359  0.33779745  0.00521700  1
  Te  Te139  1  0.16471926  0.33436252  0.32633495  1
  Te  Te140  1  0.16739386  0.33888341  0.66532265  1
  Te  Te141  1  0.16573227  0.66448292  -0.00440151  1
  Te  Te142  1  0.16592225  0.66730124  0.33550496  1
  Te  Te143  1  0.16714526  0.66468516  0.67144964  1
  Te  Te144  1  0.49887977  0.00316355  -0.00160419  1
  Te  Te145  1  0.49891573  0.00005706  0.33963016  1
  Te  Te146  1  0.50039506  0.00636896  0.66756204  1
  Te  Te147  1  0.50067944  0.32851921  -0.00311542  1
  Te  Te148  1  0.50511583  0.33251884  0.34148767  1
  Te  Te149  1  0.50139364  0.32997272  0.66815727  1
  Te  Te150  1  0.50185523  0.66304944  -0.00446178  1
  Te  Te151  1  0.49961331  0.66703314  0.33213236  1
  Te  Te152  1  0.50499267  0.66943388  0.67360780  1
  Te  Te153  1  0.83157341  0.00229478  0.00200518  1
  Te  Te154  1  0.83685826  0.00662532  0.32776090  1
  Te  Te155  1  0.83705345  0.00307496  0.66647711  1
  Te  Te156  1  0.82992833  0.32750973  0.00127581  1
  Te  Te157  1  0.83183204  0.33073248  0.33309483  1
  Te  Te158  1  0.83023888  0.33330874  0.66981737  1
  Te  Te159  1  0.83333477  0.66630444  0.00046435  1
  Te  Te160  1  0.83366775  0.66527578  0.32738663  1
  Te  Te161  1  0.82835241  0.66447945  0.66781797  1
  Te  Te162  1  -0.00241494  0.16244189  0.00400084  1
  Te  Te163  1  -0.00319893  0.16551495  0.33139374  1
  Te  Te164  1  -0.00081933  0.16291584  0.66868333  1
  Te  Te165  1  0.00412373  0.50164414  -0.00362608  1
  Te  Te166  1  -0.00660163  0.49785592  0.33317754  1
  Te  Te167  1  -0.00063854  0.50035834  0.67025899  1
  Te  Te168  1  0.00085898  0.83474909  0.00026318  1
  Te  Te169  1  -0.00051894  0.83858145  0.34052538  1
  Te  Te170  1  0.00311678  0.83677329  0.66252621  1
  Te  Te171  1  0.33466101  0.17000223  -0.00039491  1
  Te  Te172  1  0.33382870  0.16119885  0.33118651  1
  Te  Te173  1  0.33640593  0.17279284  0.66608066  1
  Te  Te174  1  0.33174108  0.49744762  -0.00231786  1
  Te  Te175  1  0.33261787  0.49972239  0.33084601  1
  Te  Te176  1  0.32924536  0.49478196  0.67000733  1
  Te  Te177  1  0.33877045  0.82570923  -0.00026790  1
  Te  Te178  1  0.33351767  0.83912380  0.33912666  1
  Te  Te179  1  0.32883351  0.83223640  0.66172154  1
  Te  Te180  1  0.66554742  0.16547066  0.00202292  1
  Te  Te181  1  0.67297501  0.17172970  0.32628443  1
  Te  Te182  1  0.66597234  0.17109209  0.66502129  1
  Te  Te183  1  0.66805039  0.50386014  -0.00080437  1
  Te  Te184  1  0.67257226  0.49372142  0.33610915  1
  Te  Te185  1  0.66876583  0.49757255  0.66486973  1
  Te  Te186  1  0.66162152  0.82834702  -0.00008814  1
  Te  Te187  1  0.66707624  0.83292883  0.34171995  1
  Te  Te188  1  0.66651844  0.83248577  0.66180680  1
  Te  Te189  1  -0.00068637  0.00326598  0.16480517  1
  Te  Te190  1  -0.00072948  0.00139686  0.49992147  1
  Te  Te191  1  0.00151246  0.00112601  0.83555106  1
  Te  Te192  1  -0.00078093  0.32838817  0.16902060  1
  Te  Te193  1  -0.00273320  0.32962053  0.49517040  1
  Te  Te194  1  0.00138547  0.33794170  0.83378926  1
  Te  Te195  1  -0.00274851  0.66697069  0.16084879  1
  Te  Te196  1  0.00405833  0.67010803  0.49928902  1
  Te  Te197  1  0.00314424  0.66478702  0.83813238  1
  Te  Te198  1  0.33356301  0.00228095  0.16880076  1
  Te  Te199  1  0.33480722  -0.00274172  0.49764749  1
  Te  Te200  1  0.33493079  0.00338252  0.83346586  1
  Te  Te201  1  0.33367294  0.33086867  0.16506564  1
  Te  Te202  1  0.33503545  0.33350751  0.49908976  1
  Te  Te203  1  0.33487762  0.33320860  0.83524907  1
  Te  Te204  1  0.33307223  0.66629258  0.16073498  1
  Te  Te205  1  0.33002353  0.67110357  0.49932230  1
  Te  Te206  1  0.33163923  0.66719483  0.83679458  1
  Te  Te207  1  0.66689053  0.00334873  0.16345164  1
  Te  Te208  1  0.66372234  -0.00198806  0.50020457  1
  Te  Te209  1  0.66297202  -0.00040843  0.83879026  1
  Te  Te210  1  0.66771708  0.33051775  0.16054793  1
  Te  Te211  1  0.66783323  0.33194156  0.50209575  1
  Te  Te212  1  0.65902905  0.33433933  0.83672088  1
  Te  Te213  1  0.66980147  0.66636438  0.16354569  1
  Te  Te214  1  0.66678788  0.66582653  0.50217661  1
  Te  Te215  1  0.66693614  0.66647861  0.83355496  1
