# generated using pymatgen
data_AgSbTe2
_symmetry_space_group_name_H-M   'P 1'
_cell_length_a   18.33599684
_cell_length_b   18.33529544
_cell_length_c   18.33863319
_cell_angle_alpha   90.00225285
_cell_angle_beta   90.00042278
_cell_angle_gamma   90.00426792
_symmetry_Int_Tables_number   1
_chemical_formula_structural   AgSbTe2
_chemical_formula_sum   'Ag54 Sb54 Te108'
_cell_volume   6165.37362127
_cell_formula_units_Z   54
loop_
 _symmetry_equiv_pos_site_id
 _symmetry_equiv_pos_as_xyz
  1  'x, y, z'
loop_
 _atom_site_type_symbol
 _atom_site_label
 _atom_site_symmetry_multiplicity
 _atom_site_fract_x
 _atom_site_fract_y
 _atom_site_fract_z
 _atom_site_occupancy
  Ag  Ag0  1  0.84056977  0.16269841  0.33176783  1
  Ag  Ag1  1  0.49764854  0.15752518  -0.00034721  1
  Ag  Ag2  1  0.33670117  0.49976342  0.50929293  1
  Ag  Ag3  1  0.66605662  -0.00166446  0.67277324  1
  Ag  Ag4  1  0.00174319  0.66628749  0.67246278  1
  Ag  Ag5  1  0.65555505  0.83737741  0.15887997  1
  Ag  Ag6  1  0.32963018  0.67094885  -0.00721792  1
  Ag  Ag7  1  0.49206008  0.66047875  0.83033571  1
  Ag  Ag8  1  0.83367950  0.83894284  0.66967420  1
  Ag  Ag9  1  0.50041090  0.49936538  -0.01379849  1
  Ag  Ag10  1  0.65703423  0.83797805  0.83165167  1
  Ag  Ag11  1  -0.00342391  -0.00467126  0.66912794  1
  Ag  Ag12  1  0.00295092  0.50187288  0.50791766  1
  Ag  Ag13  1  0.49889347  0.83188343  0.67149042  1
  Ag  Ag14  1  0.00545173  0.00249824  0.32930079  1
  Ag  Ag15  1  0.34176684  0.50745382  0.83061951  1
  Ag  Ag16  1  0.34013119  -0.00563635  0.00768012  1
  Ag  Ag17  1  0.49972859  0.00067133  0.50433240  1
  Ag  Ag18  1  0.49994042  0.50140809  0.67328360  1
  Ag  Ag19  1  0.49362529  0.34591931  0.82785026  1
  Ag  Ag20  1  0.16860239  0.83556545  0.66782429  1
  Ag  Ag21  1  0.49528070  0.33824799  0.51183410  1
  Ag  Ag22  1  0.00761940  0.33058991  0.33312280  1
  Ag  Ag23  1  0.65310427  0.50404036  0.83134321  1
  Ag  Ag24  1  0.49570094  0.66093191  0.51230874  1
  Ag  Ag25  1  0.16762027  0.67530085  0.16263153  1
  Ag  Ag26  1  0.00094125  -0.00058096  -0.00290677  1
  Ag  Ag27  1  0.00560135  0.16035201  0.16620919  1
  Ag  Ag28  1  0.83357788  -0.00012868  0.51006315  1
  Ag  Ag29  1  0.00743644  0.66470173  -0.00589368  1
  Ag  Ag30  1  0.50178142  -0.00268222  0.83274037  1
  Ag  Ag31  1  0.49374822  0.16225007  0.32907023  1
  Ag  Ag32  1  0.82989528  -0.00316057  0.82914997  1
  Ag  Ag33  1  0.83560511  0.50326607  -0.01314977  1
  Ag  Ag34  1  0.32822679  0.67268522  0.32828501  1
  Ag  Ag35  1  0.33412254  0.84318064  0.16160448  1
  Ag  Ag36  1  0.33703960  0.33577091  0.66769964  1
  Ag  Ag37  1  0.00092363  0.50063906  0.83269517  1
  Ag  Ag38  1  0.48829842  -0.00003828  0.15630983  1
  Ag  Ag39  1  0.00256112  0.16244876  0.83550393  1
  Ag  Ag40  1  0.16516816  0.15970620  0.67254607  1
  Ag  Ag41  1  0.65532344  0.33370657  0.67017436  1
  Ag  Ag42  1  0.65492909  -0.00191335  -0.00856214  1
  Ag  Ag43  1  0.33017337  0.15509252  0.16782792  1
  Ag  Ag44  1  0.17229215  0.66418390  0.83612123  1
  Ag  Ag45  1  0.17162926  0.34287182  0.82949210  1
  Ag  Ag46  1  0.00795870  0.66549855  0.33192715  1
  Ag  Ag47  1  0.33201618  -0.00082402  0.32224292  1
  Ag  Ag48  1  0.33853133  0.82759141  0.83485013  1
  Ag  Ag49  1  0.83460155  0.50386573  0.67087687  1
  Ag  Ag50  1  0.17644313  -0.00576359  0.16801407  1
  Ag  Ag51  1  0.00065728  0.50284342  0.16345314  1
  Ag  Ag52  1  0.16983980  0.83336963  0.33011945  1
  Ag  Ag53  1  0.33083063  0.33252836  0.33741497  1
  Sb  Sb54  1  0.83570860  0.66786161  0.83225208  1
  Sb  Sb55  1  0.33538784  0.82818976  0.50105089  1
  Sb  Sb56  1  0.66133588  0.67239894  -0.00440420  1
  Sb  Sb57  1  0.83310494  0.33371380  0.83059887  1
  Sb  Sb58  1  0.33488334  0.33416361  -0.00310903  1
  Sb  Sb59  1  0.16665762  0.33210659  0.16385103  1
  Sb  Sb60  1  0.67004406  0.50601265  0.15520047  1
  Sb  Sb61  1  0.16888778  0.50279233  0.67062536  1
  Sb  Sb62  1  0.84036282  0.49711604  0.33754416  1
  Sb  Sb63  1  0.84424307  0.66833907  0.16540704  1
  Sb  Sb64  1  0.66296142  0.33237946  0.33951255  1
  Sb  Sb65  1  0.66350035  0.49927619  0.51050307  1
  Sb  Sb66  1  0.66433451  -0.00078415  0.33389153  1
  Sb  Sb67  1  0.16819808  -0.00075272  0.49720886  1
  Sb  Sb68  1  0.00023146  0.16814724  0.49853264  1
  Sb  Sb69  1  0.66456973  0.16456421  0.50149761  1
  Sb  Sb70  1  0.83610278  0.33261363  0.16819792  1
  Sb  Sb71  1  0.16688430  0.50326475  -0.00289798  1
  Sb  Sb72  1  0.00688436  0.83519156  0.16705386  1
  Sb  Sb73  1  0.16949015  0.83289064  -0.00133394  1
  Sb  Sb74  1  0.83951570  0.83922524  0.33669584  1
  Sb  Sb75  1  0.17020170  0.16302654  -0.00258521  1
  Sb  Sb76  1  0.83544895  -0.00105327  0.16431638  1
  Sb  Sb77  1  0.16809365  0.16192343  0.33445276  1
  Sb  Sb78  1  0.66496508  0.67037512  0.66994823  1
  Sb  Sb79  1  0.83092124  0.33005669  0.50304243  1
  Sb  Sb80  1  0.49018023  0.67451180  0.16150927  1
  Sb  Sb81  1  0.66267772  0.33007486  -0.00803268  1
  Sb  Sb82  1  0.49735268  0.83621523  -0.00994271  1
  Sb  Sb83  1  0.83786808  0.16205407  0.66614527  1
  Sb  Sb84  1  0.49687230  0.32792649  0.16564521  1
  Sb  Sb85  1  0.33653939  0.16966938  0.49532761  1
  Sb  Sb86  1  0.83306052  0.83203617  -0.00594610  1
  Sb  Sb87  1  0.66258520  0.15923726  0.16606210  1
  Sb  Sb88  1  0.17039498  0.66609266  0.50164873  1
  Sb  Sb89  1  0.66449340  0.83492443  0.50540028  1
  Sb  Sb90  1  0.33060861  0.50221396  0.16322038  1
  Sb  Sb91  1  0.00053236  0.83029154  0.50301148  1
  Sb  Sb92  1  0.33229623  0.16576724  0.83728625  1
  Sb  Sb93  1  0.66821530  0.16183083  0.83239304  1
  Sb  Sb94  1  0.83198717  0.66931471  0.50322344  1
  Sb  Sb95  1  0.00239842  0.33572225  0.66505119  1
  Sb  Sb96  1  0.17177615  0.33420797  0.50395093  1
  Sb  Sb97  1  0.49625240  0.16741512  0.67027741  1
  Sb  Sb98  1  0.00386153  0.83268252  0.83102534  1
  Sb  Sb99  1  0.83255561  0.16610394  0.00192256  1
  Sb  Sb100  1  0.49643267  0.49688519  0.33668595  1
  Sb  Sb101  1  0.66192469  0.66834058  0.33113711  1
  Sb  Sb102  1  0.49296206  0.83881015  0.33691882  1
  Sb  Sb103  1  0.16798572  -0.00439760  0.83604678  1
  Sb  Sb104  1  0.16636705  0.50543290  0.33229329  1
  Sb  Sb105  1  -0.00021746  0.33581139  0.00089034  1
  Sb  Sb106  1  0.33479238  0.00148017  0.66836598  1
  Sb  Sb107  1  0.33159126  0.66404954  0.67060644  1
  Te  Te108  1  0.16644723  0.16455431  0.16644721  1
  Te  Te109  1  0.16724378  0.16699425  0.51121992  1
  Te  Te110  1  0.16254719  0.16531406  0.83135407  1
  Te  Te111  1  0.16019873  0.50187460  0.16477182  1
  Te  Te112  1  0.16553154  0.49933662  0.50081826  1
  Te  Te113  1  0.16174778  0.50231124  0.83350177  1
  Te  Te114  1  0.17171739  0.83426099  0.16955478  1
  Te  Te115  1  0.16784769  0.83328196  0.50629720  1
  Te  Te116  1  0.17291710  0.82817525  0.82902426  1
  Te  Te117  1  0.49666559  0.16252156  0.16602847  1
  Te  Te118  1  0.49993380  0.16321006  0.49504433  1
  Te  Te119  1  0.50031858  0.15734766  0.83796275  1
  Te  Te120  1  0.50283614  0.50060087  0.16418778  1
  Te  Te121  1  0.49746385  0.49933396  0.50346999  1
  Te  Te122  1  0.49761072  0.50102758  0.83022229  1
  Te  Te123  1  0.49567849  0.83902925  0.16959196  1
  Te  Te124  1  0.50050784  0.83539684  0.50755356  1
  Te  Te125  1  0.49856067  0.83821179  0.82983646  1
  Te  Te126  1  0.83978209  0.16638297  0.17030327  1
  Te  Te127  1  0.83336028  0.16060025  0.49413284  1
  Te  Te128  1  0.84101819  0.16230335  0.83449008  1
  Te  Te129  1  0.83893866  0.50055915  0.16507587  1
  Te  Te130  1  0.83564686  0.49992291  0.50658261  1
  Te  Te131  1  0.84187791  0.50061243  0.82986215  1
  Te  Te132  1  0.82637783  0.83310076  0.16724295  1
  Te  Te133  1  0.83183483  0.83964796  0.50754153  1
  Te  Te134  1  0.82794768  0.83578934  0.82826186  1
  Te  Te135  1  0.16015423  -0.00057831  0.00614399  1
  Te  Te136  1  0.16704261  -0.00327493  0.33078405  1
  Te  Te137  1  0.16456464  -0.00247850  0.66623547  1
  Te  Te138  1  0.16708667  0.33196464  -0.01009119  1
  Te  Te139  1  0.16805859  0.33162184  0.33341568  1
  Te  Te140  1  0.17034069  0.33243906  0.67115950  1
  Te  Te141  1  0.16778909  0.66764563  -0.00131670  1
  Te  Te142  1  0.16711432  0.67116988  0.33513194  1
  Te  Te143  1  0.16192663  0.67153026  0.66950059  1
  Te  Te144  1  0.49790124  -0.00158917  -0.00034076  1
  Te  Te145  1  0.49938740  0.00251150  0.33752286  1
  Te  Te146  1  0.50047347  0.00125703  0.66697500  1
  Te  Te147  1  0.49998951  0.33600344  -0.00553506  1
  Te  Te148  1  0.49595601  0.32763251  0.33389502  1
  Te  Te149  1  0.49830927  0.32991301  0.66845673  1
  Te  Te150  1  0.49476111  0.66152122  -0.00467326  1
  Te  Te151  1  0.49380524  0.66661037  0.33154421  1
  Te  Te152  1  0.49925924  0.66672606  0.66927202  1
  Te  Te153  1  0.84198723  -0.00002487  -0.00639040  1
  Te  Te154  1  0.83547696  0.00234546  0.33534839  1
  Te  Te155  1  0.83520036  0.00077307  0.66868945  1
  Te  Te156  1  0.83117723  0.34145783  -0.00030527  1
  Te  Te157  1  0.83583802  0.32665725  0.33608382  1
  Te  Te158  1  0.82906720  0.33840869  0.66566578  1
  Te  Te159  1  0.83942508  0.66211322  -0.00028349  1
  Te  Te160  1  0.83997745  0.66829904  0.33463731  1
  Te  Te161  1  0.83926820  0.66642108  0.66565801  1
  Te  Te162  1  -0.00086982  0.16566048  0.00071118  1
  Te  Te163  1  0.00219578  0.16436744  0.33218167  1
  Te  Te164  1  0.00318007  0.16592422  0.66916500  1
  Te  Te165  1  -0.00138091  0.50114814  -0.00029894  1
  Te  Te166  1  0.00067411  0.50234513  0.32946699  1
  Te  Te167  1  0.00084096  0.50067258  0.66715257  1
  Te  Te168  1  -0.00070440  0.83272407  -0.00059311  1
  Te  Te169  1  0.00596877  0.83441851  0.33507506  1
  Te  Te170  1  -0.00118172  0.83430941  0.66759537  1
  Te  Te171  1  0.33716970  0.16390848  0.00555732  1
  Te  Te172  1  0.33360924  0.16398842  0.32971507  1
  Te  Te173  1  0.32815284  0.17210329  0.66758229  1
  Te  Te174  1  0.33754905  0.50263911  -0.00435526  1
  Te  Te175  1  0.33287924  0.49687930  0.33345338  1
  Te  Te176  1  0.33567352  0.49759094  0.66878271  1
  Te  Te177  1  0.33311550  0.83253560  0.00023586  1
  Te  Te178  1  0.32933493  0.83375888  0.33455893  1
  Te  Te179  1  0.33515089  0.83409173  0.67033088  1
  Te  Te180  1  0.66224037  0.15893001  0.00074609  1
  Te  Te181  1  0.66711134  0.16779310  0.33165484  1
  Te  Te182  1  0.66846234  0.16407274  0.66726592  1
  Te  Te183  1  0.66735983  0.50124814  -0.00778994  1
  Te  Te184  1  0.67047500  0.50002894  0.33076362  1
  Te  Te185  1  0.66410014  0.50218827  0.67223426  1
  Te  Te186  1  0.66723007  0.83927783  -0.00238531  1
  Te  Te187  1  0.66840733  0.83214626  0.32855966  1
  Te  Te188  1  0.66458656  0.83653411  0.67108883  1
  Te  Te189  1  -0.00005573  0.00100154  0.16880011  1
  Te  Te190  1  -0.00067145  0.00048279  0.50201828  1
  Te  Te191  1  0.00261838  -0.00099189  0.83200274  1
  Te  Te192  1  0.00230362  0.33376846  0.17220041  1
  Te  Te193  1  -0.00038859  0.33936624  0.49414841  1
  Te  Te194  1  0.00194902  0.33406456  0.83263647  1
  Te  Te195  1  0.00747358  0.66751053  0.16771645  1
  Te  Te196  1  -0.00082905  0.66117058  0.49905189  1
  Te  Te197  1  0.00129329  0.66648183  0.83366711  1
  Te  Te198  1  0.33293736  -0.00094066  0.16613999  1
  Te  Te199  1  0.33771323  -0.00002543  0.49670414  1
  Te  Te200  1  0.33591399  -0.00212780  0.83680340  1
  Te  Te201  1  0.33168034  0.33289974  0.17313788  1
  Te  Te202  1  0.33697372  0.33708756  0.49853880  1
  Te  Te203  1  0.33325943  0.33295622  0.83175142  1
  Te  Te204  1  0.32620840  0.66650126  0.16857913  1
  Te  Te205  1  0.33724139  0.66093566  0.49573765  1
  Te  Te206  1  0.33262481  0.66633408  0.83287806  1
  Te  Te207  1  0.66612534  -0.00430958  0.16438730  1
  Te  Te208  1  0.66555844  -0.00063381  0.50525222  1
  Te  Te209  1  0.66766824  0.00031199  0.83290155  1
  Te  Te210  1  0.66689497  0.33476348  0.16696463  1
  Te  Te211  1  0.65809339  0.33367013  0.50779075  1
  Te  Te212  1  0.66371658  0.33584033  0.82853195  1
  Te  Te213  1  0.66571820  0.67512132  0.16483740  1
  Te  Te214  1  0.65614271  0.66664302  0.49786735  1
  Te  Te215  1  0.66110865  0.66707257  0.83373785  1
