# generated using pymatgen
data_AgSbTe2
_symmetry_space_group_name_H-M   'P 1'
_cell_length_a   18.32563057
_cell_length_b   18.32690959
_cell_length_c   18.32357747
_cell_angle_alpha   89.99830441
_cell_angle_beta   90.00112644
_cell_angle_gamma   89.99943411
_symmetry_Int_Tables_number   1
_chemical_formula_structural   AgSbTe2
_chemical_formula_sum   'Ag54 Sb54 Te108'
_cell_volume   6154.01333783
_cell_formula_units_Z   54
loop_
 _symmetry_equiv_pos_site_id
 _symmetry_equiv_pos_as_xyz
  1  'x, y, z'
loop_
 _atom_site_type_symbol
 _atom_site_label
 _atom_site_symmetry_multiplicity
 _atom_site_fract_x
 _atom_site_fract_y
 _atom_site_fract_z
 _atom_site_occupancy
  Ag  Ag0  1  0.16216530  0.33505907  0.50090145  1
  Ag  Ag1  1  0.33840862  0.83626856  0.16243403  1
  Ag  Ag2  1  0.50666461  0.33276792  0.17025537  1
  Ag  Ag3  1  0.00269102  0.65887645  0.66922362  1
  Ag  Ag4  1  0.33191532  0.33136398  0.65879335  1
  Ag  Ag5  1  -0.00659661  0.16317451  0.16771106  1
  Ag  Ag6  1  0.32808818  0.66730103  0.66422210  1
  Ag  Ag7  1  0.83006776  0.33531638  0.49657710  1
  Ag  Ag8  1  0.82855980  0.66031467  0.16651176  1
  Ag  Ag9  1  0.16967830  0.82799693  0.67175719  1
  Ag  Ag10  1  0.33469487  0.83985813  0.83743661  1
  Ag  Ag11  1  0.50956501  0.49035670  0.32808903  1
  Ag  Ag12  1  -0.00952814  0.00104467  0.32837522  1
  Ag  Ag13  1  0.66238190  0.17506832  0.17559425  1
  Ag  Ag14  1  0.82539159  0.49342754  0.33384315  1
  Ag  Ag15  1  0.67569653  0.33512356  0.65395940  1
  Ag  Ag16  1  -0.00292956  0.67004377  0.00026999  1
  Ag  Ag17  1  0.83368685  0.66121877  0.83851798  1
  Ag  Ag18  1  0.83749697  0.49694744  0.65700696  1
  Ag  Ag19  1  0.16596954  0.49646240  0.33920316  1
  Ag  Ag20  1  0.67182108  0.01425628  0.33457874  1
  Ag  Ag21  1  0.15900204  0.50008290  0.65994866  1
  Ag  Ag22  1  0.66573558  0.17198352  0.48797931  1
  Ag  Ag23  1  0.67303263  0.48823042  0.48921057  1
  Ag  Ag24  1  0.49175397  -0.00092886  0.83569270  1
  Ag  Ag25  1  0.33471940  0.65946456  0.33325752  1
  Ag  Ag26  1  0.82863162  0.83633435  0.33066866  1
  Ag  Ag27  1  0.51011043  0.17219301  0.32659248  1
  Ag  Ag28  1  0.34168857  0.33264295  0.33678625  1
  Ag  Ag29  1  -0.00546211  0.83606445  0.16545149  1
  Ag  Ag30  1  0.66329740  0.83516414  0.83707912  1
  Ag  Ag31  1  0.50644808  0.66153573  0.16650073  1
  Ag  Ag32  1  0.00104143  -0.00471519  0.00821820  1
  Ag  Ag33  1  0.83088864  0.33841533  0.82654206  1
  Ag  Ag34  1  0.66698824  0.49302906  0.17232610  1
  Ag  Ag35  1  0.33490170  0.15941402  0.83251174  1
  Ag  Ag36  1  0.83139814  0.00802286  0.49424391  1
  Ag  Ag37  1  -0.00796794  0.49648084  0.50101644  1
  Ag  Ag38  1  0.66675449  0.32768662  0.33448517  1
  Ag  Ag39  1  0.82594343  0.33883046  0.17887342  1
  Ag  Ag40  1  0.82395280  0.16844974  0.33224303  1
  Ag  Ag41  1  0.82969324  0.50104269  0.00611042  1
  Ag  Ag42  1  0.33208591  0.00161975  0.67155920  1
  Ag  Ag43  1  -0.00625480  0.33997756  0.66162124  1
  Ag  Ag44  1  0.16980120  0.83939107  -0.00293318  1
  Ag  Ag45  1  0.50710696  0.50119309  0.01033365  1
  Ag  Ag46  1  0.49512918  0.16447765  0.00835663  1
  Ag  Ag47  1  0.33820420  0.17117576  0.49568906  1
  Ag  Ag48  1  0.17260210  0.16088012  0.00152000  1
  Ag  Ag49  1  0.34416430  0.16539665  0.16919138  1
  Ag  Ag50  1  0.67016336  0.83629883  0.48879366  1
  Ag  Ag51  1  0.49622373  0.83488489  0.00227077  1
  Ag  Ag52  1  0.66769200  0.83177304  0.16928229  1
  Ag  Ag53  1  0.17421515  -0.00211283  0.83411249  1
  Sb  Sb54  1  0.83272892  0.17138963  0.00979836  1
  Sb  Sb55  1  0.50188938  0.49758104  0.66193788  1
  Sb  Sb56  1  0.50611598  0.83408702  0.32489634  1
  Sb  Sb57  1  0.00312815  0.16698116  0.83934064  1
  Sb  Sb58  1  0.00336655  -0.00050205  0.66535343  1
  Sb  Sb59  1  0.00164707  0.83216551  0.83930212  1
  Sb  Sb60  1  0.16483518  0.83066430  0.33116415  1
  Sb  Sb61  1  0.50310205  0.67098157  0.84041772  1
  Sb  Sb62  1  0.67168979  0.66654808  0.00377182  1
  Sb  Sb63  1  0.16345476  0.50045642  0.00102743  1
  Sb  Sb64  1  0.83351494  -0.00030547  0.17451272  1
  Sb  Sb65  1  0.16491147  0.00091445  0.16210960  1
  Sb  Sb66  1  0.66751259  0.33350919  0.00745211  1
  Sb  Sb67  1  0.16725216  0.17157562  0.32878343  1
  Sb  Sb68  1  0.83238299  0.65975032  0.49584282  1
  Sb  Sb69  1  0.50521081  0.00206528  0.50138061  1
  Sb  Sb70  1  0.66783821  0.66287976  0.66627389  1
  Sb  Sb71  1  0.66375790  0.00305226  0.66119692  1
  Sb  Sb72  1  0.50099586  0.00321104  0.16182725  1
  Sb  Sb73  1  0.33323997  0.49209483  0.49730362  1
  Sb  Sb74  1  0.16421782  0.67207036  0.83089469  1
  Sb  Sb75  1  0.33600175  0.00418466  0.33650877  1
  Sb  Sb76  1  0.49671581  0.83277174  0.67235461  1
  Sb  Sb77  1  0.83310633  -0.00077840  0.82894567  1
  Sb  Sb78  1  0.34287095  0.49954531  0.17147023  1
  Sb  Sb79  1  0.16699515  0.33241506  0.17325363  1
  Sb  Sb80  1  0.50334545  0.32992808  0.83961107  1
  Sb  Sb81  1  -0.00385762  0.50032671  0.82566997  1
  Sb  Sb82  1  0.16338954  0.00520264  0.50342418  1
  Sb  Sb83  1  -0.00403244  0.82997290  0.49626921  1
  Sb  Sb84  1  0.16493208  0.32920118  0.82618871  1
  Sb  Sb85  1  -0.01001330  0.49993458  0.17244623  1
  Sb  Sb86  1  0.33434487  0.32949823  0.00352005  1
  Sb  Sb87  1  0.66443496  0.66135039  0.33005225  1
  Sb  Sb88  1  0.49959781  0.66543544  0.49224079  1
  Sb  Sb89  1  0.33653732  0.83789326  0.50095807  1
  Sb  Sb90  1  0.16618342  0.66741877  0.16640149  1
  Sb  Sb91  1  0.83203783  0.17590146  0.65988044  1
  Sb  Sb92  1  0.67034343  0.50068191  0.83457772  1
  Sb  Sb93  1  0.32901413  0.00068832  -0.00536799  1
  Sb  Sb94  1  0.33112805  0.67071442  0.00128030  1
  Sb  Sb95  1  0.83613620  0.82612348  0.66336464  1
  Sb  Sb96  1  0.67064136  -0.00125365  0.00667365  1
  Sb  Sb97  1  0.83436840  0.82861140  0.00711471  1
  Sb  Sb98  1  0.16988853  0.16975248  0.66960474  1
  Sb  Sb99  1  0.49727930  0.16925057  0.66456940  1
  Sb  Sb100  1  -0.00314154  0.17187320  0.49399430  1
  Sb  Sb101  1  0.16648659  0.66036852  0.50159778  1
  Sb  Sb102  1  -0.00706396  0.33136566  0.33631112  1
  Sb  Sb103  1  0.00020038  0.66695795  0.33205101  1
  Sb  Sb104  1  0.66241325  0.16433828  0.83511285  1
  Sb  Sb105  1  0.33535728  0.49979869  0.82992703  1
  Sb  Sb106  1  -0.00325825  0.33475131  -0.00125698  1
  Sb  Sb107  1  0.50441871  0.33242745  0.49086316  1
  Te  Te108  1  0.16762577  0.16755866  0.16104989  1
  Te  Te109  1  0.16902955  0.17336626  0.50035045  1
  Te  Te110  1  0.17112587  0.16199780  0.83927629  1
  Te  Te111  1  0.16563694  0.49879322  0.17020068  1
  Te  Te112  1  0.16769511  0.49490590  0.50064126  1
  Te  Te113  1  0.16775639  0.49918422  0.82936082  1
  Te  Te114  1  0.16870016  0.83380644  0.16316850  1
  Te  Te115  1  0.16657682  0.83525401  0.50462885  1
  Te  Te116  1  0.16879663  0.83706534  0.83410666  1
  Te  Te117  1  0.50124070  0.16701377  0.16657642  1
  Te  Te118  1  0.50074382  0.16577942  0.49541872  1
  Te  Te119  1  0.49543903  0.16287819  0.83834862  1
  Te  Te120  1  0.50315095  0.49989469  0.16806949  1
  Te  Te121  1  0.51015509  0.50137387  0.49242865  1
  Te  Te122  1  0.50246679  0.50060261  0.84387482  1
  Te  Te123  1  0.49895135  0.83348524  0.16216608  1
  Te  Te124  1  0.50683821  0.83375383  0.49942227  1
  Te  Te125  1  0.49861753  0.83545610  0.83866984  1
  Te  Te126  1  0.83024331  0.17049932  0.17092070  1
  Te  Te127  1  0.83110769  0.16959672  0.49443657  1
  Te  Te128  1  0.83243801  0.17040890  0.83473425  1
  Te  Te129  1  0.82968696  0.49937145  0.16884869  1
  Te  Te130  1  0.83206644  0.49859426  0.49733301  1
  Te  Te131  1  0.83151432  0.50022928  0.83862403  1
  Te  Te132  1  0.83272119  0.83117805  0.16964426  1
  Te  Te133  1  0.83043763  0.83213685  0.49537270  1
  Te  Te134  1  0.82922146  0.83065226  0.83301160  1
  Te  Te135  1  0.16175745  -0.00085668  -0.00331468  1
  Te  Te136  1  0.16128343  -0.00079066  0.33573635  1
  Te  Te137  1  0.16989897  -0.00304949  0.67065743  1
  Te  Te138  1  0.16547394  0.32998390  -0.00148815  1
  Te  Te139  1  0.17036463  0.33715174  0.33947145  1
  Te  Te140  1  0.16947546  0.33666150  0.66272147  1
  Te  Te141  1  0.15938475  0.67008473  -0.00155169  1
  Te  Te142  1  0.17344439  0.66169023  0.33424922  1
  Te  Te143  1  0.16616367  0.66478289  0.66697477  1
  Te  Te144  1  0.50358262  -0.00127346  -0.00458346  1
  Te  Te145  1  0.50538178  0.00613351  0.33451723  1
  Te  Te146  1  0.49464279  0.00059313  0.67310505  1
  Te  Te147  1  0.50062024  0.33371233  0.00694687  1
  Te  Te148  1  0.50080151  0.33216198  0.32942820  1
  Te  Te149  1  0.49248677  0.33522670  0.67141544  1
  Te  Te150  1  0.49832675  0.66782727  0.00669606  1
  Te  Te151  1  0.49269109  0.66580521  0.32564793  1
  Te  Te152  1  0.49355311  0.66443820  0.66787543  1
  Te  Te153  1  0.84102292  0.00164913  -0.00353491  1
  Te  Te154  1  0.83163730  -0.00016853  0.33541393  1
  Te  Te155  1  0.83392743  -0.00066907  0.65856007  1
  Te  Te156  1  0.83340446  0.33938584  -0.00478857  1
  Te  Te157  1  0.83217843  0.33352477  0.33534067  1
  Te  Te158  1  0.83359249  0.33717910  0.66365627  1
  Te  Te159  1  0.83744431  0.66325920  0.00140941  1
  Te  Te160  1  0.83566962  0.66738333  0.32782346  1
  Te  Te161  1  0.83598681  0.65985880  0.66922436  1
  Te  Te162  1  0.00170124  0.16563305  0.00663208  1
  Te  Te163  1  -0.00017923  0.16237857  0.32734803  1
  Te  Te164  1  0.00060885  0.17008337  0.66690141  1
  Te  Te165  1  -0.00266369  0.50441336  0.00107191  1
  Te  Te166  1  0.00280150  0.50024835  0.33945940  1
  Te  Te167  1  -0.00087823  0.49957876  0.66338276  1
  Te  Te168  1  0.00101803  0.83358794  0.00464904  1
  Te  Te169  1  -0.00311438  0.83563427  0.32821587  1
  Te  Te170  1  0.00577461  0.82993538  0.66627091  1
  Te  Te171  1  0.33452380  0.16584777  0.00360741  1
  Te  Te172  1  0.33322370  0.16840102  0.33152462  1
  Te  Te173  1  0.33354271  0.16816485  0.66774180  1
  Te  Te174  1  0.33427532  0.50069462  -0.00038105  1
  Te  Te175  1  0.33195388  0.49856139  0.33434136  1
  Te  Te176  1  0.33328476  0.50042824  0.66440330  1
  Te  Te177  1  0.33188098  0.83433949  0.00055932  1
  Te  Te178  1  0.33410862  0.83433065  0.33053247  1
  Te  Te179  1  0.33029751  0.83254361  0.66658655  1
  Te  Te180  1  0.66094466  0.16523827  0.00432558  1
  Te  Te181  1  0.66765506  0.16903339  0.33221713  1
  Te  Te182  1  0.66474325  0.17299635  0.66379807  1
  Te  Te183  1  0.66713543  0.49995522  0.00501071  1
  Te  Te184  1  0.66767117  0.50038722  0.33213477  1
  Te  Te185  1  0.67003788  0.49544364  0.66544364  1
  Te  Te186  1  0.66377438  0.83402078  0.00192854  1
  Te  Te187  1  0.66958765  0.82812511  0.33105521  1
  Te  Te188  1  0.66636542  0.83325446  0.66875456  1
  Te  Te189  1  -0.00065022  -0.00092771  0.16744256  1
  Te  Te190  1  -0.00550157  0.00038539  0.49545715  1
  Te  Te191  1  0.00275087  0.00040534  0.83526485  1
  Te  Te192  1  -0.00363085  0.32897765  0.16693327  1
  Te  Te193  1  -0.00094030  0.33600370  0.50219715  1
  Te  Te194  1  -0.00587469  0.33242195  0.82595692  1
  Te  Te195  1  -0.00387358  0.66931560  0.16484877  1
  Te  Te196  1  -0.00020712  0.66086489  0.50549958  1
  Te  Te197  1  -0.00542289  0.66658021  0.83256947  1
  Te  Te198  1  0.33325410  -0.00080139  0.16936197  1
  Te  Te199  1  0.33277361  0.00697005  0.50669304  1
  Te  Te200  1  0.33263966  -0.00034510  0.83137302  1
  Te  Te201  1  0.33469780  0.32919223  0.17135214  1
  Te  Te202  1  0.33512295  0.32920328  0.49857057  1
  Te  Te203  1  0.33425105  0.32940001  0.83079546  1
  Te  Te204  1  0.33463395  0.67026694  0.16848609  1
  Te  Te205  1  0.33393651  0.66833720  0.50101224  1
  Te  Te206  1  0.33440804  0.67180502  0.82894155  1
  Te  Te207  1  0.66708704  -0.00572016  0.17308991  1
  Te  Te208  1  0.67107722  -0.00079721  0.49640016  1
  Te  Te209  1  0.66508906  -0.00410469  0.83144498  1
  Te  Te210  1  0.66727640  0.33386567  0.16978425  1
  Te  Te211  1  0.66781009  0.33227287  0.49736339  1
  Te  Te212  1  0.67093065  0.33200067  0.82768715  1
  Te  Te213  1  0.66736309  0.67077434  0.16638086  1
  Te  Te214  1  0.66546724  0.67609067  0.50144758  1
  Te  Te215  1  0.67210791  0.67333263  0.83283972  1
