# generated using pymatgen
data_AgSbTe2
_symmetry_space_group_name_H-M   'P 1'
_cell_length_a   18.32393594
_cell_length_b   18.32508804
_cell_length_c   18.32719783
_cell_angle_alpha   89.99811396
_cell_angle_beta   89.99931453
_cell_angle_gamma   90.00171622
_symmetry_Int_Tables_number   1
_chemical_formula_structural   AgSbTe2
_chemical_formula_sum   'Ag54 Sb54 Te108'
_cell_volume   6154.04831999
_cell_formula_units_Z   54
loop_
 _symmetry_equiv_pos_site_id
 _symmetry_equiv_pos_as_xyz
  1  'x, y, z'
loop_
 _atom_site_type_symbol
 _atom_site_label
 _atom_site_symmetry_multiplicity
 _atom_site_fract_x
 _atom_site_fract_y
 _atom_site_fract_z
 _atom_site_occupancy
  Ag  Ag0  1  0.83088786  0.66011659  0.16910706  1
  Ag  Ag1  1  0.34713045  0.66664907  0.33282829  1
  Ag  Ag2  1  0.33541134  0.82811675  0.16480997  1
  Ag  Ag3  1  0.66532415  0.15872438  0.83348576  1
  Ag  Ag4  1  0.50516519  0.82558099  0.32971750  1
  Ag  Ag5  1  0.67023318  0.67035824  0.66573021  1
  Ag  Ag6  1  0.67108722  0.67090653  0.00665383  1
  Ag  Ag7  1  -0.00462953  0.66444854  0.32828794  1
  Ag  Ag8  1  0.66597462  0.16400949  0.49567107  1
  Ag  Ag9  1  0.83271251  0.34211404  0.83675878  1
  Ag  Ag10  1  0.82875127  0.66535943  0.84018328  1
  Ag  Ag11  1  0.67364521  0.16830365  0.17074473  1
  Ag  Ag12  1  0.16546143  0.83177064  0.66647560  1
  Ag  Ag13  1  0.66274143  0.66218862  0.32985099  1
  Ag  Ag14  1  0.15970795  0.66830983  0.17409070  1
  Ag  Ag15  1  0.49891954  0.82939034  0.00220078  1
  Ag  Ag16  1  -0.00366431  0.66632132  0.66591444  1
  Ag  Ag17  1  0.50680836  0.51254009  0.33367914  1
  Ag  Ag18  1  0.00458610  0.16468360  0.49233234  1
  Ag  Ag19  1  0.83320941  0.34670355  0.16801983  1
  Ag  Ag20  1  0.66449666  0.82896325  0.49715647  1
  Ag  Ag21  1  0.33301252  0.16440020  0.17315555  1
  Ag  Ag22  1  -0.00921866  0.66552980  0.00895262  1
  Ag  Ag23  1  0.49840141  0.33853952  0.49731162  1
  Ag  Ag24  1  0.66860302  -0.00542163  -0.00507242  1
  Ag  Ag25  1  0.67289985  -0.00311937  0.67217274  1
  Ag  Ag26  1  -0.00154759  0.00702985  0.33660531  1
  Ag  Ag27  1  -0.00642026  0.50457669  0.83656890  1
  Ag  Ag28  1  0.32843251  0.33281701  0.66423360  1
  Ag  Ag29  1  0.50645731  0.67040463  0.83475300  1
  Ag  Ag30  1  0.50773767  0.66854383  0.17672190  1
  Ag  Ag31  1  0.82870081  0.50664183  0.32571105  1
  Ag  Ag32  1  0.67279954  0.33996960  0.33170571  1
  Ag  Ag33  1  0.50047760  0.66450174  0.48835638  1
  Ag  Ag34  1  0.50736504  -0.00640024  0.83342375  1
  Ag  Ag35  1  0.16125849  0.16566275  0.33460530  1
  Ag  Ag36  1  0.33839758  0.16575612  0.83053380  1
  Ag  Ag37  1  -0.00999876  0.50470420  0.16917614  1
  Ag  Ag38  1  0.33158368  0.17131892  0.49742595  1
  Ag  Ag39  1  0.16814462  0.67167889  0.49290127  1
  Ag  Ag40  1  0.33605609  0.49995791  0.50087484  1
  Ag  Ag41  1  0.33434537  0.50539524  0.82991233  1
  Ag  Ag42  1  0.82566479  -0.00237541  0.83661238  1
  Ag  Ag43  1  -0.00722694  0.17043797  0.17407833  1
  Ag  Ag44  1  -0.00734513  0.33054646  0.33358541  1
  Ag  Ag45  1  0.67745627  0.50715668  0.17101230  1
  Ag  Ag46  1  0.83189397  -0.00093986  0.16577494  1
  Ag  Ag47  1  -0.00481523  -0.00067097  0.66178746  1
  Ag  Ag48  1  0.16361666  -0.00293458  0.49978618  1
  Ag  Ag49  1  0.83390169  0.50586640  0.01296777  1
  Ag  Ag50  1  0.83010333  0.82440145  0.32993026  1
  Ag  Ag51  1  0.17310952  0.82989719  -0.00036613  1
  Ag  Ag52  1  0.00080379  0.33416897  0.66067322  1
  Ag  Ag53  1  0.33640127  0.82904867  0.83738730  1
  Sb  Sb54  1  0.50689426  0.33867248  0.17410749  1
  Sb  Sb55  1  0.67308804  -0.00193465  0.33204158  1
  Sb  Sb56  1  0.66439999  0.82802912  0.17105545  1
  Sb  Sb57  1  0.49932282  0.50267414  0.66131144  1
  Sb  Sb58  1  0.16885865  0.33212201  0.49854686  1
  Sb  Sb59  1  -0.00229200  0.83501748  0.49852674  1
  Sb  Sb60  1  -0.00698776  -0.00653356  0.00182388  1
  Sb  Sb61  1  0.16597446  0.66817154  0.83327842  1
  Sb  Sb62  1  -0.00259806  0.16970787  0.83257464  1
  Sb  Sb63  1  0.83604330  0.00028190  0.49758903  1
  Sb  Sb64  1  0.32921608  -0.00387998  0.33338419  1
  Sb  Sb65  1  0.16245788  0.33340804  0.83081295  1
  Sb  Sb66  1  0.83757528  0.16837340  0.32934737  1
  Sb  Sb67  1  0.00426462  0.49968366  0.49648310  1
  Sb  Sb68  1  0.33444220  0.33324321  -0.00424711  1
  Sb  Sb69  1  0.82911021  0.82608240  0.00430633  1
  Sb  Sb70  1  0.16562654  -0.00180531  0.82868494  1
  Sb  Sb71  1  0.49869446  0.83115357  0.66777127  1
  Sb  Sb72  1  0.33316323  0.00242629  0.66755454  1
  Sb  Sb73  1  0.16113486  -0.00453996  0.17196996  1
  Sb  Sb74  1  0.16620429  0.16190285  0.66005960  1
  Sb  Sb75  1  0.00180025  0.82734415  0.83235733  1
  Sb  Sb76  1  0.83363055  0.16572049  0.66837693  1
  Sb  Sb77  1  0.66230623  0.83516067  0.83163451  1
  Sb  Sb78  1  0.49983358  0.16628455  0.66597484  1
  Sb  Sb79  1  0.83285293  0.16871071  0.00227653  1
  Sb  Sb80  1  0.33589801  0.83077028  0.49855480  1
  Sb  Sb81  1  0.33514726  0.66833367  0.00386100  1
  Sb  Sb82  1  0.83078872  0.66706197  0.49236428  1
  Sb  Sb83  1  0.15990413  0.33593216  0.16986289  1
  Sb  Sb84  1  0.83409719  0.83183821  0.66455516  1
  Sb  Sb85  1  0.50342085  0.33505657  0.82751359  1
  Sb  Sb86  1  0.50571335  0.50973481  0.00472237  1
  Sb  Sb87  1  0.49982491  -0.00244837  0.50304809  1
  Sb  Sb88  1  -0.00404588  0.34020421  0.00299563  1
  Sb  Sb89  1  0.33376364  0.50384774  0.16812677  1
  Sb  Sb90  1  0.66948441  0.33338635  0.66145068  1
  Sb  Sb91  1  0.16682957  0.15828843  0.00602933  1
  Sb  Sb92  1  0.83101131  0.33279229  0.49530006  1
  Sb  Sb93  1  0.00075100  0.82684739  0.16793480  1
  Sb  Sb94  1  0.33352638  0.66462560  0.66333181  1
  Sb  Sb95  1  0.66968094  0.50294235  0.83838920  1
  Sb  Sb96  1  0.16488569  0.50145868  0.33381377  1
  Sb  Sb97  1  0.16595826  0.83091200  0.33343829  1
  Sb  Sb98  1  0.16644232  0.50577169  0.66560951  1
  Sb  Sb99  1  0.66133644  0.50219369  0.49151433  1
  Sb  Sb100  1  0.33521781  0.33640255  0.33694205  1
  Sb  Sb101  1  0.49906077  0.16479263  0.33326223  1
  Sb  Sb102  1  0.50575335  -0.00619320  0.16343179  1
  Sb  Sb103  1  0.33814805  -0.00334406  -0.00086932  1
  Sb  Sb104  1  0.50281820  0.16045196  0.00080576  1
  Sb  Sb105  1  0.16033688  0.50921149  0.00079393  1
  Sb  Sb106  1  0.83486304  0.50259852  0.66595919  1
  Sb  Sb107  1  0.66924260  0.33508273  0.00474870  1
  Te  Te108  1  0.16900776  0.16562961  0.17126617  1
  Te  Te109  1  0.16555512  0.16519305  0.49607972  1
  Te  Te110  1  0.17345031  0.16534777  0.83584879  1
  Te  Te111  1  0.16334754  0.50715002  0.16593431  1
  Te  Te112  1  0.17513461  0.50810044  0.50014937  1
  Te  Te113  1  0.16925560  0.49967202  0.83370609  1
  Te  Te114  1  0.17349919  0.82887170  0.16564350  1
  Te  Te115  1  0.16794790  0.83291650  0.50212334  1
  Te  Te116  1  0.17356542  0.83410407  0.83295867  1
  Te  Te117  1  0.49771093  0.16727553  0.16669781  1
  Te  Te118  1  0.49870556  0.16630209  0.49895870  1
  Te  Te119  1  0.50100106  0.16608250  0.83373002  1
  Te  Te120  1  0.50198720  0.50620758  0.17206240  1
  Te  Te121  1  0.49570766  0.50302995  0.49558453  1
  Te  Te122  1  0.49765116  0.50337494  0.83518700  1
  Te  Te123  1  0.49624644  0.82971865  0.16585267  1
  Te  Te124  1  0.50255977  0.82922227  0.49763098  1
  Te  Te125  1  0.49638440  0.83272990  0.83365215  1
  Te  Te126  1  0.83308502  0.16122633  0.16502431  1
  Te  Te127  1  0.83098098  0.16700305  0.50040732  1
  Te  Te128  1  0.83002749  0.16280087  0.83591304  1
  Te  Te129  1  0.83378014  0.50136897  0.16905237  1
  Te  Te130  1  0.83456419  0.49882321  0.49210715  1
  Te  Te131  1  0.83499419  0.50329131  0.83186521  1
  Te  Te132  1  0.83346656  0.83746859  0.16997596  1
  Te  Te133  1  0.82529147  0.83421516  0.49280548  1
  Te  Te134  1  0.83334834  0.83175476  0.83413795  1
  Te  Te135  1  0.16476544  -0.00980551  0.00035194  1
  Te  Te136  1  0.16123708  0.00240183  0.33860555  1
  Te  Te137  1  0.16183829  -0.00471853  0.66175682  1
  Te  Te138  1  0.16556692  0.33211840  0.00041754  1
  Te  Te139  1  0.15946297  0.32785503  0.33323544  1
  Te  Te140  1  0.16342900  0.33271625  0.66592668  1
  Te  Te141  1  0.16429679  0.67208195  0.00454392  1
  Te  Te142  1  0.15659702  0.66671470  0.33379977  1
  Te  Te143  1  0.16395980  0.67158752  0.66286176  1
  Te  Te144  1  0.50684012  -0.00668207  -0.00539320  1
  Te  Te145  1  0.49961896  -0.00895213  0.33326695  1
  Te  Te146  1  0.50665919  -0.00145109  0.67247561  1
  Te  Te147  1  0.50120845  0.33534918  0.00001996  1
  Te  Te148  1  0.50392354  0.33353648  0.33903167  1
  Te  Te149  1  0.49695425  0.33465355  0.65894367  1
  Te  Te150  1  0.50313782  0.67057631  -0.00561039  1
  Te  Te151  1  0.50279535  0.66849776  0.33252225  1
  Te  Te152  1  0.50482534  0.66721062  0.67425791  1
  Te  Te153  1  0.82837033  -0.00212424  -0.00080719  1
  Te  Te154  1  0.83910056  -0.00425920  0.33029101  1
  Te  Te155  1  0.83415827  -0.00129451  0.67060562  1
  Te  Te156  1  0.83274609  0.34101864  -0.00013614  1
  Te  Te157  1  0.83281377  0.33516316  0.32967676  1
  Te  Te158  1  0.83879572  0.33459346  0.67113885  1
  Te  Te159  1  0.83149432  0.66643904  0.00064333  1
  Te  Te160  1  0.83399223  0.66630620  0.33155702  1
  Te  Te161  1  0.83399419  0.66799099  0.67089829  1
  Te  Te162  1  0.00140837  0.16547475  0.00687265  1
  Te  Te163  1  -0.00036485  0.16689000  0.33373388  1
  Te  Te164  1  0.00083757  0.16626333  0.66431449  1
  Te  Te165  1  -0.00480192  0.50608828  -0.00127368  1
  Te  Te166  1  -0.00102757  0.50087488  0.33142276  1
  Te  Te167  1  0.00104962  0.50014130  0.66874143  1
  Te  Te168  1  0.00466053  0.82559374  0.00000172  1
  Te  Te169  1  -0.00345801  0.82938056  0.33360281  1
  Te  Te170  1  0.00319398  0.83403949  0.66564621  1
  Te  Te171  1  0.33381401  0.16541120  -0.00060843  1
  Te  Te172  1  0.33068572  0.16725776  0.33431344  1
  Te  Te173  1  0.33247155  0.17075352  0.66602583  1
  Te  Te174  1  0.33278577  0.49976076  -0.00724154  1
  Te  Te175  1  0.33509831  0.50430762  0.33614539  1
  Te  Te176  1  0.33292823  0.49494237  0.66793229  1
  Te  Te177  1  0.33594204  0.83288227  -0.00002392  1
  Te  Te178  1  0.33590401  0.82847005  0.33037404  1
  Te  Te179  1  0.32766390  0.83401193  0.67030737  1
  Te  Te180  1  0.66706898  0.16306884  -0.00129780  1
  Te  Te181  1  0.66628692  0.16672600  0.33326162  1
  Te  Te182  1  0.66680365  0.16449592  0.66757788  1
  Te  Te183  1  0.67234110  0.50443296  0.00671921  1
  Te  Te184  1  0.66637797  0.50035476  0.33129809  1
  Te  Te185  1  0.66695169  0.50657386  0.66557411  1
  Te  Te186  1  0.66244590  0.83167055  0.00084508  1
  Te  Te187  1  0.66693684  0.83257805  0.33634329  1
  Te  Te188  1  0.66693837  0.83167519  0.65978192  1
  Te  Te189  1  -0.00406228  0.00293633  0.16924549  1
  Te  Te190  1  0.00198160  0.00202138  0.50050816  1
  Te  Te191  1  -0.00501581  0.00132894  0.83100381  1
  Te  Te192  1  -0.00461827  0.33247514  0.16945888  1
  Te  Te193  1  0.00064793  0.33017327  0.49955948  1
  Te  Te194  1  -0.00533638  0.33670916  0.83235179  1
  Te  Te195  1  -0.00399163  0.66578384  0.16749599  1
  Te  Te196  1  0.00203162  0.66697046  0.50430904  1
  Te  Te197  1  -0.00032523  0.66350708  0.82754263  1
  Te  Te198  1  0.33305741  0.00299766  0.16644660  1
  Te  Te199  1  0.32921229  0.00612383  0.50117728  1
  Te  Te200  1  0.33659991  0.00280492  0.83225093  1
  Te  Te201  1  0.33346016  0.32897951  0.16640311  1
  Te  Te202  1  0.33531362  0.33278180  0.50197953  1
  Te  Te203  1  0.33448962  0.33090900  0.82829552  1
  Te  Te204  1  0.33489190  0.66713648  0.17056726  1
  Te  Te205  1  0.33531249  0.66598302  0.49766463  1
  Te  Te206  1  0.33367582  0.66639589  0.83234716  1
  Te  Te207  1  0.67001208  0.00533158  0.16452538  1
  Te  Te208  1  0.66681663  0.00409222  0.50359838  1
  Te  Te209  1  0.66689381  -0.00110402  0.83240324  1
  Te  Te210  1  0.67119724  0.32873355  0.17081272  1
  Te  Te211  1  0.66287760  0.32860887  0.49717047  1
  Te  Te212  1  0.67215732  0.32985275  0.83192239  1
  Te  Te213  1  0.66826279  0.66740720  0.16830595  1
  Te  Te214  1  0.66449321  0.66721394  0.49876052  1
  Te  Te215  1  0.66829601  0.66664282  0.83221614  1
