# generated using pymatgen
data_AgSbTe2
_symmetry_space_group_name_H-M   'P 1'
_cell_length_a   18.33814925
_cell_length_b   18.33355582
_cell_length_c   18.33657626
_cell_angle_alpha   89.99589053
_cell_angle_beta   90.00194305
_cell_angle_gamma   89.99839875
_symmetry_Int_Tables_number   1
_chemical_formula_structural   AgSbTe2
_chemical_formula_sum   'Ag54 Sb54 Te108'
_cell_volume   6164.82078573
_cell_formula_units_Z   54
loop_
 _symmetry_equiv_pos_site_id
 _symmetry_equiv_pos_as_xyz
  1  'x, y, z'
loop_
 _atom_site_type_symbol
 _atom_site_label
 _atom_site_symmetry_multiplicity
 _atom_site_fract_x
 _atom_site_fract_y
 _atom_site_fract_z
 _atom_site_occupancy
  Ag  Ag0  1  0.50367509  0.32624357  0.83114499  1
  Ag  Ag1  1  0.82800791  0.32966351  0.16841962  1
  Ag  Ag2  1  0.67159802  0.16991107  0.15915953  1
  Ag  Ag3  1  -0.00295457  0.32974949  0.66497616  1
  Ag  Ag4  1  0.00109725  0.33030912  0.33713042  1
  Ag  Ag5  1  -0.00111894  0.49460218  0.83261119  1
  Ag  Ag6  1  0.49977065  0.66409881  0.16212708  1
  Ag  Ag7  1  0.49880741  0.84400232  0.67230294  1
  Ag  Ag8  1  0.32954621  0.49557335  0.49944222  1
  Ag  Ag9  1  0.66710345  0.49447919  0.49945274  1
  Ag  Ag10  1  0.66784368  0.00583621  -0.00502598  1
  Ag  Ag11  1  0.83211207  0.49259662  0.00098385  1
  Ag  Ag12  1  0.00737580  0.01334896  0.32878136  1
  Ag  Ag13  1  0.50002704  0.16502739  0.33145935  1
  Ag  Ag14  1  0.32627379  0.00385179  0.33112705  1
  Ag  Ag15  1  0.33395646  0.49442052  0.83223518  1
  Ag  Ag16  1  0.17002470  0.00997204  0.49842798  1
  Ag  Ag17  1  0.16713452  0.84560402  0.67179010  1
  Ag  Ag18  1  0.66705281  0.49165254  0.83651101  1
  Ag  Ag19  1  0.00499421  0.84886045  0.83421526  1
  Ag  Ag20  1  0.49648082  0.00887937  0.49957589  1
  Ag  Ag21  1  0.33616748  0.16772773  0.83648700  1
  Ag  Ag22  1  0.33214421  0.00475877  0.00033188  1
  Ag  Ag23  1  0.84018257  0.00688953  0.83858485  1
  Ag  Ag24  1  0.49972966  0.84504605  0.33156289  1
  Ag  Ag25  1  0.50854971  0.32717042  0.16830976  1
  Ag  Ag26  1  0.83121200  0.84996748  -0.00160343  1
  Ag  Ag27  1  0.50428007  0.84592862  -0.00284318  1
  Ag  Ag28  1  -0.00375729  0.16576297  0.16593766  1
  Ag  Ag29  1  0.66149902  0.01141877  0.67376163  1
  Ag  Ag30  1  0.16573125  0.66793785  0.16544191  1
  Ag  Ag31  1  0.84418232  0.16970260  0.32500257  1
  Ag  Ag32  1  0.16152929  0.00828479  0.83647984  1
  Ag  Ag33  1  0.16586358  0.32840211  0.49895923  1
  Ag  Ag34  1  0.66754519  0.32861664  0.66923576  1
  Ag  Ag35  1  -0.00028892  0.16612796  0.83847840  1
  Ag  Ag36  1  0.84019414  0.48831533  0.32925864  1
  Ag  Ag37  1  0.83248780  0.16673649  -0.00310747  1
  Ag  Ag38  1  0.49618024  0.66281347  0.83779211  1
  Ag  Ag39  1  0.16683231  0.66974388  0.83630557  1
  Ag  Ag40  1  0.15884332  0.49201178  0.33666177  1
  Ag  Ag41  1  0.15807747  0.16201530  -0.00761274  1
  Ag  Ag42  1  0.82993328  0.16832279  0.67996118  1
  Ag  Ag43  1  0.50819335  0.16353092  -0.00589041  1
  Ag  Ag44  1  0.66500584  0.16713489  0.83577156  1
  Ag  Ag45  1  0.16378821  0.00764234  0.16398851  1
  Ag  Ag46  1  0.00162180  0.49497681  0.48883539  1
  Ag  Ag47  1  0.16362981  0.16374002  0.67393876  1
  Ag  Ag48  1  0.50893616  0.16550122  0.67573407  1
  Ag  Ag49  1  0.16032916  0.16154476  0.33311942  1
  Ag  Ag50  1  0.00074921  0.00444198  -0.00592570  1
  Ag  Ag51  1  0.49902143  0.32763415  0.50202229  1
  Ag  Ag52  1  0.00282061  0.65646215  0.33080873  1
  Ag  Ag53  1  0.66815450  0.48843224  0.16367078  1
  Sb  Sb54  1  0.66374919  0.66351581  0.67042082  1
  Sb  Sb55  1  0.16764767  0.83941733  0.33592520  1
  Sb  Sb56  1  0.33369323  0.83393691  0.50028302  1
  Sb  Sb57  1  0.66641059  0.83872907  0.83457736  1
  Sb  Sb58  1  -0.00427214  0.49307461  0.16757784  1
  Sb  Sb59  1  0.66782960  0.66313678  0.33072969  1
  Sb  Sb60  1  0.33019088  0.32725972  0.33406330  1
  Sb  Sb61  1  0.16517185  0.49423811  0.66385740  1
  Sb  Sb62  1  0.66398942  0.83829040  0.16466021  1
  Sb  Sb63  1  0.33330990  0.16825339  0.50283229  1
  Sb  Sb64  1  0.33576384  0.32982127  0.66587177  1
  Sb  Sb65  1  0.50018501  0.49533382  0.33345803  1
  Sb  Sb66  1  0.33271719  0.16557498  0.16219038  1
  Sb  Sb67  1  0.33265472  0.66645436  0.67009250  1
  Sb  Sb68  1  0.50087574  0.49347540  0.66900332  1
  Sb  Sb69  1  0.83375689  0.49183311  0.66867143  1
  Sb  Sb70  1  0.49769319  0.00519122  0.16695646  1
  Sb  Sb71  1  0.83500787  0.66683499  0.83549613  1
  Sb  Sb72  1  0.16602041  0.66427439  0.50074160  1
  Sb  Sb73  1  -0.00165924  0.32483460  -0.00114401  1
  Sb  Sb74  1  0.16719307  0.32811565  0.82694956  1
  Sb  Sb75  1  0.83411735  0.84555598  0.67545671  1
  Sb  Sb76  1  0.83313505  0.83874328  0.32510016  1
  Sb  Sb77  1  0.67079933  0.33147426  0.33482178  1
  Sb  Sb78  1  0.49960980  0.00498152  0.83262761  1
  Sb  Sb79  1  0.66730352  0.32562963  -0.00310782  1
  Sb  Sb80  1  0.00074500  0.84057471  0.16239896  1
  Sb  Sb81  1  0.16204205  0.49447835  0.00084337  1
  Sb  Sb82  1  0.33665494  0.49865436  0.16531361  1
  Sb  Sb83  1  0.33399982  0.83658261  0.16559560  1
  Sb  Sb84  1  0.32991827  0.66915159  0.33166304  1
  Sb  Sb85  1  0.33411195  0.67293425  -0.00200565  1
  Sb  Sb86  1  0.00230011  0.66154758  0.66700274  1
  Sb  Sb87  1  0.16659243  0.84278419  -0.00444272  1
  Sb  Sb88  1  0.66255059  0.17117283  0.50582246  1
  Sb  Sb89  1  0.49917519  0.66469239  0.50063004  1
  Sb  Sb90  1  0.83451274  0.00389486  0.50364589  1
  Sb  Sb91  1  0.33145298  0.83964595  0.83390028  1
  Sb  Sb92  1  0.00196738  0.00923097  0.66939397  1
  Sb  Sb93  1  0.66664984  0.00660796  0.33276757  1
  Sb  Sb94  1  0.66536406  0.66858760  -0.00049496  1
  Sb  Sb95  1  0.00384352  0.17161370  0.49926866  1
  Sb  Sb96  1  0.66320086  0.83290630  0.50185097  1
  Sb  Sb97  1  0.33502506  0.32600731  -0.00216678  1
  Sb  Sb98  1  0.00152383  0.67109336  0.00193174  1
  Sb  Sb99  1  0.82992556  0.32632899  0.83690554  1
  Sb  Sb100  1  0.83832536  0.01079873  0.15811671  1
  Sb  Sb101  1  0.00261396  0.83297927  0.50474692  1
  Sb  Sb102  1  0.83455951  0.33154911  0.49659556  1
  Sb  Sb103  1  0.50486791  0.49541020  -0.00249543  1
  Sb  Sb104  1  0.83443721  0.66197708  0.49818338  1
  Sb  Sb105  1  0.83393700  0.65824208  0.16557621  1
  Sb  Sb106  1  0.33411644  0.00396494  0.66856214  1
  Sb  Sb107  1  0.16371337  0.32862484  0.17287026  1
  Te  Te108  1  0.16507461  0.16588217  0.17197294  1
  Te  Te109  1  0.16943224  0.16764470  0.49589878  1
  Te  Te110  1  0.16275330  0.16732959  0.83340696  1
  Te  Te111  1  0.16794499  0.50123719  0.17014457  1
  Te  Te112  1  0.16420625  0.49867515  0.49715863  1
  Te  Te113  1  0.16563622  0.49808962  0.83297721  1
  Te  Te114  1  0.16677970  0.82805262  0.16640842  1
  Te  Te115  1  0.16800139  0.83649055  0.50854808  1
  Te  Te116  1  0.16528719  0.83081082  0.83166100  1
  Te  Te117  1  0.49974066  0.16799928  0.16742877  1
  Te  Te118  1  0.49825085  0.16754903  0.49708924  1
  Te  Te119  1  0.50242495  0.16614562  0.83399921  1
  Te  Te120  1  0.50467489  0.50073470  0.16536124  1
  Te  Te121  1  0.50127776  0.49576668  0.50107691  1
  Te  Te122  1  0.50179596  0.50037475  0.83330937  1
  Te  Te123  1  0.50048419  0.82931574  0.16501251  1
  Te  Te124  1  0.49938475  0.83595708  0.49980405  1
  Te  Te125  1  0.49891405  0.83075995  0.83390621  1
  Te  Te126  1  0.83409698  0.16924578  0.16615791  1
  Te  Te127  1  0.83057267  0.16551646  0.49246082  1
  Te  Te128  1  0.83304971  0.16673311  0.83605250  1
  Te  Te129  1  0.82903934  0.49479103  0.16770741  1
  Te  Te130  1  0.83501268  0.49862827  0.49623509  1
  Te  Te131  1  0.83285707  0.49918647  0.83579224  1
  Te  Te132  1  0.83200422  0.83003314  0.15783704  1
  Te  Te133  1  0.83250267  0.83279850  0.49943504  1
  Te  Te134  1  0.83753135  0.83660682  0.83931230  1
  Te  Te135  1  0.16355455  0.00238981  -0.00076021  1
  Te  Te136  1  0.16663599  0.00019961  0.33506821  1
  Te  Te137  1  0.16758215  0.00322121  0.66574151  1
  Te  Te138  1  0.16703789  0.32357631  0.00362318  1
  Te  Te139  1  0.16422903  0.33247287  0.33692551  1
  Te  Te140  1  0.16239409  0.32752333  0.66005435  1
  Te  Te141  1  0.16759509  0.66549535  -0.00110152  1
  Te  Te142  1  0.16399444  0.66965595  0.33224596  1
  Te  Te143  1  0.16620941  0.67047589  0.67354905  1
  Te  Te144  1  0.49984171  0.00302441  0.00067090  1
  Te  Te145  1  0.50136634  0.00251559  0.33409883  1
  Te  Te146  1  0.49986955  0.00378943  0.66579580  1
  Te  Te147  1  0.50076697  0.32686542  -0.00233153  1
  Te  Te148  1  0.49813141  0.32921218  0.33608863  1
  Te  Te149  1  0.50251842  0.32760489  0.66648998  1
  Te  Te150  1  0.49951941  0.66718016  -0.00068840  1
  Te  Te151  1  0.49868402  0.66757737  0.33019492  1
  Te  Te152  1  0.49963953  0.67402301  0.67119101  1
  Te  Te153  1  0.83587426  0.00549308  -0.00201911  1
  Te  Te154  1  0.83801666  0.00423874  0.33441008  1
  Te  Te155  1  0.82743181  0.00856612  0.67125414  1
  Te  Te156  1  0.83325682  0.33309999  0.00689744  1
  Te  Te157  1  0.83676208  0.33130297  0.33106397  1
  Te  Te158  1  0.83279220  0.32668072  0.66522058  1
  Te  Te159  1  0.83331842  0.66185758  0.00022287  1
  Te  Te160  1  0.83973185  0.66829344  0.33144592  1
  Te  Te161  1  0.83283469  0.67087486  0.66679757  1
  Te  Te162  1  -0.00139775  0.16444333  -0.00043496  1
  Te  Te163  1  0.00080767  0.16930196  0.33610109  1
  Te  Te164  1  0.00057323  0.17014968  0.66642508  1
  Te  Te165  1  -0.00494905  0.49945406  -0.00321096  1
  Te  Te166  1  -0.00044270  0.49713824  0.32982468  1
  Te  Te167  1  -0.00104571  0.49381911  0.67132948  1
  Te  Te168  1  -0.00258860  0.83846265  -0.00547471  1
  Te  Te169  1  -0.00178899  0.83288539  0.33480637  1
  Te  Te170  1  0.00262551  0.83147395  0.67336089  1
  Te  Te171  1  0.33366050  0.16219120  -0.00431483  1
  Te  Te172  1  0.33643058  0.16192104  0.33348561  1
  Te  Te173  1  0.32767480  0.16679587  0.67517563  1
  Te  Te174  1  0.33180846  0.49974942  -0.00682902  1
  Te  Te175  1  0.32846859  0.50030999  0.33480388  1
  Te  Te176  1  0.33291847  0.49893669  0.66982822  1
  Te  Te177  1  0.34170901  0.84236031  -0.00084836  1
  Te  Te178  1  0.34044527  0.83994143  0.33373667  1
  Te  Te179  1  0.33565741  0.83405200  0.66663162  1
  Te  Te180  1  0.66775797  0.16421244  -0.00143131  1
  Te  Te181  1  0.66144996  0.16683345  0.32692036  1
  Te  Te182  1  0.66677457  0.16818575  0.66752954  1
  Te  Te183  1  0.67114082  0.50133694  -0.00056582  1
  Te  Te184  1  0.67036963  0.49947156  0.33258512  1
  Te  Te185  1  0.66810738  0.49497809  0.66866457  1
  Te  Te186  1  0.66577716  0.84039423  -0.00046818  1
  Te  Te187  1  0.66099468  0.83337199  0.33339554  1
  Te  Te188  1  0.66307490  0.83676815  0.66696337  1
  Te  Te189  1  0.00431647  0.00445147  0.16820347  1
  Te  Te190  1  0.00485271  -0.00197484  0.49636141  1
  Te  Te191  1  0.00095144  0.00452077  0.83140246  1
  Te  Te192  1  -0.00310306  0.32625551  0.17046629  1
  Te  Te193  1  0.00115406  0.33721401  0.49984657  1
  Te  Te194  1  -0.00047303  0.33200994  0.83026115  1
  Te  Te195  1  0.00383808  0.66783058  0.16970222  1
  Te  Te196  1  0.00118616  0.65939954  0.49481833  1
  Te  Te197  1  0.00351269  0.65749540  0.83453118  1
  Te  Te198  1  0.32506478  0.00081930  0.16604656  1
  Te  Te199  1  0.33388969  0.00024657  0.49521307  1
  Te  Te200  1  0.32578942  0.00547016  0.83755229  1
  Te  Te201  1  0.34652944  0.33379738  0.16626821  1
  Te  Te202  1  0.33365658  0.33779296  0.49983627  1
  Te  Te203  1  0.33908418  0.33297667  0.83229472  1
  Te  Te204  1  0.33300564  0.66639894  0.16556170  1
  Te  Te205  1  0.33317559  0.65535122  0.49982741  1
  Te  Te206  1  0.33283697  0.66063574  0.83420737  1
  Te  Te207  1  0.66615160  0.00655004  0.16143546  1
  Te  Te208  1  0.66138417  -0.00039973  0.50461086  1
  Te  Te209  1  0.66707812  0.00275202  0.83416072  1
  Te  Te210  1  0.66626325  0.33148867  0.16873113  1
  Te  Te211  1  0.66220560  0.33656763  0.50482768  1
  Te  Te212  1  0.66451938  0.33166121  0.83021221  1
  Te  Te213  1  0.66106433  0.66287187  0.16637766  1
  Te  Te214  1  0.66631323  0.65588110  0.50082701  1
  Te  Te215  1  0.66222129  0.65998983  0.83372294  1
