# generated using pymatgen
data_AgSbTe2
_symmetry_space_group_name_H-M   'P 1'
_cell_length_a   18.30966611
_cell_length_b   18.31391154
_cell_length_c   18.31231939
_cell_angle_alpha   89.99853692
_cell_angle_beta   89.99865373
_cell_angle_gamma   89.99935945
_symmetry_Int_Tables_number   1
_chemical_formula_structural   AgSbTe2
_chemical_formula_sum   'Ag54 Sb54 Te108'
_cell_volume   6140.51633204
_cell_formula_units_Z   54
loop_
 _symmetry_equiv_pos_site_id
 _symmetry_equiv_pos_as_xyz
  1  'x, y, z'
loop_
 _atom_site_type_symbol
 _atom_site_label
 _atom_site_symmetry_multiplicity
 _atom_site_fract_x
 _atom_site_fract_y
 _atom_site_fract_z
 _atom_site_occupancy
  Ag  Ag0  1  0.00808359  0.33082380  0.32725322  1
  Ag  Ag1  1  0.16592819  0.15953469  0.00037724  1
  Ag  Ag2  1  0.50115957  0.66414786  0.49363565  1
  Ag  Ag3  1  0.00153579  0.83529889  0.16957858  1
  Ag  Ag4  1  0.66406961  0.83966001  0.83724530  1
  Ag  Ag5  1  0.16147165  -0.00456117  0.84274820  1
  Ag  Ag6  1  0.16377034  0.33160640  0.17120017  1
  Ag  Ag7  1  0.00113251  0.33329296  0.66616054  1
  Ag  Ag8  1  0.50014288  0.66501171  0.17322107  1
  Ag  Ag9  1  0.00323008  0.49278635  0.16671569  1
  Ag  Ag10  1  0.33477604  0.16648752  0.49058309  1
  Ag  Ag11  1  0.16831134  0.33272870  0.48794532  1
  Ag  Ag12  1  0.84532364  0.33483199  0.17047235  1
  Ag  Ag13  1  0.82977805  0.67103096  0.50193672  1
  Ag  Ag14  1  0.66540278  0.15570958  0.82907728  1
  Ag  Ag15  1  0.66202089  0.49824253  0.49473987  1
  Ag  Ag16  1  0.49495563  -0.00591516  0.17054495  1
  Ag  Ag17  1  0.49297282  0.16622902  0.33288488  1
  Ag  Ag18  1  0.17328114  0.49149413  0.32992747  1
  Ag  Ag19  1  0.00403961  0.00224877  0.00242077  1
  Ag  Ag20  1  -0.00393037  -0.00024394  0.66932258  1
  Ag  Ag21  1  0.33291868  0.83049871  0.82984822  1
  Ag  Ag22  1  0.00249743  0.33081558  0.01045250  1
  Ag  Ag23  1  0.49685901  0.83403483  0.33031251  1
  Ag  Ag24  1  0.49892015  0.50043871  0.00949092  1
  Ag  Ag25  1  0.00501337  0.49895442  0.83395510  1
  Ag  Ag26  1  0.33187487  0.16884202  0.17430526  1
  Ag  Ag27  1  0.16659638  0.00188267  0.16580639  1
  Ag  Ag28  1  0.49421717  0.66452387  0.83328562  1
  Ag  Ag29  1  0.00402672  0.00109037  0.32767287  1
  Ag  Ag30  1  0.32793317  0.33260294  0.33286235  1
  Ag  Ag31  1  0.83423350  0.83824229  0.66062189  1
  Ag  Ag32  1  0.16557600  0.84173731  0.00535941  1
  Ag  Ag33  1  0.33768606  0.49910492  0.49081795  1
  Ag  Ag34  1  0.83705775  0.84071266  0.33721252  1
  Ag  Ag35  1  0.32926010  0.00538703  0.33176796  1
  Ag  Ag36  1  0.83300187  -0.00336153  0.50231336  1
  Ag  Ag37  1  0.83611748  -0.00131459  0.82691876  1
  Ag  Ag38  1  -0.00259268  0.66434745  0.66797557  1
  Ag  Ag39  1  0.66633607  0.83499466  0.16645481  1
  Ag  Ag40  1  0.66359511  0.16613174  0.50007905  1
  Ag  Ag41  1  0.67584083  -0.00009345  0.67255652  1
  Ag  Ag42  1  0.65525304  0.50297190  0.17172082  1
  Ag  Ag43  1  0.33463864  0.83383568  0.49393946  1
  Ag  Ag44  1  0.17163333  0.67095687  0.83275294  1
  Ag  Ag45  1  0.67165450  -0.00033750  -0.00410205  1
  Ag  Ag46  1  0.16532697  0.16523330  0.66944028  1
  Ag  Ag47  1  0.33587230  0.49511747  0.17686046  1
  Ag  Ag48  1  0.49128180  0.50036732  0.32866477  1
  Ag  Ag49  1  0.33276558  0.50382454  0.83313868  1
  Ag  Ag50  1  0.49829358  0.34219659  0.83455689  1
  Ag  Ag51  1  0.16853988  0.83648205  0.32873041  1
  Ag  Ag52  1  0.83162379  0.16103411  0.33450671  1
  Ag  Ag53  1  0.83706669  0.50443181  0.66464191  1
  Sb  Sb54  1  0.66561917  0.33316326  0.33238865  1
  Sb  Sb55  1  0.49457362  0.33719986  0.49944977  1
  Sb  Sb56  1  0.16957266  0.49917264  0.00396890  1
  Sb  Sb57  1  0.83406926  0.49949341  0.33601775  1
  Sb  Sb58  1  0.83728173  0.16409545  0.00510691  1
  Sb  Sb59  1  0.66776591  -0.00064826  0.33278750  1
  Sb  Sb60  1  0.00064321  0.49885637  0.49873898  1
  Sb  Sb61  1  0.00268725  0.66705289  -0.00303084  1
  Sb  Sb62  1  0.33280721  0.83369183  0.17187638  1
  Sb  Sb63  1  0.83365265  0.32930325  0.83481335  1
  Sb  Sb64  1  0.49625872  0.16866450  0.00388370  1
  Sb  Sb65  1  0.83699520  0.16172594  0.66142253  1
  Sb  Sb66  1  0.67159486  0.67120927  0.66549944  1
  Sb  Sb67  1  0.83402996  0.67182592  0.82613771  1
  Sb  Sb68  1  0.66348744  0.66685473  0.33441234  1
  Sb  Sb69  1  0.50298678  0.50126042  0.66413219  1
  Sb  Sb70  1  0.50133399  -0.00292330  0.84014717  1
  Sb  Sb71  1  0.00721597  0.16789027  0.16849371  1
  Sb  Sb72  1  0.49630247  0.83101740  0.00454003  1
  Sb  Sb73  1  0.33383176  0.66614178  -0.00108975  1
  Sb  Sb74  1  0.66629412  0.83441997  0.49712717  1
  Sb  Sb75  1  0.83007098  0.66562322  0.17399893  1
  Sb  Sb76  1  0.83751464  0.00220532  0.17084142  1
  Sb  Sb77  1  0.16132542  0.49616434  0.66484082  1
  Sb  Sb78  1  0.66414114  0.67215061  -0.00000090  1
  Sb  Sb79  1  0.83816088  0.33149352  0.49557137  1
  Sb  Sb80  1  0.16384384  0.00354170  0.49541672  1
  Sb  Sb81  1  0.33493562  0.66399569  0.33405409  1
  Sb  Sb82  1  0.17061232  0.16796032  0.33087827  1
  Sb  Sb83  1  0.16814860  0.66421913  0.50273314  1
  Sb  Sb84  1  0.32814608  0.33517455  0.00619374  1
  Sb  Sb85  1  0.33065357  -0.00051483  0.66215159  1
  Sb  Sb86  1  0.83698436  0.83758202  0.00194071  1
  Sb  Sb87  1  0.00036471  0.66790792  0.33554413  1
  Sb  Sb88  1  0.49598559  0.33733645  0.16708104  1
  Sb  Sb89  1  -0.00164804  0.16597886  0.83275876  1
  Sb  Sb90  1  0.32827902  -0.00082751  0.00638325  1
  Sb  Sb91  1  0.67223654  0.32980307  0.66608931  1
  Sb  Sb92  1  0.16801369  0.33329750  0.83608930  1
  Sb  Sb93  1  0.00281251  0.16641114  0.49814110  1
  Sb  Sb94  1  0.49806417  0.16617639  0.66186266  1
  Sb  Sb95  1  0.66896513  0.32931932  0.00162126  1
  Sb  Sb96  1  0.00112825  0.83440973  0.83625709  1
  Sb  Sb97  1  0.66459971  0.50221099  0.83317646  1
  Sb  Sb98  1  0.00051915  0.83497576  0.49500546  1
  Sb  Sb99  1  0.66194790  0.16483561  0.16892376  1
  Sb  Sb100  1  0.17029962  0.66749507  0.16417746  1
  Sb  Sb101  1  0.32944495  0.66645952  0.66797276  1
  Sb  Sb102  1  0.50261020  -0.00318491  0.49225364  1
  Sb  Sb103  1  0.16118170  0.83758760  0.66627569  1
  Sb  Sb104  1  0.83179633  0.49830769  -0.00101297  1
  Sb  Sb105  1  0.33419164  0.16613209  0.83325269  1
  Sb  Sb106  1  0.50445361  0.83348923  0.66418427  1
  Sb  Sb107  1  0.32762164  0.33386029  0.66146798  1
  Te  Te108  1  0.17194234  0.16407835  0.16471670  1
  Te  Te109  1  0.17198896  0.17041776  0.50331550  1
  Te  Te110  1  0.16814852  0.16248233  0.83468135  1
  Te  Te111  1  0.16642124  0.50072598  0.16869448  1
  Te  Te112  1  0.17211979  0.49764303  0.49563588  1
  Te  Te113  1  0.16636518  0.50170929  0.83482734  1
  Te  Te114  1  0.16562939  0.83377703  0.16811150  1
  Te  Te115  1  0.17354462  0.83277052  0.49480348  1
  Te  Te116  1  0.16801595  0.83545999  0.83104453  1
  Te  Te117  1  0.49408275  0.16521785  0.17152796  1
  Te  Te118  1  0.49907475  0.16741863  0.49462215  1
  Te  Te119  1  0.50399285  0.16743532  0.83426285  1
  Te  Te120  1  0.49842119  0.49965729  0.16832616  1
  Te  Te121  1  0.49950543  0.50289642  0.49744783  1
  Te  Te122  1  0.49946963  0.50296112  0.83078709  1
  Te  Te123  1  0.50060745  0.83183473  0.16957489  1
  Te  Te124  1  0.49741094  0.82865103  0.49516792  1
  Te  Te125  1  0.49903490  0.82906259  0.83459590  1
  Te  Te126  1  0.82996437  0.17157046  0.17312477  1
  Te  Te127  1  0.82859429  0.16365309  0.49498597  1
  Te  Te128  1  0.82640510  0.16087116  0.83348865  1
  Te  Te129  1  0.83803824  0.49759417  0.16753778  1
  Te  Te130  1  0.82932238  0.50112839  0.50267975  1
  Te  Te131  1  0.83581300  0.50029318  0.82907739  1
  Te  Te132  1  0.83239580  0.83268112  0.17094260  1
  Te  Te133  1  0.83285290  0.83460418  0.49836023  1
  Te  Te134  1  0.83057131  0.83864958  0.83170343  1
  Te  Te135  1  0.16559008  -0.00058447  0.00223766  1
  Te  Te136  1  0.16427813  -0.00108835  0.33079931  1
  Te  Te137  1  0.16278615  0.00438079  0.66592484  1
  Te  Te138  1  0.16111688  0.33105687  0.00484009  1
  Te  Te139  1  0.16675676  0.33158321  0.33150205  1
  Te  Te140  1  0.16060761  0.32854020  0.66818696  1
  Te  Te141  1  0.16606529  0.67463849  -0.00755085  1
  Te  Te142  1  0.16621448  0.67221020  0.33369102  1
  Te  Te143  1  0.15865664  0.66747111  0.67215013  1
  Te  Te144  1  0.50235005  0.00016396  0.00920582  1
  Te  Te145  1  0.50016569  -0.00110468  0.32903633  1
  Te  Te146  1  0.50426125  0.00031399  0.66635652  1
  Te  Te147  1  0.50058943  0.33720161  -0.00460651  1
  Te  Te148  1  0.49512231  0.33414318  0.33373460  1
  Te  Te149  1  0.50095147  0.33300746  0.67414697  1
  Te  Te150  1  0.50019846  0.66128087  -0.00085236  1
  Te  Te151  1  0.49953481  0.66591595  0.33343713  1
  Te  Te152  1  0.50046871  0.66752746  0.66744229  1
  Te  Te153  1  0.83709868  0.00076949  -0.00543668  1
  Te  Te154  1  0.83548751  -0.00054793  0.33538298  1
  Te  Te155  1  0.83479114  0.00053145  0.66627254  1
  Te  Te156  1  0.84154734  0.33181903  0.00552181  1
  Te  Te157  1  0.83810058  0.33136610  0.33010513  1
  Te  Te158  1  0.84056223  0.33474700  0.66548056  1
  Te  Te159  1  0.83311550  0.66765829  0.00030347  1
  Te  Te160  1  0.83398263  0.67377613  0.34188217  1
  Te  Te161  1  0.83775999  0.66815174  0.66173429  1
  Te  Te162  1  0.00484846  0.16490305  -0.00061612  1
  Te  Te163  1  -0.00529591  0.16455276  0.33420286  1
  Te  Te164  1  0.00395057  0.16503463  0.66577383  1
  Te  Te165  1  0.00045639  0.49702875  0.00072287  1
  Te  Te166  1  0.00274689  0.49774570  0.32931757  1
  Te  Te167  1  -0.00228244  0.49939765  0.66686508  1
  Te  Te168  1  0.00421346  0.83711972  0.00562266  1
  Te  Te169  1  0.00082542  0.83500217  0.32966637  1
  Te  Te170  1  -0.00584421  0.83842491  0.66655446  1
  Te  Te171  1  0.32749766  0.16745984  0.00452433  1
  Te  Te172  1  0.33391104  0.16527806  0.33373141  1
  Te  Te173  1  0.32842009  0.16667213  0.66087580  1
  Te  Te174  1  0.33799981  0.49905515  -0.00682635  1
  Te  Te175  1  0.33208141  0.49922812  0.33415300  1
  Te  Te176  1  0.33240380  0.49938944  0.67116726  1
  Te  Te177  1  0.32680762  0.83416906  -0.00779980  1
  Te  Te178  1  0.33420505  0.83665098  0.33475472  1
  Te  Te179  1  0.33346031  0.83395131  0.66673972  1
  Te  Te180  1  0.66570951  0.16088340  -0.00263414  1
  Te  Te181  1  0.66533440  0.16683704  0.33756828  1
  Te  Te182  1  0.66596012  0.16230223  0.66484737  1
  Te  Te183  1  0.66195154  0.49880617  0.00404386  1
  Te  Te184  1  0.66469572  0.49916680  0.33297890  1
  Te  Te185  1  0.67407671  0.49893622  0.66291628  1
  Te  Te186  1  0.66596730  0.83907838  0.00208154  1
  Te  Te187  1  0.66339959  0.83385847  0.32820966  1
  Te  Te188  1  0.67199932  0.83891658  0.66826805  1
  Te  Te189  1  0.00297214  -0.00138889  0.16759868  1
  Te  Te190  1  -0.00499906  0.00029190  0.50041821  1
  Te  Te191  1  0.00183993  0.00057194  0.83394711  1
  Te  Te192  1  0.00311409  0.33216007  0.16845838  1
  Te  Te193  1  0.00654246  0.33310042  0.49982197  1
  Te  Te194  1  -0.00074316  0.33788475  0.83018205  1
  Te  Te195  1  -0.00072323  0.66815714  0.16577199  1
  Te  Te196  1  -0.00277860  0.66688555  0.50705698  1
  Te  Te197  1  0.00126420  0.66226486  0.82972748  1
  Te  Te198  1  0.33147715  -0.00038314  0.17142890  1
  Te  Te199  1  0.33422555  -0.00046317  0.49460114  1
  Te  Te200  1  0.33023401  -0.00290858  0.83127139  1
  Te  Te201  1  0.32948990  0.33522972  0.17104045  1
  Te  Te202  1  0.32925459  0.33524614  0.49627470  1
  Te  Te203  1  0.33731572  0.33511753  0.83288899  1
  Te  Te204  1  0.33902255  0.65843476  0.16577221  1
  Te  Te205  1  0.33672469  0.66536933  0.50234915  1
  Te  Te206  1  0.33318221  0.66674377  0.83265937  1
  Te  Te207  1  0.66743825  -0.00270238  0.16280852  1
  Te  Te208  1  0.67015443  0.00254032  0.50267230  1
  Te  Te209  1  0.66353649  -0.00215944  0.83417704  1
  Te  Te210  1  0.67036010  0.33792506  0.16541598  1
  Te  Te211  1  0.66662431  0.33309509  0.50059995  1
  Te  Te212  1  0.66334688  0.33073105  0.83410288  1
  Te  Te213  1  0.66222292  0.66585843  0.16578895  1
  Te  Te214  1  0.66453526  0.66194750  0.50150508  1
  Te  Te215  1  0.66218918  0.67325043  0.83311803  1
