# generated using pymatgen
data_AgSbTe2
_symmetry_space_group_name_H-M   'P 1'
_cell_length_a   18.30700290
_cell_length_b   18.30898184
_cell_length_c   18.30956784
_cell_angle_alpha   89.99651205
_cell_angle_beta   89.99752985
_cell_angle_gamma   89.99897420
_symmetry_Int_Tables_number   1
_chemical_formula_structural   AgSbTe2
_chemical_formula_sum   'Ag54 Sb54 Te108'
_cell_volume   6137.04823475
_cell_formula_units_Z   54
loop_
 _symmetry_equiv_pos_site_id
 _symmetry_equiv_pos_as_xyz
  1  'x, y, z'
loop_
 _atom_site_type_symbol
 _atom_site_label
 _atom_site_symmetry_multiplicity
 _atom_site_fract_x
 _atom_site_fract_y
 _atom_site_fract_z
 _atom_site_occupancy
  Ag  Ag0  1  0.17195650  0.34088747  0.50363385  1
  Ag  Ag1  1  0.00256106  0.67011603  0.00120824  1
  Ag  Ag2  1  0.00468296  0.50196961  0.83546936  1
  Ag  Ag3  1  0.84056080  0.82848790  0.00552335  1
  Ag  Ag4  1  0.33423156  -0.01194696  0.00217393  1
  Ag  Ag5  1  0.66122276  0.83300949  0.50354285  1
  Ag  Ag6  1  0.32908631  0.82690703  0.83875248  1
  Ag  Ag7  1  0.16644149  0.17678330  0.66795543  1
  Ag  Ag8  1  0.16887644  0.49720538  0.66724953  1
  Ag  Ag9  1  0.17087894  0.66414100  0.50315783  1
  Ag  Ag10  1  0.32732045  0.33639724  0.66489401  1
  Ag  Ag11  1  0.48865669  0.83054254  -0.00497849  1
  Ag  Ag12  1  0.15956757  0.33316472  0.17101850  1
  Ag  Ag13  1  0.82276563  -0.00697722  0.49086447  1
  Ag  Ag14  1  0.33291095  0.50823833  0.82914189  1
  Ag  Ag15  1  0.49096157  0.66515439  0.83822856  1
  Ag  Ag16  1  0.00468773  0.66820273  0.32569274  1
  Ag  Ag17  1  0.16843680  -0.01146500  0.83280014  1
  Ag  Ag18  1  0.66799612  0.50303345  0.16772419  1
  Ag  Ag19  1  0.49473489  0.16279925  0.00352275  1
  Ag  Ag20  1  -0.00424677  0.82868725  0.16167190  1
  Ag  Ag21  1  0.49352183  0.33677925  0.50247390  1
  Ag  Ag22  1  0.83576791  0.50897237  0.00203570  1
  Ag  Ag23  1  0.83300373  0.66965917  0.16556095  1
  Ag  Ag24  1  0.49591416  0.34229989  0.82886744  1
  Ag  Ag25  1  0.17248095  0.66995525  0.83224524  1
  Ag  Ag26  1  0.66609870  0.67020080  0.66540537  1
  Ag  Ag27  1  0.65893579  0.50723769  0.50091438  1
  Ag  Ag28  1  0.66031727  0.50333130  0.83166205  1
  Ag  Ag29  1  0.32988448  0.67231367  0.33273430  1
  Ag  Ag30  1  0.00851357  0.82652502  0.84000160  1
  Ag  Ag31  1  0.50129833  0.66707943  0.16265053  1
  Ag  Ag32  1  0.33444084  0.16685822  0.16658321  1
  Ag  Ag33  1  0.49977077  0.49916411  0.33779980  1
  Ag  Ag34  1  0.50362901  -0.00444485  0.49652398  1
  Ag  Ag35  1  0.33579602  0.50441175  0.50468945  1
  Ag  Ag36  1  0.16976116  0.83004200  -0.00379400  1
  Ag  Ag37  1  0.83164956  0.15506095  0.33045979  1
  Ag  Ag38  1  0.33738575  0.82727408  0.50091259  1
  Ag  Ag39  1  0.82661871  0.83353872  0.66365568  1
  Ag  Ag40  1  0.00809331  0.33507466  0.67026012  1
  Ag  Ag41  1  0.50251542  0.83218389  0.66602026  1
  Ag  Ag42  1  0.33086152  0.67173307  -0.00584028  1
  Ag  Ag43  1  0.83824284  0.83712621  0.32974638  1
  Ag  Ag44  1  0.66610868  -0.00281228  0.33878569  1
  Ag  Ag45  1  0.84021823  0.33670439  0.16801207  1
  Ag  Ag46  1  0.00166047  0.33910361  0.32795798  1
  Ag  Ag47  1  0.83238080  -0.01130898  0.17319879  1
  Ag  Ag48  1  0.66633494  -0.01099611  0.65784512  1
  Ag  Ag49  1  0.00351895  0.17349934  0.83449378  1
  Ag  Ag50  1  0.33813556  -0.00705327  0.33156387  1
  Ag  Ag51  1  0.16534977  0.83059737  0.33099517  1
  Ag  Ag52  1  0.49942852  0.16569958  0.33159292  1
  Ag  Ag53  1  0.00136241  0.34064001  -0.00154975  1
  Sb  Sb54  1  0.00270971  0.50084075  0.50342180  1
  Sb  Sb55  1  0.16848098  0.83007737  0.66966743  1
  Sb  Sb56  1  0.33067313  0.33520598  0.33753592  1
  Sb  Sb57  1  -0.00142377  0.66493683  0.67148655  1
  Sb  Sb58  1  0.16764680  0.33823737  0.82916341  1
  Sb  Sb59  1  0.49654095  0.16431850  0.66541082  1
  Sb  Sb60  1  0.00451558  -0.00769467  -0.00095534  1
  Sb  Sb61  1  0.50156447  0.50350898  -0.00097442  1
  Sb  Sb62  1  0.33535139  0.66453102  0.66906374  1
  Sb  Sb63  1  0.49620737  0.50509453  0.66535893  1
  Sb  Sb64  1  0.66458214  0.16917566  0.16835025  1
  Sb  Sb65  1  0.16274819  0.50593812  -0.00552296  1
  Sb  Sb66  1  0.00222647  0.16736425  0.16315496  1
  Sb  Sb67  1  0.83557561  0.33605974  0.83695601  1
  Sb  Sb68  1  0.50178604  -0.00476274  0.17081835  1
  Sb  Sb69  1  0.16617600  -0.00057058  0.16464993  1
  Sb  Sb70  1  0.32965048  0.33715984  -0.00346100  1
  Sb  Sb71  1  0.49837149  0.83273236  0.33380926  1
  Sb  Sb72  1  0.33475024  0.16712292  0.49651663  1
  Sb  Sb73  1  0.49572826  -0.00505402  0.83135680  1
  Sb  Sb74  1  0.66528283  0.16058424  0.49863386  1
  Sb  Sb75  1  0.83509871  0.50411672  0.67032460  1
  Sb  Sb76  1  0.17020904  -0.00381352  0.50271555  1
  Sb  Sb77  1  0.83009100  0.50362380  0.32827889  1
  Sb  Sb78  1  0.33572776  -0.00053540  0.66563463  1
  Sb  Sb79  1  0.66494206  0.33733860  0.66443335  1
  Sb  Sb80  1  0.33629586  0.50033915  0.16756507  1
  Sb  Sb81  1  0.66908194  0.33676591  0.00059132  1
  Sb  Sb82  1  -0.00216789  0.00025164  0.66885024  1
  Sb  Sb83  1  0.83538418  0.67087088  0.49493275  1
  Sb  Sb84  1  0.17025869  0.50517215  0.33781694  1
  Sb  Sb85  1  0.83341807  0.33180702  0.49472664  1
  Sb  Sb86  1  0.66797795  0.33209806  0.33497958  1
  Sb  Sb87  1  0.66493200  0.66957474  0.33589609  1
  Sb  Sb88  1  0.00069250  0.83106942  0.49966646  1
  Sb  Sb89  1  0.66622245  0.66733245  -0.00235047  1
  Sb  Sb90  1  -0.00188846  -0.00349965  0.33195809  1
  Sb  Sb91  1  0.49455929  0.66703777  0.50005550  1
  Sb  Sb92  1  0.16764755  0.16449287  0.33638053  1
  Sb  Sb93  1  0.33010468  0.16601171  0.83590984  1
  Sb  Sb94  1  0.83822151  0.16156206  0.66183421  1
  Sb  Sb95  1  0.66810881  0.17099807  0.83328412  1
  Sb  Sb96  1  0.83538262  0.66783286  0.83974090  1
  Sb  Sb97  1  0.83268767  0.16444531  0.00572606  1
  Sb  Sb98  1  -0.00418698  0.50288629  0.16171644  1
  Sb  Sb99  1  0.16597425  0.66517832  0.16544921  1
  Sb  Sb100  1  0.33018940  0.83318960  0.16565971  1
  Sb  Sb101  1  0.49991601  0.33615427  0.16738580  1
  Sb  Sb102  1  0.67178536  0.82896718  0.17152323  1
  Sb  Sb103  1  0.00069709  0.16889460  0.50083740  1
  Sb  Sb104  1  0.83633689  -0.00445928  0.83513628  1
  Sb  Sb105  1  0.66337582  0.82772609  0.82638112  1
  Sb  Sb106  1  0.66268684  -0.00413873  0.00137396  1
  Sb  Sb107  1  0.16902587  0.16344428  -0.00396089  1
  Te  Te108  1  0.17107848  0.17045179  0.16693043  1
  Te  Te109  1  0.16715357  0.16934655  0.50581999  1
  Te  Te110  1  0.16307024  0.16458762  0.82982338  1
  Te  Te111  1  0.16718456  0.49244998  0.16717879  1
  Te  Te112  1  0.16960743  0.50091971  0.50389468  1
  Te  Te113  1  0.16806143  0.50458899  0.82987979  1
  Te  Te114  1  0.15996845  0.83353385  0.16738650  1
  Te  Te115  1  0.17148914  0.82988820  0.49862524  1
  Te  Te116  1  0.16863770  0.83057147  0.83298556  1
  Te  Te117  1  0.49729419  0.16717719  0.16888730  1
  Te  Te118  1  0.49993216  0.16862058  0.49592695  1
  Te  Te119  1  0.49975934  0.16886707  0.83573795  1
  Te  Te120  1  0.50433526  0.50386081  0.16903171  1
  Te  Te121  1  0.49741499  0.50100840  0.49947968  1
  Te  Te122  1  0.49817574  0.50174205  0.83289307  1
  Te  Te123  1  0.50303961  0.82740575  0.16129276  1
  Te  Te124  1  0.49807888  0.83315802  0.50078813  1
  Te  Te125  1  0.49684960  0.83033155  0.83451926  1
  Te  Te126  1  0.83314093  0.17109989  0.17155064  1
  Te  Te127  1  0.83279651  0.16175516  0.49210460  1
  Te  Te128  1  0.84005981  0.16595924  0.83439563  1
  Te  Te129  1  0.82968229  0.50099659  0.16341125  1
  Te  Te130  1  0.82605382  0.50098227  0.50066757  1
  Te  Te131  1  0.83407660  0.50074531  0.83848141  1
  Te  Te132  1  0.83388742  0.83076966  0.16754184  1
  Te  Te133  1  0.83319248  0.83472379  0.49959693  1
  Te  Te134  1  0.83607585  0.83310047  0.83557759  1
  Te  Te135  1  0.17274787  -0.00491074  -0.00306773  1
  Te  Te136  1  0.17153875  -0.00582146  0.33398363  1
  Te  Te137  1  0.16678144  0.00225211  0.67135195  1
  Te  Te138  1  0.16132656  0.33271936  0.00229214  1
  Te  Te139  1  0.16279658  0.33304990  0.33657989  1
  Te  Te140  1  0.16667580  0.33590056  0.66644124  1
  Te  Te141  1  0.16587833  0.67046025  -0.00167158  1
  Te  Te142  1  0.16776037  0.66973257  0.33229832  1
  Te  Te143  1  0.16480303  0.66211351  0.66677358  1
  Te  Te144  1  0.49502501  -0.00254341  0.00097005  1
  Te  Te145  1  0.49850252  0.00060776  0.33571264  1
  Te  Te146  1  0.50361309  -0.00323718  0.66151753  1
  Te  Te147  1  0.49899224  0.33141282  -0.00263015  1
  Te  Te148  1  0.49931076  0.33250551  0.33651074  1
  Te  Te149  1  0.49817747  0.33192200  0.66510416  1
  Te  Te150  1  0.49918669  0.66870970  -0.00094432  1
  Te  Te151  1  0.49637205  0.66438713  0.32980551  1
  Te  Te152  1  0.50382551  0.67202828  0.67132334  1
  Te  Te153  1  0.83184811  -0.00447951  0.00581305  1
  Te  Te154  1  0.83503113  -0.00179310  0.33273431  1
  Te  Te155  1  0.82921942  -0.00494772  0.66411862  1
  Te  Te156  1  0.83756380  0.33235116  0.00497643  1
  Te  Te157  1  0.83795503  0.33345856  0.33018416  1
  Te  Te158  1  0.83849290  0.33204143  0.66506519  1
  Te  Te159  1  0.83466436  0.66779769  0.00453413  1
  Te  Te160  1  0.83675897  0.67154531  0.32766761  1
  Te  Te161  1  0.82980905  0.67215262  0.66590067  1
  Te  Te162  1  0.00013290  0.17084967  -0.00508879  1
  Te  Te163  1  -0.00202764  0.17076027  0.33200849  1
  Te  Te164  1  0.00334778  0.17146090  0.67135659  1
  Te  Te165  1  -0.00316845  0.50209204  -0.00380008  1
  Te  Te166  1  -0.00059826  0.50107325  0.33391892  1
  Te  Te167  1  0.00241200  0.49680349  0.67206460  1
  Te  Te168  1  0.00064343  0.83129635  -0.00004845  1
  Te  Te169  1  0.00055668  0.83053366  0.33305200  1
  Te  Te170  1  -0.00372375  0.83197338  0.67211371  1
  Te  Te171  1  0.33650507  0.16761485  0.00343420  1
  Te  Te172  1  0.33571197  0.16343542  0.32947333  1
  Te  Te173  1  0.32842279  0.17206807  0.66727025  1
  Te  Te174  1  0.33281077  0.50687791  -0.00497902  1
  Te  Te175  1  0.33799502  0.50445342  0.33633045  1
  Te  Te176  1  0.33090705  0.49810806  0.66634897  1
  Te  Te177  1  0.33116288  0.83095311  0.00102710  1
  Te  Te178  1  0.33128105  0.83250062  0.33173143  1
  Te  Te179  1  0.33713028  0.83402285  0.66463006  1
  Te  Te180  1  0.65681258  0.16542151  -0.00003993  1
  Te  Te181  1  0.66495856  0.16115561  0.33296927  1
  Te  Te182  1  0.66815376  0.16265539  0.66734086  1
  Te  Te183  1  0.67265693  0.50074008  -0.00221821  1
  Te  Te184  1  0.66214385  0.50061375  0.33662050  1
  Te  Te185  1  0.66782425  0.50448447  0.66724524  1
  Te  Te186  1  0.66963497  0.83350191  -0.00187967  1
  Te  Te187  1  0.66967597  0.83739587  0.33976936  1
  Te  Te188  1  0.66609527  0.83187537  0.66418799  1
  Te  Te189  1  -0.00514190  -0.00388859  0.16571151  1
  Te  Te190  1  -0.00345911  0.00018600  0.50071106  1
  Te  Te191  1  0.00479442  -0.00353128  0.83415617  1
  Te  Te192  1  0.00028129  0.33407094  0.16653074  1
  Te  Te193  1  0.00288608  0.33473946  0.50094370  1
  Te  Te194  1  0.00101221  0.33740265  0.83451650  1
  Te  Te195  1  -0.00064008  0.66829000  0.16557236  1
  Te  Te196  1  0.00781504  0.66551589  0.49356067  1
  Te  Te197  1  0.00171212  0.66574742  0.83778661  1
  Te  Te198  1  0.33404138  0.00283378  0.16730627  1
  Te  Te199  1  0.33731122  -0.00412600  0.49680022  1
  Te  Te200  1  0.32949495  -0.00367802  0.83555703  1
  Te  Te201  1  0.33076462  0.33084514  0.16618726  1
  Te  Te202  1  0.33325740  0.33540462  0.50240765  1
  Te  Te203  1  0.33653545  0.33581718  0.82982662  1
  Te  Te204  1  0.33641184  0.66580983  0.16798099  1
  Te  Te205  1  0.33053703  0.66678849  0.49884087  1
  Te  Te206  1  0.33263834  0.66718646  0.83350933  1
  Te  Te207  1  0.67176585  0.00099678  0.17169459  1
  Te  Te208  1  0.66471875  -0.00288190  0.49928231  1
  Te  Te209  1  0.66648199  0.00161065  0.82887812  1
  Te  Te210  1  0.67185819  0.34075055  0.16762036  1
  Te  Te211  1  0.66125680  0.33996763  0.50070610  1
  Te  Te212  1  0.66157555  0.33975365  0.83219357  1
  Te  Te213  1  0.66691869  0.66182323  0.16773218  1
  Te  Te214  1  0.66664901  0.66834426  0.50352269  1
  Te  Te215  1  0.66508853  0.66211293  0.82926595  1
