# generated using pymatgen
data_AgSbTe2
_symmetry_space_group_name_H-M   'P 1'
_cell_length_a   18.35487585
_cell_length_b   18.34688812
_cell_length_c   18.34011675
_cell_angle_alpha   89.99668816
_cell_angle_beta   90.00056145
_cell_angle_gamma   89.99914833
_symmetry_Int_Tables_number   1
_chemical_formula_structural   AgSbTe2
_chemical_formula_sum   'Ag54 Sb54 Te108'
_cell_volume   6176.12332164
_cell_formula_units_Z   54
loop_
 _symmetry_equiv_pos_site_id
 _symmetry_equiv_pos_as_xyz
  1  'x, y, z'
loop_
 _atom_site_type_symbol
 _atom_site_label
 _atom_site_symmetry_multiplicity
 _atom_site_fract_x
 _atom_site_fract_y
 _atom_site_fract_z
 _atom_site_occupancy
  Ag  Ag0  1  0.51106486  0.50479962  0.32712894  1
  Ag  Ag1  1  0.16657824  0.33417587  0.17315245  1
  Ag  Ag2  1  0.17211802  0.83566042  0.01220811  1
  Ag  Ag3  1  0.50133040  0.50511626  0.00827263  1
  Ag  Ag4  1  0.33492804  0.66429421  0.32418580  1
  Ag  Ag5  1  0.65990747  0.50137229  0.17824435  1
  Ag  Ag6  1  0.49534409  0.15987837  0.67040672  1
  Ag  Ag7  1  0.01008387  0.00310735  0.33757156  1
  Ag  Ag8  1  0.32956731  0.33505271  0.33110800  1
  Ag  Ag9  1  0.82407529  0.66510765  0.83166465  1
  Ag  Ag10  1  0.16586271  0.84339590  0.32946989  1
  Ag  Ag11  1  0.84339999  0.18272425  0.33482452  1
  Ag  Ag12  1  0.66645049  0.15619289  0.82903447  1
  Ag  Ag13  1  0.33120494  0.82379144  0.16794189  1
  Ag  Ag14  1  0.82919053  0.66238831  0.48834009  1
  Ag  Ag15  1  0.33967787  0.51070373  0.16681068  1
  Ag  Ag16  1  0.83636966  0.34405883  0.49162105  1
  Ag  Ag17  1  0.16460717  0.15773218  0.33655780  1
  Ag  Ag18  1  0.16954631  0.00212325  0.83468912  1
  Ag  Ag19  1  0.50500017  0.66528136  0.48681089  1
  Ag  Ag20  1  0.66821937  0.65922235  0.33578271  1
  Ag  Ag21  1  0.49991605  -0.00307708  0.83138973  1
  Ag  Ag22  1  0.17870484  0.67237212  0.17036115  1
  Ag  Ag23  1  0.83818913  0.82702919  0.33606026  1
  Ag  Ag24  1  0.68129781  0.34844765  0.33387365  1
  Ag  Ag25  1  0.16765172  0.16271327  0.66292167  1
  Ag  Ag26  1  -0.00098517  0.32823288  0.66145054  1
  Ag  Ag27  1  0.66871325  -0.00165441  0.67141633  1
  Ag  Ag28  1  0.00060607  0.00430744  0.66740716  1
  Ag  Ag29  1  0.48939642  -0.00569611  0.16524638  1
  Ag  Ag30  1  0.33325303  0.16035076  0.82857862  1
  Ag  Ag31  1  0.82535866  0.49703832  0.33484397  1
  Ag  Ag32  1  0.82807036  0.83595463  0.66543608  1
  Ag  Ag33  1  0.66580948  0.83351161  0.82993248  1
  Ag  Ag34  1  0.17411949  -0.00529396  0.17614184  1
  Ag  Ag35  1  0.16667462  0.00345949  0.48734231  1
  Ag  Ag36  1  0.00075958  0.16373897  0.82696425  1
  Ag  Ag37  1  0.33597170  0.66850740  0.01203411  1
  Ag  Ag38  1  0.49090678  0.66450681  0.17089207  1
  Ag  Ag39  1  0.83675256  0.33897072  0.17912479  1
  Ag  Ag40  1  -0.00666660  0.33460256  0.33776282  1
  Ag  Ag41  1  0.82674954  0.50117875  0.00571000  1
  Ag  Ag42  1  0.33056948  0.16497681  0.49890432  1
  Ag  Ag43  1  -0.00770570  0.49757146  0.49311351  1
  Ag  Ag44  1  -0.00813380  0.66194635  0.33405828  1
  Ag  Ag45  1  0.66753300  0.50446772  0.83396593  1
  Ag  Ag46  1  0.67423164  0.50228466  0.48889289  1
  Ag  Ag47  1  -0.00811866  0.49858789  0.83016681  1
  Ag  Ag48  1  0.33158474  -0.00663019  0.00837329  1
  Ag  Ag49  1  0.34010431  0.50159086  0.84114325  1
  Ag  Ag50  1  0.32264080  -0.00028700  0.32578293  1
  Ag  Ag51  1  0.82839897  -0.00320783  0.83038309  1
  Ag  Ag52  1  0.50374143  0.66642465  0.83604417  1
  Ag  Ag53  1  0.50544586  0.83724491  0.67181797  1
  Sb  Sb54  1  0.16495206  0.49985252  0.33110772  1
  Sb  Sb55  1  0.33400507  0.49777745  0.49232408  1
  Sb  Sb56  1  0.83443904  0.33610876  0.83045772  1
  Sb  Sb57  1  0.32898852  0.32944379  0.66301465  1
  Sb  Sb58  1  0.33258342  0.16467342  0.16963607  1
  Sb  Sb59  1  0.16167990  0.32847190  0.49333165  1
  Sb  Sb60  1  0.16913408  0.50475453  0.00204841  1
  Sb  Sb61  1  0.16349721  0.49342711  0.66887014  1
  Sb  Sb62  1  0.66363729  0.17078296  0.50258960  1
  Sb  Sb63  1  0.33370453  0.83673785  0.49209638  1
  Sb  Sb64  1  -0.00319320  0.66734025  0.66295968  1
  Sb  Sb65  1  0.33223272  0.33572138  0.00387660  1
  Sb  Sb66  1  0.00347793  0.66386157  0.00459761  1
  Sb  Sb67  1  0.33570192  0.66691659  0.66614792  1
  Sb  Sb68  1  0.66047901  0.66346747  0.00080782  1
  Sb  Sb69  1  0.16901468  0.67128954  0.83776247  1
  Sb  Sb70  1  0.83392893  0.17066953  0.00020150  1
  Sb  Sb71  1  0.16564968  0.67107133  0.48938025  1
  Sb  Sb72  1  0.65968843  -0.00039356  -0.00760890  1
  Sb  Sb73  1  0.49585299  0.16906305  0.33671559  1
  Sb  Sb74  1  0.49849334  0.33886898  0.17031613  1
  Sb  Sb75  1  0.50390128  0.33856458  0.49811211  1
  Sb  Sb76  1  0.00622811  -0.00016559  -0.00165387  1
  Sb  Sb77  1  0.49739184  0.16719123  -0.00495756  1
  Sb  Sb78  1  0.66727758  0.67065669  0.66565617  1
  Sb  Sb79  1  -0.00161209  0.83061439  0.49670155  1
  Sb  Sb80  1  0.83239103  0.50455244  0.66204963  1
  Sb  Sb81  1  0.33227396  0.00163034  0.66761638  1
  Sb  Sb82  1  0.16538684  0.32742985  0.83662600  1
  Sb  Sb83  1  0.66561234  0.17133043  0.16598011  1
  Sb  Sb84  1  0.83713176  0.82805268  -0.00072295  1
  Sb  Sb85  1  0.83117424  0.66076908  0.17017863  1
  Sb  Sb86  1  0.83468964  0.00220865  0.16721220  1
  Sb  Sb87  1  0.49894049  0.82659121  0.33491082  1
  Sb  Sb88  1  0.66124885  0.82721386  0.16512086  1
  Sb  Sb89  1  -0.00423716  0.83476896  0.83048949  1
  Sb  Sb90  1  0.67160403  0.33006614  0.66364354  1
  Sb  Sb91  1  0.16588852  0.84150326  0.66407344  1
  Sb  Sb92  1  0.00341837  0.16980073  0.50097480  1
  Sb  Sb93  1  -0.00113320  0.49928502  0.17025527  1
  Sb  Sb94  1  0.50165153  0.50240686  0.66704656  1
  Sb  Sb95  1  0.33774018  0.83553207  0.83861711  1
  Sb  Sb96  1  0.83881333  -0.00222101  0.50243194  1
  Sb  Sb97  1  0.66764930  -0.00202986  0.33738787  1
  Sb  Sb98  1  0.66750238  0.33814199  0.00506904  1
  Sb  Sb99  1  0.00207476  0.16743437  0.16907901  1
  Sb  Sb100  1  0.50056907  0.33413404  0.83215559  1
  Sb  Sb101  1  -0.00040229  0.33592809  0.00201464  1
  Sb  Sb102  1  0.00783940  0.83304981  0.17106849  1
  Sb  Sb103  1  0.49545139  0.82855608  -0.00266422  1
  Sb  Sb104  1  0.49542139  -0.00400639  0.50151414  1
  Sb  Sb105  1  0.16915556  0.16040648  0.00145858  1
  Sb  Sb106  1  0.83620364  0.16200936  0.66353495  1
  Sb  Sb107  1  0.66727478  0.82799901  0.50380549  1
  Te  Te108  1  0.16644770  0.16600509  0.17163030  1
  Te  Te109  1  0.16978244  0.16340516  0.49920303  1
  Te  Te110  1  0.16748818  0.16364740  0.83412681  1
  Te  Te111  1  0.16983752  0.49974719  0.16512471  1
  Te  Te112  1  0.16289661  0.50105591  0.50311886  1
  Te  Te113  1  0.16814233  0.49985820  0.83505727  1
  Te  Te114  1  0.17034192  0.83447703  0.17095382  1
  Te  Te115  1  0.16670354  0.84100256  0.49468706  1
  Te  Te116  1  0.16689260  0.83970668  0.83175523  1
  Te  Te117  1  0.50138108  0.15932970  0.16412966  1
  Te  Te118  1  0.49493946  0.16587425  0.50561556  1
  Te  Te119  1  0.49967901  0.16603109  0.83115454  1
  Te  Te120  1  0.49997265  0.50159651  0.16763768  1
  Te  Te121  1  0.50189851  0.50600323  0.49897077  1
  Te  Te122  1  0.49906840  0.50106592  0.83144250  1
  Te  Te123  1  0.49541058  0.83287294  0.16594166  1
  Te  Te124  1  0.50006518  0.82593464  0.50819548  1
  Te  Te125  1  0.50235294  0.83488834  0.83179660  1
  Te  Te126  1  0.83309029  0.17184181  0.17255306  1
  Te  Te127  1  0.83130519  0.16600674  0.49283335  1
  Te  Te128  1  0.83275010  0.16443155  0.83293409  1
  Te  Te129  1  0.83212448  0.49790496  0.16753085  1
  Te  Te130  1  0.83277272  0.50351243  0.50021253  1
  Te  Te131  1  0.83305888  0.50078184  0.82912846  1
  Te  Te132  1  0.83173883  0.83311625  0.16827253  1
  Te  Te133  1  0.83251790  0.82749175  0.49993151  1
  Te  Te134  1  0.82995323  0.83374174  0.83420097  1
  Te  Te135  1  0.17129188  -0.00408568  -0.00380976  1
  Te  Te136  1  0.16631371  0.00089576  0.33106814  1
  Te  Te137  1  0.16381803  0.00383114  0.67494562  1
  Te  Te138  1  0.16574898  0.33246197  0.01106887  1
  Te  Te139  1  0.16958830  0.33299292  0.33143615  1
  Te  Te140  1  0.16040062  0.32478289  0.66663465  1
  Te  Te141  1  0.17193767  0.67226732  0.00581674  1
  Te  Te142  1  0.16985678  0.66777528  0.33001107  1
  Te  Te143  1  0.16618911  0.67027822  0.66553418  1
  Te  Te144  1  0.49348582  -0.00037108  -0.00157295  1
  Te  Te145  1  0.49949760  -0.00163980  0.33155164  1
  Te  Te146  1  0.49995406  -0.00064387  0.66837541  1
  Te  Te147  1  0.49988971  0.34373162  0.00186268  1
  Te  Te148  1  0.49177026  0.33833478  0.33383893  1
  Te  Te149  1  0.50037555  0.32434813  0.66430075  1
  Te  Te150  1  0.49527097  0.66304315  -0.00338028  1
  Te  Te151  1  0.49938762  0.66607497  0.33058635  1
  Te  Te152  1  0.50066121  0.66982116  0.67741837  1
  Te  Te153  1  0.83399594  0.00004241  -0.00459926  1
  Te  Te154  1  0.83469664  -0.01042033  0.33347425  1
  Te  Te155  1  0.83481917  -0.00281679  0.66924305  1
  Te  Te156  1  0.83405405  0.33982445  0.00582450  1
  Te  Te157  1  0.83683720  0.33746001  0.33569642  1
  Te  Te158  1  0.83925777  0.33098279  0.66181027  1
  Te  Te159  1  0.83538086  0.66189700  -0.00510325  1
  Te  Te160  1  0.83302006  0.66520530  0.33151910  1
  Te  Te161  1  0.83364722  0.67492040  0.67311520  1
  Te  Te162  1  -0.00027139  0.16795163  -0.01161422  1
  Te  Te163  1  0.00149816  0.16704940  0.33404456  1
  Te  Te164  1  0.00160527  0.16426416  0.66776009  1
  Te  Te165  1  -0.00535396  0.50030981  -0.00773178  1
  Te  Te166  1  -0.00168840  0.49848977  0.33412577  1
  Te  Te167  1  -0.00052346  0.49709451  0.66890270  1
  Te  Te168  1  0.00934613  0.83204782  -0.00056379  1
  Te  Te169  1  0.00053815  0.83369398  0.33389329  1
  Te  Te170  1  -0.00406989  0.84024544  0.66443653  1
  Te  Te171  1  0.33377717  0.16507644  -0.01065402  1
  Te  Te172  1  0.33133659  0.16438778  0.33533755  1
  Te  Te173  1  0.33072992  0.16642411  0.66754972  1
  Te  Te174  1  0.33531985  0.50186740  0.00240403  1
  Te  Te175  1  0.33145422  0.50211923  0.33059799  1
  Te  Te176  1  0.33241725  0.49790430  0.67301143  1
  Te  Te177  1  0.33085907  0.83313145  0.00431608  1
  Te  Te178  1  0.33267120  0.83400034  0.32876233  1
  Te  Te179  1  0.33815278  0.83342094  0.66547165  1
  Te  Te180  1  0.66670005  0.16847566  -0.00935957  1
  Te  Te181  1  0.66649855  0.16813061  0.33360838  1
  Te  Te182  1  0.66459615  0.16321024  0.67009610  1
  Te  Te183  1  0.66680624  0.50081483  -0.00714888  1
  Te  Te184  1  0.66581588  0.50271782  0.33360603  1
  Te  Te185  1  0.66583419  0.49717823  0.67465714  1
  Te  Te186  1  0.66860431  0.83232622  -0.00701168  1
  Te  Te187  1  0.67080889  0.82866634  0.33327935  1
  Te  Te188  1  0.66738964  0.83682164  0.66948492  1
  Te  Te189  1  0.00376158  0.00077818  0.17103395  1
  Te  Te190  1  0.00435642  0.00014192  0.49966333  1
  Te  Te191  1  -0.00144890  0.00132213  0.83259519  1
  Te  Te192  1  0.00115741  0.33374385  0.17233715  1
  Te  Te193  1  -0.00292930  0.33642929  0.49901864  1
  Te  Te194  1  0.00047817  0.33369669  0.83070015  1
  Te  Te195  1  0.00361752  0.66581510  0.17359047  1
  Te  Te196  1  -0.00308442  0.66018847  0.49519115  1
  Te  Te197  1  0.00032162  0.66241503  0.83280095  1
  Te  Te198  1  0.33218489  0.00455939  0.16631573  1
  Te  Te199  1  0.32924959  0.00394227  0.49412279  1
  Te  Te200  1  0.33716559  0.00068383  0.83283305  1
  Te  Te201  1  0.33110116  0.33228887  0.17060592  1
  Te  Te202  1  0.33294770  0.32878773  0.49484206  1
  Te  Te203  1  0.33206203  0.33598480  0.83361184  1
  Te  Te204  1  0.33461796  0.66583670  0.16781547  1
  Te  Te205  1  0.33757396  0.66591384  0.49706306  1
  Te  Te206  1  0.33542614  0.66388708  0.83388514  1
  Te  Te207  1  0.66388354  -0.00082227  0.16486186  1
  Te  Te208  1  0.66568013  0.00095938  0.50745838  1
  Te  Te209  1  0.66491342  -0.00158684  0.83094250  1
  Te  Te210  1  0.66893706  0.33825871  0.17269370  1
  Te  Te211  1  0.67127771  0.33874922  0.49584372  1
  Te  Te212  1  0.66833315  0.33640944  0.83249829  1
  Te  Te213  1  0.66210263  0.66194708  0.16993057  1
  Te  Te214  1  0.66725630  0.66245311  0.49926993  1
  Te  Te215  1  0.66590876  0.66741004  0.83362568  1
