# generated using pymatgen
data_AgSbTe2
_symmetry_space_group_name_H-M   'P 1'
_cell_length_a   18.36231364
_cell_length_b   18.35563392
_cell_length_c   18.36670280
_cell_angle_alpha   89.99446009
_cell_angle_beta   90.00061316
_cell_angle_gamma   90.00106735
_symmetry_Int_Tables_number   1
_chemical_formula_structural   AgSbTe2
_chemical_formula_sum   'Ag54 Sb54 Te108'
_cell_volume   6190.53217494
_cell_formula_units_Z   54
loop_
 _symmetry_equiv_pos_site_id
 _symmetry_equiv_pos_as_xyz
  1  'x, y, z'
loop_
 _atom_site_type_symbol
 _atom_site_label
 _atom_site_symmetry_multiplicity
 _atom_site_fract_x
 _atom_site_fract_y
 _atom_site_fract_z
 _atom_site_occupancy
  Ag  Ag0  1  0.66679250  0.32912782  0.34299582  1
  Ag  Ag1  1  0.17636633  0.16339993  -0.00236875  1
  Ag  Ag2  1  0.16687657  0.84389229  -0.00915696  1
  Ag  Ag3  1  0.49015409  0.33034624  0.50299833  1
  Ag  Ag4  1  0.84215221  0.48412454  0.65786197  1
  Ag  Ag5  1  0.00322468  0.00244422  -0.00529645  1
  Ag  Ag6  1  0.16310044  0.48629400  0.66186124  1
  Ag  Ag7  1  0.32923896  0.16989770  0.51052953  1
  Ag  Ag8  1  0.33409220  0.16516827  0.15808618  1
  Ag  Ag9  1  0.32709557  0.00754448  0.66993976  1
  Ag  Ag10  1  0.83922221  0.16711113  0.66565382  1
  Ag  Ag11  1  0.16845057  0.65957657  0.50500821  1
  Ag  Ag12  1  -0.00162508  0.33270470  0.34227644  1
  Ag  Ag13  1  0.83579031  0.67928736  0.17036849  1
  Ag  Ag14  1  0.83743924  0.84524179  0.00431349  1
  Ag  Ag15  1  0.17381170  0.32861379  0.50451643  1
  Ag  Ag16  1  0.00396264  0.00470836  0.66821795  1
  Ag  Ag17  1  0.33494306  0.16373577  0.83175048  1
  Ag  Ag18  1  0.84292261  0.00468665  0.50186177  1
  Ag  Ag19  1  0.83258560  0.16461557  0.34574307  1
  Ag  Ag20  1  0.17190181  0.32719016  0.82244802  1
  Ag  Ag21  1  0.50220229  0.84344043  -0.00723402  1
  Ag  Ag22  1  0.83264070  0.83961956  0.32535651  1
  Ag  Ag23  1  0.66623782  0.16429555  0.82990195  1
  Ag  Ag24  1  0.32187291  0.00505164  -0.01231866  1
  Ag  Ag25  1  -0.00389180  0.83868278  0.16832148  1
  Ag  Ag26  1  -0.00465014  0.16441964  0.82517174  1
  Ag  Ag27  1  0.16719813  0.67114641  0.82327403  1
  Ag  Ag28  1  0.00759903  0.32341783  0.66029512  1
  Ag  Ag29  1  0.49143922  0.84269210  0.67136099  1
  Ag  Ag30  1  0.83647715  0.48604149  0.34153327  1
  Ag  Ag31  1  0.84078104  0.00025346  0.15713834  1
  Ag  Ag32  1  0.00330692  0.48452517  0.50177871  1
  Ag  Ag33  1  -0.00328232  0.66604595  0.33664414  1
  Ag  Ag34  1  0.16380047  0.01017314  0.50715652  1
  Ag  Ag35  1  0.49632323  0.32476031  0.82277459  1
  Ag  Ag36  1  0.49834652  0.16435450  -0.01318385  1
  Ag  Ag37  1  0.00220775  0.16787052  0.50565084  1
  Ag  Ag38  1  0.49313340  0.66087260  0.50182411  1
  Ag  Ag39  1  0.65564319  0.84322990  0.83232303  1
  Ag  Ag40  1  0.66359759  0.32636741  -0.01176680  1
  Ag  Ag41  1  0.33594455  0.32907913  0.34711827  1
  Ag  Ag42  1  0.67648278  0.16927300  0.51179432  1
  Ag  Ag43  1  0.66088572  0.32663264  0.66351435  1
  Ag  Ag44  1  0.83269527  0.16318447  -0.00856293  1
  Ag  Ag45  1  0.50409248  0.83251363  0.34160000  1
  Ag  Ag46  1  0.32139073  0.48342814  0.50323199  1
  Ag  Ag47  1  0.33334412  0.84531860  0.83000371  1
  Ag  Ag48  1  0.49416979  0.16715458  0.66827241  1
  Ag  Ag49  1  0.32731425  0.32671708  0.66170485  1
  Ag  Ag50  1  0.16173162  0.00069606  0.15254386  1
  Ag  Ag51  1  0.83567193  0.00443310  0.83828651  1
  Ag  Ag52  1  0.17101937  0.83609857  0.67010310  1
  Ag  Ag53  1  0.50054845  0.32841726  0.17099381  1
  Sb  Sb54  1  0.33185065  0.48819826  0.17369463  1
  Sb  Sb55  1  0.33119442  0.49345070  0.82654292  1
  Sb  Sb56  1  0.66735079  0.66853968  -0.00146744  1
  Sb  Sb57  1  0.16628665  0.49730269  -0.00894317  1
  Sb  Sb58  1  0.66834186  0.00846855  0.66822791  1
  Sb  Sb59  1  0.00338799  0.66644406  0.66368402  1
  Sb  Sb60  1  0.66490312  0.16839130  0.16306527  1
  Sb  Sb61  1  0.83454827  0.84174161  0.66874667  1
  Sb  Sb62  1  0.49883408  0.49066522  -0.00087866  1
  Sb  Sb63  1  -0.00340448  0.32380969  -0.00254096  1
  Sb  Sb64  1  0.16503948  0.83535099  0.33580338  1
  Sb  Sb65  1  0.50380140  0.49761684  0.33718874  1
  Sb  Sb66  1  -0.00061964  0.50481570  0.17505605  1
  Sb  Sb67  1  0.67175836  0.83496080  0.16265054  1
  Sb  Sb68  1  0.49823013  0.49201064  0.66340157  1
  Sb  Sb69  1  0.33136462  0.66577705  0.66601797  1
  Sb  Sb70  1  0.00006625  0.67611646  0.00288725  1
  Sb  Sb71  1  0.49541392  0.67001520  0.82874229  1
  Sb  Sb72  1  0.66551142  0.83885769  0.50482918  1
  Sb  Sb73  1  0.32979329  0.66236801  0.33773513  1
  Sb  Sb74  1  0.33277978  0.00594430  0.33675146  1
  Sb  Sb75  1  0.16298933  0.67481308  0.16841083  1
  Sb  Sb76  1  0.67038374  0.00482003  -0.00209643  1
  Sb  Sb77  1  0.00039251  0.16156895  0.16802391  1
  Sb  Sb78  1  0.66478955  0.66379027  0.66569428  1
  Sb  Sb79  1  0.16688069  0.16691108  0.67216586  1
  Sb  Sb80  1  0.83870803  0.67528199  0.83597703  1
  Sb  Sb81  1  0.83014823  0.32878223  0.17025945  1
  Sb  Sb82  1  0.66984802  0.00466942  0.33503548  1
  Sb  Sb83  1  0.33699362  0.32418842  -0.00484295  1
  Sb  Sb84  1  0.83239080  0.32236234  0.82780397  1
  Sb  Sb85  1  0.32983063  0.84189954  0.16218629  1
  Sb  Sb86  1  0.17002553  0.32612903  0.16794346  1
  Sb  Sb87  1  0.16090506  0.49748242  0.34354914  1
  Sb  Sb88  1  0.66792332  0.49125653  0.83001434  1
  Sb  Sb89  1  0.33229056  0.67866172  -0.00209867  1
  Sb  Sb90  1  0.83825794  0.32477848  0.50182998  1
  Sb  Sb91  1  0.67282783  0.66363677  0.33546835  1
  Sb  Sb92  1  0.49995604  0.00821926  0.83298225  1
  Sb  Sb93  1  0.16433606  0.00503581  0.83213073  1
  Sb  Sb94  1  0.00027587  0.49084411  0.82553187  1
  Sb  Sb95  1  0.00089908  0.83831767  0.49765354  1
  Sb  Sb96  1  0.33271548  0.83868821  0.50524044  1
  Sb  Sb97  1  0.00521287  0.84127212  0.83664336  1
  Sb  Sb98  1  0.49916540  0.00483499  0.16416399  1
  Sb  Sb99  1  0.83438747  0.49654960  0.00036921  1
  Sb  Sb100  1  0.67016353  0.49037347  0.50153662  1
  Sb  Sb101  1  0.16469684  0.16656670  0.33495283  1
  Sb  Sb102  1  0.50311887  0.66823298  0.17087679  1
  Sb  Sb103  1  0.49739147  0.00667162  0.50273778  1
  Sb  Sb104  1  0.83569391  0.66950913  0.49606392  1
  Sb  Sb105  1  0.50247019  0.16764486  0.33743302  1
  Sb  Sb106  1  -0.00185275  0.00270656  0.33555259  1
  Sb  Sb107  1  0.66808384  0.49601813  0.16826590  1
  Te  Te108  1  0.17008222  0.16185846  0.16253424  1
  Te  Te109  1  0.16564771  0.16954211  0.49623000  1
  Te  Te110  1  0.16867268  0.16949207  0.83895572  1
  Te  Te111  1  0.16796821  0.50232763  0.16433763  1
  Te  Te112  1  0.16384847  0.49880980  0.50297367  1
  Te  Te113  1  0.16620127  0.50132453  0.82474655  1
  Te  Te114  1  0.16244165  0.83903900  0.16492268  1
  Te  Te115  1  0.16772349  0.83358628  0.50332941  1
  Te  Te116  1  0.16886672  0.83228654  0.83341286  1
  Te  Te117  1  0.49727944  0.17028345  0.17000428  1
  Te  Te118  1  0.49521592  0.17027897  0.50280847  1
  Te  Te119  1  0.50142973  0.16857390  0.83010590  1
  Te  Te120  1  0.49847935  0.49440621  0.16798664  1
  Te  Te121  1  0.50102576  0.50078022  0.50008558  1
  Te  Te122  1  0.49987217  0.49710490  0.83267825  1
  Te  Te123  1  0.49978929  0.83232113  0.16156850  1
  Te  Te124  1  0.50000515  0.83642595  0.50161307  1
  Te  Te125  1  0.49698323  0.83130132  0.83239653  1
  Te  Te126  1  0.83285184  0.16070980  0.16267608  1
  Te  Te127  1  0.83482103  0.16428411  0.50295240  1
  Te  Te128  1  0.83396846  0.16440897  0.83113091  1
  Te  Te129  1  0.83444236  0.50134385  0.17010833  1
  Te  Te130  1  0.83738616  0.50602936  0.49978194  1
  Te  Te131  1  0.83381839  0.50532892  0.83017898  1
  Te  Te132  1  0.83329623  0.83771529  0.16540000  1
  Te  Te133  1  0.83203580  0.84021601  0.49842445  1
  Te  Te134  1  0.83430357  0.83864593  0.83765457  1
  Te  Te135  1  0.16492284  0.00084313  -0.00311793  1
  Te  Te136  1  0.16722078  -0.00095078  0.33631643  1
  Te  Te137  1  0.16654533  -0.00301358  0.66646735  1
  Te  Te138  1  0.16599589  0.32811492  -0.00113241  1
  Te  Te139  1  0.16653860  0.33361955  0.33416844  1
  Te  Te140  1  0.16584824  0.33116727  0.66553945  1
  Te  Te141  1  0.16641973  0.66896093  -0.00121481  1
  Te  Te142  1  0.16049923  0.66689931  0.33678650  1
  Te  Te143  1  0.16648768  0.67516810  0.66374877  1
  Te  Te144  1  0.49902942  0.00192505  0.00229531  1
  Te  Te145  1  0.50069899  -0.00838260  0.33259427  1
  Te  Te146  1  0.49525931  0.00138912  0.66642854  1
  Te  Te147  1  0.50336130  0.32896900  0.00064853  1
  Te  Te148  1  0.50042076  0.33335864  0.33592836  1
  Te  Te149  1  0.49990378  0.33179313  0.66424997  1
  Te  Te150  1  0.50000589  0.66801323  0.00062283  1
  Te  Te151  1  0.50007439  0.67100074  0.33728097  1
  Te  Te152  1  0.49946589  0.66852921  0.66104988  1
  Te  Te153  1  0.83216908  0.00168075  -0.00056650  1
  Te  Te154  1  0.83361026  0.00128796  0.33895587  1
  Te  Te155  1  0.83577944  0.00501782  0.66307061  1
  Te  Te156  1  0.82802246  0.32990488  0.00051926  1
  Te  Te157  1  0.83350295  0.32937147  0.33231804  1
  Te  Te158  1  0.83587302  0.32954257  0.66832528  1
  Te  Te159  1  0.83361039  0.66720115  0.00522263  1
  Te  Te160  1  0.83689509  0.67690149  0.33121003  1
  Te  Te161  1  0.83381652  0.66807004  0.66777718  1
  Te  Te162  1  -0.00700870  0.16244823  0.00168482  1
  Te  Te163  1  -0.00532826  0.17137767  0.33491429  1
  Te  Te164  1  0.00140938  0.16481780  0.66653295  1
  Te  Te165  1  0.00054371  0.49867115  -0.00052626  1
  Te  Te166  1  -0.00430319  0.49817164  0.33896628  1
  Te  Te167  1  0.00103863  0.50112508  0.66149850  1
  Te  Te168  1  -0.00140865  0.83989071  0.00271036  1
  Te  Te169  1  -0.00250919  0.83155330  0.32902717  1
  Te  Te170  1  0.00309703  0.83786330  0.66746029  1
  Te  Te171  1  0.33595631  0.16412059  -0.00277170  1
  Te  Te172  1  0.33442260  0.17093652  0.33463892  1
  Te  Te173  1  0.33179737  0.16612117  0.66918415  1
  Te  Te174  1  0.33212532  0.50267667  0.00148245  1
  Te  Te175  1  0.33445383  0.49335602  0.34157978  1
  Te  Te176  1  0.32940812  0.49640046  0.66070571  1
  Te  Te177  1  0.33186798  0.84268702  -0.00228029  1
  Te  Te178  1  0.33917080  0.83187698  0.33168646  1
  Te  Te179  1  0.33402690  0.83315932  0.67001538  1
  Te  Te180  1  0.66355532  0.16951200  -0.00239879  1
  Te  Te181  1  0.67036706  0.17111462  0.33301187  1
  Te  Te182  1  0.66493995  0.16765324  0.66803594  1
  Te  Te183  1  0.66685214  0.49133789  -0.00075472  1
  Te  Te184  1  0.67618436  0.49536205  0.33413633  1
  Te  Te185  1  0.67380008  0.49337441  0.66690970  1
  Te  Te186  1  0.66335570  0.83178466  -0.00654669  1
  Te  Te187  1  0.66615096  0.83231168  0.33421987  1
  Te  Te188  1  0.66423027  0.83172962  0.67278464  1
  Te  Te189  1  0.00056204  -0.00230226  0.16847759  1
  Te  Te190  1  0.00286838  0.00400313  0.50223119  1
  Te  Te191  1  -0.00396873  0.00438478  0.83252366  1
  Te  Te192  1  0.00013266  0.33547373  0.16969225  1
  Te  Te193  1  -0.00079754  0.32952323  0.50037077  1
  Te  Te194  1  0.00500141  0.32529206  0.82932774  1
  Te  Te195  1  -0.00423500  0.67174869  0.17105987  1
  Te  Te196  1  0.00367832  0.67159185  0.49716305  1
  Te  Te197  1  0.00689734  0.66364062  0.83511749  1
  Te  Te198  1  0.32997285  0.00707323  0.16842126  1
  Te  Te199  1  0.32753274  0.00605701  0.50414657  1
  Te  Te200  1  0.33616040  0.00134589  0.83155185  1
  Te  Te201  1  0.33777499  0.32582808  0.16613886  1
  Te  Te202  1  0.33198290  0.32931516  0.50182215  1
  Te  Te203  1  0.33425486  0.32987035  0.82880120  1
  Te  Te204  1  0.33491467  0.66397912  0.16779184  1
  Te  Te205  1  0.33229687  0.66979609  0.49945739  1
  Te  Te206  1  0.32684026  0.66532991  0.83429346  1
  Te  Te207  1  0.67450441  -0.00016254  0.16791558  1
  Te  Te208  1  0.66958818  0.00736753  0.50048421  1
  Te  Te209  1  0.67403643  0.00022050  0.83305173  1
  Te  Te210  1  0.66157031  0.33405910  0.17283591  1
  Te  Te211  1  0.66416702  0.32843284  0.50259004  1
  Te  Te212  1  0.66362753  0.32758775  0.82963253  1
  Te  Te213  1  0.67270763  0.66508756  0.16654530  1
  Te  Te214  1  0.65929091  0.66790025  0.50060669  1
  Te  Te215  1  0.66650440  0.66803436  0.83268292  1
