# generated using pymatgen
data_AgSbTe2
_symmetry_space_group_name_H-M   'P 1'
_cell_length_a   18.32488773
_cell_length_b   18.32241302
_cell_length_c   18.31945683
_cell_angle_alpha   89.99773096
_cell_angle_beta   90.00102213
_cell_angle_gamma   90.00135301
_symmetry_Int_Tables_number   1
_chemical_formula_structural   AgSbTe2
_chemical_formula_sum   'Ag54 Sb54 Te108'
_cell_volume   6150.87050144
_cell_formula_units_Z   54
loop_
 _symmetry_equiv_pos_site_id
 _symmetry_equiv_pos_as_xyz
  1  'x, y, z'
loop_
 _atom_site_type_symbol
 _atom_site_label
 _atom_site_symmetry_multiplicity
 _atom_site_fract_x
 _atom_site_fract_y
 _atom_site_fract_z
 _atom_site_occupancy
  Ag  Ag0  1  0.16301896  -0.00257034  0.17062048  1
  Ag  Ag1  1  0.66865665  0.83469752  0.48774254  1
  Ag  Ag2  1  0.82978262  0.66358895  0.49601417  1
  Ag  Ag3  1  0.33964091  0.32535459  0.33153763  1
  Ag  Ag4  1  0.66710579  0.67705050  0.33106594  1
  Ag  Ag5  1  0.16361319  0.83618454  -0.00006825  1
  Ag  Ag6  1  0.50046186  0.33351866  0.49473157  1
  Ag  Ag7  1  0.83511330  0.16564111  0.65388677  1
  Ag  Ag8  1  0.83488248  -0.01018550  0.17151434  1
  Ag  Ag9  1  0.33408448  0.50124491  0.83594548  1
  Ag  Ag10  1  -0.00716114  0.00219643  0.32946605  1
  Ag  Ag11  1  -0.00478653  0.16776627  0.49524137  1
  Ag  Ag12  1  0.16663091  0.32383064  0.49872250  1
  Ag  Ag13  1  0.82927211  0.16023281  0.33688189  1
  Ag  Ag14  1  0.49636804  0.33327615  0.17669925  1
  Ag  Ag15  1  0.49683872  0.33274334  0.83270866  1
  Ag  Ag16  1  0.50146563  0.16806950  0.33524032  1
  Ag  Ag17  1  0.66381173  0.83517445  0.84109429  1
  Ag  Ag18  1  -0.00906095  0.49031612  0.50293658  1
  Ag  Ag19  1  0.67078753  -0.00439496  0.33068586  1
  Ag  Ag20  1  0.82425053  0.67756181  0.17233234  1
  Ag  Ag21  1  0.00509337  0.50211071  0.82943276  1
  Ag  Ag22  1  0.33680740  0.50113750  0.16261521  1
  Ag  Ag23  1  0.32963957  0.33613438  0.00545434  1
  Ag  Ag24  1  0.16650386  0.16391675  0.00362830  1
  Ag  Ag25  1  0.67368085  0.16564540  0.49542895  1
  Ag  Ag26  1  0.83207853  0.33158476  0.49881910  1
  Ag  Ag27  1  -0.01439646  0.83927605  0.16160381  1
  Ag  Ag28  1  0.16919915  0.49560773  0.00048049  1
  Ag  Ag29  1  0.82821546  0.83368044  0.01175166  1
  Ag  Ag30  1  0.00264037  -0.00177582  0.66000283  1
  Ag  Ag31  1  0.67271198  0.83403274  0.16528049  1
  Ag  Ag32  1  0.33151340  0.16679731  0.49718485  1
  Ag  Ag33  1  0.50442741  0.67828772  0.16920375  1
  Ag  Ag34  1  0.50172104  -0.00471744  0.16957208  1
  Ag  Ag35  1  0.49997659  0.49129793  0.33584326  1
  Ag  Ag36  1  0.49892845  0.50246566  0.66196704  1
  Ag  Ag37  1  0.66761952  0.67635283  0.01080509  1
  Ag  Ag38  1  0.33679700  0.67678028  0.66570165  1
  Ag  Ag39  1  0.33184459  -0.00542303  0.66174310  1
  Ag  Ag40  1  0.66559939  -0.00701004  0.01281251  1
  Ag  Ag41  1  0.00868457  0.33296331  0.00148492  1
  Ag  Ag42  1  -0.00060719  0.15493537  0.17634166  1
  Ag  Ag43  1  0.33627275  0.00251140  0.33282582  1
  Ag  Ag44  1  0.49983432  -0.00500403  0.83413051  1
  Ag  Ag45  1  0.33583834  0.83330677  0.83179547  1
  Ag  Ag46  1  0.82839711  0.84197111  0.32520174  1
  Ag  Ag47  1  0.17576976  0.83745240  0.67061641  1
  Ag  Ag48  1  0.33704319  0.83601039  0.16296753  1
  Ag  Ag49  1  0.67113912  0.49841306  0.49945060  1
  Ag  Ag50  1  0.83225929  0.49905165  0.65872823  1
  Ag  Ag51  1  0.49496613  0.83242601  0.66842632  1
  Ag  Ag52  1  0.16729786  0.00370207  0.49502371  1
  Ag  Ag53  1  0.00146616  0.83408289  0.83911343  1
  Sb  Sb54  1  0.83061979  0.33506381  0.82926655  1
  Sb  Sb55  1  0.83006379  0.33159694  0.17238803  1
  Sb  Sb56  1  0.00386980  0.32740395  0.33331731  1
  Sb  Sb57  1  0.16296890  0.83841659  0.33149176  1
  Sb  Sb58  1  0.33546447  0.33194119  0.66453449  1
  Sb  Sb59  1  0.16991824  0.33431064  0.83315922  1
  Sb  Sb60  1  0.65796264  0.50930420  0.17401772  1
  Sb  Sb61  1  -0.00469865  0.83955460  0.49852422  1
  Sb  Sb62  1  -0.00050221  -0.00006518  0.00517052  1
  Sb  Sb63  1  0.83120446  0.66875374  0.83239034  1
  Sb  Sb64  1  0.00153883  0.67066080  0.66526815  1
  Sb  Sb65  1  0.83775613  0.50417454  -0.00268444  1
  Sb  Sb66  1  0.16918940  0.67471006  0.16538965  1
  Sb  Sb67  1  0.50591635  0.66310212  0.49549246  1
  Sb  Sb68  1  0.49741253  0.00398978  0.49661497  1
  Sb  Sb69  1  0.50266155  0.16548976  0.65888405  1
  Sb  Sb70  1  0.16446032  0.16011121  0.66491772  1
  Sb  Sb71  1  -0.00031678  0.33103406  0.66596947  1
  Sb  Sb72  1  -0.00043538  0.16382902  0.83249153  1
  Sb  Sb73  1  0.17025006  -0.00371770  0.83395640  1
  Sb  Sb74  1  0.00425255  0.50187846  0.16728319  1
  Sb  Sb75  1  0.66273724  0.50540599  0.82885190  1
  Sb  Sb76  1  0.83786180  0.16144398  0.00628592  1
  Sb  Sb77  1  0.66360019  0.33234759  0.00248014  1
  Sb  Sb78  1  0.17117941  0.32764284  0.16715410  1
  Sb  Sb79  1  0.33513248  0.16435205  0.83012686  1
  Sb  Sb80  1  0.50280094  0.83459802  0.00038090  1
  Sb  Sb81  1  0.83639564  0.00318655  0.49301035  1
  Sb  Sb82  1  0.17194023  0.49683501  0.33058397  1
  Sb  Sb83  1  0.16778144  0.16337656  0.33309462  1
  Sb  Sb84  1  -0.00385716  0.66860445  0.00125125  1
  Sb  Sb85  1  0.33607195  0.49382693  0.50009233  1
  Sb  Sb86  1  0.33816033  0.83888603  0.50088730  1
  Sb  Sb87  1  0.82708857  0.50053893  0.33897607  1
  Sb  Sb88  1  0.49951557  0.67002364  0.83529206  1
  Sb  Sb89  1  0.50605275  0.83788147  0.33306960  1
  Sb  Sb90  1  0.66009185  0.33013883  0.33503612  1
  Sb  Sb91  1  0.16862707  0.50344161  0.66889432  1
  Sb  Sb92  1  0.49638752  0.16630078  0.00756389  1
  Sb  Sb93  1  0.66609231  0.33386514  0.66238132  1
  Sb  Sb94  1  0.49599813  0.49905368  0.00168692  1
  Sb  Sb95  1  0.83204190  0.83422633  0.66415535  1
  Sb  Sb96  1  0.66630602  -0.00298008  0.66070553  1
  Sb  Sb97  1  0.33772585  0.66612907  -0.00103412  1
  Sb  Sb98  1  0.66840574  0.15581380  0.17405451  1
  Sb  Sb99  1  0.34186126  0.66908516  0.33523765  1
  Sb  Sb100  1  0.66425794  0.16002939  0.82861095  1
  Sb  Sb101  1  -0.00967069  0.67330321  0.33402108  1
  Sb  Sb102  1  0.33516227  0.00038222  0.00349148  1
  Sb  Sb103  1  0.83012477  -0.00237250  0.83701740  1
  Sb  Sb104  1  0.66360727  0.66917547  0.66192337  1
  Sb  Sb105  1  0.16836520  0.66900513  0.83424002  1
  Sb  Sb106  1  0.33139895  0.16363037  0.17210255  1
  Sb  Sb107  1  0.16241208  0.66957111  0.50074889  1
  Te  Te108  1  0.16180041  0.16144990  0.16269183  1
  Te  Te109  1  0.16586210  0.16460629  0.50147953  1
  Te  Te110  1  0.16683592  0.16640758  0.84188129  1
  Te  Te111  1  0.17358328  0.50098163  0.16164970  1
  Te  Te112  1  0.16312196  0.49915637  0.50026373  1
  Te  Te113  1  0.16707082  0.50021860  0.83705301  1
  Te  Te114  1  0.17409830  0.83785173  0.16459708  1
  Te  Te115  1  0.16464695  0.83848637  0.50374553  1
  Te  Te116  1  0.16725257  0.83404223  0.83429528  1
  Te  Te117  1  0.50085574  0.16603008  0.17384123  1
  Te  Te118  1  0.50037527  0.17121761  0.49602210  1
  Te  Te119  1  0.50059914  0.16795430  0.83158729  1
  Te  Te120  1  0.49512830  0.49354763  0.16823206  1
  Te  Te121  1  0.50077641  0.49654506  0.50136140  1
  Te  Te122  1  0.49686020  0.49930128  0.82959850  1
  Te  Te123  1  0.49629106  0.83571269  0.16762926  1
  Te  Te124  1  0.50677185  0.83165694  0.50475246  1
  Te  Te125  1  0.49658649  0.83474886  0.83165288  1
  Te  Te126  1  0.83863282  0.16579289  0.17305876  1
  Te  Te127  1  0.83390556  0.16667605  0.49735934  1
  Te  Te128  1  0.83156899  0.16810990  0.82764758  1
  Te  Te129  1  0.83350564  0.50219088  0.16700821  1
  Te  Te130  1  0.83228613  0.49652987  0.50060572  1
  Te  Te131  1  0.83602854  0.50064620  0.82624048  1
  Te  Te132  1  0.83067635  0.83320988  0.16802129  1
  Te  Te133  1  0.82862472  0.82998283  0.49792092  1
  Te  Te134  1  0.83539835  0.83281559  0.83348587  1
  Te  Te135  1  0.16697356  -0.00151766  0.00446329  1
  Te  Te136  1  0.17025135  -0.00080021  0.33279664  1
  Te  Te137  1  0.16764602  -0.00341642  0.66673456  1
  Te  Te138  1  0.16881049  0.33534558  0.00019830  1
  Te  Te139  1  0.17558557  0.33278320  0.33908001  1
  Te  Te140  1  0.16711676  0.33291303  0.65925240  1
  Te  Te141  1  0.16657558  0.66959156  0.00122378  1
  Te  Te142  1  0.16600723  0.66695434  0.33354825  1
  Te  Te143  1  0.17297798  0.67507172  0.66597512  1
  Te  Te144  1  0.50406895  0.00203174  0.00127957  1
  Te  Te145  1  0.49748884  0.00316567  0.33134411  1
  Te  Te146  1  0.49824939  -0.00195301  0.66752962  1
  Te  Te147  1  0.49530946  0.33243791  -0.00284757  1
  Te  Te148  1  0.49726094  0.33202357  0.33482009  1
  Te  Te149  1  0.49939899  0.33637881  0.66673551  1
  Te  Te150  1  0.50604203  0.66531722  0.00836295  1
  Te  Te151  1  0.50596068  0.66258977  0.32834237  1
  Te  Te152  1  0.49676232  0.66627950  0.66613841  1
  Te  Te153  1  0.82883051  -0.00394851  0.00572560  1
  Te  Te154  1  0.83313118  0.00098196  0.33121585  1
  Te  Te155  1  0.83632293  0.00340264  0.66830044  1
  Te  Te156  1  0.83609258  0.33283866  0.00029242  1
  Te  Te157  1  0.83492801  0.32863211  0.33866945  1
  Te  Te158  1  0.83366659  0.33511499  0.66151409  1
  Te  Te159  1  0.82878119  0.67154745  0.00340630  1
  Te  Te160  1  0.82735178  0.66656849  0.33387444  1
  Te  Te161  1  0.83314439  0.66161452  0.66037152  1
  Te  Te162  1  0.00267650  0.17062340  -0.00016740  1
  Te  Te163  1  -0.00061660  0.16289034  0.33416638  1
  Te  Te164  1  -0.00310548  0.16149162  0.66424644  1
  Te  Te165  1  0.00461374  0.49750933  -0.00177242  1
  Te  Te166  1  0.00189522  0.49913721  0.33809192  1
  Te  Te167  1  0.00001936  0.50130772  0.66731257  1
  Te  Te168  1  0.00220532  0.83388860  -0.00001967  1
  Te  Te169  1  -0.00595142  0.84041834  0.32910448  1
  Te  Te170  1  0.00082099  0.83763007  0.66830754  1
  Te  Te171  1  0.32883766  0.17209188  -0.00064890  1
  Te  Te172  1  0.33518164  0.16493421  0.33662305  1
  Te  Te173  1  0.33335704  0.15893045  0.66130212  1
  Te  Te174  1  0.33061345  0.49955072  -0.00177409  1
  Te  Te175  1  0.33913124  0.50115423  0.32938712  1
  Te  Te176  1  0.33610436  0.49982428  0.67111165  1
  Te  Te177  1  0.32978254  0.83248742  -0.00149945  1
  Te  Te178  1  0.33398454  0.83767887  0.33088533  1
  Te  Te179  1  0.33496932  0.83622308  0.66485186  1
  Te  Te180  1  0.66798290  0.16196093  -0.00106170  1
  Te  Te181  1  0.66624441  0.16335026  0.33709813  1
  Te  Te182  1  0.67275596  0.16527638  0.65858231  1
  Te  Te183  1  0.66912340  0.50245099  -0.00128688  1
  Te  Te184  1  0.66033759  0.50129781  0.33999460  1
  Te  Te185  1  0.66494958  0.50173448  0.66176692  1
  Te  Te186  1  0.66660317  0.83574059  0.00197724  1
  Te  Te187  1  0.66684537  0.83542305  0.33078204  1
  Te  Te188  1  0.66260967  0.83295662  0.67410526  1
  Te  Te189  1  0.00033031  -0.00117432  0.16645767  1
  Te  Te190  1  0.00374728  0.00321319  0.49877513  1
  Te  Te191  1  -0.00030040  -0.00494429  0.82993427  1
  Te  Te192  1  0.00019624  0.33321987  0.16312636  1
  Te  Te193  1  -0.00004638  0.33056972  0.49972248  1
  Te  Te194  1  -0.00034393  0.33666017  0.83776724  1
  Te  Te195  1  -0.00344286  0.67195536  0.16819856  1
  Te  Te196  1  -0.00615939  0.66093366  0.49925553  1
  Te  Te197  1  -0.00073694  0.66618304  0.83307328  1
  Te  Te198  1  0.33578219  -0.00161886  0.16852712  1
  Te  Te199  1  0.33061354  0.00335878  0.49787420  1
  Te  Te200  1  0.33845992  -0.00346501  0.83196538  1
  Te  Te201  1  0.33547717  0.33167113  0.16718233  1
  Te  Te202  1  0.33579749  0.32912337  0.49754362  1
  Te  Te203  1  0.33637332  0.33477393  0.83530071  1
  Te  Te204  1  0.33805369  0.66789208  0.16711486  1
  Te  Te205  1  0.33210713  0.66617779  0.50432859  1
  Te  Te206  1  0.33485760  0.66820846  0.82910987  1
  Te  Te207  1  0.66488849  -0.00392224  0.16979292  1
  Te  Te208  1  0.66577338  -0.00094721  0.49346986  1
  Te  Te209  1  0.66142566  -0.00544129  0.83324845  1
  Te  Te210  1  0.65952934  0.33489164  0.16627469  1
  Te  Te211  1  0.66614869  0.33288579  0.49878335  1
  Te  Te212  1  0.65897421  0.33430522  0.83447688  1
  Te  Te213  1  0.66522475  0.67004950  0.16909622  1
  Te  Te214  1  0.67051697  0.66825985  0.49608011  1
  Te  Te215  1  0.66594854  0.67380682  0.83936868  1
