# generated using pymatgen
data_AgSbTe2
_symmetry_space_group_name_H-M   'P 1'
_cell_length_a   18.33603791
_cell_length_b   18.34237679
_cell_length_c   18.32486918
_cell_angle_alpha   89.99765313
_cell_angle_beta   90.00096382
_cell_angle_gamma   89.99958974
_symmetry_Int_Tables_number   1
_chemical_formula_structural   AgSbTe2
_chemical_formula_sum   'Ag54 Sb54 Te108'
_cell_volume   6163.13940601
_cell_formula_units_Z   54
loop_
 _symmetry_equiv_pos_site_id
 _symmetry_equiv_pos_as_xyz
  1  'x, y, z'
loop_
 _atom_site_type_symbol
 _atom_site_label
 _atom_site_symmetry_multiplicity
 _atom_site_fract_x
 _atom_site_fract_y
 _atom_site_fract_z
 _atom_site_occupancy
  Ag  Ag0  1  0.83243511  0.33509407  0.17122385  1
  Ag  Ag1  1  0.16726416  0.16639143  0.65736733  1
  Ag  Ag2  1  0.66553062  0.32851601  0.65904303  1
  Ag  Ag3  1  -0.00432551  0.82913139  0.50294422  1
  Ag  Ag4  1  0.33271574  0.49846083  0.83844411  1
  Ag  Ag5  1  0.83909069  0.17332264  0.33662243  1
  Ag  Ag6  1  0.17386907  0.32834235  0.17011651  1
  Ag  Ag7  1  0.66426493  0.00544200  0.66030311  1
  Ag  Ag8  1  0.83149992  0.32970915  0.49324416  1
  Ag  Ag9  1  0.16528305  0.32426478  0.49942233  1
  Ag  Ag10  1  0.00228562  0.66888693  0.66353032  1
  Ag  Ag11  1  0.00672376  0.16642967  0.49776977  1
  Ag  Ag12  1  0.50719279  0.32610612  0.50103783  1
  Ag  Ag13  1  0.49699241  0.16551886  0.00714132  1
  Ag  Ag14  1  0.49586616  0.33309150  0.83927967  1
  Ag  Ag15  1  0.49542948  0.66386702  0.83909620  1
  Ag  Ag16  1  0.49612547  0.32703243  0.16167593  1
  Ag  Ag17  1  -0.00227450  0.66707603  0.34042528  1
  Ag  Ag18  1  0.50347300  0.66921735  0.16005653  1
  Ag  Ag19  1  0.16135399  0.66259225  0.16308072  1
  Ag  Ag20  1  0.83131008  0.00544459  0.50016807  1
  Ag  Ag21  1  0.00183366  0.16653674  0.17255692  1
  Ag  Ag22  1  0.33583714  0.00972195  0.00004966  1
  Ag  Ag23  1  0.50069668  0.00837558  0.16393050  1
  Ag  Ag24  1  0.33747927  0.17228754  0.15877540  1
  Ag  Ag25  1  0.16090515  0.16761610  0.34312691  1
  Ag  Ag26  1  0.67680246  0.83963200  0.49963895  1
  Ag  Ag27  1  0.50467730  0.83317214  0.00234224  1
  Ag  Ag28  1  0.31972512  0.16794393  0.50088203  1
  Ag  Ag29  1  0.16385020  0.01116368  0.50731006  1
  Ag  Ag30  1  0.67914272  0.48730179  0.50186506  1
  Ag  Ag31  1  0.66991276  0.16764238  0.49728803  1
  Ag  Ag32  1  0.32053892  0.66461812  0.66969170  1
  Ag  Ag33  1  0.82919424  0.82885464  0.00525183  1
  Ag  Ag34  1  0.65918164  0.16625341  0.17090227  1
  Ag  Ag35  1  0.67014103  0.83142399  0.16425810  1
  Ag  Ag36  1  0.33301047  0.49151795  0.16110620  1
  Ag  Ag37  1  0.16349071  0.82868364  0.66821202  1
  Ag  Ag38  1  0.00177632  0.82947611  0.82945278  1
  Ag  Ag39  1  0.00957473  0.16296469  0.82699460  1
  Ag  Ag40  1  -0.00364925  0.50400452  0.49993641  1
  Ag  Ag41  1  0.33652250  0.32936527  0.00198174  1
  Ag  Ag42  1  0.66879039  0.66869645  0.00211869  1
  Ag  Ag43  1  0.16738794  0.50529195  0.66532622  1
  Ag  Ag44  1  0.83538482  0.49777061  0.33384034  1
  Ag  Ag45  1  0.50763455  0.00803010  0.49745833  1
  Ag  Ag46  1  0.83751747  0.66311209  0.49753390  1
  Ag  Ag47  1  -0.00615905  0.82924724  0.16475532  1
  Ag  Ag48  1  0.16719870  0.00294613  0.82689501  1
  Ag  Ag49  1  0.32932716  0.17147049  0.83965644  1
  Ag  Ag50  1  0.83922868  0.66685923  0.83996764  1
  Ag  Ag51  1  0.16528735  0.66973713  0.82659812  1
  Ag  Ag52  1  0.83262759  0.50964925  0.01001380  1
  Ag  Ag53  1  0.83527335  0.66409679  0.16306026  1
  Sb  Sb54  1  0.67388622  0.66633076  0.32902259  1
  Sb  Sb55  1  0.49801633  0.83290848  0.67017287  1
  Sb  Sb56  1  0.83814562  0.83222513  0.66521498  1
  Sb  Sb57  1  0.16434182  0.50111808  -0.00119585  1
  Sb  Sb58  1  0.66454641  0.16659112  0.83170529  1
  Sb  Sb59  1  0.33242242  0.00502947  0.33038590  1
  Sb  Sb60  1  0.49446226  0.00133112  0.83522051  1
  Sb  Sb61  1  0.83750231  0.50097770  0.66102974  1
  Sb  Sb62  1  0.83857057  0.16654825  0.65834393  1
  Sb  Sb63  1  0.00001668  0.50108016  0.17140765  1
  Sb  Sb64  1  0.83906168  -0.00356314  0.82880110  1
  Sb  Sb65  1  0.66813650  0.00249930  0.33947034  1
  Sb  Sb66  1  0.00145278  -0.00360041  0.66235151  1
  Sb  Sb67  1  0.33180847  0.33142093  0.32720331  1
  Sb  Sb68  1  -0.00137319  0.33288579  0.33531114  1
  Sb  Sb69  1  0.50251987  0.50020301  0.00109075  1
  Sb  Sb70  1  0.50570098  0.49877144  0.33174025  1
  Sb  Sb71  1  0.66251125  0.33589035  0.00054612  1
  Sb  Sb72  1  0.32824551  0.83137739  0.83486166  1
  Sb  Sb73  1  0.33228200  0.00016483  0.66878261  1
  Sb  Sb74  1  0.33499005  0.83335242  0.16253715  1
  Sb  Sb75  1  0.83496907  0.83137010  0.33287566  1
  Sb  Sb76  1  0.66685736  0.49893844  0.16942178  1
  Sb  Sb77  1  0.32663575  0.66398510  0.33461630  1
  Sb  Sb78  1  0.16042625  0.49661780  0.33620520  1
  Sb  Sb79  1  0.00350284  0.33031266  0.00221060  1
  Sb  Sb80  1  0.66243668  -0.00347854  -0.00080226  1
  Sb  Sb81  1  0.50718016  0.66686104  0.49993574  1
  Sb  Sb82  1  0.67196307  0.83183502  0.83398957  1
  Sb  Sb83  1  -0.00689253  0.66802754  -0.00091495  1
  Sb  Sb84  1  0.33510744  0.33436244  0.66936981  1
  Sb  Sb85  1  0.17446954  0.16684285  0.00027850  1
  Sb  Sb86  1  0.49652118  0.16713624  0.66463774  1
  Sb  Sb87  1  0.49559228  0.49922357  0.66724039  1
  Sb  Sb88  1  -0.00025539  -0.00007556  0.33586089  1
  Sb  Sb89  1  0.16962640  0.00359107  0.16682591  1
  Sb  Sb90  1  0.50282716  0.83330691  0.32771824  1
  Sb  Sb91  1  0.32991277  0.49312541  0.50026648  1
  Sb  Sb92  1  0.67004795  0.66660979  0.66762803  1
  Sb  Sb93  1  0.16199031  0.83581475  0.33709360  1
  Sb  Sb94  1  0.66969496  0.33179012  0.33770954  1
  Sb  Sb95  1  0.00412512  0.00053313  -0.00079221  1
  Sb  Sb96  1  0.00332245  0.50310684  0.82836218  1
  Sb  Sb97  1  0.17175770  0.33223506  0.83132031  1
  Sb  Sb98  1  0.33059969  0.83902203  0.50311038  1
  Sb  Sb99  1  -0.00034906  0.33501658  0.66273148  1
  Sb  Sb100  1  0.16514060  0.83175692  -0.00280536  1
  Sb  Sb101  1  0.66388692  0.50138102  0.82887072  1
  Sb  Sb102  1  0.82785211  0.16564021  0.00679395  1
  Sb  Sb103  1  0.33817096  0.66532775  -0.00252410  1
  Sb  Sb104  1  0.15936315  0.66667020  0.50368333  1
  Sb  Sb105  1  0.82982671  0.33707313  0.83438491  1
  Sb  Sb106  1  0.50001031  0.16753389  0.33245903  1
  Sb  Sb107  1  0.82820016  0.00052029  0.17216696  1
  Te  Te108  1  0.16474415  0.16716435  0.16643427  1
  Te  Te109  1  0.16364684  0.16767008  0.50000747  1
  Te  Te110  1  0.16786370  0.16698473  0.83440679  1
  Te  Te111  1  0.16758630  0.49928703  0.16711065  1
  Te  Te112  1  0.16256902  0.49631667  0.50316542  1
  Te  Te113  1  0.17068189  0.50203969  0.83041421  1
  Te  Te114  1  0.16221215  0.83347021  0.16682560  1
  Te  Te115  1  0.16214861  0.83516329  0.50492676  1
  Te  Te116  1  0.16198466  0.82964689  0.83112043  1
  Te  Te117  1  0.49876394  0.16771230  0.16941376  1
  Te  Te118  1  0.51015120  0.16663504  0.49862066  1
  Te  Te119  1  0.49598831  0.16919741  0.83446522  1
  Te  Te120  1  0.49840220  0.49868577  0.16741592  1
  Te  Te121  1  0.50110452  0.49646559  0.49819704  1
  Te  Te122  1  0.49463609  0.50035914  0.83396484  1
  Te  Te123  1  0.50263360  0.82953100  0.16262431  1
  Te  Te124  1  0.50047877  0.83612921  0.50004616  1
  Te  Te125  1  0.50069189  0.83104090  0.83846472  1
  Te  Te126  1  0.83625123  0.16761302  0.16943731  1
  Te  Te127  1  0.82933517  0.16972785  0.49867064  1
  Te  Te128  1  0.83751992  0.16645329  0.83529110  1
  Te  Te129  1  0.83277072  0.49939113  0.16937270  1
  Te  Te130  1  0.83608212  0.50045161  0.50023037  1
  Te  Te131  1  0.83390265  0.50521047  0.83430474  1
  Te  Te132  1  0.83150331  0.83342959  0.16672127  1
  Te  Te133  1  0.83584387  0.83233178  0.49910933  1
  Te  Te134  1  0.83955939  0.82886155  0.83662690  1
  Te  Te135  1  0.17357074  -0.00184844  -0.00533996  1
  Te  Te136  1  0.16668778  0.00551737  0.34020090  1
  Te  Te137  1  0.16795054  0.00274928  0.66692956  1
  Te  Te138  1  0.17244710  0.33487350  0.00778227  1
  Te  Te139  1  0.16548133  0.32949670  0.33233224  1
  Te  Te140  1  0.16683247  0.33067137  0.66348060  1
  Te  Te141  1  0.16912296  0.66633083  0.00342336  1
  Te  Te142  1  0.15997129  0.66639942  0.32533770  1
  Te  Te143  1  0.16359378  0.66666975  0.66626174  1
  Te  Te144  1  0.49739145  0.00142930  0.00160334  1
  Te  Te145  1  0.49907273  -0.00031415  0.33474259  1
  Te  Te146  1  0.50198275  -0.00124059  0.66245048  1
  Te  Te147  1  0.49803421  0.33271899  0.00062441  1
  Te  Te148  1  0.49977408  0.33415160  0.33486586  1
  Te  Te149  1  0.50353431  0.33352611  0.66276414  1
  Te  Te150  1  0.50336063  0.66654071  -0.00030048  1
  Te  Te151  1  0.49774509  0.66585774  0.32530133  1
  Te  Te152  1  0.50001324  0.66727916  0.67221514  1
  Te  Te153  1  0.83202307  -0.00657283  -0.00134120  1
  Te  Te154  1  0.83419241  0.00935446  0.34062141  1
  Te  Te155  1  0.82657970  -0.00040292  0.66040011  1
  Te  Te156  1  0.83210241  0.33427564  0.00393331  1
  Te  Te157  1  0.83389844  0.33468210  0.33218414  1
  Te  Te158  1  0.82727449  0.33351994  0.66564313  1
  Te  Te159  1  0.83107478  0.66880378  0.00170814  1
  Te  Te160  1  0.83764784  0.66483130  0.33458125  1
  Te  Te161  1  0.83791045  0.66663292  0.66594846  1
  Te  Te162  1  -0.00328947  0.16555903  0.00396340  1
  Te  Te163  1  -0.00014344  0.16616829  0.33344813  1
  Te  Te164  1  0.00496758  0.16653995  0.66655607  1
  Te  Te165  1  -0.00814019  0.49772118  -0.00222725  1
  Te  Te166  1  -0.00547188  0.50712413  0.33891868  1
  Te  Te167  1  0.00614675  0.50376471  0.66169511  1
  Te  Te168  1  -0.00361190  0.83448180  0.00307514  1
  Te  Te169  1  -0.00026217  0.82767883  0.33158362  1
  Te  Te170  1  0.00335374  0.83083456  0.66687882  1
  Te  Te171  1  0.33777893  0.16866107  0.00031697  1
  Te  Te172  1  0.32671160  0.16702517  0.33949652  1
  Te  Te173  1  0.32869736  0.16695344  0.66517350  1
  Te  Te174  1  0.33252849  0.49656014  0.00006772  1
  Te  Te175  1  0.33212707  0.50050686  0.32499240  1
  Te  Te176  1  0.32807861  0.50344899  0.66901265  1
  Te  Te177  1  0.34077477  0.83766777  -0.00064726  1
  Te  Te178  1  0.33208755  0.83325417  0.33306348  1
  Te  Te179  1  0.32689613  0.82671158  0.66771825  1
  Te  Te180  1  0.65932718  0.16630777  0.00398817  1
  Te  Te181  1  0.67252019  0.16685323  0.32944927  1
  Te  Te182  1  0.66642939  0.16707992  0.66414537  1
  Te  Te183  1  0.67353112  0.50500092  -0.00105861  1
  Te  Te184  1  0.67431699  0.50126880  0.34289437  1
  Te  Te185  1  0.66585099  0.49783336  0.66048472  1
  Te  Te186  1  0.66670325  0.83094548  0.00152580  1
  Te  Te187  1  0.66728078  0.83346409  0.33207674  1
  Te  Te188  1  0.66606852  0.83528022  0.66161052  1
  Te  Te189  1  -0.00022286  -0.00118808  0.16688296  1
  Te  Te190  1  -0.00108629  0.00281367  0.50024109  1
  Te  Te191  1  0.00576801  0.00157293  0.83193998  1
  Te  Te192  1  -0.00361383  0.33068520  0.16721685  1
  Te  Te193  1  -0.00218840  0.32780849  0.50149911  1
  Te  Te194  1  -0.00017155  0.32714268  0.83292841  1
  Te  Te195  1  -0.00231598  0.66668855  0.16487859  1
  Te  Te196  1  -0.00135101  0.66887914  0.50174725  1
  Te  Te197  1  0.00167763  0.66767317  0.83133907  1
  Te  Te198  1  0.33773771  0.00500039  0.16283402  1
  Te  Te199  1  0.33261738  0.00558444  0.50094566  1
  Te  Te200  1  0.32894031  0.00474935  0.83599988  1
  Te  Te201  1  0.33417416  0.33151285  0.16433311  1
  Te  Te202  1  0.33279288  0.32943955  0.50150240  1
  Te  Te203  1  0.33635239  0.33306540  0.83567433  1
  Te  Te204  1  0.33220641  0.66566825  0.16623195  1
  Te  Te205  1  0.33652910  0.66493770  0.50362931  1
  Te  Te206  1  0.33189336  0.66482828  0.83198387  1
  Te  Te207  1  0.66114309  -0.00118421  0.16552050  1
  Te  Te208  1  0.66722522  -0.00077859  0.50089390  1
  Te  Te209  1  0.66750285  -0.00014350  0.82493075  1
  Te  Te210  1  0.66676698  0.33081531  0.16569062  1
  Te  Te211  1  0.66833855  0.33068813  0.50020118  1
  Te  Te212  1  0.65952542  0.33338390  0.82802852  1
  Te  Te213  1  0.66860052  0.66640288  0.16393797  1
  Te  Te214  1  0.67110035  0.67439991  0.49984725  1
  Te  Te215  1  0.66645800  0.66699911  0.83649452  1
