# generated using pymatgen
data_AgSbTe2
_symmetry_space_group_name_H-M   'P 1'
_cell_length_a   18.34515037
_cell_length_b   18.34478238
_cell_length_c   18.35084346
_cell_angle_alpha   89.99727997
_cell_angle_beta   89.99836614
_cell_angle_gamma   89.99817516
_symmetry_Int_Tables_number   1
_chemical_formula_structural   AgSbTe2
_chemical_formula_sum   'Ag54 Sb54 Te108'
_cell_volume   6175.75231540
_cell_formula_units_Z   54
loop_
 _symmetry_equiv_pos_site_id
 _symmetry_equiv_pos_as_xyz
  1  'x, y, z'
loop_
 _atom_site_type_symbol
 _atom_site_label
 _atom_site_symmetry_multiplicity
 _atom_site_fract_x
 _atom_site_fract_y
 _atom_site_fract_z
 _atom_site_occupancy
  Ag  Ag0  1  0.67002415  0.66525682  0.33877613  1
  Ag  Ag1  1  0.83666747  0.82733678  0.66393357  1
  Ag  Ag2  1  0.50025085  0.83256402  -0.00398818  1
  Ag  Ag3  1  0.66721847  0.83135315  0.82815434  1
  Ag  Ag4  1  0.82921380  0.66948767  0.49980849  1
  Ag  Ag5  1  0.16483668  0.82792328  0.34196135  1
  Ag  Ag6  1  0.66521070  -0.00808379  0.66553921  1
  Ag  Ag7  1  0.00644799  0.83259309  0.50253765  1
  Ag  Ag8  1  0.83152637  0.66678681  0.17490663  1
  Ag  Ag9  1  0.34036196  0.16440036  0.50305670  1
  Ag  Ag10  1  -0.00042091  0.82568699  0.17067080  1
  Ag  Ag11  1  0.15211361  0.82979277  0.65959016  1
  Ag  Ag12  1  0.83322882  0.50522389  0.00193628  1
  Ag  Ag13  1  0.00142251  0.34830200  0.33182506  1
  Ag  Ag14  1  0.49710017  0.82660180  0.34535533  1
  Ag  Ag15  1  0.15821462  0.50217921  0.00622850  1
  Ag  Ag16  1  0.51265882  0.66911793  0.18178218  1
  Ag  Ag17  1  0.50151841  -0.00104651  0.82111760  1
  Ag  Ag18  1  0.66810310  0.33866322  -0.00936099  1
  Ag  Ag19  1  0.83188050  0.17277670  0.33194221  1
  Ag  Ag20  1  0.66885574  0.67090867  0.66400056  1
  Ag  Ag21  1  0.50436737  0.50740130  0.34176672  1
  Ag  Ag22  1  0.50417100  0.83652061  0.66428384  1
  Ag  Ag23  1  0.49985901  -0.00728274  0.50275915  1
  Ag  Ag24  1  0.50773051  0.67336581  0.49808803  1
  Ag  Ag25  1  -0.00872479  0.16420236  0.16996533  1
  Ag  Ag26  1  0.33569964  0.50196320  0.50055801  1
  Ag  Ag27  1  0.66267866  0.16221508  0.50898281  1
  Ag  Ag28  1  0.34309787  0.33425767  0.66078846  1
  Ag  Ag29  1  0.33061123  0.33687258  0.34261179  1
  Ag  Ag30  1  0.50538697  0.15771223  0.66312685  1
  Ag  Ag31  1  0.66498482  0.16511003  0.82784777  1
  Ag  Ag32  1  0.82847474  0.17020718  0.01101657  1
  Ag  Ag33  1  0.16317689  -0.00229116  0.17602907  1
  Ag  Ag34  1  0.16492083  0.50697844  0.66127174  1
  Ag  Ag35  1  0.82667929  0.50759421  0.66032612  1
  Ag  Ag36  1  0.66287913  0.33634850  0.66962932  1
  Ag  Ag37  1  0.15838429  0.50583739  0.33592260  1
  Ag  Ag38  1  -0.00727126  0.83136550  0.81831681  1
  Ag  Ag39  1  0.83081257  -0.00911735  0.50234417  1
  Ag  Ag40  1  -0.00883697  0.66586176  0.33074902  1
  Ag  Ag41  1  -0.01000415  0.66586814  0.01060614  1
  Ag  Ag42  1  -0.01141030  0.67312308  0.66166746  1
  Ag  Ag43  1  -0.00873339  -0.01188516  0.66394984  1
  Ag  Ag44  1  0.50827500  0.50440330  0.66243859  1
  Ag  Ag45  1  0.34497965  0.16429073  0.82102805  1
  Ag  Ag46  1  0.33396202  -0.00043368  -0.00077559  1
  Ag  Ag47  1  0.67071185  0.66372206  -0.00096634  1
  Ag  Ag48  1  0.67106584  0.16575950  0.16937540  1
  Ag  Ag49  1  0.66739804  0.50607247  0.82777720  1
  Ag  Ag50  1  0.16986438  -0.00637694  0.49957222  1
  Ag  Ag51  1  0.33450062  0.83404466  0.50175203  1
  Ag  Ag52  1  -0.00219820  0.50761943  0.17244195  1
  Ag  Ag53  1  0.83591654  0.50376029  0.33401283  1
  Sb  Sb54  1  0.66802284  0.83165552  0.16285773  1
  Sb  Sb55  1  0.66675251  0.33671499  0.33613781  1
  Sb  Sb56  1  0.33816364  0.49505606  0.82533030  1
  Sb  Sb57  1  0.83157084  0.82948306  -0.00428119  1
  Sb  Sb58  1  -0.00602396  0.34003811  0.00588239  1
  Sb  Sb59  1  -0.00515424  0.15913429  0.83583144  1
  Sb  Sb60  1  0.33643289  0.83811609  0.82752122  1
  Sb  Sb61  1  0.66351452  -0.00181517  -0.00554269  1
  Sb  Sb62  1  0.83307179  0.33558602  0.49992810  1
  Sb  Sb63  1  0.33276164  0.00127864  0.33606432  1
  Sb  Sb64  1  0.16912774  0.33386419  0.49898010  1
  Sb  Sb65  1  0.33163064  0.83291608  0.17222138  1
  Sb  Sb66  1  0.49858107  -0.00423606  0.16926300  1
  Sb  Sb67  1  0.82489999  0.16523619  0.66326441  1
  Sb  Sb68  1  0.83713078  -0.00188065  0.17264489  1
  Sb  Sb69  1  0.16863002  0.33545200  0.83086961  1
  Sb  Sb70  1  0.67050159  0.50183241  0.16524535  1
  Sb  Sb71  1  -0.00054592  -0.00685160  0.33774469  1
  Sb  Sb72  1  0.83185241  0.66543860  0.82844447  1
  Sb  Sb73  1  0.16401533  0.33272521  0.16869474  1
  Sb  Sb74  1  0.16801811  0.83025781  0.00000038  1
  Sb  Sb75  1  0.33729434  0.33141327  -0.00262206  1
  Sb  Sb76  1  0.50615171  0.67229253  0.82645826  1
  Sb  Sb77  1  0.33904533  0.00176373  0.66500180  1
  Sb  Sb78  1  0.50407563  0.16667476  0.33979228  1
  Sb  Sb79  1  0.50586155  0.16140901  -0.00390972  1
  Sb  Sb80  1  0.83326524  0.33743855  0.16730433  1
  Sb  Sb81  1  0.16409885  0.67193851  0.49966426  1
  Sb  Sb82  1  0.50488489  0.50686743  -0.00162394  1
  Sb  Sb83  1  0.50254365  0.33885767  0.16876425  1
  Sb  Sb84  1  0.16289380  0.16872171  0.00084292  1
  Sb  Sb85  1  0.66629681  0.83294144  0.50854247  1
  Sb  Sb86  1  0.16348021  0.66661161  0.83090791  1
  Sb  Sb87  1  -0.00423513  0.50545454  0.83426521  1
  Sb  Sb88  1  0.17184990  0.16426900  0.66404498  1
  Sb  Sb89  1  0.33041623  0.50180038  0.17460135  1
  Sb  Sb90  1  0.33666937  0.66451898  0.66254371  1
  Sb  Sb91  1  0.17105212  -0.00217523  0.82833542  1
  Sb  Sb92  1  -0.00329335  0.15837315  0.49728102  1
  Sb  Sb93  1  0.16050669  0.66904677  0.16916096  1
  Sb  Sb94  1  0.16269138  0.16628922  0.33490978  1
  Sb  Sb95  1  0.83285100  0.82752415  0.33911773  1
  Sb  Sb96  1  0.50480052  0.32818315  0.82824751  1
  Sb  Sb97  1  0.00195992  -0.00578584  -0.00109954  1
  Sb  Sb98  1  0.66446977  0.50035011  0.50575441  1
  Sb  Sb99  1  0.49925016  0.33568088  0.50283668  1
  Sb  Sb100  1  0.82708378  -0.00161779  0.82688925  1
  Sb  Sb101  1  -0.00262288  0.33956984  0.66042165  1
  Sb  Sb102  1  0.33620600  0.66357473  0.33770348  1
  Sb  Sb103  1  0.66759036  -0.00497385  0.33960177  1
  Sb  Sb104  1  0.33394875  0.16471539  0.17062213  1
  Sb  Sb105  1  0.33591350  0.66978993  0.00171129  1
  Sb  Sb106  1  0.83024241  0.33431457  0.83349004  1
  Sb  Sb107  1  0.00121524  0.50833138  0.49627550  1
  Te  Te108  1  0.16539045  0.15987564  0.16648791  1
  Te  Te109  1  0.17162672  0.15937478  0.49970932  1
  Te  Te110  1  0.16802706  0.16723818  0.83359242  1
  Te  Te111  1  0.16116064  0.49925592  0.16877442  1
  Te  Te112  1  0.17136721  0.49981955  0.49925924  1
  Te  Te113  1  0.16815948  0.49943505  0.82820712  1
  Te  Te114  1  0.16488603  0.83722847  0.16635340  1
  Te  Te115  1  0.16859553  0.83283675  0.50042640  1
  Te  Te116  1  0.16559637  0.83323581  0.82925323  1
  Te  Te117  1  0.50582965  0.16672648  0.16798889  1
  Te  Te118  1  0.50096832  0.16397439  0.50220314  1
  Te  Te119  1  0.50214247  0.16136919  0.83088447  1
  Te  Te120  1  0.49947185  0.50803293  0.16783848  1
  Te  Te121  1  0.49769024  0.50059744  0.50052113  1
  Te  Te122  1  0.50600904  0.50010192  0.82885631  1
  Te  Te123  1  0.49933006  0.82910597  0.16555680  1
  Te  Te124  1  0.50130949  0.83359218  0.50146332  1
  Te  Te125  1  0.50177787  0.83769385  0.83084681  1
  Te  Te126  1  0.83227440  0.16393133  0.16835425  1
  Te  Te127  1  0.82929756  0.16731170  0.49545402  1
  Te  Te128  1  0.82755985  0.16624323  0.83635913  1
  Te  Te129  1  0.83649596  0.50427941  0.16811456  1
  Te  Te130  1  0.83456529  0.50585402  0.49916637  1
  Te  Te131  1  0.82859814  0.49908373  0.83702614  1
  Te  Te132  1  0.83716495  0.83027681  0.16633267  1
  Te  Te133  1  0.83519815  0.83231931  0.50326059  1
  Te  Te134  1  0.83220706  0.83415358  0.82796161  1
  Te  Te135  1  0.17042687  0.00078717  -0.00201304  1
  Te  Te136  1  0.16632324  -0.00348317  0.33536621  1
  Te  Te137  1  0.16588448  -0.00477766  0.66178524  1
  Te  Te138  1  0.16783529  0.34163241  0.00026431  1
  Te  Te139  1  0.16648138  0.33670448  0.33341370  1
  Te  Te140  1  0.16647331  0.33810307  0.66518785  1
  Te  Te141  1  0.16770566  0.66076580  0.00124633  1
  Te  Te142  1  0.16323186  0.66815676  0.33274005  1
  Te  Te143  1  0.16543025  0.66867895  0.66543689  1
  Te  Te144  1  0.49653294  -0.00662055  0.00416446  1
  Te  Te145  1  0.50005458  -0.00611672  0.33848355  1
  Te  Te146  1  0.50045074  0.00075323  0.66411131  1
  Te  Te147  1  0.50703653  0.33420416  0.00051324  1
  Te  Te148  1  0.49635980  0.34106158  0.33263108  1
  Te  Te149  1  0.50107075  0.33879161  0.66738327  1
  Te  Te150  1  0.50390288  0.67285627  -0.00324526  1
  Te  Te151  1  0.49934564  0.66644864  0.33680401  1
  Te  Te152  1  0.50303627  0.66530648  0.66174606  1
  Te  Te153  1  0.83491534  0.00310783  -0.00008903  1
  Te  Te154  1  0.83306160  0.00633338  0.34077064  1
  Te  Te155  1  0.83115755  -0.00014190  0.66235820  1
  Te  Te156  1  0.82655082  0.33513103  0.00060824  1
  Te  Te157  1  0.83614928  0.33656036  0.33381533  1
  Te  Te158  1  0.82945055  0.34236947  0.66596722  1
  Te  Te159  1  0.83189393  0.66630598  0.00037394  1
  Te  Te160  1  0.83051118  0.66647613  0.33468621  1
  Te  Te161  1  0.83082083  0.66598907  0.66580749  1
  Te  Te162  1  -0.00673790  0.16816840  0.00344617  1
  Te  Te163  1  -0.00407292  0.16218518  0.33033417  1
  Te  Te164  1  -0.00048740  0.16929885  0.66843673  1
  Te  Te165  1  -0.00175586  0.50471354  -0.00023281  1
  Te  Te166  1  -0.00136102  0.50420948  0.33430690  1
  Te  Te167  1  0.00065375  0.50416813  0.66697369  1
  Te  Te168  1  0.00183954  0.82606425  0.00837879  1
  Te  Te169  1  0.00026490  0.82853132  0.33236797  1
  Te  Te170  1  -0.00303197  0.83301918  0.66311102  1
  Te  Te171  1  0.33247537  0.16353050  0.00151458  1
  Te  Te172  1  0.33447868  0.17317866  0.33853787  1
  Te  Te173  1  0.33568019  0.16954202  0.66421018  1
  Te  Te174  1  0.33089461  0.49777192  -0.00143459  1
  Te  Te175  1  0.33252165  0.49711398  0.33723880  1
  Te  Te176  1  0.33140193  0.49711916  0.66296813  1
  Te  Te177  1  0.33682153  0.83714916  -0.00259495  1
  Te  Te178  1  0.33164443  0.83525691  0.33985031  1
  Te  Te179  1  0.34050687  0.83319143  0.66165160  1
  Te  Te180  1  0.66993171  0.16424853  -0.00373515  1
  Te  Te181  1  0.67067344  0.16883382  0.33159481  1
  Te  Te182  1  0.66552856  0.16817908  0.66632849  1
  Te  Te183  1  0.66911388  0.50089427  -0.00167864  1
  Te  Te184  1  0.66791547  0.50320023  0.33202078  1
  Te  Te185  1  0.66790087  0.50126888  0.66644814  1
  Te  Te186  1  0.66423359  0.82971084  -0.00482878  1
  Te  Te187  1  0.66298609  0.82587032  0.32954195  1
  Te  Te188  1  0.66524546  0.83145724  0.66825343  1
  Te  Te189  1  0.00428979  0.00350191  0.16553702  1
  Te  Te190  1  -0.00058359  -0.00529688  0.50400345  1
  Te  Te191  1  -0.00040605  -0.00744299  0.82779692  1
  Te  Te192  1  -0.00025949  0.32840250  0.17300403  1
  Te  Te193  1  0.00102771  0.32854720  0.49195514  1
  Te  Te194  1  0.00052559  0.33099430  0.83429113  1
  Te  Te195  1  -0.00089261  0.66464311  0.16843815  1
  Te  Te196  1  -0.00198129  0.67221944  0.50133304  1
  Te  Te197  1  -0.00001846  0.67227458  0.82945441  1
  Te  Te198  1  0.32718275  0.00006258  0.16234254  1
  Te  Te199  1  0.33495648  -0.00175061  0.49898174  1
  Te  Te200  1  0.33787667  0.00448990  0.83733898  1
  Te  Te201  1  0.33340138  0.33295108  0.16954786  1
  Te  Te202  1  0.33256663  0.33328154  0.50119725  1
  Te  Te203  1  0.33459880  0.32499656  0.82905222  1
  Te  Te204  1  0.34241257  0.66719290  0.16699376  1
  Te  Te205  1  0.34120116  0.66706595  0.50005808  1
  Te  Te206  1  0.33329772  0.66372736  0.83441638  1
  Te  Te207  1  0.66765195  0.00550869  0.16809437  1
  Te  Te208  1  0.66687341  0.00254413  0.50268810  1
  Te  Te209  1  0.66126846  -0.00284279  0.82834812  1
  Te  Te210  1  0.66546503  0.32677172  0.16492838  1
  Te  Te211  1  0.66717478  0.32515587  0.50455559  1
  Te  Te212  1  0.66710728  0.33148635  0.83178215  1
  Te  Te213  1  0.67055100  0.66655223  0.16468369  1
  Te  Te214  1  0.66785682  0.66484388  0.50011682  1
  Te  Te215  1  0.66554111  0.66683191  0.83350436  1
