# generated using pymatgen
data_AgSbTe2
_symmetry_space_group_name_H-M   'P 1'
_cell_length_a   18.33180901
_cell_length_b   18.33177221
_cell_length_c   18.33413930
_cell_angle_alpha   90.00143543
_cell_angle_beta   90.00187422
_cell_angle_gamma   90.00244338
_symmetry_Int_Tables_number   1
_chemical_formula_structural   AgSbTe2
_chemical_formula_sum   'Ag54 Sb54 Te108'
_cell_volume   6161.27086322
_cell_formula_units_Z   54
loop_
 _symmetry_equiv_pos_site_id
 _symmetry_equiv_pos_as_xyz
  1  'x, y, z'
loop_
 _atom_site_type_symbol
 _atom_site_label
 _atom_site_symmetry_multiplicity
 _atom_site_fract_x
 _atom_site_fract_y
 _atom_site_fract_z
 _atom_site_occupancy
  Ag  Ag0  1  0.16405604  0.65985573  0.49802066  1
  Ag  Ag1  1  -0.00349868  0.32653924  0.33266843  1
  Ag  Ag2  1  0.33144652  0.16784667  0.49209773  1
  Ag  Ag3  1  0.51266861  0.83457478  0.66517110  1
  Ag  Ag4  1  -0.00206534  0.00668380  0.33473252  1
  Ag  Ag5  1  0.83897194  0.33358373  0.49627996  1
  Ag  Ag6  1  0.83572647  0.67122387  0.82926392  1
  Ag  Ag7  1  0.84245099  0.49950252  0.66112076  1
  Ag  Ag8  1  0.83831820  0.16534478  0.00488830  1
  Ag  Ag9  1  0.00201160  0.66611466  0.33459705  1
  Ag  Ag10  1  0.16407279  0.33638048  0.82925357  1
  Ag  Ag11  1  0.32324246  0.49352833  0.49968932  1
  Ag  Ag12  1  0.16646607  0.49586410  -0.00110024  1
  Ag  Ag13  1  0.83658916  0.49079573  0.33758080  1
  Ag  Ag14  1  0.16085482  0.16159013  0.33006585  1
  Ag  Ag15  1  0.66613014  0.84230315  0.50362795  1
  Ag  Ag16  1  0.16188159  0.50199414  0.65819831  1
  Ag  Ag17  1  0.32595172  0.49837302  0.83305713  1
  Ag  Ag18  1  0.67550069  -0.00471638  0.66258157  1
  Ag  Ag19  1  0.32255885  0.00669068  0.33181043  1
  Ag  Ag20  1  -0.00153913  0.66645107  0.66494406  1
  Ag  Ag21  1  0.67278494  0.16347840  0.49370036  1
  Ag  Ag22  1  0.83673731  0.16544669  0.33369117  1
  Ag  Ag23  1  0.83505728  0.00370284  0.17485072  1
  Ag  Ag24  1  0.32300206  0.16654374  0.17448546  1
  Ag  Ag25  1  0.16254379  0.33906868  0.50218116  1
  Ag  Ag26  1  0.32676223  0.83462273  0.50017787  1
  Ag  Ag27  1  0.16067664  0.84131431  0.33572073  1
  Ag  Ag28  1  0.00474933  0.49980681  0.49903276  1
  Ag  Ag29  1  0.67781247  0.67633400  0.66502551  1
  Ag  Ag30  1  0.16489964  0.83372864  0.00410230  1
  Ag  Ag31  1  0.67748747  0.00412080  0.33325261  1
  Ag  Ag32  1  0.00322321  0.16548416  0.16904394  1
  Ag  Ag33  1  0.16284890  0.00778526  0.17045469  1
  Ag  Ag34  1  0.15662109  0.16918898  0.01162696  1
  Ag  Ag35  1  0.83356894  -0.00004998  0.83235805  1
  Ag  Ag36  1  0.67237204  0.00440742  0.00793367  1
  Ag  Ag37  1  0.67628469  0.32687661  0.00421441  1
  Ag  Ag38  1  0.67683512  0.32192934  0.33349364  1
  Ag  Ag39  1  0.16325560  0.66768478  0.17207442  1
  Ag  Ag40  1  0.67125127  0.83639552  0.82207274  1
  Ag  Ag41  1  0.84271172  0.84847271  0.33431730  1
  Ag  Ag42  1  0.32740622  0.33546582  0.66233244  1
  Ag  Ag43  1  0.00082824  0.32875373  0.00433912  1
  Ag  Ag44  1  0.83609334  0.16440910  0.66126971  1
  Ag  Ag45  1  0.49925227  0.16340785  0.33228504  1
  Ag  Ag46  1  0.50889600  0.00208656  0.17026926  1
  Ag  Ag47  1  0.00259243  0.66069469  0.00285888  1
  Ag  Ag48  1  0.49013321  0.49881772  0.00292763  1
  Ag  Ag49  1  -0.00444098  -0.00023360  0.66202155  1
  Ag  Ag50  1  0.32988749  0.49508725  0.16803496  1
  Ag  Ag51  1  -0.00193952  0.16655776  0.84033230  1
  Ag  Ag52  1  0.66706007  0.49937290  0.16680445  1
  Ag  Ag53  1  0.16468607  0.82791851  0.65718864  1
  Sb  Sb54  1  0.50616928  0.66611098  0.83186857  1
  Sb  Sb55  1  0.83803744  0.84016762  0.00258785  1
  Sb  Sb56  1  0.32820308  0.83771363  0.17321962  1
  Sb  Sb57  1  0.67574101  0.16218772  0.83122595  1
  Sb  Sb58  1  0.49815592  0.33257277  0.49844488  1
  Sb  Sb59  1  0.84023025  0.66992629  0.16568317  1
  Sb  Sb60  1  0.32635230  0.66246771  0.66480133  1
  Sb  Sb61  1  0.16571514  0.33181273  0.16883619  1
  Sb  Sb62  1  0.50922627  0.00058111  0.83773317  1
  Sb  Sb63  1  0.15964982  0.66217678  0.83194347  1
  Sb  Sb64  1  0.49819175  0.84212790  0.33833652  1
  Sb  Sb65  1  -0.00340848  0.00601366  0.00439575  1
  Sb  Sb66  1  0.32346050  0.17039852  0.83244206  1
  Sb  Sb67  1  0.83898943  0.49402592  0.00119403  1
  Sb  Sb68  1  0.84052022  0.66184742  0.50335260  1
  Sb  Sb69  1  0.67003589  0.49808655  0.49664012  1
  Sb  Sb70  1  0.32251009  0.66371632  0.00052158  1
  Sb  Sb71  1  0.00356031  0.49618318  0.82980453  1
  Sb  Sb72  1  0.50330873  0.49265740  0.32958335  1
  Sb  Sb73  1  0.00096482  0.49594370  0.17138438  1
  Sb  Sb74  1  0.83254201  0.00588144  0.49881207  1
  Sb  Sb75  1  0.66707558  0.50197633  0.83656922  1
  Sb  Sb76  1  0.00350113  0.83975473  0.16863883  1
  Sb  Sb77  1  0.49782802  0.83039343  -0.00385266  1
  Sb  Sb78  1  0.32671639  0.33512076  -0.00107803  1
  Sb  Sb79  1  -0.00029298  0.17204811  0.49411547  1
  Sb  Sb80  1  0.83313450  0.32751588  0.17447808  1
  Sb  Sb81  1  0.00068017  0.82883338  0.49798088  1
  Sb  Sb82  1  0.67485678  0.66765381  -0.00276518  1
  Sb  Sb83  1  0.49363744  0.66828333  0.16656355  1
  Sb  Sb84  1  0.15940476  0.00367919  0.83748136  1
  Sb  Sb85  1  0.49524440  0.33385690  0.83577621  1
  Sb  Sb86  1  0.50505879  0.16164964  0.66047780  1
  Sb  Sb87  1  0.00259101  0.33312539  0.66302209  1
  Sb  Sb88  1  0.66779639  0.33150496  0.66475999  1
  Sb  Sb89  1  0.33351845  0.00240301  0.00799268  1
  Sb  Sb90  1  0.33251454  0.82886364  0.82601999  1
  Sb  Sb91  1  0.67750370  0.67026660  0.33855725  1
  Sb  Sb92  1  0.66664656  0.83459784  0.17020065  1
  Sb  Sb93  1  0.32660758  0.32709878  0.33757214  1
  Sb  Sb94  1  0.49641838  0.50406704  0.66894511  1
  Sb  Sb95  1  -0.00400482  0.83695748  0.83252484  1
  Sb  Sb96  1  0.16084533  0.16694467  0.66137633  1
  Sb  Sb97  1  0.33086128  0.00198960  0.65993967  1
  Sb  Sb98  1  0.50258553  0.00008584  0.49395727  1
  Sb  Sb99  1  0.16587196  0.00063602  0.49255458  1
  Sb  Sb100  1  0.49539476  0.66854323  0.50023702  1
  Sb  Sb101  1  0.67074412  0.16659650  0.17345234  1
  Sb  Sb102  1  0.32394901  0.66939315  0.33487885  1
  Sb  Sb103  1  0.50143927  0.32721723  0.16841118  1
  Sb  Sb104  1  0.83530245  0.83511224  0.65996083  1
  Sb  Sb105  1  0.83943934  0.33097666  0.83008025  1
  Sb  Sb106  1  0.16198983  0.49836946  0.33540776  1
  Sb  Sb107  1  0.50302730  0.17039738  0.00792521  1
  Te  Te108  1  0.16532369  0.16813884  0.16815221  1
  Te  Te109  1  0.16976112  0.17058392  0.49595499  1
  Te  Te110  1  0.15970052  0.17216622  0.83494985  1
  Te  Te111  1  0.16773179  0.50192436  0.16566334  1
  Te  Te112  1  0.16621746  0.49983810  0.49908940  1
  Te  Te113  1  0.16808056  0.49669211  0.83430446  1
  Te  Te114  1  0.16793286  0.82864515  0.16740037  1
  Te  Te115  1  0.16627720  0.83380927  0.49796950  1
  Te  Te116  1  0.16712220  0.83390606  0.83502814  1
  Te  Te117  1  0.49313972  0.16087489  0.17116324  1
  Te  Te118  1  0.49785785  0.16657444  0.49369438  1
  Te  Te119  1  0.49724247  0.16666709  0.83410442  1
  Te  Te120  1  0.49798645  0.50119870  0.16266236  1
  Te  Te121  1  0.49036986  0.50074741  0.49937235  1
  Te  Te122  1  0.49439144  0.50001551  0.83995025  1
  Te  Te123  1  0.49701085  0.84017034  0.16509625  1
  Te  Te124  1  0.50036251  0.83330485  0.50564307  1
  Te  Te125  1  0.50497252  0.83313167  0.82750803  1
  Te  Te126  1  0.83598481  0.16218800  0.16634516  1
  Te  Te127  1  0.83315502  0.17197213  0.49959297  1
  Te  Te128  1  0.83792771  0.16381865  0.83134650  1
  Te  Te129  1  0.83027866  0.50226806  0.16974695  1
  Te  Te130  1  0.83415158  0.49571749  0.50101010  1
  Te  Te131  1  0.83371889  0.50259280  0.82744090  1
  Te  Te132  1  0.83302672  0.83956502  0.17328037  1
  Te  Te133  1  0.82778581  0.82884012  0.49288328  1
  Te  Te134  1  0.83013003  0.83561096  0.83525565  1
  Te  Te135  1  0.16579328  0.00134128  0.00512856  1
  Te  Te136  1  0.16309339  0.00008271  0.33108312  1
  Te  Te137  1  0.16246520  -0.00220979  0.66863251  1
  Te  Te138  1  0.16313502  0.33250461  0.00025519  1
  Te  Te139  1  0.16078288  0.32912256  0.33853538  1
  Te  Te140  1  0.16707270  0.33428669  0.66447620  1
  Te  Te141  1  0.16021712  0.66540715  -0.00130116  1
  Te  Te142  1  0.16103582  0.66662514  0.33411178  1
  Te  Te143  1  0.16187057  0.66433342  0.66553727  1
  Te  Te144  1  0.50553872  -0.00071547  0.00681761  1
  Te  Te145  1  0.50185962  0.00444059  0.32801439  1
  Te  Te146  1  0.50233849  -0.00530669  0.66923112  1
  Te  Te147  1  0.50643565  0.33889315  0.00130547  1
  Te  Te148  1  0.51233827  0.32541809  0.33306799  1
  Te  Te149  1  0.49460398  0.33347791  0.66759122  1
  Te  Te150  1  0.50192120  0.66042709  0.00027167  1
  Te  Te151  1  0.50161518  0.66687811  0.33189128  1
  Te  Te152  1  0.50476230  0.67279231  0.66657919  1
  Te  Te153  1  0.83105655  0.00323962  -0.00278153  1
  Te  Te154  1  0.83650530  0.00384322  0.33489608  1
  Te  Te155  1  0.83446872  0.00051160  0.66665716  1
  Te  Te156  1  0.83628228  0.32818196  -0.00242201  1
  Te  Te157  1  0.83501440  0.33193060  0.33514800  1
  Te  Te158  1  0.83285035  0.33441938  0.66241139  1
  Te  Te159  1  0.84194449  0.66761468  -0.00345298  1
  Te  Te160  1  0.84200579  0.66196137  0.33293961  1
  Te  Te161  1  0.83678236  0.66666991  0.66765012  1
  Te  Te162  1  -0.00073638  0.16639853  0.00204150  1
  Te  Te163  1  -0.00103082  0.16675116  0.33370105  1
  Te  Te164  1  -0.00404980  0.16479453  0.66636254  1
  Te  Te165  1  0.00455326  0.49681667  0.00059172  1
  Te  Te166  1  -0.00327902  0.49992150  0.33628952  1
  Te  Te167  1  0.00154524  0.49955054  0.66389933  1
  Te  Te168  1  0.00564211  0.82801129  0.00026586  1
  Te  Te169  1  0.00104120  0.83298278  0.33334954  1
  Te  Te170  1  0.00438052  0.83332055  0.66585179  1
  Te  Te171  1  0.33062309  0.16807295  0.00218836  1
  Te  Te172  1  0.33061374  0.16684669  0.33392821  1
  Te  Te173  1  0.33473329  0.17090863  0.66302579  1
  Te  Te174  1  0.32844936  0.49913380  0.00239652  1
  Te  Te175  1  0.33506367  0.49870455  0.33403196  1
  Te  Te176  1  0.33114407  0.49724556  0.66365561  1
  Te  Te177  1  0.32749205  0.83299494  -0.00288779  1
  Te  Te178  1  0.33000596  0.83820756  0.33999034  1
  Te  Te179  1  0.32446741  0.83322802  0.66122905  1
  Te  Te180  1  0.66970155  0.16554291  0.00024912  1
  Te  Te181  1  0.67253250  0.16437214  0.33299491  1
  Te  Te182  1  0.67163662  0.16196423  0.66121745  1
  Te  Te183  1  0.67077465  0.49897536  0.00386644  1
  Te  Te184  1  0.67103424  0.50173808  0.32960133  1
  Te  Te185  1  0.66629218  0.50174116  0.66676902  1
  Te  Te186  1  0.66608094  0.83754095  -0.00060759  1
  Te  Te187  1  0.66640638  0.83855103  0.33859774  1
  Te  Te188  1  0.67186694  0.83510649  0.66379015  1
  Te  Te189  1  0.00017699  0.00497228  0.17035763  1
  Te  Te190  1  -0.00027247  -0.00080789  0.50168477  1
  Te  Te191  1  -0.00557394  0.00429936  0.82978572  1
  Te  Te192  1  -0.00101109  0.32808984  0.16718934  1
  Te  Te193  1  0.00054874  0.33801394  0.49716335  1
  Te  Te194  1  0.00436487  0.32880464  0.83743368  1
  Te  Te195  1  0.00466354  0.66526789  0.16708381  1
  Te  Te196  1  0.00489850  0.66228395  0.50125907  1
  Te  Te197  1  -0.00527838  0.66653320  0.82871758  1
  Te  Te198  1  0.32398483  0.00350654  0.17214190  1
  Te  Te199  1  0.33435409  0.00221533  0.49430329  1
  Te  Te200  1  0.33432518  -0.00038874  0.83223130  1
  Te  Te201  1  0.33425165  0.33378774  0.16778725  1
  Te  Te202  1  0.33163307  0.33258127  0.50104451  1
  Te  Te203  1  0.32718444  0.33820100  0.82912264  1
  Te  Te204  1  0.32594879  0.66120435  0.16754296  1
  Te  Te205  1  0.32578057  0.66934625  0.50004029  1
  Te  Te206  1  0.33502819  0.65924146  0.83305303  1
  Te  Te207  1  0.67054102  0.00000302  0.16884912  1
  Te  Te208  1  0.66671985  0.00188463  0.49919860  1
  Te  Te209  1  0.67263743  -0.00298359  0.83056586  1
  Te  Te210  1  0.66729304  0.33774632  0.16502841  1
  Te  Te211  1  0.66911561  0.32948968  0.49665417  1
  Te  Te212  1  0.66611433  0.33256191  0.83916021  1
  Te  Te213  1  0.66628595  0.66205568  0.16685639  1
  Te  Te214  1  0.66452411  0.66709266  0.50550787  1
  Te  Te215  1  0.67356739  0.67072478  0.82896828  1
