# generated using pymatgen
data_AgSbTe2
_symmetry_space_group_name_H-M   'P 1'
_cell_length_a   18.33532659
_cell_length_b   18.33846930
_cell_length_c   18.33618748
_cell_angle_alpha   89.99979533
_cell_angle_beta   89.99629349
_cell_angle_gamma   90.00383525
_symmetry_Int_Tables_number   1
_chemical_formula_structural   AgSbTe2
_chemical_formula_sum   'Ag54 Sb54 Te108'
_cell_volume   6165.39308962
_cell_formula_units_Z   54
loop_
 _symmetry_equiv_pos_site_id
 _symmetry_equiv_pos_as_xyz
  1  'x, y, z'
loop_
 _atom_site_type_symbol
 _atom_site_label
 _atom_site_symmetry_multiplicity
 _atom_site_fract_x
 _atom_site_fract_y
 _atom_site_fract_z
 _atom_site_occupancy
  Ag  Ag0  1  0.66713416  0.32879739  0.00432832  1
  Ag  Ag1  1  0.49827629  0.00387611  0.83941437  1
  Ag  Ag2  1  0.50339348  0.16610311  -0.00153217  1
  Ag  Ag3  1  0.66562149  0.01094324  0.00045818  1
  Ag  Ag4  1  0.49941038  0.83788253  0.66795322  1
  Ag  Ag5  1  0.83380648  0.66444155  0.50319310  1
  Ag  Ag6  1  -0.00466223  0.16448586  0.15184706  1
  Ag  Ag7  1  0.66563477  0.49899816  0.49204413  1
  Ag  Ag8  1  0.50143126  0.16375509  0.67357539  1
  Ag  Ag9  1  0.50885935  0.65582375  0.50055285  1
  Ag  Ag10  1  0.16268419  0.48477280  -0.00757492  1
  Ag  Ag11  1  0.84101214  0.83606953  -0.00543710  1
  Ag  Ag12  1  0.00145841  0.16702943  0.50874335  1
  Ag  Ag13  1  0.15303830  0.16822108  -0.00686423  1
  Ag  Ag14  1  0.50615929  0.32829547  0.16807892  1
  Ag  Ag15  1  0.83703769  0.65892986  0.83162243  1
  Ag  Ag16  1  0.15727561  0.48833339  0.67376784  1
  Ag  Ag17  1  0.84035983  0.16620219  -0.00460111  1
  Ag  Ag18  1  0.15823198  0.83768746  0.67287345  1
  Ag  Ag19  1  0.66890067  0.17268266  0.16030625  1
  Ag  Ag20  1  0.32607905  0.32535082  0.00090280  1
  Ag  Ag21  1  0.33078139  0.83220079  0.83384373  1
  Ag  Ag22  1  0.34004820  0.33079229  0.32924647  1
  Ag  Ag23  1  0.00358103  0.00630133  0.32877291  1
  Ag  Ag24  1  0.00154520  0.32217194  -0.00274179  1
  Ag  Ag25  1  0.32958707  0.00470555  0.32814094  1
  Ag  Ag26  1  0.49906184  0.33532097  0.49230887  1
  Ag  Ag27  1  0.84274314  0.33729121  0.83533468  1
  Ag  Ag28  1  0.84325126  0.16782053  0.67425899  1
  Ag  Ag29  1  0.50588222  0.49490885  0.33551244  1
  Ag  Ag30  1  -0.00052987  0.17265000  0.83632157  1
  Ag  Ag31  1  0.16449490  0.32929305  0.50608756  1
  Ag  Ag32  1  0.83603225  0.66623666  0.16064509  1
  Ag  Ag33  1  -0.00001904  0.32999154  0.32855556  1
  Ag  Ag34  1  0.32199176  0.49972434  0.83496403  1
  Ag  Ag35  1  0.00189434  0.00524836  0.67149026  1
  Ag  Ag36  1  -0.00350640  0.66940903  -0.00318947  1
  Ag  Ag37  1  0.66720127  0.49003386  0.16770826  1
  Ag  Ag38  1  0.15786676  0.16743982  0.67139246  1
  Ag  Ag39  1  0.00251610  0.00721304  -0.00161976  1
  Ag  Ag40  1  0.16198780  0.00951245  0.50428399  1
  Ag  Ag41  1  0.16139434  0.33563511  0.83607275  1
  Ag  Ag42  1  -0.00043108  0.49278262  0.83368934  1
  Ag  Ag43  1  0.33138459  0.00795520  -0.00010827  1
  Ag  Ag44  1  0.50049835  0.00950077  0.15607561  1
  Ag  Ag45  1  0.65976646  0.33924457  0.32507554  1
  Ag  Ag46  1  0.67528697  0.65683837  0.33505872  1
  Ag  Ag47  1  0.15852755  0.83999218  -0.00775531  1
  Ag  Ag48  1  0.84264703  0.82335748  0.67341256  1
  Ag  Ag49  1  -0.00444559  0.66967736  0.67335865  1
  Ag  Ag50  1  0.83820214  0.50411920  0.67129251  1
  Ag  Ag51  1  -0.00157048  0.84186797  0.15674280  1
  Ag  Ag52  1  -0.00647330  0.66283517  0.33237496  1
  Ag  Ag53  1  0.67716202  0.49708268  0.83519769  1
  Sb  Sb54  1  0.83884067  0.49602035  -0.00782822  1
  Sb  Sb55  1  0.67056178  0.17367071  0.49660859  1
  Sb  Sb56  1  -0.00401240  0.49539815  0.50591315  1
  Sb  Sb57  1  0.50000864  0.17331447  0.33029777  1
  Sb  Sb58  1  -0.00006108  0.83617645  0.50255367  1
  Sb  Sb59  1  0.67221380  0.83458940  0.16312481  1
  Sb  Sb60  1  0.82948987  0.33595697  0.15986123  1
  Sb  Sb61  1  0.33386117  0.16716320  0.16315720  1
  Sb  Sb62  1  0.16325202  0.83576362  0.33381411  1
  Sb  Sb63  1  0.83655219  0.33603208  0.50504908  1
  Sb  Sb64  1  0.50889527  0.66395539  0.17022194  1
  Sb  Sb65  1  0.83761241  0.16877825  0.32949181  1
  Sb  Sb66  1  0.00404463  0.83383533  0.83729745  1
  Sb  Sb67  1  0.32768064  0.00039287  0.67134674  1
  Sb  Sb68  1  0.83654867  0.82966231  0.33214430  1
  Sb  Sb69  1  0.84052565  -0.00247608  0.50358256  1
  Sb  Sb70  1  0.50216032  0.49960565  0.66443641  1
  Sb  Sb71  1  0.67202590  0.17159448  0.84146060  1
  Sb  Sb72  1  0.83471237  -0.00121253  0.16196799  1
  Sb  Sb73  1  0.66739735  0.83073185  0.83447321  1
  Sb  Sb74  1  0.83385592  0.00131626  0.83638108  1
  Sb  Sb75  1  0.32823769  0.66679200  0.66820898  1
  Sb  Sb76  1  0.49931811  0.83026538  0.33717748  1
  Sb  Sb77  1  0.00096773  0.32979222  0.67246171  1
  Sb  Sb78  1  0.16313963  0.16754827  0.33411648  1
  Sb  Sb79  1  0.66805883  0.82701477  0.50082724  1
  Sb  Sb80  1  0.67043088  0.00206392  0.67274684  1
  Sb  Sb81  1  -0.00573461  0.49727641  0.16077235  1
  Sb  Sb82  1  0.15668493  0.65937127  0.83310136  1
  Sb  Sb83  1  0.33179069  0.83540129  0.50534544  1
  Sb  Sb84  1  0.32808371  0.16841706  0.50080344  1
  Sb  Sb85  1  0.32795672  0.83726258  0.15901901  1
  Sb  Sb86  1  0.16573545  0.00312720  0.16429319  1
  Sb  Sb87  1  0.33802159  0.49639920  0.16214348  1
  Sb  Sb88  1  0.33107646  0.33267819  0.67103297  1
  Sb  Sb89  1  0.67514133  0.66424613  0.66249846  1
  Sb  Sb90  1  0.50583072  0.66819009  0.82901169  1
  Sb  Sb91  1  0.16684225  0.00397697  0.83272930  1
  Sb  Sb92  1  0.16760430  0.49589857  0.33432128  1
  Sb  Sb93  1  0.82862183  0.50047141  0.33688779  1
  Sb  Sb94  1  0.16657878  0.33174963  0.16182678  1
  Sb  Sb95  1  0.15559951  0.66735065  0.16385766  1
  Sb  Sb96  1  0.66715178  0.33368333  0.66917851  1
  Sb  Sb97  1  0.49434488  0.00519819  0.50121082  1
  Sb  Sb98  1  0.32866578  0.16769719  0.83669168  1
  Sb  Sb99  1  0.49890513  0.49292858  0.00205517  1
  Sb  Sb100  1  0.67559254  0.66167250  0.00351825  1
  Sb  Sb101  1  0.16095184  0.66381993  0.50401830  1
  Sb  Sb102  1  0.33347868  0.66391698  0.33455984  1
  Sb  Sb103  1  0.49956395  0.84261864  -0.00442501  1
  Sb  Sb104  1  0.66683592  0.00351956  0.32543809  1
  Sb  Sb105  1  0.49846461  0.32977428  0.83601264  1
  Sb  Sb106  1  0.33598687  0.49639596  0.50474376  1
  Sb  Sb107  1  0.32640377  0.66605437  -0.00216566  1
  Te  Te108  1  0.15760880  0.16664568  0.15731875  1
  Te  Te109  1  0.16279454  0.16886455  0.50207583  1
  Te  Te110  1  0.16445970  0.17064355  0.83201182  1
  Te  Te111  1  0.16833793  0.50074849  0.15911686  1
  Te  Te112  1  0.16712441  0.49507626  0.50620277  1
  Te  Te113  1  0.16340410  0.49812271  0.83262730  1
  Te  Te114  1  0.15890215  0.83507759  0.16184315  1
  Te  Te115  1  0.16750803  0.83429431  0.50700206  1
  Te  Te116  1  0.16962767  0.83285653  0.83202295  1
  Te  Te117  1  0.50046268  0.16794087  0.16487748  1
  Te  Te118  1  0.50120198  0.17336198  0.50280458  1
  Te  Te119  1  0.50052168  0.16446380  0.83396719  1
  Te  Te120  1  0.50621438  0.49636608  0.17119163  1
  Te  Te121  1  0.50319008  0.49705618  0.49933813  1
  Te  Te122  1  0.50120675  0.49999978  0.83256730  1
  Te  Te123  1  0.49968810  0.83630911  0.16723012  1
  Te  Te124  1  0.49997348  0.83349102  0.50607052  1
  Te  Te125  1  0.49711232  0.83572799  0.82866155  1
  Te  Te126  1  0.83311792  0.16641542  0.16132302  1
  Te  Te127  1  0.83854626  0.16664146  0.50704306  1
  Te  Te128  1  0.83579826  0.16747330  0.83410541  1
  Te  Te129  1  0.82724989  0.50549910  0.16664711  1
  Te  Te130  1  0.82871222  0.50300143  0.50784387  1
  Te  Te131  1  0.83686693  0.49799568  0.83181032  1
  Te  Te132  1  0.83892910  0.82887893  0.16260084  1
  Te  Te133  1  0.83282627  0.82702146  0.50951866  1
  Te  Te134  1  0.83368372  0.83123155  0.83277511  1
  Te  Te135  1  0.16550952  0.00205620  -0.00054702  1
  Te  Te136  1  0.16493847  0.00049719  0.33762856  1
  Te  Te137  1  0.16336043  0.00271685  0.66601275  1
  Te  Te138  1  0.16559864  0.32881488  -0.00039604  1
  Te  Te139  1  0.16459718  0.33415258  0.33496672  1
  Te  Te140  1  0.16749827  0.33023730  0.66694774  1
  Te  Te141  1  0.15965733  0.67713960  -0.00065393  1
  Te  Te142  1  0.16134479  0.66592363  0.33455985  1
  Te  Te143  1  0.15951464  0.67320479  0.66642596  1
  Te  Te144  1  0.49752332  0.00274153  -0.00071399  1
  Te  Te145  1  0.49762161  -0.00017852  0.33236108  1
  Te  Te146  1  0.49963082  0.00077263  0.66746601  1
  Te  Te147  1  0.50096658  0.32987919  0.00300682  1
  Te  Te148  1  0.50011126  0.33477940  0.33150307  1
  Te  Te149  1  0.49864032  0.32992603  0.66258565  1
  Te  Te150  1  0.50148605  0.66854885  0.00081246  1
  Te  Te151  1  0.50111880  0.66200661  0.33826178  1
  Te  Te152  1  0.50046089  0.66879190  0.66114972  1
  Te  Te153  1  0.83753413  0.00077496  -0.00015715  1
  Te  Te154  1  0.83970605  -0.00125934  0.33388099  1
  Te  Te155  1  0.83811121  0.00411270  0.66919744  1
  Te  Te156  1  0.83521726  0.33024507  -0.00369220  1
  Te  Te157  1  0.83963928  0.33350656  0.33524166  1
  Te  Te158  1  0.83268254  0.33037329  0.67314196  1
  Te  Te159  1  0.83660461  0.66784492  -0.00185997  1
  Te  Te160  1  0.83453717  0.66622119  0.33889416  1
  Te  Te161  1  0.83634202  0.66590867  0.66805033  1
  Te  Te162  1  -0.00264011  0.16703951  -0.00329651  1
  Te  Te163  1  -0.00007429  0.16580075  0.33633864  1
  Te  Te164  1  0.00071758  0.16598197  0.66664883  1
  Te  Te165  1  0.00361130  0.50582237  -0.00312664  1
  Te  Te166  1  0.00077911  0.49987294  0.33311386  1
  Te  Te167  1  -0.00059109  0.50191239  0.66909961  1
  Te  Te168  1  -0.00120258  0.83127302  -0.00199257  1
  Te  Te169  1  0.00010080  0.83328193  0.32895036  1
  Te  Te170  1  -0.00027091  0.83449401  0.66833956  1
  Te  Te171  1  0.34045257  0.16647926  -0.00024920  1
  Te  Te172  1  0.33161644  0.16687006  0.33189037  1
  Te  Te173  1  0.33923307  0.16553531  0.66819278  1
  Te  Te174  1  0.32791897  0.49843583  -0.00496114  1
  Te  Te175  1  0.33788395  0.49530117  0.33319010  1
  Te  Te176  1  0.32767731  0.50065860  0.67420174  1
  Te  Te177  1  0.33011336  0.83536141  -0.00558741  1
  Te  Te178  1  0.33165995  0.83859818  0.33186603  1
  Te  Te179  1  0.33516644  0.83379183  0.67258578  1
  Te  Te180  1  0.66337301  0.16758904  0.00123995  1
  Te  Te181  1  0.66938743  0.17164426  0.32672535  1
  Te  Te182  1  0.66269135  0.16579663  0.66598565  1
  Te  Te183  1  0.66708895  0.49460743  0.00048781  1
  Te  Te184  1  0.66642022  0.49806569  0.33374321  1
  Te  Te185  1  0.67059720  0.49957577  0.67250445  1
  Te  Te186  1  0.67276121  0.83673884  0.00003884  1
  Te  Te187  1  0.66748872  0.82962576  0.33223633  1
  Te  Te188  1  0.66328523  0.83474555  0.66720569  1
  Te  Te189  1  -0.00023721  0.00126430  0.16500824  1
  Te  Te190  1  0.00360674  0.00277731  0.50109473  1
  Te  Te191  1  -0.00024281  0.00749640  0.83462624  1
  Te  Te192  1  -0.00124806  0.32963536  0.16585278  1
  Te  Te193  1  0.00258145  0.32987501  0.49452601  1
  Te  Te194  1  0.00154126  0.33313735  0.83590774  1
  Te  Te195  1  -0.00607572  0.66513035  0.16780171  1
  Te  Te196  1  -0.00375717  0.66651537  0.49707037  1
  Te  Te197  1  -0.00477749  0.66427746  0.83238042  1
  Te  Te198  1  0.33795337  0.00061703  0.16585378  1
  Te  Te199  1  0.32579361  0.00098175  0.49390320  1
  Te  Te200  1  0.33724511  -0.00226298  0.83804060  1
  Te  Te201  1  0.33908245  0.33320042  0.16589697  1
  Te  Te202  1  0.33244618  0.33322133  0.49460116  1
  Te  Te203  1  0.33006934  0.33705996  0.83914495  1
  Te  Te204  1  0.33465342  0.66742690  0.16797221  1
  Te  Te205  1  0.34059715  0.66681150  0.49921513  1
  Te  Te206  1  0.33688636  0.66573978  0.83368386  1
  Te  Te207  1  0.66210016  0.00432599  0.16215297  1
  Te  Te208  1  0.66526394  0.00196632  0.49602558  1
  Te  Te209  1  0.65996868  -0.00072484  0.84027908  1
  Te  Te210  1  0.66737662  0.33287286  0.16567858  1
  Te  Te211  1  0.66523173  0.33803679  0.49647784  1
  Te  Te212  1  0.66659029  0.33723342  0.83813102  1
  Te  Te213  1  0.67325194  0.66575517  0.17233829  1
  Te  Te214  1  0.66806599  0.66124406  0.49659408  1
  Te  Te215  1  0.67376405  0.65986498  0.83486795  1
