# generated using pymatgen
data_AgSbTe2
_symmetry_space_group_name_H-M   'P 1'
_cell_length_a   18.32361101
_cell_length_b   18.32480579
_cell_length_c   18.32305050
_cell_angle_alpha   89.99865719
_cell_angle_beta   89.99987622
_cell_angle_gamma   89.99976643
_symmetry_Int_Tables_number   1
_chemical_formula_structural   AgSbTe2
_chemical_formula_sum   'Ag54 Sb54 Te108'
_cell_volume   6152.45183719
_cell_formula_units_Z   54
loop_
 _symmetry_equiv_pos_site_id
 _symmetry_equiv_pos_as_xyz
  1  'x, y, z'
loop_
 _atom_site_type_symbol
 _atom_site_label
 _atom_site_symmetry_multiplicity
 _atom_site_fract_x
 _atom_site_fract_y
 _atom_site_fract_z
 _atom_site_occupancy
  Ag  Ag0  1  0.33876940  0.32995875  0.67200824  1
  Ag  Ag1  1  0.17001458  0.49285832  -0.00010365  1
  Ag  Ag2  1  0.50273785  0.33037891  0.51036729  1
  Ag  Ag3  1  0.49546439  0.83668783  0.65997058  1
  Ag  Ag4  1  0.33979042  0.66530181  0.33903598  1
  Ag  Ag5  1  0.49242131  0.17507313  0.66638283  1
  Ag  Ag6  1  0.33422554  0.00529510  0.66138855  1
  Ag  Ag7  1  -0.00430526  0.83744144  0.49987473  1
  Ag  Ag8  1  0.49851066  0.83707887  0.00224700  1
  Ag  Ag9  1  0.33284078  0.49823281  0.50158168  1
  Ag  Ag10  1  0.66385402  0.83705510  0.49589370  1
  Ag  Ag11  1  0.83242072  0.32809390  0.16620321  1
  Ag  Ag12  1  0.00312520  0.00701823  0.32927601  1
  Ag  Ag13  1  0.17280452  0.49355609  0.33652132  1
  Ag  Ag14  1  0.00266329  0.32569188  0.33038202  1
  Ag  Ag15  1  0.33588411  0.33415484  -0.00680051  1
  Ag  Ag16  1  0.66328522  -0.00268248  0.00776402  1
  Ag  Ag17  1  0.00339257  0.00501154  0.00753110  1
  Ag  Ag18  1  0.66498136  0.83781889  0.17512799  1
  Ag  Ag19  1  0.49323009  0.48682231  0.65965059  1
  Ag  Ag20  1  0.66268439  0.49620361  0.16893083  1
  Ag  Ag21  1  0.33408768  0.65724886  0.66302945  1
  Ag  Ag22  1  0.00246724  0.16575792  0.16268915  1
  Ag  Ag23  1  0.32873257  0.16968606  0.82911041  1
  Ag  Ag24  1  0.49740264  0.17347013  0.00043331  1
  Ag  Ag25  1  0.16873334  0.16598398  0.33564149  1
  Ag  Ag26  1  0.48999868  0.33100213  0.82521282  1
  Ag  Ag27  1  0.00686668  0.49723407  0.49766211  1
  Ag  Ag28  1  0.16709692  0.83889798  -0.00377314  1
  Ag  Ag29  1  0.49355529  0.48711936  0.00242938  1
  Ag  Ag30  1  0.82957805  -0.00085386  0.49419628  1
  Ag  Ag31  1  0.83155967  0.83581980  0.66367007  1
  Ag  Ag32  1  0.15951530  0.00179925  0.16374145  1
  Ag  Ag33  1  0.17343302  0.83960279  0.66941060  1
  Ag  Ag34  1  0.50193987  0.00201499  0.49447799  1
  Ag  Ag35  1  0.50310725  0.33337624  0.16641233  1
  Ag  Ag36  1  0.00567245  0.32874829  0.00012489  1
  Ag  Ag37  1  0.50244379  0.84034809  0.33542603  1
  Ag  Ag38  1  0.83644560  0.00481894  0.17237167  1
  Ag  Ag39  1  0.65860317  -0.00403008  0.33076033  1
  Ag  Ag40  1  0.01040100  0.16933270  0.83919418  1
  Ag  Ag41  1  0.83648656  0.33332101  0.83238547  1
  Ag  Ag42  1  0.17520062  0.49195420  0.66448272  1
  Ag  Ag43  1  0.83591563  0.66389487  0.83243605  1
  Ag  Ag44  1  0.49467811  0.49406588  0.33699589  1
  Ag  Ag45  1  0.17209328  0.32812223  0.83285703  1
  Ag  Ag46  1  0.65726141  0.67586037  0.33240288  1
  Ag  Ag47  1  0.83100998  0.33071016  0.50184110  1
  Ag  Ag48  1  0.00310237  0.66680190  -0.00094825  1
  Ag  Ag49  1  0.65280039  0.33405473  0.66566552  1
  Ag  Ag50  1  0.17321184  0.16867821  0.67422175  1
  Ag  Ag51  1  0.49335243  0.16577589  0.33545563  1
  Ag  Ag52  1  0.16649268  0.00915043  0.83518087  1
  Ag  Ag53  1  0.33974089  0.00145431  0.33794815  1
  Sb  Sb54  1  0.83909776  0.00342434  0.83303836  1
  Sb  Sb55  1  0.66095428  0.66514577  0.66215828  1
  Sb  Sb56  1  0.33211544  0.00396663  0.00062789  1
  Sb  Sb57  1  -0.00217257  0.49119751  0.16900248  1
  Sb  Sb58  1  0.33321900  0.33104071  0.33661690  1
  Sb  Sb59  1  0.66202604  0.33011064  -0.00135891  1
  Sb  Sb60  1  0.83435720  0.16734359  -0.00017943  1
  Sb  Sb61  1  0.49535661  0.00646665  0.83097147  1
  Sb  Sb62  1  0.83356667  0.16477964  0.66650916  1
  Sb  Sb63  1  0.00203293  0.66628761  0.32994180  1
  Sb  Sb64  1  0.50158596  0.66164794  0.16923570  1
  Sb  Sb65  1  0.66807848  0.67053012  0.00400927  1
  Sb  Sb66  1  0.65994357  0.00235759  0.66342960  1
  Sb  Sb67  1  0.66271688  0.50075222  0.49574182  1
  Sb  Sb68  1  0.83264404  0.50013345  0.66516645  1
  Sb  Sb69  1  0.00443008  0.66761898  0.67023535  1
  Sb  Sb70  1  0.83499541  0.83564140  -0.00312273  1
  Sb  Sb71  1  0.83284136  0.66914080  0.50338705  1
  Sb  Sb72  1  0.66451482  0.33036763  0.33563990  1
  Sb  Sb73  1  0.16817789  0.33559195  0.50448004  1
  Sb  Sb74  1  0.17112800  0.83728810  0.33432172  1
  Sb  Sb75  1  0.16813463  0.16750449  -0.00322506  1
  Sb  Sb76  1  0.82567858  0.83812769  0.33845459  1
  Sb  Sb77  1  0.83145270  0.49693036  0.33454051  1
  Sb  Sb78  1  0.00263222  0.49355834  0.83209184  1
  Sb  Sb79  1  0.33579251  0.83199500  0.50208714  1
  Sb  Sb80  1  0.33546443  0.17102744  0.50675686  1
  Sb  Sb81  1  0.33864637  0.83583044  0.16781811  1
  Sb  Sb82  1  0.00603767  -0.00039645  0.66402665  1
  Sb  Sb83  1  0.16607918  0.67003463  0.16577586  1
  Sb  Sb84  1  0.50085953  0.66162729  0.83199191  1
  Sb  Sb85  1  0.00174194  0.83818554  0.83210560  1
  Sb  Sb86  1  0.83395959  0.49723722  0.00032682  1
  Sb  Sb87  1  0.16469995  0.66449766  0.83237669  1
  Sb  Sb88  1  0.33254393  0.49150632  0.82449539  1
  Sb  Sb89  1  0.16952249  0.00050663  0.50023859  1
  Sb  Sb90  1  0.33257545  0.84048188  0.82990124  1
  Sb  Sb91  1  0.16692494  0.32882481  0.16385892  1
  Sb  Sb92  1  0.16803416  0.66543683  0.50156025  1
  Sb  Sb93  1  0.50208900  0.00427330  0.17124201  1
  Sb  Sb94  1  0.83231248  0.66827889  0.16359744  1
  Sb  Sb95  1  0.66768977  0.16526964  0.16672490  1
  Sb  Sb96  1  0.66240248  0.16236248  0.49876267  1
  Sb  Sb97  1  0.66413329  0.49711186  0.83708050  1
  Sb  Sb98  1  0.33044166  0.66051043  -0.00244438  1
  Sb  Sb99  1  0.66301512  0.16858782  0.83377159  1
  Sb  Sb100  1  0.66535805  0.83458685  0.83112206  1
  Sb  Sb101  1  0.83504914  0.16526080  0.33278083  1
  Sb  Sb102  1  0.33024434  0.16699133  0.16500585  1
  Sb  Sb103  1  0.33681039  0.49704176  0.17185439  1
  Sb  Sb104  1  0.49918677  0.66764710  0.49770780  1
  Sb  Sb105  1  0.00089156  0.16685324  0.49848684  1
  Sb  Sb106  1  -0.00364585  0.84226601  0.16959222  1
  Sb  Sb107  1  0.00372560  0.33283071  0.66715766  1
  Te  Te108  1  0.16303958  0.16271170  0.17319346  1
  Te  Te109  1  0.16711145  0.16803198  0.49531425  1
  Te  Te110  1  0.16768811  0.16746193  0.83291484  1
  Te  Te111  1  0.16592743  0.50081531  0.16495193  1
  Te  Te112  1  0.16714901  0.49963212  0.49943634  1
  Te  Te113  1  0.16632258  0.49519471  0.83621024  1
  Te  Te114  1  0.16543444  0.83903401  0.16371730  1
  Te  Te115  1  0.16134840  0.83309561  0.50393554  1
  Te  Te116  1  0.16629845  0.83637270  0.83324343  1
  Te  Te117  1  0.49896629  0.17169375  0.16642091  1
  Te  Te118  1  0.49932856  0.16650785  0.49919351  1
  Te  Te119  1  0.49690334  0.17114395  0.83164311  1
  Te  Te120  1  0.50207382  0.49605076  0.16657737  1
  Te  Te121  1  0.49912669  0.49827777  0.50019217  1
  Te  Te122  1  0.49982225  0.49373862  0.83600697  1
  Te  Te123  1  0.50498286  0.83461539  0.16721305  1
  Te  Te124  1  0.50085572  0.83550267  0.49774162  1
  Te  Te125  1  0.50004012  0.83353812  0.83586186  1
  Te  Te126  1  0.83891806  0.16720798  0.16617868  1
  Te  Te127  1  0.83236049  0.16805238  0.50106026  1
  Te  Te128  1  0.83833241  0.17260071  0.83212367  1
  Te  Te129  1  0.82664808  0.49571407  0.16732977  1
  Te  Te130  1  0.83615112  0.49428692  0.50087984  1
  Te  Te131  1  0.83364543  0.49558437  0.83223417  1
  Te  Te132  1  0.82675873  0.83832530  0.16566464  1
  Te  Te133  1  0.83452805  0.83548158  0.50368330  1
  Te  Te134  1  0.83351382  0.83320955  0.82542162  1
  Te  Te135  1  0.16681461  -0.00014211  0.00018470  1
  Te  Te136  1  0.16414737  0.00126361  0.33359945  1
  Te  Te137  1  0.17089289  0.00090935  0.66727449  1
  Te  Te138  1  0.16601593  0.33389262  -0.00212431  1
  Te  Te139  1  0.16532203  0.33338646  0.33262837  1
  Te  Te140  1  0.16971538  0.33295633  0.67025373  1
  Te  Te141  1  0.16290363  0.66764325  -0.00100680  1
  Te  Te142  1  0.17208920  0.66237913  0.33227477  1
  Te  Te143  1  0.17286739  0.66782959  0.66843633  1
  Te  Te144  1  0.49891064  -0.00320431  0.00063092  1
  Te  Te145  1  0.49935202  0.00104094  0.33308817  1
  Te  Te146  1  0.49645120  -0.00339841  0.66477307  1
  Te  Te147  1  0.50196727  0.33186805  0.00132669  1
  Te  Te148  1  0.49905186  0.33339843  0.32913495  1
  Te  Te149  1  0.49788476  0.33128804  0.66700148  1
  Te  Te150  1  0.49906261  0.67314654  -0.00116929  1
  Te  Te151  1  0.49914503  0.66403947  0.33268274  1
  Te  Te152  1  0.49478979  0.67469367  0.66796967  1
  Te  Te153  1  0.83711340  0.00046693  0.00266840  1
  Te  Te154  1  0.83658564  0.00080277  0.33407937  1
  Te  Te155  1  0.83114806  -0.00317997  0.66317142  1
  Te  Te156  1  0.83538688  0.33313520  0.00089327  1
  Te  Te157  1  0.83611454  0.33138213  0.33353816  1
  Te  Te158  1  0.83528385  0.33292234  0.66476183  1
  Te  Te159  1  0.83899656  0.66659296  -0.00544727  1
  Te  Te160  1  0.83018387  0.66606287  0.33297112  1
  Te  Te161  1  0.83220008  0.67001301  0.67161437  1
  Te  Te162  1  0.00062871  0.16745514  0.00085839  1
  Te  Te163  1  0.00158445  0.16717788  0.33228203  1
  Te  Te164  1  0.00615288  0.16533162  0.67051887  1
  Te  Te165  1  0.00316212  0.49412252  0.00085816  1
  Te  Te166  1  0.00381215  0.49985046  0.33614088  1
  Te  Te167  1  0.00542554  0.50131014  0.66015392  1
  Te  Te168  1  0.00378880  0.83851574  0.00053011  1
  Te  Te169  1  0.00188855  0.83439872  0.33818424  1
  Te  Te170  1  0.00292909  0.83254883  0.66243420  1
  Te  Te171  1  0.33763135  0.17074052  -0.00437784  1
  Te  Te172  1  0.33262472  0.16350460  0.33269229  1
  Te  Te173  1  0.33285923  0.16675088  0.66771500  1
  Te  Te174  1  0.33308295  0.49750119  0.00169197  1
  Te  Te175  1  0.33356812  0.49826314  0.33741750  1
  Te  Te176  1  0.33368351  0.49902210  0.66394419  1
  Te  Te177  1  0.33173630  0.83090295  -0.00026296  1
  Te  Te178  1  0.33953298  0.83336076  0.33492284  1
  Te  Te179  1  0.33277605  0.83921299  0.66570669  1
  Te  Te180  1  0.65862879  0.15877580  0.00008222  1
  Te  Te181  1  0.65690008  0.15886700  0.33188517  1
  Te  Te182  1  0.66121348  0.17179455  0.66697981  1
  Te  Te183  1  0.66046481  0.50208551  0.00733761  1
  Te  Te184  1  0.66130106  0.49961938  0.32937912  1
  Te  Te185  1  0.66016648  0.49670267  0.66557038  1
  Te  Te186  1  0.66438045  0.83669335  0.00084300  1
  Te  Te187  1  0.66377489  0.83543459  0.33441172  1
  Te  Te188  1  0.66256117  0.83330903  0.66215998  1
  Te  Te189  1  -0.00171148  0.00298499  0.16790939  1
  Te  Te190  1  -0.00389399  -0.00153464  0.49671377  1
  Te  Te191  1  0.00506219  0.00584362  0.83675501  1
  Te  Te192  1  -0.00131670  0.32841934  0.16789178  1
  Te  Te193  1  -0.00174370  0.33486512  0.49560268  1
  Te  Te194  1  0.00008388  0.32986399  0.83547849  1
  Te  Te195  1  -0.00220596  0.66603801  0.15936794  1
  Te  Te196  1  -0.00196142  0.66527865  0.49933857  1
  Te  Te197  1  -0.00375635  0.66644733  0.83899933  1
  Te  Te198  1  0.32542668  0.00020912  0.17298984  1
  Te  Te199  1  0.33919853  -0.00158294  0.49864790  1
  Te  Te200  1  0.32762156  0.00700425  0.83023681  1
  Te  Te201  1  0.33853488  0.33279098  0.15735856  1
  Te  Te202  1  0.33886012  0.33864459  0.50440629  1
  Te  Te203  1  0.33253247  0.33040976  0.83312324  1
  Te  Te204  1  0.33340056  0.66763435  0.17496569  1
  Te  Te205  1  0.33335223  0.66012807  0.50048008  1
  Te  Te206  1  0.33330420  0.66887574  0.82655703  1
  Te  Te207  1  0.66883075  -0.00050327  0.16790670  1
  Te  Te208  1  0.66715054  -0.00359540  0.49778676  1
  Te  Te209  1  0.66900724  0.00088343  0.84201614  1
  Te  Te210  1  0.66956108  0.33398322  0.16691999  1
  Te  Te211  1  0.66700012  0.33374575  0.50310783  1
  Te  Te212  1  0.67322220  0.33318886  0.82911088  1
  Te  Te213  1  0.66829871  0.67004408  0.17191103  1
  Te  Te214  1  0.66800099  0.67394718  0.49372326  1
  Te  Te215  1  0.67433471  0.66576874  0.83322634  1
