# generated using pymatgen
data_AgSbTe2
_symmetry_space_group_name_H-M   'P 1'
_cell_length_a   18.31289008
_cell_length_b   18.30809991
_cell_length_c   18.31209710
_cell_angle_alpha   90.00206666
_cell_angle_beta   90.00030669
_cell_angle_gamma   89.99902908
_symmetry_Int_Tables_number   1
_chemical_formula_structural   AgSbTe2
_chemical_formula_sum   'Ag54 Sb54 Te108'
_cell_volume   6139.57408685
_cell_formula_units_Z   54
loop_
 _symmetry_equiv_pos_site_id
 _symmetry_equiv_pos_as_xyz
  1  'x, y, z'
loop_
 _atom_site_type_symbol
 _atom_site_label
 _atom_site_symmetry_multiplicity
 _atom_site_fract_x
 _atom_site_fract_y
 _atom_site_fract_z
 _atom_site_occupancy
  Ag  Ag0  1  0.32558425  -0.00188424  0.33676766  1
  Ag  Ag1  1  0.83329836  0.83494625  0.32865296  1
  Ag  Ag2  1  0.16457982  0.66584137  0.83577265  1
  Ag  Ag3  1  0.66557188  0.00175693  0.66578154  1
  Ag  Ag4  1  0.00021682  0.00377639  0.00820878  1
  Ag  Ag5  1  0.00255234  -0.00077205  0.32748824  1
  Ag  Ag6  1  0.50745146  0.66234219  0.83865394  1
  Ag  Ag7  1  0.50044595  0.33486646  0.49778961  1
  Ag  Ag8  1  0.33420800  0.00085183  0.65546334  1
  Ag  Ag9  1  0.66467886  0.83426819  0.49473802  1
  Ag  Ag10  1  0.00192630  0.83459551  0.49593472  1
  Ag  Ag11  1  0.33584739  0.66839591  0.00116401  1
  Ag  Ag12  1  0.67192771  0.16407890  0.15896724  1
  Ag  Ag13  1  0.50348138  0.33592934  0.83454619  1
  Ag  Ag14  1  0.16664445  0.32946223  0.84004758  1
  Ag  Ag15  1  0.50585715  0.83117108  0.33515116  1
  Ag  Ag16  1  0.83921647  0.00392154  0.16739142  1
  Ag  Ag17  1  -0.00407574  0.16168999  0.84408896  1
  Ag  Ag18  1  0.17211707  -0.00613084  0.49537840  1
  Ag  Ag19  1  0.15937492  0.00706818  0.16909263  1
  Ag  Ag20  1  0.16641314  0.66489836  0.16836049  1
  Ag  Ag21  1  0.66878532  0.83638861  0.17063731  1
  Ag  Ag22  1  0.00253590  0.49504258  0.17272868  1
  Ag  Ag23  1  0.32629412  0.16461144  0.16504227  1
  Ag  Ag24  1  0.66439277  0.66584903  -0.00396817  1
  Ag  Ag25  1  0.66322224  0.32337601  -0.00248895  1
  Ag  Ag26  1  0.83673401  0.15915531  0.32222778  1
  Ag  Ag27  1  0.82990608  0.16762783  0.67371365  1
  Ag  Ag28  1  0.16066298  0.50341482  0.33276085  1
  Ag  Ag29  1  0.16189405  0.16464715  0.00301573  1
  Ag  Ag30  1  0.83309832  0.83990214  0.00662849  1
  Ag  Ag31  1  0.51018872  0.16955985  0.00317820  1
  Ag  Ag32  1  0.16704471  0.67012020  0.49542836  1
  Ag  Ag33  1  0.84266078  0.50202991  0.33370849  1
  Ag  Ag34  1  0.83382152  0.16135639  0.00337037  1
  Ag  Ag35  1  -0.00016985  0.83712720  0.83181377  1
  Ag  Ag36  1  0.49757853  0.50244705  0.33674541  1
  Ag  Ag37  1  0.00030087  0.33751096  0.32919133  1
  Ag  Ag38  1  0.16287017  0.00337577  0.83432781  1
  Ag  Ag39  1  0.33292538  0.50670016  0.49877378  1
  Ag  Ag40  1  0.33246679  0.83506070  0.49713115  1
  Ag  Ag41  1  0.49337289  -0.00236798  0.49871343  1
  Ag  Ag42  1  0.66590464  0.66414872  0.67284699  1
  Ag  Ag43  1  0.49853447  0.66242127  0.16395281  1
  Ag  Ag44  1  0.16453971  0.32649365  0.16387807  1
  Ag  Ag45  1  0.66426557  0.33321814  0.67226959  1
  Ag  Ag46  1  0.50165483  0.49868974  0.66110222  1
  Ag  Ag47  1  0.67280095  0.16812416  0.84021026  1
  Ag  Ag48  1  -0.00085563  0.16299259  0.16305502  1
  Ag  Ag49  1  0.16797832  0.50071104  0.66141786  1
  Ag  Ag50  1  0.00140227  0.66695308  0.33059497  1
  Ag  Ag51  1  0.49954657  0.33276865  0.16559709  1
  Ag  Ag52  1  0.82949939  0.49890102  0.66320391  1
  Ag  Ag53  1  0.82870664  0.66802733  0.83409804  1
  Sb  Sb54  1  -0.00101412  0.67265339  0.00305219  1
  Sb  Sb55  1  0.83328872  0.49949513  0.00228530  1
  Sb  Sb56  1  0.00137652  0.49925805  0.83655892  1
  Sb  Sb57  1  0.33582488  0.66724179  0.66813359  1
  Sb  Sb58  1  0.33298079  0.50113679  0.82854933  1
  Sb  Sb59  1  0.50399473  0.16686083  0.32747994  1
  Sb  Sb60  1  0.32720491  -0.00158828  0.00342989  1
  Sb  Sb61  1  0.16704551  0.83030938  0.66450397  1
  Sb  Sb62  1  0.50560519  0.83331287  0.00551451  1
  Sb  Sb63  1  0.83201771  0.33249899  0.83335360  1
  Sb  Sb64  1  0.50046191  0.49830137  0.00096076  1
  Sb  Sb65  1  0.83502869  0.32583824  0.16766374  1
  Sb  Sb66  1  0.33262544  0.16573632  0.83894470  1
  Sb  Sb67  1  0.16068837  0.83637549  0.00041281  1
  Sb  Sb68  1  0.50021227  0.00199486  0.17094265  1
  Sb  Sb69  1  0.32966588  0.67001707  0.33131810  1
  Sb  Sb70  1  0.82811651  0.33415942  0.49917957  1
  Sb  Sb71  1  0.50138560  0.82941774  0.66110947  1
  Sb  Sb72  1  -0.00171016  0.66505290  0.66538637  1
  Sb  Sb73  1  0.66864903  0.33247344  0.33147359  1
  Sb  Sb74  1  -0.00330234  0.33344686  0.66387707  1
  Sb  Sb75  1  -0.00008547  0.16182782  0.49460573  1
  Sb  Sb76  1  0.16639152  0.49785792  0.00390601  1
  Sb  Sb77  1  -0.00439508  0.83799258  0.16916031  1
  Sb  Sb78  1  0.33012026  0.49835529  0.17245533  1
  Sb  Sb79  1  0.17074527  0.33541104  0.49779150  1
  Sb  Sb80  1  0.67124961  0.83424943  0.83495778  1
  Sb  Sb81  1  0.83889706  -0.00043910  0.83773239  1
  Sb  Sb82  1  -0.00004794  0.00095926  0.66573392  1
  Sb  Sb83  1  0.33679946  0.33439879  0.00168623  1
  Sb  Sb84  1  0.50587607  0.17086478  0.67144538  1
  Sb  Sb85  1  -0.00202589  0.32463126  0.00507346  1
  Sb  Sb86  1  0.83135940  0.83399853  0.66640947  1
  Sb  Sb87  1  0.16164870  0.83232174  0.33390551  1
  Sb  Sb88  1  0.33364336  0.16186204  0.49376116  1
  Sb  Sb89  1  0.83308053  0.67111121  0.16463640  1
  Sb  Sb90  1  0.32896579  0.83251225  0.82960919  1
  Sb  Sb91  1  0.83673185  0.66807338  0.50166134  1
  Sb  Sb92  1  0.66166919  0.50464993  0.50305638  1
  Sb  Sb93  1  0.33831997  0.33072007  0.66606201  1
  Sb  Sb94  1  0.66640678  0.49664787  0.83055932  1
  Sb  Sb95  1  0.33706995  0.83627485  0.17260169  1
  Sb  Sb96  1  0.33099567  0.33044245  0.33163301  1
  Sb  Sb97  1  0.67135999  0.00275001  -0.00177818  1
  Sb  Sb98  1  0.66872269  0.66863735  0.33250604  1
  Sb  Sb99  1  0.66657463  0.16234521  0.50086808  1
  Sb  Sb100  1  0.66867595  0.49878565  0.16815362  1
  Sb  Sb101  1  0.00552002  0.50504435  0.49244443  1
  Sb  Sb102  1  0.83411185  -0.00173332  0.49512264  1
  Sb  Sb103  1  0.16216150  0.16906599  0.67347954  1
  Sb  Sb104  1  0.49606559  0.66751470  0.49775618  1
  Sb  Sb105  1  0.49737476  0.00059102  0.82885872  1
  Sb  Sb106  1  0.66902672  -0.00124669  0.33479937  1
  Sb  Sb107  1  0.16077376  0.16629802  0.32516079  1
  Te  Te108  1  0.16317870  0.16697803  0.16494107  1
  Te  Te109  1  0.16678895  0.16169971  0.50222914  1
  Te  Te110  1  0.16483679  0.16727851  0.83789667  1
  Te  Te111  1  0.16497312  0.50204166  0.17084362  1
  Te  Te112  1  0.17109448  0.50042644  0.49835240  1
  Te  Te113  1  0.16599992  0.50076640  0.83078229  1
  Te  Te114  1  0.16802186  0.82906954  0.16612004  1
  Te  Te115  1  0.16603530  0.83355565  0.49984307  1
  Te  Te116  1  0.16125747  0.83158714  0.83256460  1
  Te  Te117  1  0.50531471  0.16957863  0.16330864  1
  Te  Te118  1  0.50038995  0.16722136  0.49941539  1
  Te  Te119  1  0.50196262  0.16960526  0.83947567  1
  Te  Te120  1  0.49912595  0.49965318  0.17059682  1
  Te  Te121  1  0.49631743  0.49977876  0.49895172  1
  Te  Te122  1  0.49924155  0.50002812  0.83012818  1
  Te  Te123  1  0.50501903  0.83095628  0.17248923  1
  Te  Te124  1  0.50063708  0.83520544  0.49601180  1
  Te  Te125  1  0.49915836  0.82695080  0.83472152  1
  Te  Te126  1  0.83382201  0.16479172  0.16504924  1
  Te  Te127  1  0.83326055  0.16648919  0.50116442  1
  Te  Te128  1  0.83373212  0.16617843  0.83478801  1
  Te  Te129  1  0.83838310  0.50030451  0.17192596  1
  Te  Te130  1  0.83386325  0.50057989  0.49914118  1
  Te  Te131  1  0.83555398  0.50625665  0.82989865  1
  Te  Te132  1  0.82963623  0.83674493  0.16740687  1
  Te  Te133  1  0.83398174  0.83320584  0.49538329  1
  Te  Te134  1  0.83807739  0.82994999  0.83540087  1
  Te  Te135  1  0.16320737  0.00311104  0.00057355  1
  Te  Te136  1  0.16480311  -0.00038444  0.33194682  1
  Te  Te137  1  0.16853821  0.00065771  0.66763021  1
  Te  Te138  1  0.16802127  0.33001398  0.00107037  1
  Te  Te139  1  0.16332671  0.33726222  0.32962130  1
  Te  Te140  1  0.16695997  0.33904664  0.66821908  1
  Te  Te141  1  0.16708352  0.66660512  0.00046068  1
  Te  Te142  1  0.16420514  0.66488697  0.33209765  1
  Te  Te143  1  0.16709953  0.66087271  0.66910755  1
  Te  Te144  1  0.49716095  0.00556484  -0.00083487  1
  Te  Te145  1  0.49940679  -0.00176909  0.33784960  1
  Te  Te146  1  0.50067286  0.00038361  0.66293560  1
  Te  Te147  1  0.50262512  0.33220599  0.00000058  1
  Te  Te148  1  0.49996837  0.33582019  0.33157488  1
  Te  Te149  1  0.50373626  0.33741588  0.67112436  1
  Te  Te150  1  0.50296772  0.66699931  0.00114178  1
  Te  Te151  1  0.50002359  0.66536778  0.32869940  1
  Te  Te152  1  0.50327257  0.66146624  0.67062555  1
  Te  Te153  1  0.83714224  0.00028524  0.00365387  1
  Te  Te154  1  0.83570897  -0.00132879  0.32986037  1
  Te  Te155  1  0.82868018  0.00415216  0.66613777  1
  Te  Te156  1  0.82491930  0.32961664  -0.00018348  1
  Te  Te157  1  0.83811340  0.33838316  0.33431273  1
  Te  Te158  1  0.82712233  0.33519039  0.66622138  1
  Te  Te159  1  0.83071747  0.66755356  -0.00426960  1
  Te  Te160  1  0.83762086  0.66668755  0.33336693  1
  Te  Te161  1  0.82977256  0.66398363  0.67098488  1
  Te  Te162  1  -0.00131589  0.16475512  0.00101805  1
  Te  Te163  1  -0.00521446  0.16225068  0.33022513  1
  Te  Te164  1  -0.00764948  0.16828428  0.67094400  1
  Te  Te165  1  -0.00098871  0.49838323  0.01055641  1
  Te  Te166  1  0.00110384  0.50175166  0.33163482  1
  Te  Te167  1  -0.00188134  0.49875568  0.66534298  1
  Te  Te168  1  -0.00623353  0.83991418  -0.00416934  1
  Te  Te169  1  -0.00434009  0.83439786  0.33501405  1
  Te  Te170  1  -0.00151812  0.83335862  0.66712785  1
  Te  Te171  1  0.32904377  0.16648199  0.00660276  1
  Te  Te172  1  0.33438515  0.16009939  0.32610116  1
  Te  Te173  1  0.33323048  0.15970885  0.66687565  1
  Te  Te174  1  0.33369691  0.50939758  0.00052480  1
  Te  Te175  1  0.33597126  0.50031528  0.33876075  1
  Te  Te176  1  0.33452483  0.49910510  0.66022769  1
  Te  Te177  1  0.33547755  0.82775090  0.00001001  1
  Te  Te178  1  0.33880581  0.83760737  0.33817149  1
  Te  Te179  1  0.33416530  0.84015120  0.65962165  1
  Te  Te180  1  0.66872772  0.16508028  -0.00030826  1
  Te  Te181  1  0.67594569  0.16661692  0.32820556  1
  Te  Te182  1  0.67027024  0.16769268  0.66771139  1
  Te  Te183  1  0.66762631  0.50481118  0.00010547  1
  Te  Te184  1  0.66548972  0.50035140  0.33520517  1
  Te  Te185  1  0.66729692  0.50040887  0.66613170  1
  Te  Te186  1  0.67253099  0.83180475  0.00371215  1
  Te  Te187  1  0.66821289  0.83331498  0.33270525  1
  Te  Te188  1  0.66732368  0.83361138  0.66375488  1
  Te  Te189  1  0.00019024  0.00019283  0.16708657  1
  Te  Te190  1  0.00512458  -0.00477489  0.49674059  1
  Te  Te191  1  0.00395586  0.00107986  0.83239993  1
  Te  Te192  1  0.00284977  0.33016406  0.16929093  1
  Te  Te193  1  0.00061841  0.33153457  0.49148116  1
  Te  Te194  1  0.00544960  0.32974626  0.83306481  1
  Te  Te195  1  0.00324333  0.66818629  0.16963174  1
  Te  Te196  1  0.00614050  0.67232214  0.49607935  1
  Te  Te197  1  0.00356901  0.66770705  0.83462120  1
  Te  Te198  1  0.32958540  0.00371126  0.17117300  1
  Te  Te199  1  0.33259927  -0.00105657  0.49721183  1
  Te  Te200  1  0.32608363  -0.00094136  0.83088074  1
  Te  Te201  1  0.33372991  0.32814190  0.16581590  1
  Te  Te202  1  0.34041677  0.33479804  0.49932868  1
  Te  Te203  1  0.33205736  0.33347303  0.83404905  1
  Te  Te204  1  0.33396124  0.66710768  0.16407582  1
  Te  Te205  1  0.32716708  0.66977724  0.50007622  1
  Te  Te206  1  0.32916894  0.66761222  0.83685281  1
  Te  Te207  1  0.66886920  0.00028358  0.16620435  1
  Te  Te208  1  0.66319648  -0.00472539  0.50444890  1
  Te  Te209  1  0.66613910  0.00438347  0.82664907  1
  Te  Te210  1  0.66188437  0.33052388  0.16350255  1
  Te  Te211  1  0.65906930  0.33285737  0.50421768  1
  Te  Te212  1  0.66545346  0.32976492  0.83382689  1
  Te  Te213  1  0.66415883  0.66832102  0.16364627  1
  Te  Te214  1  0.66593159  0.67392300  0.50544579  1
  Te  Te215  1  0.66634775  0.66856647  0.83333470  1
