# generated using pymatgen
data_AgSbTe2
_symmetry_space_group_name_H-M   'P 1'
_cell_length_a   18.34798730
_cell_length_b   18.34507152
_cell_length_c   18.34999678
_cell_angle_alpha   89.99722735
_cell_angle_beta   90.00027224
_cell_angle_gamma   90.00131570
_symmetry_Int_Tables_number   1
_chemical_formula_structural   AgSbTe2
_chemical_formula_sum   'Ag54 Sb54 Te108'
_cell_volume   6176.51971358
_cell_formula_units_Z   54
loop_
 _symmetry_equiv_pos_site_id
 _symmetry_equiv_pos_as_xyz
  1  'x, y, z'
loop_
 _atom_site_type_symbol
 _atom_site_label
 _atom_site_symmetry_multiplicity
 _atom_site_fract_x
 _atom_site_fract_y
 _atom_site_fract_z
 _atom_site_occupancy
  Ag  Ag0  1  0.50263604  0.16625840  -0.00389352  1
  Ag  Ag1  1  0.34304164  0.33026399  0.34142939  1
  Ag  Ag2  1  0.34318618  0.00633195  -0.00471673  1
  Ag  Ag3  1  0.17097266  0.32788340  0.17156630  1
  Ag  Ag4  1  0.66660724  0.00010502  0.33374705  1
  Ag  Ag5  1  0.18619334  0.16282503  0.65751047  1
  Ag  Ag6  1  0.66042693  0.00683967  0.66511632  1
  Ag  Ag7  1  0.66510740  0.84048107  0.83025781  1
  Ag  Ag8  1  0.49961806  0.16548958  0.66720196  1
  Ag  Ag9  1  0.81342624  0.17131885  0.66446988  1
  Ag  Ag10  1  0.82446261  0.16363693  0.33613810  1
  Ag  Ag11  1  0.66111673  0.17210056  0.50788949  1
  Ag  Ag12  1  0.16441838  0.84135914  0.33709399  1
  Ag  Ag13  1  0.66240370  0.32359426  0.65811930  1
  Ag  Ag14  1  0.82493101  0.33244965  0.16583625  1
  Ag  Ag15  1  0.82987344  0.49067641  -0.00094229  1
  Ag  Ag16  1  0.66547659  0.67984277  0.33613832  1
  Ag  Ag17  1  0.17389687  0.00376306  0.16937218  1
  Ag  Ag18  1  0.66546201  0.67595319  0.00104209  1
  Ag  Ag19  1  0.66313459  0.16238534  0.82355866  1
  Ag  Ag20  1  0.82561000  0.84191165  0.33413919  1
  Ag  Ag21  1  0.34118844  0.00372957  0.66914084  1
  Ag  Ag22  1  0.50505280  0.67791590  0.16803359  1
  Ag  Ag23  1  0.34462670  0.48769698  0.50317252  1
  Ag  Ag24  1  0.50011085  0.00219620  0.16690693  1
  Ag  Ag25  1  0.16556736  0.49688938  0.00341039  1
  Ag  Ag26  1  0.82372035  0.48889692  0.66637835  1
  Ag  Ag27  1  -0.00477798  0.83413356  0.82655005  1
  Ag  Ag28  1  0.82417190  0.17067006  -0.00389168  1
  Ag  Ag29  1  0.50696630  0.48662196  0.66178502  1
  Ag  Ag30  1  -0.00166298  0.49969040  0.16595351  1
  Ag  Ag31  1  -0.00515416  -0.00287544  0.33162788  1
  Ag  Ag32  1  0.33895244  0.84244138  0.82252340  1
  Ag  Ag33  1  0.33691504  0.32562572  0.00110974  1
  Ag  Ag34  1  0.82993086  0.32879830  0.83799190  1
  Ag  Ag35  1  0.17859976  0.32829895  0.49213255  1
  Ag  Ag36  1  0.34443639  0.31884020  0.65342095  1
  Ag  Ag37  1  0.66568460  0.83455302  0.17563079  1
  Ag  Ag38  1  0.50618636  0.83591604  0.33651700  1
  Ag  Ag39  1  0.00653080  0.83373006  0.49359074  1
  Ag  Ag40  1  0.66268190  0.32609791  0.33789557  1
  Ag  Ag41  1  0.82697942  0.66795780  0.49982313  1
  Ag  Ag42  1  0.34028893  0.17456160  0.50797819  1
  Ag  Ag43  1  0.33216959  0.83495442  0.50227799  1
  Ag  Ag44  1  0.49695765  0.33269548  0.50020625  1
  Ag  Ag45  1  0.50074700  0.32935870  0.17276705  1
  Ag  Ag46  1  0.49916600  0.83849323  0.66066718  1
  Ag  Ag47  1  0.66226389  0.00146363  0.00137035  1
  Ag  Ag48  1  0.18239264  0.84197848  0.65832001  1
  Ag  Ag49  1  -0.00582187  0.83357667  0.17542626  1
  Ag  Ag50  1  0.66432219  0.49175677  0.50502152  1
  Ag  Ag51  1  0.16681037  0.16366878  0.33860071  1
  Ag  Ag52  1  0.66544848  0.66574398  0.65975379  1
  Ag  Ag53  1  0.34184749  0.16439095  0.82441230  1
  Sb  Sb54  1  0.83040812  -0.00125067  0.49843279  1
  Sb  Sb55  1  0.82685580  0.33367381  0.49819835  1
  Sb  Sb56  1  0.33912732  0.66831640  0.00015795  1
  Sb  Sb57  1  0.83116582  0.49851561  0.33348372  1
  Sb  Sb58  1  0.00029206  0.16403630  0.49873390  1
  Sb  Sb59  1  -0.00370578  0.50182044  0.49526668  1
  Sb  Sb60  1  0.66893108  0.50233702  0.16959168  1
  Sb  Sb61  1  0.66736388  0.49477146  0.82630320  1
  Sb  Sb62  1  0.50153121  0.16508127  0.33575013  1
  Sb  Sb63  1  -0.00270975  0.50227541  0.83702592  1
  Sb  Sb64  1  -0.00206947  0.32817641  0.33219293  1
  Sb  Sb65  1  -0.00227347  0.33171956  0.66440769  1
  Sb  Sb66  1  0.16645045  0.33053755  0.83359060  1
  Sb  Sb67  1  0.16887027  0.00289793  0.49604185  1
  Sb  Sb68  1  -0.00592190  0.66628011  0.00201999  1
  Sb  Sb69  1  0.16863270  0.49643856  0.66674448  1
  Sb  Sb70  1  0.50304618  0.49438548  -0.00245807  1
  Sb  Sb71  1  0.16431900  0.66847593  0.49965207  1
  Sb  Sb72  1  0.17046008  0.66774969  0.16858369  1
  Sb  Sb73  1  0.50345545  0.32898799  0.82807184  1
  Sb  Sb74  1  0.33740561  0.83667474  0.16862984  1
  Sb  Sb75  1  0.33613082  0.00277349  0.33594597  1
  Sb  Sb76  1  -0.00043913  -0.00134131  0.66244474  1
  Sb  Sb77  1  0.17266178  0.16898188  0.00065493  1
  Sb  Sb78  1  0.66621533  0.16211666  0.16771206  1
  Sb  Sb79  1  0.33839795  0.66587137  0.33488062  1
  Sb  Sb80  1  0.50006974  0.00333092  0.49923792  1
  Sb  Sb81  1  0.82837442  0.83545328  0.00293767  1
  Sb  Sb82  1  0.16801162  0.83209982  0.00170363  1
  Sb  Sb83  1  0.82734493  0.83643075  0.66265693  1
  Sb  Sb84  1  0.66523153  0.32936099  0.00001521  1
  Sb  Sb85  1  -0.00038723  0.16562141  0.16768461  1
  Sb  Sb86  1  0.16782216  0.49475406  0.33056013  1
  Sb  Sb87  1  0.50162041  0.49942236  0.33673113  1
  Sb  Sb88  1  -0.00172039  -0.00136134  0.00537890  1
  Sb  Sb89  1  0.83000082  0.00312670  0.16923759  1
  Sb  Sb90  1  -0.00082407  0.33341999  0.00325281  1
  Sb  Sb91  1  0.33408945  0.49368881  0.82865251  1
  Sb  Sb92  1  0.66475920  0.83512549  0.49837998  1
  Sb  Sb93  1  0.82743677  0.66513468  0.16983933  1
  Sb  Sb94  1  0.82887798  0.00456822  0.83306946  1
  Sb  Sb95  1  0.17005289  -0.00027788  0.83485341  1
  Sb  Sb96  1  -0.00366544  0.16388959  0.83194963  1
  Sb  Sb97  1  0.33462823  0.16794327  0.17040402  1
  Sb  Sb98  1  -0.00618792  0.66994840  0.66632589  1
  Sb  Sb99  1  0.33204773  0.49451455  0.16995877  1
  Sb  Sb100  1  0.50595135  0.66416278  0.49879653  1
  Sb  Sb101  1  0.50312970  0.84080283  0.00117633  1
  Sb  Sb102  1  0.50040489  0.00214469  0.83341529  1
  Sb  Sb103  1  0.82813404  0.66493937  0.83023402  1
  Sb  Sb104  1  -0.00712849  0.67670590  0.33280173  1
  Sb  Sb105  1  0.50410869  0.67031377  0.83399312  1
  Sb  Sb106  1  0.34042464  0.66992680  0.66532607  1
  Sb  Sb107  1  0.16787554  0.66968746  0.83268203  1
  Te  Te108  1  0.16601736  0.16631836  0.16895360  1
  Te  Te109  1  0.16542704  0.16808687  0.50016167  1
  Te  Te110  1  0.16711632  0.16640592  0.83017231  1
  Te  Te111  1  0.16386592  0.49930877  0.16327393  1
  Te  Te112  1  0.16723143  0.49792935  0.50073500  1
  Te  Te113  1  0.16530895  0.50002018  0.84104130  1
  Te  Te114  1  0.16845901  0.83527769  0.17006413  1
  Te  Te115  1  0.16665462  0.83327742  0.50039374  1
  Te  Te116  1  0.16875254  0.83314191  0.83143536  1
  Te  Te117  1  0.49977469  0.16767070  0.16435167  1
  Te  Te118  1  0.49948340  0.16979576  0.50044491  1
  Te  Te119  1  0.50125860  0.16739575  0.83547418  1
  Te  Te120  1  0.49975293  0.48923221  0.16497856  1
  Te  Te121  1  0.50243902  0.49773330  0.50251294  1
  Te  Te122  1  0.49855302  0.50152129  0.82447419  1
  Te  Te123  1  0.50339882  0.83608720  0.16786250  1
  Te  Te124  1  0.49613788  0.83195827  0.49749507  1
  Te  Te125  1  0.50213959  0.83506922  0.83036065  1
  Te  Te126  1  0.83470607  0.17180845  0.17171111  1
  Te  Te127  1  0.83135283  0.16721896  0.50007330  1
  Te  Te128  1  0.83067942  0.16975239  0.83039171  1
  Te  Te129  1  0.83618358  0.49618798  0.16419669  1
  Te  Te130  1  0.83062268  0.50356065  0.50393614  1
  Te  Te131  1  0.83461115  0.49501039  0.83297987  1
  Te  Te132  1  0.83096491  0.83286585  0.17124936  1
  Te  Te133  1  0.83427233  0.83040700  0.49627501  1
  Te  Te134  1  0.83055359  0.83312255  0.83345595  1
  Te  Te135  1  0.16734796  0.00024534  0.00880652  1
  Te  Te136  1  0.17175991  0.00169882  0.33040772  1
  Te  Te137  1  0.16719103  -0.00014697  0.66864882  1
  Te  Te138  1  0.16791216  0.33552557  0.00253934  1
  Te  Te139  1  0.16456558  0.32975384  0.33186769  1
  Te  Te140  1  0.16807157  0.33035322  0.66587159  1
  Te  Te141  1  0.16730523  0.65952576  0.00078937  1
  Te  Te142  1  0.16801304  0.67272634  0.33295934  1
  Te  Te143  1  0.16457866  0.66932932  0.66664121  1
  Te  Te144  1  0.50076104  0.00430965  0.00458124  1
  Te  Te145  1  0.50363739  -0.00370134  0.32816481  1
  Te  Te146  1  0.50086408  -0.00098986  0.66496474  1
  Te  Te147  1  0.49777489  0.32956809  0.00171656  1
  Te  Te148  1  0.50009238  0.33220588  0.33515408  1
  Te  Te149  1  0.50023656  0.33182112  0.66691021  1
  Te  Te150  1  0.50694706  0.66207052  0.00622652  1
  Te  Te151  1  0.50429477  0.66979708  0.32938687  1
  Te  Te152  1  0.50768768  0.67375784  0.66752374  1
  Te  Te153  1  0.82737653  0.00521971  0.00101075  1
  Te  Te154  1  0.82962234  0.00150683  0.33278379  1
  Te  Te155  1  0.83008173  0.00780842  0.66626839  1
  Te  Te156  1  0.83309596  0.33181394  0.00290626  1
  Te  Te157  1  0.83127192  0.32817856  0.32894386  1
  Te  Te158  1  0.83145847  0.33122100  0.66415148  1
  Te  Te159  1  0.82513222  0.66441015  0.00032620  1
  Te  Te160  1  0.82579823  0.66759345  0.33686584  1
  Te  Te161  1  0.82678158  0.66785788  0.66348693  1
  Te  Te162  1  -0.01042092  0.16451489  -0.00130377  1
  Te  Te163  1  0.00292753  0.15867361  0.33343028  1
  Te  Te164  1  0.00065118  0.16418703  0.66679634  1
  Te  Te165  1  -0.00358761  0.50074266  0.00456649  1
  Te  Te166  1  -0.00004180  0.50344530  0.32647866  1
  Te  Te167  1  -0.00393473  0.50164677  0.66641436  1
  Te  Te168  1  -0.00037426  0.83268970  0.00204986  1
  Te  Te169  1  0.00142898  0.83643810  0.33313016  1
  Te  Te170  1  -0.00225063  0.83431230  0.66687821  1
  Te  Te171  1  0.33516180  0.16492303  0.00114150  1
  Te  Te172  1  0.33051749  0.17081276  0.34025083  1
  Te  Te173  1  0.33873016  0.16433098  0.66718979  1
  Te  Te174  1  0.33251247  0.49906906  -0.00236132  1
  Te  Te175  1  0.33297236  0.49459398  0.34134811  1
  Te  Te176  1  0.33502730  0.50131373  0.66262954  1
  Te  Te177  1  0.33424188  0.83625330  -0.00369462  1
  Te  Te178  1  0.33420122  0.83353273  0.33766870  1
  Te  Te179  1  0.33590029  0.83262045  0.66632874  1
  Te  Te180  1  0.66539051  0.16342985  0.00149770  1
  Te  Te181  1  0.66648664  0.16596379  0.33362580  1
  Te  Te182  1  0.66008699  0.16556468  0.66645687  1
  Te  Te183  1  0.67124157  0.49973095  -0.00261120  1
  Te  Te184  1  0.66754253  0.49257400  0.33898378  1
  Te  Te185  1  0.66706808  0.50395147  0.66655690  1
  Te  Te186  1  0.66562381  0.83659741  -0.00231437  1
  Te  Te187  1  0.66652506  0.83637764  0.33560724  1
  Te  Te188  1  0.66343664  0.83431121  0.66673177  1
  Te  Te189  1  0.00230901  -0.00559488  0.17184032  1
  Te  Te190  1  0.00048913  -0.00706541  0.49311024  1
  Te  Te191  1  0.00033427  -0.00756322  0.83469235  1
  Te  Te192  1  0.00520512  0.33665123  0.16768595  1
  Te  Te193  1  0.01156905  0.33489906  0.49803858  1
  Te  Te194  1  -0.00825026  0.33464765  0.83292022  1
  Te  Te195  1  0.00216261  0.66990584  0.16598738  1
  Te  Te196  1  -0.00679949  0.67136078  0.49978309  1
  Te  Te197  1  -0.00013410  0.67557802  0.83417006  1
  Te  Te198  1  0.33496121  0.00050056  0.16289336  1
  Te  Te199  1  0.33414395  -0.00372976  0.50647571  1
  Te  Te200  1  0.33304278  0.00258217  0.83331032  1
  Te  Te201  1  0.33231986  0.33402831  0.16192393  1
  Te  Te202  1  0.33430307  0.33205762  0.49963535  1
  Te  Te203  1  0.33227362  0.32699497  0.83955225  1
  Te  Te204  1  0.34407815  0.66487364  0.16574090  1
  Te  Te205  1  0.33273540  0.67186719  0.49989785  1
  Te  Te206  1  0.33463703  0.67390649  0.83456101  1
  Te  Te207  1  0.66454545  -0.00473866  0.16809686  1
  Te  Te208  1  0.66599700  0.00857315  0.49956758  1
  Te  Te209  1  0.66625174  0.00187776  0.83256747  1
  Te  Te210  1  0.66653586  0.33500891  0.16992547  1
  Te  Te211  1  0.66629509  0.33295930  0.49897121  1
  Te  Te212  1  0.67045235  0.32736879  0.83145072  1
  Te  Te213  1  0.66322469  0.66822604  0.16975882  1
  Te  Te214  1  0.66745879  0.66776599  0.49818888  1
  Te  Te215  1  0.66703068  0.67371422  0.83652579  1
