# generated using pymatgen
data_AgSbTe2
_symmetry_space_group_name_H-M   'P 1'
_cell_length_a   18.34929417
_cell_length_b   18.36025548
_cell_length_c   18.35327967
_cell_angle_alpha   89.99600618
_cell_angle_beta   89.99863799
_cell_angle_gamma   89.99583205
_symmetry_Int_Tables_number   1
_chemical_formula_structural   AgSbTe2
_chemical_formula_sum   'Ag54 Sb54 Te108'
_cell_volume   6183.17820656
_cell_formula_units_Z   54
loop_
 _symmetry_equiv_pos_site_id
 _symmetry_equiv_pos_as_xyz
  1  'x, y, z'
loop_
 _atom_site_type_symbol
 _atom_site_label
 _atom_site_symmetry_multiplicity
 _atom_site_fract_x
 _atom_site_fract_y
 _atom_site_fract_z
 _atom_site_occupancy
  Ag  Ag0  1  0.17239722  0.34048907  0.16946334  1
  Ag  Ag1  1  0.17362356  0.50482945  0.33524388  1
  Ag  Ag2  1  0.65642457  0.50133132  0.50013237  1
  Ag  Ag3  1  0.66911694  0.83206146  0.82752489  1
  Ag  Ag4  1  0.00429318  0.50845622  0.50299274  1
  Ag  Ag5  1  0.83249596  0.50832576  0.66250716  1
  Ag  Ag6  1  0.32617743  0.49858700  0.16390983  1
  Ag  Ag7  1  0.49892081  0.15909762  0.65660193  1
  Ag  Ag8  1  0.33643661  0.33730552  0.32813134  1
  Ag  Ag9  1  0.17485668  0.34487287  0.49160988  1
  Ag  Ag10  1  0.65924889  -0.00201476  0.65926565  1
  Ag  Ag11  1  0.16338055  0.82424977  0.32430897  1
  Ag  Ag12  1  0.49887904  0.17969750  0.34588931  1
  Ag  Ag13  1  0.83587271  0.66986751  0.49927199  1
  Ag  Ag14  1  0.83583785  0.83026688  0.33914683  1
  Ag  Ag15  1  0.33439864  0.17309721  0.82867308  1
  Ag  Ag16  1  0.16357160  0.66222546  0.49605262  1
  Ag  Ag17  1  0.48775650  0.33811026  0.17652599  1
  Ag  Ag18  1  0.01050155  0.83282154  0.17150605  1
  Ag  Ag19  1  0.17140780  0.16033677  0.00317858  1
  Ag  Ag20  1  0.16572523  -0.01561559  0.16443309  1
  Ag  Ag21  1  0.50298478  0.83865515  0.66169402  1
  Ag  Ag22  1  0.65583142  0.15735772  0.50110941  1
  Ag  Ag23  1  0.83165524  0.34683145  0.83271272  1
  Ag  Ag24  1  0.82725885  0.16003535  0.66516463  1
  Ag  Ag25  1  0.01163266  -0.00336459  0.00518853  1
  Ag  Ag26  1  0.84072123  0.66922444  0.17213514  1
  Ag  Ag27  1  0.33347934  0.49678947  0.83510153  1
  Ag  Ag28  1  0.16454374  0.67104748  0.17405849  1
  Ag  Ag29  1  0.17114097  0.49969915  0.01113820  1
  Ag  Ag30  1  0.49369274  0.49698216  0.33850588  1
  Ag  Ag31  1  0.34417131  0.16721689  0.50500146  1
  Ag  Ag32  1  0.32364139  0.82626148  0.16621628  1
  Ag  Ag33  1  0.83595752  0.50050173  -0.00114558  1
  Ag  Ag34  1  0.50215605  0.66076113  0.50169305  1
  Ag  Ag35  1  0.33089009  0.33925332  0.00719166  1
  Ag  Ag36  1  0.33280024  0.65986279  0.66312183  1
  Ag  Ag37  1  0.17421374  0.50348121  0.65299986  1
  Ag  Ag38  1  0.33807661  -0.00142531  0.66551396  1
  Ag  Ag39  1  0.82947423  0.82884071  0.65646881  1
  Ag  Ag40  1  0.33042295  0.00461428  0.00014384  1
  Ag  Ag41  1  0.49792938  0.50136980  0.65522560  1
  Ag  Ag42  1  0.51220665  0.01468722  0.50177113  1
  Ag  Ag43  1  0.83791607  -0.00913314  0.17179833  1
  Ag  Ag44  1  0.82841273  -0.01286294  0.49955587  1
  Ag  Ag45  1  -0.00694436  0.66487301  0.66072430  1
  Ag  Ag46  1  0.49474353  0.32885865  0.49619714  1
  Ag  Ag47  1  0.16757241  0.83989607  0.01198486  1
  Ag  Ag48  1  0.48761961  0.49848596  0.00323245  1
  Ag  Ag49  1  0.83131460  0.66427365  0.81554816  1
  Ag  Ag50  1  0.66880854  0.66952535  0.33761689  1
  Ag  Ag51  1  0.66702033  -0.00540410  0.34274933  1
  Ag  Ag52  1  0.83624843  0.34377478  0.16537632  1
  Ag  Ag53  1  -0.00502099  0.82608328  0.49609330  1
  Sb  Sb54  1  0.00144023  0.66857772  -0.00131295  1
  Sb  Sb55  1  0.83188608  -0.00361481  0.83049254  1
  Sb  Sb56  1  0.16538358  0.66353425  0.83157175  1
  Sb  Sb57  1  0.33233215  0.17112094  0.16667334  1
  Sb  Sb58  1  0.49804938  0.00050531  0.82316113  1
  Sb  Sb59  1  0.49667811  0.00373653  0.17324165  1
  Sb  Sb60  1  0.00105364  0.50145295  0.82902453  1
  Sb  Sb61  1  0.00156961  0.16143051  0.16599690  1
  Sb  Sb62  1  0.50377103  0.66417639  0.82473376  1
  Sb  Sb63  1  0.66062429  0.33601540  0.33559912  1
  Sb  Sb64  1  0.66597339  0.33059803  0.66345469  1
  Sb  Sb65  1  0.83831248  0.17052781  -0.00356847  1
  Sb  Sb66  1  0.50023907  0.82989979  0.34038430  1
  Sb  Sb67  1  0.49597591  0.66085103  0.17262545  1
  Sb  Sb68  1  0.00689253  0.33627693  0.33249716  1
  Sb  Sb69  1  0.00677605  0.33337921  0.00233636  1
  Sb  Sb70  1  0.17470083  0.16843745  0.32982680  1
  Sb  Sb71  1  0.00538487  0.50690752  0.17126982  1
  Sb  Sb72  1  0.67073320  0.83418176  0.50274836  1
  Sb  Sb73  1  0.50103736  0.33582180  0.83044616  1
  Sb  Sb74  1  -0.00504679  -0.00517082  0.32980899  1
  Sb  Sb75  1  0.33500697  0.49522232  0.50029763  1
  Sb  Sb76  1  0.66247457  0.33558631  0.00150635  1
  Sb  Sb77  1  0.49152157  0.17088092  -0.00080712  1
  Sb  Sb78  1  0.66894864  0.66494810  0.00409662  1
  Sb  Sb79  1  0.16908665  -0.00040392  0.84078058  1
  Sb  Sb80  1  0.83240795  0.50522121  0.33694888  1
  Sb  Sb81  1  -0.00137115  0.16646902  0.50185251  1
  Sb  Sb82  1  0.83175865  0.33875789  0.49907633  1
  Sb  Sb83  1  0.16801305  0.33683390  0.83476677  1
  Sb  Sb84  1  0.33541171  0.83097808  0.83350198  1
  Sb  Sb85  1  0.33658218  0.00288110  0.33387537  1
  Sb  Sb86  1  0.66304491  0.16335481  0.82411492  1
  Sb  Sb87  1  -0.00012807  -0.00656975  0.66814465  1
  Sb  Sb88  1  0.33323913  0.66089856  0.33840843  1
  Sb  Sb89  1  0.66447667  -0.00060487  0.00073939  1
  Sb  Sb90  1  0.32960713  0.83481893  0.49696743  1
  Sb  Sb91  1  0.66723752  0.83252635  0.16671174  1
  Sb  Sb92  1  0.16565324  -0.00312326  0.49463879  1
  Sb  Sb93  1  0.66646781  0.16700949  0.17416455  1
  Sb  Sb94  1  0.66656236  0.50399940  0.82637264  1
  Sb  Sb95  1  0.00357971  0.16700767  0.83272120  1
  Sb  Sb96  1  -0.00297945  0.83073784  0.83296916  1
  Sb  Sb97  1  0.16766885  0.82703146  0.66418618  1
  Sb  Sb98  1  0.66651505  0.67146356  0.65766919  1
  Sb  Sb99  1  0.83833274  0.83037917  0.00280583  1
  Sb  Sb100  1  0.33061169  0.66184083  -0.00152057  1
  Sb  Sb101  1  0.49330318  0.82926050  -0.00347194  1
  Sb  Sb102  1  0.33508220  0.33538066  0.66480203  1
  Sb  Sb103  1  0.66494726  0.50056358  0.17207557  1
  Sb  Sb104  1  0.82501700  0.16237609  0.33915504  1
  Sb  Sb105  1  -0.00099740  0.34104533  0.66467628  1
  Sb  Sb106  1  0.17159949  0.17104905  0.66753513  1
  Sb  Sb107  1  -0.00068271  0.66774209  0.34090778  1
  Te  Te108  1  0.16641756  0.17966566  0.16267425  1
  Te  Te109  1  0.16740903  0.16718193  0.49949937  1
  Te  Te110  1  0.17318341  0.16883149  0.83767760  1
  Te  Te111  1  0.16554596  0.50011436  0.17008904  1
  Te  Te112  1  0.17027313  0.50158756  0.49694657  1
  Te  Te113  1  0.17070538  0.49964440  0.83828452  1
  Te  Te114  1  0.16705148  0.82860742  0.16766758  1
  Te  Te115  1  0.16071435  0.83006917  0.49650239  1
  Te  Te116  1  0.16601894  0.83131581  0.83927618  1
  Te  Te117  1  0.50107797  0.17432469  0.16834356  1
  Te  Te118  1  0.50031091  0.16960051  0.50152595  1
  Te  Te119  1  0.49451317  0.16825127  0.82754625  1
  Te  Te120  1  0.49930171  0.49668591  0.16396325  1
  Te  Te121  1  0.49765520  0.50090380  0.49869691  1
  Te  Te122  1  0.49765441  0.49918557  0.84169697  1
  Te  Te123  1  0.49491622  0.83248101  0.16644939  1
  Te  Te124  1  0.49663138  0.82293863  0.50393810  1
  Te  Te125  1  0.50426649  0.83213143  0.82612447  1
  Te  Te126  1  0.83365039  0.16201895  0.16626692  1
  Te  Te127  1  0.83076150  0.17044552  0.50597219  1
  Te  Te128  1  0.83225402  0.16551452  0.82664481  1
  Te  Te129  1  0.83542690  0.50394466  0.16986484  1
  Te  Te130  1  0.83615557  0.50206120  0.50181990  1
  Te  Te131  1  0.83328572  0.50438781  0.82900809  1
  Te  Te132  1  0.83234792  0.83184111  0.16724507  1
  Te  Te133  1  0.83498496  0.83100777  0.49895338  1
  Te  Te134  1  0.83091349  0.82848088  0.83449106  1
  Te  Te135  1  0.17093952  -0.00018010  0.00445333  1
  Te  Te136  1  0.16677360  0.00017826  0.32510519  1
  Te  Te137  1  0.16993722  0.00011528  0.66710526  1
  Te  Te138  1  0.17020229  0.33960991  0.00141736  1
  Te  Te139  1  0.17240190  0.33391776  0.33213787  1
  Te  Te140  1  0.16618404  0.34080213  0.66443267  1
  Te  Te141  1  0.16600102  0.65998890  0.00038796  1
  Te  Te142  1  0.16841336  0.66646797  0.33466732  1
  Te  Te143  1  0.17098194  0.66302570  0.66502210  1
  Te  Te144  1  0.49441790  -0.00038592  0.00208515  1
  Te  Te145  1  0.50476101  -0.00264248  0.33976084  1
  Te  Te146  1  0.49907497  -0.00018747  0.66096426  1
  Te  Te147  1  0.49546165  0.33766095  0.00154786  1
  Te  Te148  1  0.49859838  0.33708777  0.33390824  1
  Te  Te149  1  0.50081915  0.34027560  0.66313682  1
  Te  Te150  1  0.50104929  0.65972478  0.00077817  1
  Te  Te151  1  0.50329192  0.66206129  0.33836713  1
  Te  Te152  1  0.49800549  0.66206195  0.66249394  1
  Te  Te153  1  0.83154293  0.00074160  0.00402708  1
  Te  Te154  1  0.82894595  -0.00268832  0.33444266  1
  Te  Te155  1  0.83503027  -0.00344062  0.66483039  1
  Te  Te156  1  0.83399036  0.33567559  0.00143310  1
  Te  Te157  1  0.83389858  0.33235300  0.32884548  1
  Te  Te158  1  0.83301930  0.33820657  0.66771235  1
  Te  Te159  1  0.83457233  0.66272921  0.01208009  1
  Te  Te160  1  0.83143517  0.66906139  0.33468581  1
  Te  Te161  1  0.83040166  0.66833537  0.65944111  1
  Te  Te162  1  0.00775455  0.16007596  -0.00133926  1
  Te  Te163  1  -0.00051030  0.16656046  0.33444543  1
  Te  Te164  1  -0.00485784  0.16525323  0.66823991  1
  Te  Te165  1  -0.00537301  0.50075332  -0.00051881  1
  Te  Te166  1  0.00786897  0.50005664  0.34126852  1
  Te  Te167  1  -0.00138674  0.50515760  0.66274597  1
  Te  Te168  1  0.00545392  0.83558357  0.00343041  1
  Te  Te169  1  -0.00080343  0.83294822  0.33255921  1
  Te  Te170  1  -0.00246592  0.82785686  0.66369717  1
  Te  Te171  1  0.33056455  0.16593759  -0.00161537  1
  Te  Te172  1  0.33989549  0.17055290  0.33869782  1
  Te  Te173  1  0.33462162  0.16687224  0.66718336  1
  Te  Te174  1  0.33017723  0.50031929  0.00171513  1
  Te  Te175  1  0.33410677  0.49866157  0.32747678  1
  Te  Te176  1  0.33413670  0.49993006  0.66911552  1
  Te  Te177  1  0.32914745  0.83477249  0.00192799  1
  Te  Te178  1  0.32952713  0.83442181  0.32789588  1
  Te  Te179  1  0.33581229  0.83774483  0.66754441  1
  Te  Te180  1  0.66559733  0.16628342  -0.00188036  1
  Te  Te181  1  0.65929592  0.16151241  0.34039935  1
  Te  Te182  1  0.66524951  0.16233215  0.66144050  1
  Te  Te183  1  0.67811818  0.49952396  -0.00150666  1
  Te  Te184  1  0.66386195  0.50381550  0.33911439  1
  Te  Te185  1  0.66473342  0.49899750  0.66199517  1
  Te  Te186  1  0.66333647  0.83306660  -0.00691266  1
  Te  Te187  1  0.66931167  0.83319047  0.33155002  1
  Te  Te188  1  0.66683316  0.83683730  0.66840138  1
  Te  Te189  1  0.00033898  -0.00439494  0.16443875  1
  Te  Te190  1  -0.00577815  -0.00251768  0.50049442  1
  Te  Te191  1  0.00051653  -0.00092467  0.84236478  1
  Te  Te192  1  -0.00433407  0.33336918  0.16658854  1
  Te  Te193  1  0.00691545  0.33583340  0.49948025  1
  Te  Te194  1  -0.00956155  0.33274129  0.83427231  1
  Te  Te195  1  0.00239208  0.67196574  0.16550907  1
  Te  Te196  1  0.00120704  0.66653688  0.50283354  1
  Te  Te197  1  -0.00749524  0.66685660  0.82505644  1
  Te  Te198  1  0.33039630  0.00161822  0.16542962  1
  Te  Te199  1  0.33231856  0.00360824  0.50205197  1
  Te  Te200  1  0.33329889  0.00131324  0.83281841  1
  Te  Te201  1  0.33186992  0.33454200  0.16673906  1
  Te  Te202  1  0.33394513  0.32857841  0.49931969  1
  Te  Te203  1  0.33425271  0.33536425  0.83887055  1
  Te  Te204  1  0.32934027  0.66428537  0.16669738  1
  Te  Te205  1  0.32978904  0.66999535  0.50412077  1
  Te  Te206  1  0.33439643  0.66207987  0.82605091  1
  Te  Te207  1  0.66964688  -0.00002922  0.16914191  1
  Te  Te208  1  0.66856650  -0.00171429  0.50206294  1
  Te  Te209  1  0.66563595  -0.00471112  0.82896514  1
  Te  Te210  1  0.67717478  0.33283417  0.16725890  1
  Te  Te211  1  0.66280534  0.33834700  0.49879801  1
  Te  Te212  1  0.67336062  0.33154673  0.83398859  1
  Te  Te213  1  0.66989562  0.66683381  0.17421241  1
  Te  Te214  1  0.66724986  0.66345701  0.49657078  1
  Te  Te215  1  0.67260927  0.67012755  0.83641785  1
