# generated using pymatgen
data_AgSbTe2
_symmetry_space_group_name_H-M   'P 1'
_cell_length_a   18.33466415
_cell_length_b   18.32939130
_cell_length_c   18.33470381
_cell_angle_alpha   89.99691090
_cell_angle_beta   89.99855582
_cell_angle_gamma   90.00187315
_symmetry_Int_Tables_number   1
_chemical_formula_structural   AgSbTe2
_chemical_formula_sum   'Ag54 Sb54 Te108'
_cell_volume   6161.61983326
_cell_formula_units_Z   54
loop_
 _symmetry_equiv_pos_site_id
 _symmetry_equiv_pos_as_xyz
  1  'x, y, z'
loop_
 _atom_site_type_symbol
 _atom_site_label
 _atom_site_symmetry_multiplicity
 _atom_site_fract_x
 _atom_site_fract_y
 _atom_site_fract_z
 _atom_site_occupancy
  Ag  Ag0  1  0.66954809  0.16797939  0.50694802  1
  Ag  Ag1  1  0.49421202  0.82430538  0.66796205  1
  Ag  Ag2  1  0.00639167  0.34336632  0.67529838  1
  Ag  Ag3  1  0.67092320  0.66545337  0.66745065  1
  Ag  Ag4  1  0.16461013  0.49183535  -0.00938874  1
  Ag  Ag5  1  0.00566882  0.33055690  0.33402380  1
  Ag  Ag6  1  0.00413774  0.82670276  0.50358499  1
  Ag  Ag7  1  0.50293122  0.66254209  0.82905298  1
  Ag  Ag8  1  0.66625985  0.50581081  0.16642160  1
  Ag  Ag9  1  0.16285802  -0.00510653  0.16457281  1
  Ag  Ag10  1  0.00790816  0.33508836  -0.00832579  1
  Ag  Ag11  1  0.32626292  0.32501714  -0.01117016  1
  Ag  Ag12  1  0.00204345  0.82349898  0.83181676  1
  Ag  Ag13  1  0.83483384  0.16675155  0.66882174  1
  Ag  Ag14  1  0.48589508  0.16927269  -0.00524836  1
  Ag  Ag15  1  0.32344437  0.16542728  0.15149782  1
  Ag  Ag16  1  0.84338610  0.83120444  0.00824515  1
  Ag  Ag17  1  0.33003827  0.50151600  0.50957207  1
  Ag  Ag18  1  0.84042563  0.67620827  0.16001681  1
  Ag  Ag19  1  0.66418848  0.50340529  0.50290982  1
  Ag  Ag20  1  -0.00039577  0.66216490  0.67489679  1
  Ag  Ag21  1  0.84306347  0.66920796  0.83526065  1
  Ag  Ag22  1  0.32972944  0.01175884  0.00191326  1
  Ag  Ag23  1  0.67519492  0.82865228  0.16937367  1
  Ag  Ag24  1  0.32761336  0.33806035  0.67800623  1
  Ag  Ag25  1  0.17008564  0.33648138  0.83662855  1
  Ag  Ag26  1  0.32467880  0.49202566  0.82660756  1
  Ag  Ag27  1  0.49716053  0.49847822  0.34429327  1
  Ag  Ag28  1  0.48969886  0.50408290  0.66799637  1
  Ag  Ag29  1  0.66445112  0.16950288  0.83256916  1
  Ag  Ag30  1  0.15985861  0.67256777  0.16454674  1
  Ag  Ag31  1  0.49635204  0.00953674  0.83345596  1
  Ag  Ag32  1  0.84313223  0.83522709  0.32871985  1
  Ag  Ag33  1  0.16527518  0.82605195  0.66303079  1
  Ag  Ag34  1  0.00623634  0.49724732  0.82700453  1
  Ag  Ag35  1  0.16319013  0.66803086  0.50391685  1
  Ag  Ag36  1  0.00231749  0.17358269  0.83801375  1
  Ag  Ag37  1  0.00834304  0.50619126  0.50896515  1
  Ag  Ag38  1  0.33504149  0.17962537  0.84044804  1
  Ag  Ag39  1  0.00548898  0.16560139  0.15774318  1
  Ag  Ag40  1  0.32684072  0.00268302  0.32865850  1
  Ag  Ag41  1  0.16234204  0.83279379  0.00042591  1
  Ag  Ag42  1  0.17237629  0.17150171  -0.00063349  1
  Ag  Ag43  1  0.66414980  0.33290447  -0.00350829  1
  Ag  Ag44  1  0.16742755  0.50349211  0.67178980  1
  Ag  Ag45  1  0.16145341  0.83426093  0.33278891  1
  Ag  Ag46  1  0.00335587  -0.00298120  0.33089916  1
  Ag  Ag47  1  0.67160826  0.83036410  0.50065040  1
  Ag  Ag48  1  0.32642201  0.33171311  0.33326828  1
  Ag  Ag49  1  0.32010975  0.82893664  0.50196847  1
  Ag  Ag50  1  0.48513214  0.33306786  0.83427582  1
  Ag  Ag51  1  0.00140870  0.66709269  -0.00688230  1
  Ag  Ag52  1  0.83445740  -0.00454776  0.49418006  1
  Ag  Ag53  1  0.84134546  -0.00599674  0.17035777  1
  Sb  Sb54  1  0.16324131  0.17031422  0.67462424  1
  Sb  Sb55  1  -0.00245470  0.16641738  0.50240772  1
  Sb  Sb56  1  0.00082973  0.66958081  0.33271113  1
  Sb  Sb57  1  0.16331370  0.66143621  0.83286453  1
  Sb  Sb58  1  0.83293580  0.50576490  0.33325145  1
  Sb  Sb59  1  0.83983836  0.50417883  -0.00070593  1
  Sb  Sb60  1  0.83570923  0.33242905  0.16519156  1
  Sb  Sb61  1  0.49687672  -0.00064334  0.16276134  1
  Sb  Sb62  1  0.00116996  -0.00225109  0.66358104  1
  Sb  Sb63  1  0.49443416  0.49495115  -0.00713049  1
  Sb  Sb64  1  0.49701760  0.82964658  0.33903112  1
  Sb  Sb65  1  0.50209137  0.16941609  0.67503265  1
  Sb  Sb66  1  0.66665295  0.49742435  0.83231734  1
  Sb  Sb67  1  0.83786842  0.49864193  0.66670390  1
  Sb  Sb68  1  0.83601908  0.16033092  0.33588634  1
  Sb  Sb69  1  0.49801850  0.33381753  0.15988617  1
  Sb  Sb70  1  0.50135998  0.66601302  0.16026459  1
  Sb  Sb71  1  0.16662237  0.16254283  0.32695950  1
  Sb  Sb72  1  0.66673229  0.33590321  0.33091014  1
  Sb  Sb73  1  0.67259822  0.66336800  -0.00390746  1
  Sb  Sb74  1  0.33128753  0.66633804  0.33501524  1
  Sb  Sb75  1  0.83792111  0.67154519  0.50198494  1
  Sb  Sb76  1  0.49840148  0.33635358  0.50621597  1
  Sb  Sb77  1  -0.00257903  0.83684593  0.16638472  1
  Sb  Sb78  1  0.49709926  0.83670729  -0.00687710  1
  Sb  Sb79  1  0.66765686  -0.00165381  0.33363876  1
  Sb  Sb80  1  0.16640438  0.33942509  0.50578356  1
  Sb  Sb81  1  0.33468779  0.49460390  0.16531693  1
  Sb  Sb82  1  0.66565793  0.33660540  0.67079387  1
  Sb  Sb83  1  0.83925601  0.33596113  0.83350740  1
  Sb  Sb84  1  -0.00097561  0.49787020  0.16534080  1
  Sb  Sb85  1  0.83701742  0.83466877  0.66553153  1
  Sb  Sb86  1  0.32786223  0.66013613  0.66785179  1
  Sb  Sb87  1  0.16703395  0.33262607  0.16024040  1
  Sb  Sb88  1  0.50244005  -0.00229704  0.50426352  1
  Sb  Sb89  1  0.66776261  0.66693267  0.33815919  1
  Sb  Sb90  1  0.33666815  0.16865964  0.50402333  1
  Sb  Sb91  1  0.49731831  0.17101230  0.32909816  1
  Sb  Sb92  1  0.83856099  0.16254951  -0.00386130  1
  Sb  Sb93  1  0.66406144  0.00251470  -0.00067323  1
  Sb  Sb94  1  0.83371004  -0.00274103  0.83514820  1
  Sb  Sb95  1  0.49711058  0.66524985  0.50768304  1
  Sb  Sb96  1  0.66913922  0.83436175  0.83202488  1
  Sb  Sb97  1  0.16219058  -0.00874426  0.49289870  1
  Sb  Sb98  1  0.00534855  -0.00038365  0.00443631  1
  Sb  Sb99  1  0.83497393  0.33146945  0.50074951  1
  Sb  Sb100  1  0.33221643  0.00244648  0.66826168  1
  Sb  Sb101  1  0.32405081  0.66303434  -0.00277749  1
  Sb  Sb102  1  0.66942417  0.16573437  0.16268505  1
  Sb  Sb103  1  0.16910954  0.50208020  0.33435269  1
  Sb  Sb104  1  0.32754479  0.83114494  0.82940265  1
  Sb  Sb105  1  0.16881689  0.00289123  0.83949579  1
  Sb  Sb106  1  0.66687322  -0.00368170  0.66647320  1
  Sb  Sb107  1  0.33051811  0.83885701  0.16953636  1
  Te  Te108  1  0.16569148  0.16578938  0.16188852  1
  Te  Te109  1  0.16823764  0.16525142  0.50226941  1
  Te  Te110  1  0.16519019  0.16970639  0.83783864  1
  Te  Te111  1  0.16729415  0.50696077  0.16486090  1
  Te  Te112  1  0.16752115  0.50514008  0.50091815  1
  Te  Te113  1  0.16541001  0.49891803  0.83226689  1
  Te  Te114  1  0.16752524  0.83395433  0.16697918  1
  Te  Te115  1  0.16409836  0.83015339  0.50001120  1
  Te  Te116  1  0.16186329  0.83486408  0.83442527  1
  Te  Te117  1  0.49930196  0.16593290  0.15909968  1
  Te  Te118  1  0.50783902  0.16608076  0.50077118  1
  Te  Te119  1  0.49956926  0.16899318  0.83494231  1
  Te  Te120  1  0.50504747  0.50148745  0.16706045  1
  Te  Te121  1  0.49802414  0.50077538  0.50427984  1
  Te  Te122  1  0.50087300  0.49721469  0.82882720  1
  Te  Te123  1  0.50808101  0.83198338  0.16700347  1
  Te  Te124  1  0.50728366  0.83202377  0.50595616  1
  Te  Te125  1  0.50054664  0.83094889  0.82796800  1
  Te  Te126  1  0.83700536  0.16016418  0.16711578  1
  Te  Te127  1  0.82933039  0.16134402  0.50339408  1
  Te  Te128  1  0.83419139  0.16473778  0.83046792  1
  Te  Te129  1  0.82735086  0.50404288  0.16761831  1
  Te  Te130  1  0.82959673  0.50190923  0.49846929  1
  Te  Te131  1  0.83906547  0.50839786  0.83370864  1
  Te  Te132  1  0.83381427  0.83363806  0.16755666  1
  Te  Te133  1  0.83317853  0.83482532  0.49857693  1
  Te  Te134  1  0.83784504  0.83060340  0.83505228  1
  Te  Te135  1  0.17040740  -0.00261964  0.00459912  1
  Te  Te136  1  0.16576432  -0.00333779  0.32755008  1
  Te  Te137  1  0.16716657  -0.00846657  0.66585017  1
  Te  Te138  1  0.16615495  0.33273310  -0.00100698  1
  Te  Te139  1  0.16539744  0.33326357  0.33392744  1
  Te  Te140  1  0.16605162  0.33689685  0.67114120  1
  Te  Te141  1  0.16146673  0.67191445  0.00135804  1
  Te  Te142  1  0.16620594  0.67215247  0.32957880  1
  Te  Te143  1  0.16196311  0.66553340  0.66564652  1
  Te  Te144  1  0.49415999  0.00448904  -0.00482212  1
  Te  Te145  1  0.49176968  0.00038908  0.33337532  1
  Te  Te146  1  0.49905319  -0.00514148  0.67261286  1
  Te  Te147  1  0.49815962  0.33052124  -0.00571456  1
  Te  Te148  1  0.49817113  0.33846359  0.33296263  1
  Te  Te149  1  0.49805355  0.33817389  0.67309169  1
  Te  Te150  1  0.49977441  0.66639015  -0.00782592  1
  Te  Te151  1  0.49981677  0.65926389  0.33115384  1
  Te  Te152  1  0.50083023  0.66464835  0.66914605  1
  Te  Te153  1  0.83252889  -0.00756730  0.00392168  1
  Te  Te154  1  0.83414656  -0.00515038  0.33247248  1
  Te  Te155  1  0.83347985  0.00488208  0.66373616  1
  Te  Te156  1  0.83549995  0.33302883  0.00111511  1
  Te  Te157  1  0.84035538  0.33385201  0.33245062  1
  Te  Te158  1  0.83921971  0.32752761  0.66614498  1
  Te  Te159  1  0.83832452  0.67075266  -0.00075186  1
  Te  Te160  1  0.83340111  0.67398325  0.32483894  1
  Te  Te161  1  0.83583398  0.66698640  0.67020036  1
  Te  Te162  1  0.00249804  0.16771898  -0.00099986  1
  Te  Te163  1  0.00055630  0.16686486  0.33333335  1
  Te  Te164  1  -0.00250161  0.16862533  0.67058556  1
  Te  Te165  1  0.00501899  0.49795599  0.00012384  1
  Te  Te166  1  0.00016846  0.49590830  0.33741665  1
  Te  Te167  1  0.00060876  0.50098083  0.66597427  1
  Te  Te168  1  0.00123312  0.83409079  -0.00195384  1
  Te  Te169  1  0.00150198  0.83512367  0.33711783  1
  Te  Te170  1  0.00226280  0.83091668  0.66592535  1
  Te  Te171  1  0.33017811  0.16791980  -0.00384420  1
  Te  Te172  1  0.33394335  0.16685055  0.33551030  1
  Te  Te173  1  0.33278510  0.17394431  0.67226698  1
  Te  Te174  1  0.32665580  0.49499612  -0.00201744  1
  Te  Te175  1  0.33643773  0.49686727  0.33335063  1
  Te  Te176  1  0.33054190  0.49749244  0.66637901  1
  Te  Te177  1  0.32792085  0.83337658  0.00029053  1
  Te  Te178  1  0.33084934  0.83680911  0.33844976  1
  Te  Te179  1  0.33181711  0.83437535  0.66204869  1
  Te  Te180  1  0.66956633  0.17102774  -0.00283414  1
  Te  Te181  1  0.66621399  0.16798960  0.33829451  1
  Te  Te182  1  0.66892387  0.16827957  0.66764317  1
  Te  Te183  1  0.66626812  0.49492976  0.00210264  1
  Te  Te184  1  0.66228461  0.49966480  0.33663910  1
  Te  Te185  1  0.66794500  0.50303646  0.66420240  1
  Te  Te186  1  0.66616888  0.83287392  0.00270342  1
  Te  Te187  1  0.66552688  0.83293337  0.33615478  1
  Te  Te188  1  0.66683351  0.82869246  0.66423491  1
  Te  Te189  1  0.00146753  0.00361614  0.17034368  1
  Te  Te190  1  -0.00446874  -0.00199775  0.49425184  1
  Te  Te191  1  -0.00028858  0.00521350  0.83292236  1
  Te  Te192  1  0.00042459  0.32886118  0.16931030  1
  Te  Te193  1  0.00042069  0.33584247  0.49808869  1
  Te  Te194  1  0.00036697  0.33490010  0.83435809  1
  Te  Te195  1  -0.00016281  0.66410082  0.16317413  1
  Te  Te196  1  0.00223723  0.66614075  0.49900739  1
  Te  Te197  1  0.00182022  0.66612609  0.83378203  1
  Te  Te198  1  0.33119064  0.00433963  0.16702088  1
  Te  Te199  1  0.33387059  -0.00204340  0.49691525  1
  Te  Te200  1  0.33665787  -0.00086516  0.83611331  1
  Te  Te201  1  0.33303968  0.32661360  0.17385970  1
  Te  Te202  1  0.33291577  0.33756673  0.49314437  1
  Te  Te203  1  0.33016958  0.33600038  0.83375913  1
  Te  Te204  1  0.32884660  0.66717130  0.16599337  1
  Te  Te205  1  0.32721075  0.66707442  0.50032140  1
  Te  Te206  1  0.34167048  0.66329956  0.83377824  1
  Te  Te207  1  0.66934867  -0.00393636  0.16711535  1
  Te  Te208  1  0.67060312  -0.00297061  0.49989162  1
  Te  Te209  1  0.66178074  0.00616967  0.83355666  1
  Te  Te210  1  0.66717749  0.33635721  0.16158008  1
  Te  Te211  1  0.66683487  0.33604797  0.50044773  1
  Te  Te212  1  0.67209916  0.32965753  0.83714851  1
  Te  Te213  1  0.66859610  0.66671019  0.16482671  1
  Te  Te214  1  0.66777014  0.66591170  0.50498824  1
  Te  Te215  1  0.66590393  0.66583936  0.82868208  1
