# generated using pymatgen
data_AgSbTe2
_symmetry_space_group_name_H-M   'P 1'
_cell_length_a   18.34488730
_cell_length_b   18.33822389
_cell_length_c   18.33910623
_cell_angle_alpha   90.00346690
_cell_angle_beta   89.99906168
_cell_angle_gamma   90.00087697
_symmetry_Int_Tables_number   1
_chemical_formula_structural   AgSbTe2
_chemical_formula_sum   'Ag54 Sb54 Te108'
_cell_volume   6169.50732407
_cell_formula_units_Z   54
loop_
 _symmetry_equiv_pos_site_id
 _symmetry_equiv_pos_as_xyz
  1  'x, y, z'
loop_
 _atom_site_type_symbol
 _atom_site_label
 _atom_site_symmetry_multiplicity
 _atom_site_fract_x
 _atom_site_fract_y
 _atom_site_fract_z
 _atom_site_occupancy
  Ag  Ag0  1  0.00130214  0.83059629  0.15733494  1
  Ag  Ag1  1  -0.00400886  0.82270287  0.83974545  1
  Ag  Ag2  1  0.34467468  0.50442829  0.83028645  1
  Ag  Ag3  1  -0.01211226  0.33849525  0.33180750  1
  Ag  Ag4  1  0.83444700  0.33227343  0.17742405  1
  Ag  Ag5  1  0.83277394  0.50412496  0.66904992  1
  Ag  Ag6  1  0.51032482  0.16669370  -0.00850918  1
  Ag  Ag7  1  -0.00689474  0.50196020  0.50966802  1
  Ag  Ag8  1  0.16527599  -0.00332686  0.16537268  1
  Ag  Ag9  1  0.83097648  0.66196028  0.82705440  1
  Ag  Ag10  1  0.16031490  0.50175636  0.66917702  1
  Ag  Ag11  1  -0.00342507  -0.00566789  0.66824684  1
  Ag  Ag12  1  0.83055839  0.33192034  0.49845998  1
  Ag  Ag13  1  0.15882792  0.83291231  0.00115741  1
  Ag  Ag14  1  -0.01060919  0.66945000  -0.01233557  1
  Ag  Ag15  1  0.66946261  0.66688764  0.33581200  1
  Ag  Ag16  1  0.83195285  0.33607849  0.83087194  1
  Ag  Ag17  1  0.67247359  0.66243301  0.67439199  1
  Ag  Ag18  1  -0.01619605  0.16985275  0.83228172  1
  Ag  Ag19  1  0.66938850  0.32496815  0.33294373  1
  Ag  Ag20  1  0.83241292  0.66340046  0.50786814  1
  Ag  Ag21  1  0.51266950  0.33133870  0.49917059  1
  Ag  Ag22  1  0.34830983  0.17357606  0.83244225  1
  Ag  Ag23  1  0.66858562  0.16925562  0.49780786  1
  Ag  Ag24  1  0.33747413  0.66293701  0.66865709  1
  Ag  Ag25  1  0.66952083  0.66690736  -0.00835261  1
  Ag  Ag26  1  0.50813078  0.65947375  0.83197508  1
  Ag  Ag27  1  0.33409062  0.82387328  0.83952233  1
  Ag  Ag28  1  0.50179265  0.50633511  -0.01057184  1
  Ag  Ag29  1  0.82806089  0.16535434  -0.01211625  1
  Ag  Ag30  1  0.34297662  0.66603429  0.33788170  1
  Ag  Ag31  1  0.51168014  0.17138558  0.67081933  1
  Ag  Ag32  1  0.82960824  0.00771410  0.49775053  1
  Ag  Ag33  1  0.15968784  0.33264265  0.16583390  1
  Ag  Ag34  1  0.66730593  0.50232968  0.83274580  1
  Ag  Ag35  1  0.50523389  0.83087286  0.00084390  1
  Ag  Ag36  1  0.66689043  0.17197737  0.83613474  1
  Ag  Ag37  1  -0.01373065  0.50585037  0.82892592  1
  Ag  Ag38  1  0.51020154  0.00819600  0.49871944  1
  Ag  Ag39  1  0.82866486  0.82872764  0.32849261  1
  Ag  Ag40  1  0.50957828  0.83069254  0.32800623  1
  Ag  Ag41  1  0.50949815  0.16351212  0.34295427  1
  Ag  Ag42  1  0.66884261  0.32528295  -0.00085339  1
  Ag  Ag43  1  -0.01031230  0.66589391  0.33572595  1
  Ag  Ag44  1  0.50172683  0.50243247  0.66970690  1
  Ag  Ag45  1  0.33426161  0.50606370  0.16686252  1
  Ag  Ag46  1  0.82875640  0.17544504  0.34022448  1
  Ag  Ag47  1  0.32967399  0.82734122  0.15912861  1
  Ag  Ag48  1  0.82864019  0.17278578  0.67082429  1
  Ag  Ag49  1  0.33455947  0.50180382  0.51255027  1
  Ag  Ag50  1  -0.00892511  0.66419074  0.67184873  1
  Ag  Ag51  1  0.83166100  0.83218628  0.00240643  1
  Ag  Ag52  1  0.66773878  0.00864213  0.00185139  1
  Ag  Ag53  1  0.66789349  0.00820339  0.33292773  1
  Sb  Sb54  1  0.33838184  -0.00257862  -0.00062855  1
  Sb  Sb55  1  0.50362440  0.33359836  0.16846583  1
  Sb  Sb56  1  0.50160352  0.50171418  0.33582019  1
  Sb  Sb57  1  0.33438240  0.16654181  0.16494276  1
  Sb  Sb58  1  -0.00643356  -0.00582998  -0.00405342  1
  Sb  Sb59  1  0.34686979  0.17362313  0.50487231  1
  Sb  Sb60  1  -0.00525979  0.34016948  0.66569148  1
  Sb  Sb61  1  0.16009268  0.33553168  0.83669965  1
  Sb  Sb62  1  0.33765785  0.66822387  -0.00437182  1
  Sb  Sb63  1  0.16448505  0.16330593  -0.00217501  1
  Sb  Sb64  1  0.16731774  0.50128412  0.33524215  1
  Sb  Sb65  1  0.49945991  -0.00199731  0.16829392  1
  Sb  Sb66  1  0.83408465  0.83130194  0.66823054  1
  Sb  Sb67  1  0.83478020  0.66278002  0.16532732  1
  Sb  Sb68  1  0.00178982  0.50344693  0.16474114  1
  Sb  Sb69  1  0.16314900  0.66491107  0.83330798  1
  Sb  Sb70  1  0.66448667  0.49899260  0.15972829  1
  Sb  Sb71  1  -0.00342947  0.16460970  0.16351013  1
  Sb  Sb72  1  0.66898981  0.83585845  0.49690637  1
  Sb  Sb73  1  0.16234796  0.16886874  0.33248673  1
  Sb  Sb74  1  -0.00509282  0.82833892  0.50191787  1
  Sb  Sb75  1  -0.01099941  0.17191342  0.50404978  1
  Sb  Sb76  1  0.82708667  0.49975690  -0.00866333  1
  Sb  Sb77  1  0.66771404  0.82952732  0.83715122  1
  Sb  Sb78  1  -0.00901040  0.33724625  0.00224930  1
  Sb  Sb79  1  0.66911895  0.83160613  0.16629201  1
  Sb  Sb80  1  0.83303404  0.49978530  0.34020622  1
  Sb  Sb81  1  0.16074169  0.66503411  0.50193786  1
  Sb  Sb82  1  0.34291306  -0.00486586  0.33365897  1
  Sb  Sb83  1  0.33690718  0.34130433  0.66900903  1
  Sb  Sb84  1  0.50182649  0.00073905  0.83231345  1
  Sb  Sb85  1  0.16419715  0.82752065  0.67344107  1
  Sb  Sb86  1  0.16459228  0.83288198  0.32633456  1
  Sb  Sb87  1  0.33736198  0.82561356  0.49988439  1
  Sb  Sb88  1  0.66871331  0.16853636  0.16663581  1
  Sb  Sb89  1  0.33787602  0.33629964  0.33335005  1
  Sb  Sb90  1  0.16510097  -0.00199976  0.83679129  1
  Sb  Sb91  1  -0.00925395  -0.00195376  0.33587299  1
  Sb  Sb92  1  0.66797503  0.49695229  0.50583612  1
  Sb  Sb93  1  0.83359404  -0.00030139  0.83007455  1
  Sb  Sb94  1  0.66925440  0.33554532  0.66821116  1
  Sb  Sb95  1  0.50668962  0.66540394  0.50415477  1
  Sb  Sb96  1  0.66906247  0.00189982  0.66611751  1
  Sb  Sb97  1  0.33255323  -0.00303603  0.66699714  1
  Sb  Sb98  1  0.16125749  0.33647533  0.49698637  1
  Sb  Sb99  1  0.16996350  0.50311283  -0.00343596  1
  Sb  Sb100  1  0.50014572  0.83163205  0.66770575  1
  Sb  Sb101  1  0.16151352  -0.00005199  0.49675046  1
  Sb  Sb102  1  0.16346315  0.17120118  0.66809627  1
  Sb  Sb103  1  0.83452912  0.00105821  0.16887248  1
  Sb  Sb104  1  0.16738965  0.66685961  0.16548106  1
  Sb  Sb105  1  0.49980980  0.66710581  0.16210190  1
  Sb  Sb106  1  0.50708215  0.33638395  0.83014404  1
  Sb  Sb107  1  0.34047894  0.33400609  -0.00116537  1
  Te  Te108  1  0.16635294  0.16860666  0.16584840  1
  Te  Te109  1  0.17022825  0.16694325  0.50018181  1
  Te  Te110  1  0.17068636  0.16722503  0.83281667  1
  Te  Te111  1  0.17204196  0.49436068  0.16478252  1
  Te  Te112  1  0.16974980  0.50013758  0.50565400  1
  Te  Te113  1  0.17088226  0.49799609  0.82852571  1
  Te  Te114  1  0.16692619  0.83379948  0.16156000  1
  Te  Te115  1  0.16853731  0.83454236  0.50118707  1
  Te  Te116  1  0.16958670  0.83336901  0.84077908  1
  Te  Te117  1  0.49730419  0.16594990  0.16168472  1
  Te  Te118  1  0.50601568  0.16846497  0.50136929  1
  Te  Te119  1  0.50485340  0.16725607  0.83120862  1
  Te  Te120  1  0.49422801  0.49943051  0.16221206  1
  Te  Te121  1  0.49892064  0.49667135  0.50434872  1
  Te  Te122  1  0.50385177  0.49792721  0.83204828  1
  Te  Te123  1  0.49524834  0.83341980  0.16722994  1
  Te  Te124  1  0.49998118  0.83733116  0.49558244  1
  Te  Te125  1  0.49912186  0.83292434  0.83640557  1
  Te  Te126  1  0.83531405  0.17111845  0.16916031  1
  Te  Te127  1  0.82962724  0.16857161  0.49991926  1
  Te  Te128  1  0.82817831  0.16342564  0.83152241  1
  Te  Te129  1  0.83475851  0.49037471  0.16256856  1
  Te  Te130  1  0.83430396  0.50124506  0.50596574  1
  Te  Te131  1  0.82962765  0.50133360  0.83084090  1
  Te  Te132  1  0.83763847  0.83287902  0.16669884  1
  Te  Te133  1  0.83407268  0.82863400  0.49486189  1
  Te  Te134  1  0.83627923  0.83061317  0.83797172  1
  Te  Te135  1  0.16665596  -0.00512374  0.00500345  1
  Te  Te136  1  0.16660509  0.00148320  0.32826021  1
  Te  Te137  1  0.15918707  -0.00076654  0.66547830  1
  Te  Te138  1  0.16427643  0.33235761  0.00690036  1
  Te  Te139  1  0.16402150  0.33316017  0.32746265  1
  Te  Te140  1  0.16663502  0.34168727  0.66666007  1
  Te  Te141  1  0.15805904  0.67233499  0.00038664  1
  Te  Te142  1  0.16664722  0.66755723  0.33418301  1
  Te  Te143  1  0.16983206  0.66028381  0.66607210  1
  Te  Te144  1  0.50730608  0.00022887  -0.00067474  1
  Te  Te145  1  0.50633385  0.00004933  0.33607687  1
  Te  Te146  1  0.49850169  0.00153334  0.65877454  1
  Te  Te147  1  0.50851983  0.32889928  0.00058513  1
  Te  Te148  1  0.50554772  0.33177662  0.33694834  1
  Te  Te149  1  0.49989097  0.32930906  0.66181156  1
  Te  Te150  1  0.50293360  0.66715358  -0.00472241  1
  Te  Te151  1  0.50072625  0.67031760  0.33582568  1
  Te  Te152  1  0.49995941  0.66623395  0.67015631  1
  Te  Te153  1  0.82679371  -0.00011429  0.00116240  1
  Te  Te154  1  0.82791659  -0.00241458  0.33615085  1
  Te  Te155  1  0.83651993  -0.00241942  0.66074736  1
  Te  Te156  1  0.82830485  0.33214734  -0.00753094  1
  Te  Te157  1  0.83120351  0.33539081  0.33547608  1
  Te  Te158  1  0.83455266  0.33140746  0.66700097  1
  Te  Te159  1  0.83106932  0.66922691  0.00038929  1
  Te  Te160  1  0.83199559  0.66721482  0.33175339  1
  Te  Te161  1  0.83184588  0.66823852  0.66724268  1
  Te  Te162  1  -0.00468408  0.16635090  -0.00617911  1
  Te  Te163  1  -0.00649885  0.16836705  0.33543167  1
  Te  Te164  1  -0.00311469  0.16759719  0.67153263  1
  Te  Te165  1  0.00230050  0.50732338  -0.00460526  1
  Te  Te166  1  0.00102212  0.50099275  0.33178016  1
  Te  Te167  1  -0.00310276  0.50259474  0.66822053  1
  Te  Te168  1  -0.00561628  0.83333220  -0.00138909  1
  Te  Te169  1  -0.00445494  0.83117557  0.33429496  1
  Te  Te170  1  0.00098342  0.82848414  0.67172081  1
  Te  Te171  1  0.33463006  0.16620204  -0.00486004  1
  Te  Te172  1  0.33691624  0.16599190  0.33572877  1
  Te  Te173  1  0.33221697  0.16425632  0.67250650  1
  Te  Te174  1  0.33790240  0.50090744  -0.00435460  1
  Te  Te175  1  0.33451657  0.50361643  0.32808560  1
  Te  Te176  1  0.34106832  0.50224799  0.66894960  1
  Te  Te177  1  0.34111658  0.83381117  -0.00051947  1
  Te  Te178  1  0.33261842  0.82732602  0.33105356  1
  Te  Te179  1  0.33123103  0.82773811  0.67219433  1
  Te  Te180  1  0.66916003  0.16776481  0.00178457  1
  Te  Te181  1  0.66667652  0.16735992  0.33192745  1
  Te  Te182  1  0.66823917  0.16519138  0.66669076  1
  Te  Te183  1  0.66048694  0.50625007  -0.00415854  1
  Te  Te184  1  0.66540609  0.50613832  0.33052191  1
  Te  Te185  1  0.66598378  0.50128142  0.67088533  1
  Te  Te186  1  0.66621019  0.82742524  0.00078153  1
  Te  Te187  1  0.66792346  0.82861748  0.33175875  1
  Te  Te188  1  0.66615652  0.82543657  0.66708030  1
  Te  Te189  1  0.00409298  -0.00643490  0.16758819  1
  Te  Te190  1  -0.00549879  0.00087013  0.50689006  1
  Te  Te191  1  -0.00018122  0.00272022  0.82756149  1
  Te  Te192  1  -0.00249120  0.33295181  0.17008409  1
  Te  Te193  1  -0.00432213  0.33963113  0.49328987  1
  Te  Te194  1  -0.00612800  0.33221666  0.83498640  1
  Te  Te195  1  0.00092306  0.67127563  0.17535684  1
  Te  Te196  1  -0.00466247  0.66239146  0.49786122  1
  Te  Te197  1  -0.00136343  0.66536811  0.83184895  1
  Te  Te198  1  0.32803443  -0.00371285  0.16700380  1
  Te  Te199  1  0.33240101  0.00145502  0.50031043  1
  Te  Te200  1  0.33323694  -0.00058541  0.83167448  1
  Te  Te201  1  0.33213955  0.33560672  0.16630899  1
  Te  Te202  1  0.33024103  0.34144470  0.49862085  1
  Te  Te203  1  0.32963910  0.33200101  0.83492178  1
  Te  Te204  1  0.33348631  0.66660832  0.16807365  1
  Te  Te205  1  0.33502618  0.66093452  0.50015840  1
  Te  Te206  1  0.33446978  0.66567440  0.83199788  1
  Te  Te207  1  0.66605081  -0.00196929  0.16683193  1
  Te  Te208  1  0.66883167  0.00307260  0.49998674  1
  Te  Te209  1  0.66621767  0.00634122  0.83625515  1
  Te  Te210  1  0.67240228  0.33510875  0.16941029  1
  Te  Te211  1  0.66899534  0.33137334  0.49831506  1
  Te  Te212  1  0.67126393  0.33308680  0.83575680  1
  Te  Te213  1  0.66668971  0.66527243  0.17332953  1
  Te  Te214  1  0.67285670  0.66614122  0.49818892  1
  Te  Te215  1  0.66756008  0.66662631  0.83265492  1
