# generated using pymatgen
data_AgSbTe2
_symmetry_space_group_name_H-M   'P 1'
_cell_length_a   18.32011222
_cell_length_b   18.32605032
_cell_length_c   18.32566742
_cell_angle_alpha   90.00114117
_cell_angle_beta   89.99662457
_cell_angle_gamma   89.99977149
_symmetry_Int_Tables_number   1
_chemical_formula_structural   AgSbTe2
_chemical_formula_sum   'Ag54 Sb54 Te108'
_cell_volume   6152.57340709
_cell_formula_units_Z   54
loop_
 _symmetry_equiv_pos_site_id
 _symmetry_equiv_pos_as_xyz
  1  'x, y, z'
loop_
 _atom_site_type_symbol
 _atom_site_label
 _atom_site_symmetry_multiplicity
 _atom_site_fract_x
 _atom_site_fract_y
 _atom_site_fract_z
 _atom_site_occupancy
  Ag  Ag0  1  0.66499383  0.33279166  -0.00320870  1
  Ag  Ag1  1  -0.00027003  0.67292481  0.32903403  1
  Ag  Ag2  1  0.31821614  0.66418860  0.32470703  1
  Ag  Ag3  1  -0.00278336  -0.00321513  0.33141746  1
  Ag  Ag4  1  -0.00343948  0.16221362  0.49104496  1
  Ag  Ag5  1  0.16545854  0.17115170  0.00349823  1
  Ag  Ag6  1  0.51023198  0.00011054  0.49769672  1
  Ag  Ag7  1  0.15897758  0.00025186  0.83992973  1
  Ag  Ag8  1  0.16261018  0.66240501  0.48900481  1
  Ag  Ag9  1  0.32399935  0.50022358  0.16339565  1
  Ag  Ag10  1  0.15585345  0.82712294  0.33284138  1
  Ag  Ag11  1  0.83633155  0.50458480  0.00576812  1
  Ag  Ag12  1  0.50589243  0.83292520  -0.00241466  1
  Ag  Ag13  1  0.49592604  0.49586559  0.00331520  1
  Ag  Ag14  1  0.84132035  0.15318035  0.33795118  1
  Ag  Ag15  1  0.00404365  0.66483997  0.01102602  1
  Ag  Ag16  1  0.83426245  0.50518858  0.32862627  1
  Ag  Ag17  1  0.00198847  0.50611909  0.16548445  1
  Ag  Ag18  1  0.32262362  0.66111598  0.00577861  1
  Ag  Ag19  1  0.83432476  0.00383341  0.48875109  1
  Ag  Ag20  1  0.67164442  0.50083975  0.49976639  1
  Ag  Ag21  1  0.33398827  0.34139312  0.00347205  1
  Ag  Ag22  1  0.15869211  0.66667544  0.16737745  1
  Ag  Ag23  1  0.67268623  0.33858926  0.67055302  1
  Ag  Ag24  1  0.00155768  0.16661861  0.17176433  1
  Ag  Ag25  1  0.83777779  0.32762249  0.50135278  1
  Ag  Ag26  1  0.67210546  -0.00000648  0.00206275  1
  Ag  Ag27  1  0.83110157  0.83440484  0.00083444  1
  Ag  Ag28  1  0.84150487  -0.00432992  0.17699582  1
  Ag  Ag29  1  0.32908833  -0.00135728  0.66845226  1
  Ag  Ag30  1  0.15717385  0.16185307  0.32615331  1
  Ag  Ag31  1  0.32880386  0.33899954  0.32365525  1
  Ag  Ag32  1  -0.00158059  0.66731339  0.66435077  1
  Ag  Ag33  1  0.49667725  0.17388766  0.00108136  1
  Ag  Ag34  1  0.16428254  0.66749408  0.84291697  1
  Ag  Ag35  1  0.83572228  0.16072625  0.66032934  1
  Ag  Ag36  1  0.83839146  0.83775339  0.33253960  1
  Ag  Ag37  1  0.15971043  -0.00033821  0.16570153  1
  Ag  Ag38  1  0.16002542  0.33782186  0.49989665  1
  Ag  Ag39  1  0.68207919  0.67091515  0.33588719  1
  Ag  Ag40  1  0.16556795  0.50297132  0.67137619  1
  Ag  Ag41  1  -0.00078507  0.16476733  0.83744980  1
  Ag  Ag42  1  0.68229704  -0.00510847  0.33072283  1
  Ag  Ag43  1  0.67660673  0.66421416  0.66138598  1
  Ag  Ag44  1  0.83353961  0.83648723  0.66684030  1
  Ag  Ag45  1  0.83683500  0.32789697  0.83126638  1
  Ag  Ag46  1  0.83816338  0.00063826  0.83518856  1
  Ag  Ag47  1  0.67359998  0.83326427  0.83569620  1
  Ag  Ag48  1  0.16206694  0.33401808  0.83703409  1
  Ag  Ag49  1  0.83994208  0.66960277  0.17115278  1
  Ag  Ag50  1  0.16716491  0.50324403  0.00031890  1
  Ag  Ag51  1  0.49741321  0.33397666  0.16147457  1
  Ag  Ag52  1  0.32857943  0.83391816  0.83567982  1
  Ag  Ag53  1  -0.00296498  0.83428547  0.49428962  1
  Sb  Sb54  1  0.49747890  0.49959520  0.67109992  1
  Sb  Sb55  1  0.67108273  0.83343301  0.16198087  1
  Sb  Sb56  1  0.33178581  0.33001219  0.67029917  1
  Sb  Sb57  1  0.83194114  0.33375272  0.16592381  1
  Sb  Sb58  1  0.67473218  0.83043087  0.50189008  1
  Sb  Sb59  1  0.50099980  0.16610436  0.32899142  1
  Sb  Sb60  1  0.83901329  0.66855467  0.83743459  1
  Sb  Sb61  1  -0.00083054  -0.00229593  0.66329152  1
  Sb  Sb62  1  0.32694398  -0.00237803  0.33544560  1
  Sb  Sb63  1  0.32463251  0.16638942  0.49853124  1
  Sb  Sb64  1  0.67120774  0.50058763  0.16778148  1
  Sb  Sb65  1  0.49896896  0.67044045  0.49828801  1
  Sb  Sb66  1  -0.00459897  -0.00414867  0.00684171  1
  Sb  Sb67  1  0.33220683  0.50064028  0.49295626  1
  Sb  Sb68  1  0.50000926  0.66245587  0.16402210  1
  Sb  Sb69  1  0.84049777  0.66845523  0.49271548  1
  Sb  Sb70  1  0.32376517  0.16262305  0.83515887  1
  Sb  Sb71  1  0.83829013  0.50197786  0.66605974  1
  Sb  Sb72  1  0.32686075  0.83341032  0.50251908  1
  Sb  Sb73  1  0.15811392  0.16889038  0.66755239  1
  Sb  Sb74  1  0.83880303  0.16528401  0.00131498  1
  Sb  Sb75  1  0.00293288  0.32958029  0.33423305  1
  Sb  Sb76  1  0.16244337  0.83001751  0.00305229  1
  Sb  Sb77  1  0.67523447  0.16359099  0.83601615  1
  Sb  Sb78  1  0.50182761  -0.00082494  0.83336609  1
  Sb  Sb79  1  0.16043573  0.50242935  0.32860485  1
  Sb  Sb80  1  0.50159152  0.00406530  0.16655047  1
  Sb  Sb81  1  0.32585850  0.17151294  0.16545738  1
  Sb  Sb82  1  0.00100860  0.33678199  -0.00106129  1
  Sb  Sb83  1  -0.00160023  0.83037760  0.17275609  1
  Sb  Sb84  1  0.33039542  0.82677649  0.16222588  1
  Sb  Sb85  1  -0.00174635  0.83585097  0.83072315  1
  Sb  Sb86  1  -0.00300489  0.50153561  0.49416959  1
  Sb  Sb87  1  0.50728324  0.16562584  0.67054245  1
  Sb  Sb88  1  0.67035260  0.50310025  0.83262205  1
  Sb  Sb89  1  -0.00405211  0.33689189  0.66682986  1
  Sb  Sb90  1  0.16872935  0.33585357  0.16458588  1
  Sb  Sb91  1  0.32650635  0.66981726  0.66902046  1
  Sb  Sb92  1  0.33313812  -0.00224723  -0.00241971  1
  Sb  Sb93  1  0.50214692  0.32959362  0.49575346  1
  Sb  Sb94  1  0.67071146  0.66736363  0.00085456  1
  Sb  Sb95  1  0.49609043  0.66870324  0.83670647  1
  Sb  Sb96  1  0.50316184  0.83367310  0.32852806  1
  Sb  Sb97  1  0.67639175  0.16833948  0.49991247  1
  Sb  Sb98  1  0.67430468  0.16638762  0.16462993  1
  Sb  Sb99  1  0.50511517  0.83448405  0.67006855  1
  Sb  Sb100  1  0.15928474  -0.00009544  0.49808742  1
  Sb  Sb101  1  0.67123217  -0.00156049  0.66692862  1
  Sb  Sb102  1  0.66934906  0.33327341  0.33257477  1
  Sb  Sb103  1  0.50315568  0.50020772  0.32745573  1
  Sb  Sb104  1  0.15993003  0.82950761  0.66431822  1
  Sb  Sb105  1  0.00128681  0.49979013  0.83854231  1
  Sb  Sb106  1  0.50094198  0.33245094  0.84145857  1
  Sb  Sb107  1  0.32780629  0.50374139  0.84292662  1
  Te  Te108  1  0.16221960  0.16594402  0.16608555  1
  Te  Te109  1  0.15871979  0.17048841  0.49928643  1
  Te  Te110  1  0.16041907  0.16553210  0.83456502  1
  Te  Te111  1  0.16447006  0.50294328  0.16289147  1
  Te  Te112  1  0.16665994  0.49883283  0.50038449  1
  Te  Te113  1  0.16519335  0.49948204  0.83677138  1
  Te  Te114  1  0.16725390  0.83335462  0.17241598  1
  Te  Te115  1  0.16053350  0.82994678  0.49516769  1
  Te  Te116  1  0.16740267  0.83486487  0.83256335  1
  Te  Te117  1  0.49898806  0.17104687  0.16106825  1
  Te  Te118  1  0.49907347  0.16076418  0.50040174  1
  Te  Te119  1  0.49950127  0.16550258  0.84037988  1
  Te  Te120  1  0.49868252  0.49570736  0.16110781  1
  Te  Te121  1  0.50596181  0.49928919  0.50120513  1
  Te  Te122  1  0.49956528  0.50039396  0.84233302  1
  Te  Te123  1  0.49919285  0.83509123  0.15801382  1
  Te  Te124  1  0.49947161  0.83947279  0.50035896  1
  Te  Te125  1  0.50041066  0.83443243  0.83815542  1
  Te  Te126  1  0.84033707  0.16306462  0.17106392  1
  Te  Te127  1  0.83675822  0.16703710  0.49925439  1
  Te  Te128  1  0.83857357  0.16811911  0.83389894  1
  Te  Te129  1  0.83696459  0.50105612  0.16607335  1
  Te  Te130  1  0.83105300  0.49641464  0.49922096  1
  Te  Te131  1  0.83491136  0.49301516  0.83836115  1
  Te  Te132  1  0.83304447  0.83492810  0.16606828  1
  Te  Te133  1  0.83687444  0.83523507  0.49921761  1
  Te  Te134  1  0.83341757  0.83448281  0.83404627  1
  Te  Te135  1  0.16571156  -0.00008765  0.00034253  1
  Te  Te136  1  0.16322746  0.00183582  0.33125609  1
  Te  Te137  1  0.16842738  -0.00024871  0.66995489  1
  Te  Te138  1  0.16764477  0.33292286  -0.00181263  1
  Te  Te139  1  0.16959072  0.33336135  0.33635008  1
  Te  Te140  1  0.16782508  0.33734328  0.66771046  1
  Te  Te141  1  0.16448511  0.66820182  0.00253969  1
  Te  Te142  1  0.16212424  0.66517801  0.33014127  1
  Te  Te143  1  0.16471535  0.66391735  0.66823551  1
  Te  Te144  1  0.50489236  -0.00268948  0.00161934  1
  Te  Te145  1  0.49920017  0.00010461  0.33676946  1
  Te  Te146  1  0.49892066  0.00099838  0.66078352  1
  Te  Te147  1  0.49938467  0.33414097  0.00120068  1
  Te  Te148  1  0.49427586  0.33213327  0.32825205  1
  Te  Te149  1  0.50749859  0.33279227  0.66622514  1
  Te  Te150  1  0.49910196  0.66724007  0.00045680  1
  Te  Te151  1  0.50021840  0.66769482  0.33275772  1
  Te  Te152  1  0.50629342  0.66620619  0.66631399  1
  Te  Te153  1  0.83109825  -0.00127195  -0.00548971  1
  Te  Te154  1  0.83665792  -0.00234140  0.33275222  1
  Te  Te155  1  0.83381436  -0.00056857  0.67496769  1
  Te  Te156  1  0.83065517  0.33378610  -0.00156066  1
  Te  Te157  1  0.83193976  0.33948843  0.33651822  1
  Te  Te158  1  0.83105784  0.33637151  0.66729201  1
  Te  Te159  1  0.83499464  0.66546074  0.00282801  1
  Te  Te160  1  0.83809151  0.66686905  0.33275400  1
  Te  Te161  1  0.83481271  0.66867568  0.66744824  1
  Te  Te162  1  0.00592866  0.16514743  -0.00006193  1
  Te  Te163  1  0.00045300  0.16739567  0.33278175  1
  Te  Te164  1  -0.00663342  0.16741605  0.66708099  1
  Te  Te165  1  -0.00026231  0.50363297  0.00385848  1
  Te  Te166  1  -0.00572991  0.50398249  0.32749585  1
  Te  Te167  1  0.00606045  0.50655747  0.66506656  1
  Te  Te168  1  -0.00792559  0.82604626  -0.00279734  1
  Te  Te169  1  -0.00087446  0.83395377  0.33504540  1
  Te  Te170  1  -0.00608717  0.82939352  0.66004875  1
  Te  Te171  1  0.33043296  0.16801916  -0.00032637  1
  Te  Te172  1  0.32920175  0.17029509  0.33338897  1
  Te  Te173  1  0.33587923  0.16079410  0.66682737  1
  Te  Te174  1  0.32981172  0.50091654  0.00263249  1
  Te  Te175  1  0.33512416  0.50132921  0.32685025  1
  Te  Te176  1  0.32757116  0.49970486  0.66634613  1
  Te  Te177  1  0.33331755  0.82986130  -0.00423959  1
  Te  Te178  1  0.33315475  0.82704205  0.33364798  1
  Te  Te179  1  0.33585622  0.83715234  0.67180792  1
  Te  Te180  1  0.66372905  0.16661891  0.00028145  1
  Te  Te181  1  0.67036479  0.16118987  0.33223307  1
  Te  Te182  1  0.67473343  0.17292344  0.66816109  1
  Te  Te183  1  0.67007667  0.49756026  0.00039734  1
  Te  Te184  1  0.67081905  0.50219850  0.33667591  1
  Te  Te185  1  0.66585960  0.50185482  0.66404876  1
  Te  Te186  1  0.66968528  0.83418103  -0.00366023  1
  Te  Te187  1  0.67076145  0.83355551  0.33419183  1
  Te  Te188  1  0.67216181  0.82992044  0.67132859  1
  Te  Te189  1  0.00114051  0.00313194  0.16965240  1
  Te  Te190  1  -0.00480395  0.00047907  0.49682021  1
  Te  Te191  1  0.00044882  0.00256379  0.83307061  1
  Te  Te192  1  -0.00005323  0.33174948  0.16633121  1
  Te  Te193  1  -0.00046444  0.33120332  0.50126505  1
  Te  Te194  1  0.00071795  0.32870937  0.83255375  1
  Te  Te195  1  -0.00169694  0.66653727  0.16798754  1
  Te  Te196  1  0.00411567  0.66692501  0.49965068  1
  Te  Te197  1  0.00608626  0.66668131  0.82796718  1
  Te  Te198  1  0.32662142  -0.00030979  0.16749781  1
  Te  Te199  1  0.33265510  -0.00053688  0.50447162  1
  Te  Te200  1  0.33149004  -0.00422227  0.83065085  1
  Te  Te201  1  0.33432708  0.33759861  0.16432995  1
  Te  Te202  1  0.33061218  0.33350502  0.49922445  1
  Te  Te203  1  0.32789068  0.33216038  0.83845190  1
  Te  Te204  1  0.33379368  0.66121642  0.16580369  1
  Te  Te205  1  0.32674089  0.66673107  0.49647013  1
  Te  Te206  1  0.32706006  0.67182484  0.83671941  1
  Te  Te207  1  0.67070490  0.00054923  0.16634206  1
  Te  Te208  1  0.67212744  -0.00055372  0.49762453  1
  Te  Te209  1  0.67013358  -0.00432482  0.83619271  1
  Te  Te210  1  0.66132031  0.33322955  0.16085517  1
  Te  Te211  1  0.66899556  0.33737518  0.50074633  1
  Te  Te212  1  0.66978861  0.33371537  0.83543584  1
  Te  Te213  1  0.67133374  0.66616409  0.17429825  1
  Te  Te214  1  0.66544508  0.66396204  0.49857941  1
  Te  Te215  1  0.66751780  0.67164997  0.83014332  1
