# generated using pymatgen
data_AgSbTe2
_symmetry_space_group_name_H-M   'P 1'
_cell_length_a   18.36243537
_cell_length_b   18.36562198
_cell_length_c   18.36024860
_cell_angle_alpha   89.99738970
_cell_angle_beta   89.99769571
_cell_angle_gamma   89.99965609
_symmetry_Int_Tables_number   1
_chemical_formula_structural   AgSbTe2
_chemical_formula_sum   'Ag54 Sb54 Te108'
_cell_volume   6191.76518277
_cell_formula_units_Z   54
loop_
 _symmetry_equiv_pos_site_id
 _symmetry_equiv_pos_as_xyz
  1  'x, y, z'
loop_
 _atom_site_type_symbol
 _atom_site_label
 _atom_site_symmetry_multiplicity
 _atom_site_fract_x
 _atom_site_fract_y
 _atom_site_fract_z
 _atom_site_occupancy
  Ag  Ag0  1  0.16405539  0.81802497  -0.00978620  1
  Ag  Ag1  1  0.32708007  0.33369609  0.33147127  1
  Ag  Ag2  1  0.49782125  0.49917405  0.67287277  1
  Ag  Ag3  1  0.16467068  0.17086674  0.66946624  1
  Ag  Ag4  1  0.16261752  0.00452740  0.50992484  1
  Ag  Ag5  1  0.16012671  0.49710236  0.67369046  1
  Ag  Ag6  1  0.84875953  0.34265758  0.82643054  1
  Ag  Ag7  1  0.16434825  0.83203692  0.67558755  1
  Ag  Ag8  1  0.32357059  0.82121085  0.83132425  1
  Ag  Ag9  1  0.16607931  0.33971812  0.16354295  1
  Ag  Ag10  1  0.84035107  0.17436867  0.66657297  1
  Ag  Ag11  1  0.00222586  0.49941150  0.51121797  1
  Ag  Ag12  1  0.00537385  0.34438073  -0.01070800  1
  Ag  Ag13  1  0.50105964  -0.00642407  0.16538027  1
  Ag  Ag14  1  0.00404424  0.82541317  0.16150037  1
  Ag  Ag15  1  0.49385150  0.17052371  0.33307982  1
  Ag  Ag16  1  0.50125246  0.16948695  0.66780420  1
  Ag  Ag17  1  0.66380525  -0.00324837  0.66720043  1
  Ag  Ag18  1  0.16808614  -0.02169361  0.82678924  1
  Ag  Ag19  1  0.32453972  -0.00154136  0.66945238  1
  Ag  Ag20  1  0.00983629  0.66317051  -0.00601128  1
  Ag  Ag21  1  0.84530051  0.66298051  0.83438865  1
  Ag  Ag22  1  0.50289327  0.82664809  0.66972324  1
  Ag  Ag23  1  0.00141578  0.33864803  0.67193597  1
  Ag  Ag24  1  0.49590092  0.34449923  0.83082256  1
  Ag  Ag25  1  0.50134296  0.66486738  0.15592744  1
  Ag  Ag26  1  0.16388948  0.17619885  -0.00955651  1
  Ag  Ag27  1  0.66550990  0.66499531  -0.00808868  1
  Ag  Ag28  1  0.16085983  0.66465693  0.83938904  1
  Ag  Ag29  1  0.16318877  0.33390874  0.51313027  1
  Ag  Ag30  1  0.84646915  0.66861710  0.15592887  1
  Ag  Ag31  1  0.16901713  0.50286405  -0.01061288  1
  Ag  Ag32  1  0.49287562  0.33639708  0.15938212  1
  Ag  Ag33  1  0.49674398  0.66155331  0.83703110  1
  Ag  Ag34  1  0.66758696  0.82659537  0.16627790  1
  Ag  Ag35  1  0.67578641  0.49851006  0.50536307  1
  Ag  Ag36  1  0.84238064  0.00582459  0.50678507  1
  Ag  Ag37  1  0.84523003  0.33313531  0.51052198  1
  Ag  Ag38  1  0.00532564  0.16918480  0.16513993  1
  Ag  Ag39  1  0.16433270  0.34961056  0.83072448  1
  Ag  Ag40  1  0.32170286  0.50454436  0.83298047  1
  Ag  Ag41  1  0.16547635  0.49604733  0.33362727  1
  Ag  Ag42  1  0.00645171  0.50799071  0.82962981  1
  Ag  Ag43  1  0.00058049  0.65862053  0.67876422  1
  Ag  Ag44  1  0.16868345  0.17425592  0.33195553  1
  Ag  Ag45  1  0.00735791  0.82388609  0.83195189  1
  Ag  Ag46  1  0.67837222  0.33990360  0.66797945  1
  Ag  Ag47  1  0.83987953  0.83448932  0.66766957  1
  Ag  Ag48  1  0.32366200  0.66499379  -0.00692118  1
  Ag  Ag49  1  0.16429694  0.82331707  0.33246695  1
  Ag  Ag50  1  0.67290575  0.66420983  0.67364588  1
  Ag  Ag51  1  0.49454945  0.50457464  -0.01054330  1
  Ag  Ag52  1  0.16273894  0.66457300  0.15480090  1
  Ag  Ag53  1  0.00422712  0.66660674  0.32320050  1
  Sb  Sb54  1  0.32976358  0.16832318  0.50211279  1
  Sb  Sb55  1  0.49492446  0.83451340  0.33180464  1
  Sb  Sb56  1  0.66423055  0.00041747  0.33839516  1
  Sb  Sb57  1  0.32783326  0.83215543  0.16116199  1
  Sb  Sb58  1  0.32728257  0.16761191  0.16780895  1
  Sb  Sb59  1  0.00265912  0.82795059  0.50666086  1
  Sb  Sb60  1  0.83142306  -0.00626096  0.17142882  1
  Sb  Sb61  1  0.66280019  0.50514769  0.16912619  1
  Sb  Sb62  1  0.00499366  0.50368431  0.16271423  1
  Sb  Sb63  1  0.49531850  0.82301556  -0.00417876  1
  Sb  Sb64  1  0.66291016  -0.00836622  -0.00485403  1
  Sb  Sb65  1  0.49457162  -0.00188220  0.83149839  1
  Sb  Sb66  1  0.32682789  0.49840386  0.50701706  1
  Sb  Sb67  1  0.83968644  -0.00231121  0.82573313  1
  Sb  Sb68  1  0.66817477  0.17036278  0.50600783  1
  Sb  Sb69  1  0.66753197  0.82795039  0.83218724  1
  Sb  Sb70  1  0.66586961  0.50191845  0.82692410  1
  Sb  Sb71  1  0.32513199  0.66140835  0.32251572  1
  Sb  Sb72  1  0.66783421  0.34002463  -0.00684341  1
  Sb  Sb73  1  0.00503822  0.17065604  0.83332511  1
  Sb  Sb74  1  0.83640673  0.49733657  0.66968915  1
  Sb  Sb75  1  0.83940551  0.83131931  0.33729728  1
  Sb  Sb76  1  0.49329684  0.49684739  0.33458144  1
  Sb  Sb77  1  0.32717425  0.33190484  0.66748488  1
  Sb  Sb78  1  0.16845023  -0.00093828  0.16584756  1
  Sb  Sb79  1  0.32242553  0.33904285  0.00010923  1
  Sb  Sb80  1  0.32841259  0.83435291  0.50969135  1
  Sb  Sb81  1  0.50229718  0.66465112  0.50945572  1
  Sb  Sb82  1  0.32859547  0.16954632  0.83100905  1
  Sb  Sb83  1  0.49698110  0.33371000  0.50561333  1
  Sb  Sb84  1  0.49490034  0.17504186  -0.00119831  1
  Sb  Sb85  1  0.83737139  0.50488828  -0.00236806  1
  Sb  Sb86  1  0.83698409  0.66418875  0.50843958  1
  Sb  Sb87  1  0.83984979  0.33730666  0.16497674  1
  Sb  Sb88  1  0.00384756  0.17153353  0.49972006  1
  Sb  Sb89  1  0.49806851  0.00177931  0.50348984  1
  Sb  Sb90  1  0.33063657  -0.00514873  -0.00563997  1
  Sb  Sb91  1  0.00382140  -0.00314267  -0.00135853  1
  Sb  Sb92  1  0.32919136  0.66864910  0.67545548  1
  Sb  Sb93  1  0.00433214  0.00005290  0.66798146  1
  Sb  Sb94  1  0.83781902  0.16894749  0.33755324  1
  Sb  Sb95  1  0.66714430  0.16778388  0.82969798  1
  Sb  Sb96  1  0.16413897  0.66302696  0.50577496  1
  Sb  Sb97  1  0.84109784  0.17041823  -0.00615326  1
  Sb  Sb98  1  0.01022670  0.33835661  0.33444413  1
  Sb  Sb99  1  0.84141998  0.50184401  0.33533728  1
  Sb  Sb100  1  0.32966194  0.49921189  0.15883593  1
  Sb  Sb101  1  0.00407142  -0.00432608  0.33405882  1
  Sb  Sb102  1  0.66029967  0.33407576  0.33913157  1
  Sb  Sb103  1  0.66670735  0.16335974  0.16732985  1
  Sb  Sb104  1  0.83915266  0.82963311  -0.00507929  1
  Sb  Sb105  1  0.33054660  0.00267304  0.33697666  1
  Sb  Sb106  1  0.66902337  0.83000789  0.50283838  1
  Sb  Sb107  1  0.66942176  0.66617127  0.33267137  1
  Te  Te108  1  0.16358409  0.16345062  0.17033174  1
  Te  Te109  1  0.16584977  0.16916705  0.50419424  1
  Te  Te110  1  0.16652921  0.17369029  0.83107912  1
  Te  Te111  1  0.16766397  0.50234804  0.17213116  1
  Te  Te112  1  0.16322310  0.49563319  0.50163846  1
  Te  Te113  1  0.16490689  0.50443100  0.83310960  1
  Te  Te114  1  0.16379707  0.83168099  0.17161234  1
  Te  Te115  1  0.16561645  0.83844651  0.49414125  1
  Te  Te116  1  0.16715878  0.82402836  0.83194938  1
  Te  Te117  1  0.50061793  0.17604372  0.16702625  1
  Te  Te118  1  0.49970874  0.16653898  0.49948921  1
  Te  Te119  1  0.49815000  0.16718736  0.82980995  1
  Te  Te120  1  0.49767749  0.49723438  0.16822355  1
  Te  Te121  1  0.49939370  0.49971868  0.50454513  1
  Te  Te122  1  0.50611635  0.50070814  0.83096948  1
  Te  Te123  1  0.49908793  0.83178192  0.16567052  1
  Te  Te124  1  0.50005999  0.83356429  0.50624664  1
  Te  Te125  1  0.50027531  0.83242211  0.82851728  1
  Te  Te126  1  0.83982328  0.16442741  0.16668027  1
  Te  Te127  1  0.83459401  0.16917820  0.50409589  1
  Te  Te128  1  0.83481009  0.16795112  0.82573918  1
  Te  Te129  1  0.83182535  0.50731329  0.16719459  1
  Te  Te130  1  0.83624123  0.49525036  0.49859546  1
  Te  Te131  1  0.84008984  0.50058745  0.83601966  1
  Te  Te132  1  0.83575484  0.82864831  0.16843728  1
  Te  Te133  1  0.83370152  0.83536812  0.50699111  1
  Te  Te134  1  0.83410620  0.82997658  0.82739106  1
  Te  Te135  1  0.16830200  0.00661719  -0.00339766  1
  Te  Te136  1  0.16839146  0.00966700  0.33527958  1
  Te  Te137  1  0.16411070  -0.00048269  0.66803667  1
  Te  Te138  1  0.16434401  0.33582808  0.00146008  1
  Te  Te139  1  0.16720372  0.33349612  0.32245940  1
  Te  Te140  1  0.16605789  0.33644885  0.67043219  1
  Te  Te141  1  0.16518312  0.66389289  -0.00006067  1
  Te  Te142  1  0.16379802  0.66455344  0.33854390  1
  Te  Te143  1  0.16327035  0.66719605  0.66741213  1
  Te  Te144  1  0.49898996  0.00347852  0.00483382  1
  Te  Te145  1  0.49831642  0.00328475  0.33037625  1
  Te  Te146  1  0.50317373  0.00370180  0.66662869  1
  Te  Te147  1  0.50164688  0.33952581  -0.00144638  1
  Te  Te148  1  0.49449440  0.33048750  0.33301960  1
  Te  Te149  1  0.49335781  0.33309108  0.66945001  1
  Te  Te150  1  0.50541556  0.66425778  -0.00073814  1
  Te  Te151  1  0.49907388  0.66727399  0.33122771  1
  Te  Te152  1  0.49845740  0.66635215  0.67111665  1
  Te  Te153  1  0.83036620  0.00068337  0.00088036  1
  Te  Te154  1  0.83166472  0.00038169  0.34442069  1
  Te  Te155  1  0.83417184  -0.00055425  0.66469317  1
  Te  Te156  1  0.83985772  0.33484734  -0.00508829  1
  Te  Te157  1  0.83011660  0.33320186  0.33690821  1
  Te  Te158  1  0.83410180  0.33344440  0.66751305  1
  Te  Te159  1  0.82718758  0.66874324  -0.00266350  1
  Te  Te160  1  0.83795024  0.66740784  0.32865032  1
  Te  Te161  1  0.83532573  0.66941226  0.67118681  1
  Te  Te162  1  0.00429385  0.16599141  0.00397541  1
  Te  Te163  1  0.00432961  0.16609759  0.32840077  1
  Te  Te164  1  0.00076750  0.17338281  0.66600884  1
  Te  Te165  1  0.00328662  0.50203555  -0.00293866  1
  Te  Te166  1  0.00596854  0.50515417  0.33321863  1
  Te  Te167  1  -0.00028963  0.49904960  0.66784717  1
  Te  Te168  1  0.00355272  0.83015675  -0.00011375  1
  Te  Te169  1  0.00443850  0.82897111  0.33083153  1
  Te  Te170  1  0.00288725  0.83110533  0.66927773  1
  Te  Te171  1  0.32632185  0.16487289  -0.00009106  1
  Te  Te172  1  0.33369185  0.16991213  0.33416793  1
  Te  Te173  1  0.33291988  0.16053501  0.66728152  1
  Te  Te174  1  0.33328267  0.50299762  -0.00626224  1
  Te  Te175  1  0.32695719  0.49487686  0.33670647  1
  Te  Te176  1  0.33622644  0.49988269  0.67259325  1
  Te  Te177  1  0.32703136  0.82855365  -0.00623476  1
  Te  Te178  1  0.32644197  0.83382121  0.33412767  1
  Te  Te179  1  0.32941773  0.83599683  0.67094317  1
  Te  Te180  1  0.66783062  0.16643088  -0.00007618  1
  Te  Te181  1  0.66060589  0.16634311  0.33393561  1
  Te  Te182  1  0.66226016  0.16938260  0.66665299  1
  Te  Te183  1  0.66178368  0.50551537  0.00369630  1
  Te  Te184  1  0.66537235  0.49944293  0.34241344  1
  Te  Te185  1  0.66455397  0.50040903  0.66390872  1
  Te  Te186  1  0.66618457  0.82832025  0.00653139  1
  Te  Te187  1  0.66466214  0.83431053  0.32791805  1
  Te  Te188  1  0.66351572  0.82851795  0.66514455  1
  Te  Te189  1  -0.00244443  -0.00264259  0.16688291  1
  Te  Te190  1  0.00130539  -0.00069658  0.49904696  1
  Te  Te191  1  0.00783314  -0.00926943  0.83420896  1
  Te  Te192  1  0.00183205  0.33113079  0.16479788  1
  Te  Te193  1  0.00261732  0.33687779  0.50011489  1
  Te  Te194  1  0.00367151  0.33080990  0.83308375  1
  Te  Te195  1  0.00330224  0.66587796  0.16378575  1
  Te  Te196  1  -0.00135310  0.66066062  0.49600630  1
  Te  Te197  1  -0.00020072  0.66755205  0.83351706  1
  Te  Te198  1  0.34237223  0.00023331  0.16721716  1
  Te  Te199  1  0.32716964  0.00037003  0.50757255  1
  Te  Te200  1  0.32766443  -0.00157749  0.82824494  1
  Te  Te201  1  0.33295369  0.33278119  0.16884232  1
  Te  Te202  1  0.32489766  0.33389867  0.49239762  1
  Te  Te203  1  0.33429845  0.33897078  0.83461043  1
  Te  Te204  1  0.33541461  0.66613005  0.15725372  1
  Te  Te205  1  0.33554821  0.66650538  0.49273951  1
  Te  Te206  1  0.33863980  0.66469714  0.83371435  1
  Te  Te207  1  0.66244104  -0.00556534  0.16735151  1
  Te  Te208  1  0.66803048  -0.00132619  0.50708970  1
  Te  Te209  1  0.66823407  -0.00104163  0.82720269  1
  Te  Te210  1  0.66825483  0.33303258  0.16638556  1
  Te  Te211  1  0.66420640  0.33782502  0.50675098  1
  Te  Te212  1  0.66201109  0.33316988  0.82780932  1
  Te  Te213  1  0.65919905  0.66874913  0.16904326  1
  Te  Te214  1  0.66918128  0.66047609  0.50383190  1
  Te  Te215  1  0.66145613  0.66789010  0.83120359  1
