# generated using pymatgen
data_AgSbTe2
_symmetry_space_group_name_H-M   'P 1'
_cell_length_a   18.32581703
_cell_length_b   18.31917443
_cell_length_c   18.32416742
_cell_angle_alpha   90.00523835
_cell_angle_beta   90.00204894
_cell_angle_gamma   89.99960151
_symmetry_Int_Tables_number   1
_chemical_formula_structural   AgSbTe2
_chemical_formula_sum   'Ag54 Sb54 Te108'
_cell_volume   6151.67655892
_cell_formula_units_Z   54
loop_
 _symmetry_equiv_pos_site_id
 _symmetry_equiv_pos_as_xyz
  1  'x, y, z'
loop_
 _atom_site_type_symbol
 _atom_site_label
 _atom_site_symmetry_multiplicity
 _atom_site_fract_x
 _atom_site_fract_y
 _atom_site_fract_z
 _atom_site_occupancy
  Ag  Ag0  1  0.66597608  0.66604675  0.33325236  1
  Ag  Ag1  1  0.66591484  0.34182386  0.34455169  1
  Ag  Ag2  1  0.82942098  0.66720045  0.15393995  1
  Ag  Ag3  1  0.33018637  -0.00451403  0.33756314  1
  Ag  Ag4  1  0.67105721  0.50136153  0.82870436  1
  Ag  Ag5  1  0.83014646  0.82301344  0.00125614  1
  Ag  Ag6  1  0.16438336  -0.00419738  0.83588189  1
  Ag  Ag7  1  -0.00172201  0.50217786  0.49826006  1
  Ag  Ag8  1  0.83996638  0.50889553  -0.00261479  1
  Ag  Ag9  1  0.33121721  0.00219510  0.66209243  1
  Ag  Ag10  1  0.16302076  0.50125450  0.33252754  1
  Ag  Ag11  1  0.33422374  0.33586128  0.33826486  1
  Ag  Ag12  1  0.83582103  0.33140260  0.83200350  1
  Ag  Ag13  1  0.50496643  0.66140715  0.49522587  1
  Ag  Ag14  1  0.15813863  0.66296802  0.83934915  1
  Ag  Ag15  1  0.51104421  0.82682660  0.00611243  1
  Ag  Ag16  1  0.67611262  0.17008247  0.83121355  1
  Ag  Ag17  1  -0.00240243  -0.00325279  0.66699609  1
  Ag  Ag18  1  0.15722039  0.50731952  -0.00281563  1
  Ag  Ag19  1  0.66567366  0.49932779  0.50382147  1
  Ag  Ag20  1  0.83198872  0.16872782  0.67280233  1
  Ag  Ag21  1  0.50112150  0.49814312  0.66044584  1
  Ag  Ag22  1  0.67141744  0.82622030  0.49997305  1
  Ag  Ag23  1  0.67330687  0.00352438  0.67146773  1
  Ag  Ag24  1  -0.00669523  0.66228593  -0.00434027  1
  Ag  Ag25  1  0.16372912  0.82416344  0.00250585  1
  Ag  Ag26  1  0.83551902  0.66164792  0.84041574  1
  Ag  Ag27  1  0.83100416  0.82967810  0.33454513  1
  Ag  Ag28  1  -0.00163441  0.34518443  -0.00095991  1
  Ag  Ag29  1  0.00290653  0.50000668  0.15943559  1
  Ag  Ag30  1  0.82885531  0.33587496  0.50505880  1
  Ag  Ag31  1  0.49599530  0.34209952  0.17412168  1
  Ag  Ag32  1  0.34063901  0.49832567  0.50138815  1
  Ag  Ag33  1  0.16593854  0.49916122  0.66948711  1
  Ag  Ag34  1  0.50347829  0.82773831  0.32917546  1
  Ag  Ag35  1  0.83161707  -0.00321390  0.50326048  1
  Ag  Ag36  1  0.16553780  0.33870384  0.16593249  1
  Ag  Ag37  1  0.00006690  0.66539833  0.67229916  1
  Ag  Ag38  1  0.15670099  0.34249974  0.83750131  1
  Ag  Ag39  1  0.67164048  -0.01521946  -0.01008087  1
  Ag  Ag40  1  0.16727432  -0.00788862  0.16208455  1
  Ag  Ag41  1  0.16835649  0.82727648  0.32675175  1
  Ag  Ag42  1  0.33692765  0.33809307  0.66061456  1
  Ag  Ag43  1  0.66823591  0.33690339  0.66344894  1
  Ag  Ag44  1  0.33083640  0.83080618  0.16781586  1
  Ag  Ag45  1  0.32757049  0.66842558  0.00104779  1
  Ag  Ag46  1  0.66958999  0.83145175  0.83918240  1
  Ag  Ag47  1  0.83358735  0.17045487  -0.00941169  1
  Ag  Ag48  1  0.50961402  0.34258691  0.49585842  1
  Ag  Ag49  1  0.00099990  0.33912904  0.33129333  1
  Ag  Ag50  1  0.67719475  0.66880575  -0.00074053  1
  Ag  Ag51  1  -0.00608265  0.17065311  0.83284111  1
  Ag  Ag52  1  0.50559396  0.66447795  0.16778733  1
  Ag  Ag53  1  -0.00824593  0.82604031  0.49850847  1
  Sb  Sb54  1  0.50412240  0.33609477  0.83254642  1
  Sb  Sb55  1  0.16110040  0.16806460  -0.00256824  1
  Sb  Sb56  1  0.66857193  0.17181715  0.50587454  1
  Sb  Sb57  1  -0.00422603  0.83225873  0.83221425  1
  Sb  Sb58  1  0.66328179  0.83069101  0.16492082  1
  Sb  Sb59  1  0.50157348  0.50555020  -0.00223797  1
  Sb  Sb60  1  -0.00359697  0.49881183  0.83508190  1
  Sb  Sb61  1  -0.00021224  0.17411457  0.15958568  1
  Sb  Sb62  1  0.83301528  0.16626297  0.33379765  1
  Sb  Sb63  1  0.32624224  0.34087934  0.00182034  1
  Sb  Sb64  1  0.16760762  0.66369293  0.50205804  1
  Sb  Sb65  1  0.50150805  0.16801881  0.33356190  1
  Sb  Sb66  1  0.33225309  0.16503342  0.16603582  1
  Sb  Sb67  1  0.32882296  0.50364704  0.17146100  1
  Sb  Sb68  1  0.33436113  0.83229448  0.83770174  1
  Sb  Sb69  1  -0.00325791  -0.00282181  -0.00436204  1
  Sb  Sb70  1  -0.00337753  0.66291002  0.33159006  1
  Sb  Sb71  1  -0.00316079  0.16966213  0.50563608  1
  Sb  Sb72  1  0.50232837  0.82826206  0.66503222  1
  Sb  Sb73  1  0.50583006  0.17261633  0.66708557  1
  Sb  Sb74  1  0.83285921  0.83614362  0.66726446  1
  Sb  Sb75  1  0.50480027  -0.00343471  0.50062031  1
  Sb  Sb76  1  0.33346190  -0.00816406  0.00018201  1
  Sb  Sb77  1  0.16480441  0.83044019  0.66943112  1
  Sb  Sb78  1  0.16124159  0.17107602  0.66985953  1
  Sb  Sb79  1  0.33164915  0.49979693  0.82903275  1
  Sb  Sb80  1  0.83748740  -0.00829318  0.16721213  1
  Sb  Sb81  1  0.16524919  0.66439449  0.16060961  1
  Sb  Sb82  1  0.83477111  0.49687182  0.67090448  1
  Sb  Sb83  1  0.83552067  0.34011639  0.16490081  1
  Sb  Sb84  1  0.67156026  0.66358258  0.66777827  1
  Sb  Sb85  1  0.50867210  0.16444172  0.00017870  1
  Sb  Sb86  1  0.83045775  0.66508906  0.50197764  1
  Sb  Sb87  1  0.33129852  0.16757825  0.83167534  1
  Sb  Sb88  1  0.49827869  0.50253267  0.33900801  1
  Sb  Sb89  1  0.33690996  0.66529291  0.32936440  1
  Sb  Sb90  1  0.66888719  0.17095608  0.16056681  1
  Sb  Sb91  1  0.66420733  -0.00662393  0.33500809  1
  Sb  Sb92  1  0.16486065  0.33914091  0.49930765  1
  Sb  Sb93  1  0.16568583  0.17017721  0.33191442  1
  Sb  Sb94  1  0.50121153  -0.00186499  0.83292827  1
  Sb  Sb95  1  -0.00182718  0.33733437  0.66869496  1
  Sb  Sb96  1  0.33540910  0.82869770  0.49444338  1
  Sb  Sb97  1  0.00365324  0.00006140  0.33770474  1
  Sb  Sb98  1  0.32997689  0.66387369  0.66977084  1
  Sb  Sb99  1  0.50499278  0.66613951  0.83518513  1
  Sb  Sb100  1  0.49600524  -0.00630883  0.16680658  1
  Sb  Sb101  1  0.16314058  -0.00534527  0.50262587  1
  Sb  Sb102  1  0.67312021  0.33989294  -0.00369724  1
  Sb  Sb103  1  0.00391272  0.82716882  0.16845101  1
  Sb  Sb104  1  0.83389240  0.00235664  0.82934616  1
  Sb  Sb105  1  0.83674572  0.50345198  0.33138042  1
  Sb  Sb106  1  0.66959662  0.50299066  0.16796307  1
  Sb  Sb107  1  0.33346064  0.17356539  0.50128057  1
  Te  Te108  1  0.16637356  0.17038249  0.16519797  1
  Te  Te109  1  0.16519754  0.16515827  0.50077402  1
  Te  Te110  1  0.16288548  0.16559351  0.83338620  1
  Te  Te111  1  0.16399672  0.49826625  0.16645867  1
  Te  Te112  1  0.16155335  0.50120224  0.49998444  1
  Te  Te113  1  0.16676482  0.50040494  0.83437816  1
  Te  Te114  1  0.16856709  0.83193554  0.16597123  1
  Te  Te115  1  0.16367719  0.83101535  0.49396225  1
  Te  Te116  1  0.16617357  0.83182329  0.83754569  1
  Te  Te117  1  0.50028390  0.17652506  0.16587839  1
  Te  Te118  1  0.50053560  0.17778142  0.50009736  1
  Te  Te119  1  0.50943256  0.16665576  0.83468813  1
  Te  Te120  1  0.49850070  0.50166423  0.16600622  1
  Te  Te121  1  0.50262361  0.49960961  0.50041499  1
  Te  Te122  1  0.50696230  0.50025830  0.82616849  1
  Te  Te123  1  0.49555545  0.82980383  0.16740585  1
  Te  Te124  1  0.50436690  0.82837470  0.49592228  1
  Te  Te125  1  0.50603732  0.83223487  0.83839580  1
  Te  Te126  1  0.83435655  0.16411630  0.16033721  1
  Te  Te127  1  0.83367221  0.16813322  0.50192131  1
  Te  Te128  1  0.83292916  0.16609008  0.83305690  1
  Te  Te129  1  0.83793915  0.50573135  0.16163652  1
  Te  Te130  1  0.83223401  0.49672748  0.49971660  1
  Te  Te131  1  0.83052417  0.49767862  0.83641426  1
  Te  Te132  1  0.83566030  0.82789438  0.16749815  1
  Te  Te133  1  0.83214719  0.83155677  0.49946588  1
  Te  Te134  1  0.82965083  0.83087475  0.83745676  1
  Te  Te135  1  0.16585978  -0.00087169  -0.00069787  1
  Te  Te136  1  0.17048248  -0.00133743  0.33070321  1
  Te  Te137  1  0.16543060  -0.00038631  0.67055583  1
  Te  Te138  1  0.16230070  0.33496771  -0.00123075  1
  Te  Te139  1  0.16681479  0.33615843  0.33198455  1
  Te  Te140  1  0.16845127  0.33746770  0.67001826  1
  Te  Te141  1  0.16500164  0.66660053  0.00004969  1
  Te  Te142  1  0.16616080  0.66596896  0.33160034  1
  Te  Te143  1  0.16267837  0.66244029  0.67250592  1
  Te  Te144  1  0.50619142  -0.00748659  0.00102030  1
  Te  Te145  1  0.49345724  -0.00463528  0.33287651  1
  Te  Te146  1  0.49810342  0.00073705  0.66577007  1
  Te  Te147  1  0.49807852  0.33469901  0.00505924  1
  Te  Te148  1  0.49929328  0.33410116  0.33409784  1
  Te  Te149  1  0.49956830  0.33800123  0.66563966  1
  Te  Te150  1  0.49999059  0.66927596  0.00198146  1
  Te  Te151  1  0.50318127  0.66862692  0.33224313  1
  Te  Te152  1  0.49868785  0.65999944  0.66399509  1
  Te  Te153  1  0.83018680  -0.00223936  0.00186498  1
  Te  Te154  1  0.83377221  -0.00604492  0.33854161  1
  Te  Te155  1  0.83284801  0.00184667  0.66327254  1
  Te  Te156  1  0.83726518  0.33299926  -0.00136537  1
  Te  Te157  1  0.83229276  0.33336484  0.33315399  1
  Te  Te158  1  0.83120504  0.33109082  0.66866956  1
  Te  Te159  1  0.83377095  0.66598132  -0.00198150  1
  Te  Te160  1  0.82856834  0.67059208  0.33424099  1
  Te  Te161  1  0.83957799  0.66729687  0.67417806  1
  Te  Te162  1  -0.00593245  0.16669463  -0.00709684  1
  Te  Te163  1  -0.00111424  0.17607513  0.33302309  1
  Te  Te164  1  -0.00563188  0.16301516  0.67201474  1
  Te  Te165  1  0.00056788  0.50103225  -0.00098681  1
  Te  Te166  1  0.00286237  0.49784967  0.33759921  1
  Te  Te167  1  0.00319581  0.50343658  0.66169498  1
  Te  Te168  1  0.00066121  0.82923103  0.00043859  1
  Te  Te169  1  0.00019466  0.83347754  0.33750274  1
  Te  Te170  1  0.00031858  0.83330747  0.66054162  1
  Te  Te171  1  0.33662017  0.16581745  -0.00154840  1
  Te  Te172  1  0.33374889  0.16818795  0.33380762  1
  Te  Te173  1  0.33366324  0.16545364  0.66699635  1
  Te  Te174  1  0.32996336  0.50688287  -0.00044680  1
  Te  Te175  1  0.32587213  0.49632043  0.33833337  1
  Te  Te176  1  0.32996945  0.49819963  0.66269289  1
  Te  Te177  1  0.32762895  0.82939178  0.00363951  1
  Te  Te178  1  0.33069916  0.83339540  0.33121702  1
  Te  Te179  1  0.33378184  0.83894498  0.66534970  1
  Te  Te180  1  0.67281927  0.16829841  -0.00672017  1
  Te  Te181  1  0.66742242  0.17165742  0.33234263  1
  Te  Te182  1  0.67116624  0.16517467  0.67119809  1
  Te  Te183  1  0.66943169  0.50673833  -0.00235365  1
  Te  Te184  1  0.66816700  0.50106639  0.33661689  1
  Te  Te185  1  0.66829362  0.49765903  0.66532290  1
  Te  Te186  1  0.66885680  0.82951570  0.00103129  1
  Te  Te187  1  0.66671286  0.83041923  0.33519929  1
  Te  Te188  1  0.66522122  0.83653525  0.66409507  1
  Te  Te189  1  0.00754539  0.00224209  0.16787279  1
  Te  Te190  1  -0.00491378  -0.00111242  0.50527949  1
  Te  Te191  1  0.00390582  -0.00021914  0.82881503  1
  Te  Te192  1  0.00295562  0.33881148  0.16611917  1
  Te  Te193  1  -0.00500602  0.33677832  0.49877240  1
  Te  Te194  1  -0.00209650  0.33187173  0.83458424  1
  Te  Te195  1  -0.00500017  0.66088711  0.16361705  1
  Te  Te196  1  -0.00032169  0.66603751  0.50206335  1
  Te  Te197  1  -0.00160912  0.66775260  0.83376356  1
  Te  Te198  1  0.32822686  -0.00330682  0.16962638  1
  Te  Te199  1  0.33531553  0.00071548  0.50012123  1
  Te  Te200  1  0.32798605  0.00028957  0.82866880  1
  Te  Te201  1  0.33071524  0.33323552  0.17025773  1
  Te  Te202  1  0.33155941  0.33838772  0.50032689  1
  Te  Te203  1  0.33039125  0.33207067  0.82875741  1
  Te  Te204  1  0.33909962  0.67019779  0.16306322  1
  Te  Te205  1  0.33989735  0.66018770  0.50091850  1
  Te  Te206  1  0.32818857  0.66707493  0.83823429  1
  Te  Te207  1  0.66618749  0.00234396  0.16400447  1
  Te  Te208  1  0.67026925  -0.00260654  0.50234562  1
  Te  Te209  1  0.66634218  -0.00476107  0.83180556  1
  Te  Te210  1  0.66324668  0.33560791  0.16987509  1
  Te  Te211  1  0.66849146  0.33493288  0.50179637  1
  Te  Te212  1  0.67034472  0.33634094  0.83108119  1
  Te  Te213  1  0.66640997  0.66643148  0.16880705  1
  Te  Te214  1  0.66516055  0.66621320  0.50088806  1
  Te  Te215  1  0.67003419  0.66675424  0.83452378  1
