# generated using pymatgen
data_AgSbTe2
_symmetry_space_group_name_H-M   'P 1'
_cell_length_a   18.33572799
_cell_length_b   18.33314705
_cell_length_c   18.33336447
_cell_angle_alpha   90.00344685
_cell_angle_beta   90.00137012
_cell_angle_gamma   89.99921970
_symmetry_Int_Tables_number   1
_chemical_formula_structural   AgSbTe2
_chemical_formula_sum   'Ag54 Sb54 Te108'
_cell_volume   6162.78973863
_cell_formula_units_Z   54
loop_
 _symmetry_equiv_pos_site_id
 _symmetry_equiv_pos_as_xyz
  1  'x, y, z'
loop_
 _atom_site_type_symbol
 _atom_site_label
 _atom_site_symmetry_multiplicity
 _atom_site_fract_x
 _atom_site_fract_y
 _atom_site_fract_z
 _atom_site_occupancy
  Ag  Ag0  1  0.16649758  -0.00054723  0.16963453  1
  Ag  Ag1  1  0.48631949  0.33162850  0.83435207  1
  Ag  Ag2  1  0.00687244  0.49746391  0.83760392  1
  Ag  Ag3  1  0.16314760  0.65629749  0.83021085  1
  Ag  Ag4  1  0.84176002  0.67019618  0.50470935  1
  Ag  Ag5  1  0.83459969  0.16634994  0.66681355  1
  Ag  Ag6  1  0.66513259  0.83689012  0.16352765  1
  Ag  Ag7  1  0.48907909  0.16330083  0.66673763  1
  Ag  Ag8  1  0.16958483  0.33477795  0.17498548  1
  Ag  Ag9  1  0.00319377  0.66131698  -0.00014517  1
  Ag  Ag10  1  0.01028108  0.66613429  0.33253077  1
  Ag  Ag11  1  0.32260672  0.49129037  0.83281197  1
  Ag  Ag12  1  0.17059557  0.17067919  0.33487508  1
  Ag  Ag13  1  0.66921187  0.83522152  0.83131344  1
  Ag  Ag14  1  0.16964256  0.82176879  0.34228666  1
  Ag  Ag15  1  0.16787445  0.33788924  0.82749659  1
  Ag  Ag16  1  0.16236105  0.67011147  0.49284305  1
  Ag  Ag17  1  0.66275074  0.16361819  0.16666244  1
  Ag  Ag18  1  0.00297521  0.34171504  -0.01057649  1
  Ag  Ag19  1  0.84214979  0.32631046  0.50712206  1
  Ag  Ag20  1  0.83386633  0.00356009  0.82445646  1
  Ag  Ag21  1  0.49763697  0.00093462  0.50553267  1
  Ag  Ag22  1  0.33183920  0.83315988  0.82348253  1
  Ag  Ag23  1  0.33182410  0.16739748  0.16979121  1
  Ag  Ag24  1  0.16482555  0.49936868  0.00101844  1
  Ag  Ag25  1  0.48904688  0.84176998  0.66740968  1
  Ag  Ag26  1  0.84020876  0.66803118  0.82643856  1
  Ag  Ag27  1  0.32895515  0.83945225  0.16961405  1
  Ag  Ag28  1  0.33566284  0.17532584  0.82110400  1
  Ag  Ag29  1  0.32356024  0.83262979  0.50667589  1
  Ag  Ag30  1  0.17175507  0.17059538  0.66422661  1
  Ag  Ag31  1  0.83421357  0.00155073  0.50602429  1
  Ag  Ag32  1  0.00456733  0.00468712  0.66623428  1
  Ag  Ag33  1  0.83458725  0.83318052  -0.00523995  1
  Ag  Ag34  1  0.00594272  0.50022280  0.15895004  1
  Ag  Ag35  1  0.32671723  0.00489137  0.66738277  1
  Ag  Ag36  1  0.16563935  0.33529047  0.50499315  1
  Ag  Ag37  1  0.00689922  0.82980824  0.50213968  1
  Ag  Ag38  1  0.16472874  0.66273123  0.18055819  1
  Ag  Ag39  1  0.16648025  0.50859659  0.32783134  1
  Ag  Ag40  1  0.17104980  0.83668188  0.66109888  1
  Ag  Ag41  1  0.66973557  0.50031053  0.50089083  1
  Ag  Ag42  1  0.32287391  0.66510572  0.33318065  1
  Ag  Ag43  1  0.83801513  0.00099930  0.16773995  1
  Ag  Ag44  1  0.00909938  0.32766629  0.66990941  1
  Ag  Ag45  1  0.66645464  0.16669124  0.83116539  1
  Ag  Ag46  1  0.32573230  0.32358034  0.67296764  1
  Ag  Ag47  1  0.66954008  0.66993722  0.66740056  1
  Ag  Ag48  1  0.32699160  0.33121013  0.33525495  1
  Ag  Ag49  1  0.48759445  0.33008355  0.16070824  1
  Ag  Ag50  1  0.48980925  0.16789583  0.33526248  1
  Ag  Ag51  1  0.49186634  0.49657292  -0.00169026  1
  Ag  Ag52  1  0.84243311  0.32989026  0.82621588  1
  Ag  Ag53  1  0.83530516  0.16654123  0.34085984  1
  Sb  Sb54  1  0.00476856  0.17005250  0.16901897  1
  Sb  Sb55  1  0.32928385  0.00216017  0.33808297  1
  Sb  Sb56  1  0.66882196  0.16972216  0.50257211  1
  Sb  Sb57  1  0.33056059  -0.00044697  -0.00467935  1
  Sb  Sb58  1  0.66957228  0.66810011  0.33670694  1
  Sb  Sb59  1  0.66734143  -0.00147643  0.66731736  1
  Sb  Sb60  1  0.32451817  0.66498165  0.00163100  1
  Sb  Sb61  1  0.66808793  0.49928771  0.83008286  1
  Sb  Sb62  1  0.67105865  0.33431714  -0.00209083  1
  Sb  Sb63  1  0.49858177  0.49670538  0.66971033  1
  Sb  Sb64  1  0.00207408  -0.00392534  0.33845886  1
  Sb  Sb65  1  0.32696514  0.33395244  -0.00205322  1
  Sb  Sb66  1  0.83481240  0.49487770  0.66616326  1
  Sb  Sb67  1  0.49667399  0.67117579  0.50159575  1
  Sb  Sb68  1  0.83595362  0.83800778  0.66962874  1
  Sb  Sb69  1  0.32408533  0.49644844  0.16330241  1
  Sb  Sb70  1  0.49898554  0.17242836  -0.00248852  1
  Sb  Sb71  1  0.49696219  0.00700764  0.17258883  1
  Sb  Sb72  1  0.66639085  0.33318881  0.66800568  1
  Sb  Sb73  1  0.66886486  0.49965281  0.16947297  1
  Sb  Sb74  1  0.00116804  0.50280333  0.50231423  1
  Sb  Sb75  1  0.33193241  0.50256337  0.50399389  1
  Sb  Sb76  1  0.49139571  0.66408979  0.16751368  1
  Sb  Sb77  1  0.16650250  0.49728413  0.66850803  1
  Sb  Sb78  1  0.49760543  0.66363675  0.83210471  1
  Sb  Sb79  1  0.84088660  0.49577030  0.33565568  1
  Sb  Sb80  1  0.00076157  0.82801634  0.82889465  1
  Sb  Sb81  1  0.33149633  0.67074657  0.66577582  1
  Sb  Sb82  1  0.16279387  0.82675012  -0.00066279  1
  Sb  Sb83  1  0.49087532  0.49268062  0.33009410  1
  Sb  Sb84  1  0.00558744  0.83069647  0.17046577  1
  Sb  Sb85  1  0.50155768  0.00464147  0.82762375  1
  Sb  Sb86  1  -0.00007779  0.66683230  0.66674202  1
  Sb  Sb87  1  0.16702299  0.17484396  -0.00174377  1
  Sb  Sb88  1  -0.00092183  -0.00171601  -0.00398933  1
  Sb  Sb89  1  0.66387861  0.33082154  0.33401395  1
  Sb  Sb90  1  0.50214041  0.82730610  -0.00476982  1
  Sb  Sb91  1  0.16541604  -0.00210685  0.50008656  1
  Sb  Sb92  1  0.00032511  0.16407280  0.50186378  1
  Sb  Sb93  1  0.49185485  0.83878114  0.33704635  1
  Sb  Sb94  1  0.83848598  0.83653936  0.33231829  1
  Sb  Sb95  1  0.66775396  0.83134900  0.50353121  1
  Sb  Sb96  1  0.83325121  0.16398438  -0.00436449  1
  Sb  Sb97  1  0.00119955  0.17411827  0.82928528  1
  Sb  Sb98  1  0.84058307  0.50277127  -0.00207379  1
  Sb  Sb99  1  0.33141347  0.16270239  0.50113013  1
  Sb  Sb100  1  0.49514046  0.32874219  0.50214556  1
  Sb  Sb101  1  0.16379563  0.00257285  0.83160579  1
  Sb  Sb102  1  0.84094763  0.67253074  0.16617857  1
  Sb  Sb103  1  0.00931651  0.33702148  0.33723337  1
  Sb  Sb104  1  0.67401354  0.66723195  -0.00551946  1
  Sb  Sb105  1  0.66823086  0.00112013  0.33328320  1
  Sb  Sb106  1  0.66798848  -0.00086390  -0.00068233  1
  Sb  Sb107  1  0.83853522  0.32589300  0.16747875  1
  Te  Te108  1  0.16987960  0.17082902  0.16531123  1
  Te  Te109  1  0.16589772  0.17004804  0.50197950  1
  Te  Te110  1  0.17305798  0.17006247  0.82996996  1
  Te  Te111  1  0.16575538  0.50030876  0.16656605  1
  Te  Te112  1  0.16688660  0.50052897  0.49511598  1
  Te  Te113  1  0.16671091  0.49850829  0.83137281  1
  Te  Te114  1  0.16927404  0.83162792  0.16656902  1
  Te  Te115  1  0.16722545  0.83576029  0.50018979  1
  Te  Te116  1  0.16947760  0.83564070  0.83155962  1
  Te  Te117  1  0.49978312  0.17029632  0.16731976  1
  Te  Te118  1  0.50236303  0.16262821  0.50199312  1
  Te  Te119  1  0.49875567  0.16991590  0.83074058  1
  Te  Te120  1  0.50028974  0.49285114  0.16251750  1
  Te  Te121  1  0.50408443  0.49947298  0.49927969  1
  Te  Te122  1  0.49998155  0.49482422  0.83696803  1
  Te  Te123  1  0.49936777  0.83421235  0.16607495  1
  Te  Te124  1  0.49929734  0.83880771  0.50490822  1
  Te  Te125  1  0.50059853  0.83309099  0.82948725  1
  Te  Te126  1  0.83059150  0.16230804  0.16603673  1
  Te  Te127  1  0.83323989  0.16652183  0.50196355  1
  Te  Te128  1  0.83205553  0.16675724  0.83056840  1
  Te  Te129  1  0.83859407  0.49972846  0.16715685  1
  Te  Te130  1  0.83245198  0.50291737  0.49929523  1
  Te  Te131  1  0.83476066  0.50117696  0.83300775  1
  Te  Te132  1  0.83009719  0.83845671  0.16653329  1
  Te  Te133  1  0.83366485  0.83282006  0.49967419  1
  Te  Te134  1  0.83273875  0.83072860  0.83342687  1
  Te  Te135  1  0.16408703  -0.00075046  0.00897338  1
  Te  Te136  1  0.16528357  0.01167683  0.32893143  1
  Te  Te137  1  0.16565072  0.00152414  0.66655162  1
  Te  Te138  1  0.16182677  0.33879937  -0.00277721  1
  Te  Te139  1  0.16816660  0.32761608  0.33319599  1
  Te  Te140  1  0.16814372  0.33316608  0.66538171  1
  Te  Te141  1  0.16108855  0.66085108  -0.01111473  1
  Te  Te142  1  0.16723774  0.66638210  0.33667094  1
  Te  Te143  1  0.16608245  0.67075431  0.66989270  1
  Te  Te144  1  0.49884280  -0.00241495  0.00089969  1
  Te  Te145  1  0.49970104  0.00780194  0.34133793  1
  Te  Te146  1  0.49855632  0.00152808  0.66416562  1
  Te  Te147  1  0.50260191  0.33759090  -0.00150870  1
  Te  Te148  1  0.49349137  0.32694957  0.33192663  1
  Te  Te149  1  0.49744906  0.32828903  0.67062220  1
  Te  Te150  1  0.50063540  0.65793157  0.00072564  1
  Te  Te151  1  0.49455734  0.66577952  0.33388193  1
  Te  Te152  1  0.50385760  0.67008187  0.66657430  1
  Te  Te153  1  0.83492438  -0.00573635  0.00210380  1
  Te  Te154  1  0.83521946  0.00476403  0.33281854  1
  Te  Te155  1  0.83453225  0.00302286  0.66657841  1
  Te  Te156  1  0.84103270  0.33378075  -0.00409698  1
  Te  Te157  1  0.83479104  0.32796372  0.33799828  1
  Te  Te158  1  0.83158787  0.32897772  0.66614759  1
  Te  Te159  1  0.84057635  0.67067733  -0.00245380  1
  Te  Te160  1  0.83758530  0.66647869  0.33843789  1
  Te  Te161  1  0.83337754  0.66765814  0.66579411  1
  Te  Te162  1  -0.00016763  0.17215126  0.00036005  1
  Te  Te163  1  -0.00294862  0.16575546  0.33444615  1
  Te  Te164  1  -0.00005902  0.16612948  0.66632313  1
  Te  Te165  1  0.00272030  0.50104327  -0.00113326  1
  Te  Te166  1  0.00625406  0.50480249  0.33114677  1
  Te  Te167  1  -0.00045258  0.49133072  0.67350845  1
  Te  Te168  1  -0.00503226  0.82951671  0.00001921  1
  Te  Te169  1  0.00659636  0.82866621  0.33801969  1
  Te  Te170  1  0.00513248  0.83642276  0.66279507  1
  Te  Te171  1  0.33400507  0.16525559  0.00623005  1
  Te  Te172  1  0.33241205  0.16788858  0.33330026  1
  Te  Te173  1  0.33224386  0.16540075  0.66455028  1
  Te  Te174  1  0.33033896  0.50033733  -0.00683398  1
  Te  Te175  1  0.32723812  0.49838083  0.33407343  1
  Te  Te176  1  0.33520484  0.49373542  0.67256833  1
  Te  Te177  1  0.33390711  0.83292496  0.00273947  1
  Te  Te178  1  0.32903781  0.83511395  0.33026014  1
  Te  Te179  1  0.33234045  0.83242158  0.66571695  1
  Te  Te180  1  0.66580299  0.16650134  -0.00069444  1
  Te  Te181  1  0.67079892  0.16723348  0.32829427  1
  Te  Te182  1  0.67017137  0.16607626  0.67108476  1
  Te  Te183  1  0.66167876  0.50147983  0.00226648  1
  Te  Te184  1  0.66488257  0.50050181  0.33785425  1
  Te  Te185  1  0.66580491  0.50737504  0.66219137  1
  Te  Te186  1  0.67028220  0.83196681  -0.00161949  1
  Te  Te187  1  0.66445894  0.83288232  0.32601581  1
  Te  Te188  1  0.66565795  0.83040838  0.67032581  1
  Te  Te189  1  -0.00016105  0.00019478  0.16556838  1
  Te  Te190  1  -0.00432349  -0.00681690  0.50514525  1
  Te  Te191  1  -0.00556377  -0.00047271  0.82850485  1
  Te  Te192  1  0.00549185  0.33793573  0.16777186  1
  Te  Te193  1  0.00159182  0.33531039  0.50496496  1
  Te  Te194  1  0.00161525  0.33462238  0.83063741  1
  Te  Te195  1  0.00492456  0.66386284  0.16715566  1
  Te  Te196  1  0.00169183  0.66799656  0.50046891  1
  Te  Te197  1  -0.00051008  0.66289866  0.83273234  1
  Te  Te198  1  0.33033341  0.00196788  0.16607828  1
  Te  Te199  1  0.33406127  -0.00650596  0.50590688  1
  Te  Te200  1  0.33331124  -0.00388571  0.82860296  1
  Te  Te201  1  0.33064846  0.33146487  0.16563906  1
  Te  Te202  1  0.32890288  0.33495139  0.49870024  1
  Te  Te203  1  0.33035608  0.33153936  0.83384353  1
  Te  Te204  1  0.32635775  0.66898433  0.17055536  1
  Te  Te205  1  0.32896337  0.67026889  0.49640619  1
  Te  Te206  1  0.33037255  0.67196702  0.83350158  1
  Te  Te207  1  0.66781196  0.00045835  0.16629826  1
  Te  Te208  1  0.67307856  0.00012857  0.49997495  1
  Te  Te209  1  0.67220679  -0.00083579  0.83368440  1
  Te  Te210  1  0.66677510  0.32894085  0.16598549  1
  Te  Te211  1  0.67116487  0.33816839  0.50067017  1
  Te  Te212  1  0.67182222  0.32990717  0.83313352  1
  Te  Te213  1  0.66666505  0.67050487  0.16694693  1
  Te  Te214  1  0.66826135  0.66421545  0.50322554  1
  Te  Te215  1  0.66875876  0.66934314  0.82935102  1
