# generated using pymatgen
data_AgSbTe2
_symmetry_space_group_name_H-M   'P 1'
_cell_length_a   18.31057833
_cell_length_b   18.31577830
_cell_length_c   18.31416074
_cell_angle_alpha   90.00002221
_cell_angle_beta   90.00006773
_cell_angle_gamma   89.99898874
_symmetry_Int_Tables_number   1
_chemical_formula_structural   AgSbTe2
_chemical_formula_sum   'Ag54 Sb54 Te108'
_cell_volume   6142.06574719
_cell_formula_units_Z   54
loop_
 _symmetry_equiv_pos_site_id
 _symmetry_equiv_pos_as_xyz
  1  'x, y, z'
loop_
 _atom_site_type_symbol
 _atom_site_label
 _atom_site_symmetry_multiplicity
 _atom_site_fract_x
 _atom_site_fract_y
 _atom_site_fract_z
 _atom_site_occupancy
  Ag  Ag0  1  0.16472439  0.49415915  0.33827098  1
  Ag  Ag1  1  0.16377904  0.17126538  0.66780768  1
  Ag  Ag2  1  0.00632750  0.16090374  0.83099476  1
  Ag  Ag3  1  0.16859758  0.32874894  0.83188843  1
  Ag  Ag4  1  0.00490613  0.84224890  0.83096762  1
  Ag  Ag5  1  0.49790097  0.33095549  0.83719614  1
  Ag  Ag6  1  0.16565742  0.00585614  0.83220637  1
  Ag  Ag7  1  0.17056440  0.49848261  -0.00093632  1
  Ag  Ag8  1  0.67192782  0.83293032  0.49853084  1
  Ag  Ag9  1  0.16421440  0.49757311  0.66158166  1
  Ag  Ag10  1  0.00481382  0.16855252  0.50087669  1
  Ag  Ag11  1  0.83329626  0.00254083  0.83830780  1
  Ag  Ag12  1  0.33364594  0.83318042  0.15849733  1
  Ag  Ag13  1  0.83119325  0.16157624  -0.00005540  1
  Ag  Ag14  1  0.33534809  0.66627783  0.32855070  1
  Ag  Ag15  1  0.16631742  0.65712757  0.50536256  1
  Ag  Ag16  1  0.50146936  0.49890779  0.33161392  1
  Ag  Ag17  1  0.00113481  0.33275240  0.33473184  1
  Ag  Ag18  1  0.83112055  0.49389805  0.33659727  1
  Ag  Ag19  1  0.49803996  0.65772506  0.16805877  1
  Ag  Ag20  1  0.32661236  0.84023415  0.84012857  1
  Ag  Ag21  1  0.00243434  0.66377318  0.66488824  1
  Ag  Ag22  1  0.33146201  0.16604593  0.16051716  1
  Ag  Ag23  1  0.83319566  0.50121018  0.66120648  1
  Ag  Ag24  1  0.16521367  0.33648108  0.49430276  1
  Ag  Ag25  1  0.49781051  0.34166284  0.49387333  1
  Ag  Ag26  1  0.16117162  0.17641281  0.34045331  1
  Ag  Ag27  1  0.66286077  0.49633485  0.16759645  1
  Ag  Ag28  1  0.66775317  0.66581589  0.66912891  1
  Ag  Ag29  1  0.83626925  0.17417833  0.32897083  1
  Ag  Ag30  1  0.33388234  -0.00322841  -0.00478987  1
  Ag  Ag31  1  0.82448862  0.33314101  0.17084138  1
  Ag  Ag32  1  0.16828494  0.33403846  0.17276761  1
  Ag  Ag33  1  0.16761710  0.66440134  0.82807598  1
  Ag  Ag34  1  0.32686586  0.16030051  0.83925430  1
  Ag  Ag35  1  0.50174091  0.00585691  0.83588276  1
  Ag  Ag36  1  0.66444574  0.33521062  0.00557567  1
  Ag  Ag37  1  0.49983882  0.49995919  0.00608009  1
  Ag  Ag38  1  -0.00294152  0.00152069  -0.00850516  1
  Ag  Ag39  1  0.50503002  0.34036673  0.16725951  1
  Ag  Ag40  1  0.66065798  0.66376291  -0.00398050  1
  Ag  Ag41  1  0.66714506  -0.00160466  0.67710858  1
  Ag  Ag42  1  0.66900979  0.00534739  0.33289348  1
  Ag  Ag43  1  0.50192545  0.49988935  0.66122523  1
  Ag  Ag44  1  0.49725604  0.65794238  0.49687345  1
  Ag  Ag45  1  0.67179633  0.33435485  0.32718253  1
  Ag  Ag46  1  -0.00129493  0.83220160  0.50322754  1
  Ag  Ag47  1  0.83172100  0.84367168  0.00203361  1
  Ag  Ag48  1  0.83238533  0.83602278  0.33060613  1
  Ag  Ag49  1  0.66857155  0.00228282  -0.00553382  1
  Ag  Ag50  1  0.16389218  0.00904773  0.50573246  1
  Ag  Ag51  1  0.66724893  0.16194749  0.83536123  1
  Ag  Ag52  1  0.33817711  0.67083662  0.00265240  1
  Ag  Ag53  1  0.00587865  0.49859618  0.50009081  1
  Sb  Sb54  1  -0.00162920  0.49810016  0.17311891  1
  Sb  Sb55  1  0.33640929  -0.00259663  0.32848000  1
  Sb  Sb56  1  0.33108066  0.33735680  0.33063829  1
  Sb  Sb57  1  0.83418677  0.66675394  0.50048719  1
  Sb  Sb58  1  0.34030371  0.49888700  0.16602621  1
  Sb  Sb59  1  0.16760346  0.83129190  -0.00292065  1
  Sb  Sb60  1  0.17527336  0.65922310  0.16713167  1
  Sb  Sb61  1  0.00376854  0.49772221  0.82745203  1
  Sb  Sb62  1  0.83351233  0.83086182  0.66825626  1
  Sb  Sb63  1  0.83116253  0.49804480  0.00144186  1
  Sb  Sb64  1  0.50092262  0.00222106  0.16044173  1
  Sb  Sb65  1  0.00381075  0.66177705  0.34069172  1
  Sb  Sb66  1  0.83782483  0.17022886  0.66826628  1
  Sb  Sb67  1  0.50099138  0.17497791  0.33250711  1
  Sb  Sb68  1  0.83639889  0.33444430  0.49221058  1
  Sb  Sb69  1  0.33129085  0.66520922  0.66954294  1
  Sb  Sb70  1  -0.00113373  -0.00237636  0.67194598  1
  Sb  Sb71  1  0.83168016  0.00523386  0.16165398  1
  Sb  Sb72  1  0.82600504  0.66191815  0.16661880  1
  Sb  Sb73  1  0.49643435  0.17179374  0.67065042  1
  Sb  Sb74  1  0.50405059  0.82782908  0.33381381  1
  Sb  Sb75  1  0.33720712  0.33266805  0.00062558  1
  Sb  Sb76  1  0.67115294  0.16482349  0.50162703  1
  Sb  Sb77  1  0.83670610  0.67149441  0.83316135  1
  Sb  Sb78  1  0.66284587  0.66303318  0.33437269  1
  Sb  Sb79  1  0.16449374  0.83202672  0.66859828  1
  Sb  Sb80  1  0.66455553  0.17356652  0.16216996  1
  Sb  Sb81  1  0.16848573  0.00678694  0.16408781  1
  Sb  Sb82  1  0.16456353  0.17087543  -0.00483591  1
  Sb  Sb83  1  0.50258364  0.82777315  0.66797286  1
  Sb  Sb84  1  0.66374152  0.82937743  0.16860570  1
  Sb  Sb85  1  0.32523792  0.16660670  0.49925429  1
  Sb  Sb86  1  0.66498869  0.49638138  0.83594066  1
  Sb  Sb87  1  -0.00313135  0.00452315  0.33369382  1
  Sb  Sb88  1  0.33152355  0.49851485  0.83625612  1
  Sb  Sb89  1  0.66499445  0.33487590  0.66752984  1
  Sb  Sb90  1  0.83410744  0.32769991  0.83827952  1
  Sb  Sb91  1  0.50403650  0.17232526  -0.00226994  1
  Sb  Sb92  1  0.49607000  0.66381727  0.83361410  1
  Sb  Sb93  1  0.00186353  0.67011069  -0.00680900  1
  Sb  Sb94  1  0.00250776  0.16890399  0.16698571  1
  Sb  Sb95  1  -0.00169833  0.33002256  0.00291075  1
  Sb  Sb96  1  0.66760978  0.83982301  0.83245642  1
  Sb  Sb97  1  0.00228434  0.83395387  0.16582824  1
  Sb  Sb98  1  0.33058832  0.83084062  0.50038704  1
  Sb  Sb99  1  0.33404967  0.00128105  0.67622261  1
  Sb  Sb100  1  0.83682585  -0.00091155  0.50253242  1
  Sb  Sb101  1  0.33054205  0.33325904  0.66892902  1
  Sb  Sb102  1  0.00312671  0.33743244  0.66067343  1
  Sb  Sb103  1  0.66578339  0.50210411  0.49729341  1
  Sb  Sb104  1  0.32936365  0.50070243  0.49795374  1
  Sb  Sb105  1  0.49944253  0.00039206  0.50409799  1
  Sb  Sb106  1  0.50162303  0.82901563  -0.00067075  1
  Sb  Sb107  1  0.16264056  0.83166693  0.33608263  1
  Te  Te108  1  0.17007272  0.17222205  0.16956594  1
  Te  Te109  1  0.16399289  0.16970613  0.50042250  1
  Te  Te110  1  0.16529750  0.16770985  0.83398541  1
  Te  Te111  1  0.16599105  0.49384478  0.16965274  1
  Te  Te112  1  0.16608049  0.49816213  0.49985250  1
  Te  Te113  1  0.16640480  0.49859178  0.83151738  1
  Te  Te114  1  0.17242965  0.83282714  0.16702545  1
  Te  Te115  1  0.16188374  0.83101957  0.50113400  1
  Te  Te116  1  0.16461912  0.83455567  0.83418964  1
  Te  Te117  1  0.49278167  0.17284035  0.16606997  1
  Te  Te118  1  0.49924955  0.17182185  0.50181264  1
  Te  Te119  1  0.50103860  0.16841116  0.83243276  1
  Te  Te120  1  0.50165819  0.49836307  0.16661516  1
  Te  Te121  1  0.49990385  0.49975223  0.49915745  1
  Te  Te122  1  0.49866160  0.49469821  0.83387689  1
  Te  Te123  1  0.49438331  0.82973110  0.16710019  1
  Te  Te124  1  0.50368090  0.83059158  0.50035126  1
  Te  Te125  1  0.49533650  0.83859855  0.83333546  1
  Te  Te126  1  0.83314571  0.17209441  0.16824313  1
  Te  Te127  1  0.84087644  0.16642931  0.49564429  1
  Te  Te128  1  0.83367771  0.16310210  0.83471757  1
  Te  Te129  1  0.82875837  0.49486986  0.17075827  1
  Te  Te130  1  0.83791365  0.50034066  0.49872857  1
  Te  Te131  1  0.83484916  0.49924183  0.82853732  1
  Te  Te132  1  0.83303010  0.83174451  0.16718480  1
  Te  Te133  1  0.83463370  0.83325015  0.49612174  1
  Te  Te134  1  0.83812139  0.83903549  0.83703351  1
  Te  Te135  1  0.16878567  0.00053044  -0.00367211  1
  Te  Te136  1  0.16632953  0.00218487  0.33427132  1
  Te  Te137  1  0.16617391  0.00298584  0.66769142  1
  Te  Te138  1  0.16650373  0.33847598  -0.00250105  1
  Te  Te139  1  0.16814001  0.33422658  0.33505843  1
  Te  Te140  1  0.16548184  0.33547380  0.66929451  1
  Te  Te141  1  0.16945950  0.66076411  -0.00195689  1
  Te  Te142  1  0.17107961  0.66317334  0.33602858  1
  Te  Te143  1  0.16582419  0.66396848  0.66621374  1
  Te  Te144  1  0.50184084  0.00003536  -0.00452529  1
  Te  Te145  1  0.50618196  0.00131122  0.33408559  1
  Te  Te146  1  0.50673078  0.00115136  0.67142096  1
  Te  Te147  1  0.50322648  0.33854525  -0.00138976  1
  Te  Te148  1  0.49918755  0.33867865  0.33226316  1
  Te  Te149  1  0.49973693  0.33983124  0.66962107  1
  Te  Te150  1  0.50062852  0.66232934  -0.00025675  1
  Te  Te151  1  0.49738571  0.66172551  0.33490002  1
  Te  Te152  1  0.50270905  0.66066777  0.66453237  1
  Te  Te153  1  0.83078977  0.00145210  -0.00090780  1
  Te  Te154  1  0.82990809  0.00069808  0.33288344  1
  Te  Te155  1  0.82702136  0.00120770  0.67305099  1
  Te  Te156  1  0.82874940  0.32976042  0.00645294  1
  Te  Te157  1  0.83194955  0.33382417  0.33099897  1
  Te  Te158  1  0.83330251  0.34117681  0.66606131  1
  Te  Te159  1  0.82832653  0.66849961  0.00028097  1
  Te  Te160  1  0.83410539  0.66264786  0.33242240  1
  Te  Te161  1  0.82950570  0.66113956  0.66707698  1
  Te  Te162  1  -0.00525475  0.16294529  -0.00309519  1
  Te  Te163  1  0.00022592  0.16895544  0.33412023  1
  Te  Te164  1  0.00399710  0.16640625  0.66604931  1
  Te  Te165  1  0.00374731  0.50042705  -0.00032277  1
  Te  Te166  1  0.00027167  0.49588876  0.33900832  1
  Te  Te167  1  0.00245782  0.50368520  0.66176823  1
  Te  Te168  1  -0.00469171  0.83715387  -0.00263654  1
  Te  Te169  1  -0.00680984  0.83406973  0.33606527  1
  Te  Te170  1  -0.00178073  0.82697437  0.66484700  1
  Te  Te171  1  0.33352371  0.16330712  -0.00091396  1
  Te  Te172  1  0.32926332  0.16334378  0.33026363  1
  Te  Te173  1  0.32518410  0.16620543  0.67252891  1
  Te  Te174  1  0.33266749  0.50481050  0.00024133  1
  Te  Te175  1  0.33432405  0.50639571  0.33175702  1
  Te  Te176  1  0.33420480  0.50051238  0.66837726  1
  Te  Te177  1  0.33401439  0.83248487  -0.00094987  1
  Te  Te178  1  0.33348379  0.82883622  0.32966344  1
  Te  Te179  1  0.33449666  0.83346003  0.67487583  1
  Te  Te180  1  0.67000204  0.16543211  -0.00262217  1
  Te  Te181  1  0.66957353  0.16828122  0.33376562  1
  Te  Te182  1  0.66831067  0.16354365  0.67073417  1
  Te  Te183  1  0.66628134  0.50008459  0.00251408  1
  Te  Te184  1  0.66675279  0.49664963  0.33148796  1
  Te  Te185  1  0.66654575  0.50291383  0.66681456  1
  Te  Te186  1  0.67089877  0.83384634  0.00041769  1
  Te  Te187  1  0.67147503  0.83364914  0.33608989  1
  Te  Te188  1  0.66809719  0.83095506  0.66096860  1
  Te  Te189  1  0.00063117  -0.00023761  0.15589917  1
  Te  Te190  1  0.00488150  -0.00068545  0.50114259  1
  Te  Te191  1  0.00251508  0.00050355  0.83290198  1
  Te  Te192  1  0.00551356  0.33371005  0.17256521  1
  Te  Te193  1  0.00347810  0.33224412  0.49538979  1
  Te  Te194  1  0.00316893  0.32728872  0.83387063  1
  Te  Te195  1  0.00062680  0.66706987  0.16533578  1
  Te  Te196  1  0.00296986  0.66747161  0.50401869  1
  Te  Te197  1  0.00486258  0.66949244  0.82761138  1
  Te  Te198  1  0.33472285  -0.00066265  0.15971437  1
  Te  Te199  1  0.32634708  -0.00211032  0.50012645  1
  Te  Te200  1  0.33071585  0.00074824  0.83700368  1
  Te  Te201  1  0.33077224  0.32751399  0.16490789  1
  Te  Te202  1  0.33624660  0.33210192  0.49934746  1
  Te  Te203  1  0.33245875  0.32703655  0.83571628  1
  Te  Te204  1  0.33818274  0.66835110  0.16400860  1
  Te  Te205  1  0.33390102  0.66898131  0.49782816  1
  Te  Te206  1  0.32832793  0.67067595  0.83720169  1
  Te  Te207  1  0.66540407  -0.00025083  0.16800414  1
  Te  Te208  1  0.66605264  -0.00340335  0.49657285  1
  Te  Te209  1  0.66550426  0.00043565  0.83459630  1
  Te  Te210  1  0.66478873  0.33422017  0.16658087  1
  Te  Te211  1  0.66096258  0.33241392  0.49637331  1
  Te  Te212  1  0.66541534  0.32781208  0.83638169  1
  Te  Te213  1  0.65906719  0.66161288  0.16204118  1
  Te  Te214  1  0.66347123  0.66957137  0.50287289  1
  Te  Te215  1  0.66616388  0.66850973  0.83365932  1
