# generated using pymatgen
data_AgSbTe2
_symmetry_space_group_name_H-M   'P 1'
_cell_length_a   18.33526634
_cell_length_b   18.34306649
_cell_length_c   18.34207454
_cell_angle_alpha   89.99991448
_cell_angle_beta   90.00161896
_cell_angle_gamma   89.99976248
_symmetry_Int_Tables_number   1
_chemical_formula_structural   AgSbTe2
_chemical_formula_sum   'Ag54 Sb54 Te108'
_cell_volume   6168.89839339
_cell_formula_units_Z   54
loop_
 _symmetry_equiv_pos_site_id
 _symmetry_equiv_pos_as_xyz
  1  'x, y, z'
loop_
 _atom_site_type_symbol
 _atom_site_label
 _atom_site_symmetry_multiplicity
 _atom_site_fract_x
 _atom_site_fract_y
 _atom_site_fract_z
 _atom_site_occupancy
  Ag  Ag0  1  0.32734833  0.33605579  0.34130097  1
  Ag  Ag1  1  0.01038032  0.66899404  0.32443642  1
  Ag  Ag2  1  0.16908801  0.50190016  0.33355367  1
  Ag  Ag3  1  0.17067744  0.00116609  0.83052833  1
  Ag  Ag4  1  0.83803924  0.33479317  0.50178432  1
  Ag  Ag5  1  0.33388049  0.16468536  0.50656494  1
  Ag  Ag6  1  0.83351142  0.83036698  0.66877536  1
  Ag  Ag7  1  0.01148417  0.00382496  0.67504480  1
  Ag  Ag8  1  0.65836507  -0.00287392  0.33336967  1
  Ag  Ag9  1  0.33509386  0.83344862  0.49060417  1
  Ag  Ag10  1  0.00569284  0.50048581  0.16112200  1
  Ag  Ag11  1  0.00031782  0.17935554  0.16114734  1
  Ag  Ag12  1  0.48841196  0.83318177  0.33428291  1
  Ag  Ag13  1  0.33401366  0.83868183  0.83421149  1
  Ag  Ag14  1  0.16344956  0.33671175  0.16786252  1
  Ag  Ag15  1  0.32189856  0.33148831  0.66469184  1
  Ag  Ag16  1  0.48890678  0.83366257  0.67344055  1
  Ag  Ag17  1  0.00633759  -0.00397167  -0.00440910  1
  Ag  Ag18  1  0.67281437  0.16744461  0.17058778  1
  Ag  Ag19  1  0.00816240  0.17225215  0.83502960  1
  Ag  Ag20  1  0.32685383  0.50331174  0.83355217  1
  Ag  Ag21  1  0.33283090  -0.01378386  0.33486750  1
  Ag  Ag22  1  0.84558941  0.33749761  0.17058121  1
  Ag  Ag23  1  0.66212666  0.17204832  0.50066045  1
  Ag  Ag24  1  0.32936890  -0.00678013  0.67409424  1
  Ag  Ag25  1  0.48523220  -0.00571416  0.83313596  1
  Ag  Ag26  1  0.32285087  0.50685850  0.16321995  1
  Ag  Ag27  1  0.00748966  0.66847360  0.00564270  1
  Ag  Ag28  1  0.32755106  0.82779517  0.17644581  1
  Ag  Ag29  1  0.67033509  0.33480218  0.66362362  1
  Ag  Ag30  1  0.17061007  0.66023561  0.83147077  1
  Ag  Ag31  1  0.84264626  0.49835520  0.66633462  1
  Ag  Ag32  1  0.65522620  0.83466070  0.83225412  1
  Ag  Ag33  1  0.32862162  0.67295536  -0.00467664  1
  Ag  Ag34  1  0.17687872  0.82523304  0.33188660  1
  Ag  Ag35  1  0.33177680  0.67552915  0.67495621  1
  Ag  Ag36  1  0.66741986  0.49257116  0.50228964  1
  Ag  Ag37  1  0.32922143  -0.01086666  -0.01362756  1
  Ag  Ag38  1  0.16919664  0.17879783  0.67011316  1
  Ag  Ag39  1  0.32351683  0.15304709  0.82416792  1
  Ag  Ag40  1  0.01056047  0.49510840  0.83687303  1
  Ag  Ag41  1  0.16713343  0.33452595  0.51176782  1
  Ag  Ag42  1  0.49230774  0.50827791  -0.00070493  1
  Ag  Ag43  1  0.00188083  0.33697555  -0.00219042  1
  Ag  Ag44  1  0.83968459  0.83127359  0.00276310  1
  Ag  Ag45  1  0.00999895  0.33260118  0.67331979  1
  Ag  Ag46  1  0.49384513  0.66928556  0.49917322  1
  Ag  Ag47  1  0.32817628  0.67363539  0.33238790  1
  Ag  Ag48  1  0.84349613  0.66699658  0.16709772  1
  Ag  Ag49  1  0.16577379  0.33532326  0.82401607  1
  Ag  Ag50  1  0.83455094  0.83144776  0.32753161  1
  Ag  Ag51  1  0.16641001  0.49200638  0.67370224  1
  Ag  Ag52  1  0.00364102  0.82578960  0.16374160  1
  Ag  Ag53  1  0.48787085  0.83100260  -0.00668707  1
  Sb  Sb54  1  0.17102250  0.00376381  0.50551627  1
  Sb  Sb55  1  0.49126351  0.50541185  0.33226524  1
  Sb  Sb56  1  0.49813301  0.16004897  0.33454585  1
  Sb  Sb57  1  0.16669970  0.00299569  0.16177563  1
  Sb  Sb58  1  0.48890647  0.16249053  0.66590125  1
  Sb  Sb59  1  0.16831380  0.16895070  0.33740577  1
  Sb  Sb60  1  0.48874426  0.67413823  0.83096421  1
  Sb  Sb61  1  0.00738524  0.83342945  0.83859134  1
  Sb  Sb62  1  0.83661535  0.50387657  -0.00223884  1
  Sb  Sb63  1  0.83927961  -0.00320468  0.83271351  1
  Sb  Sb64  1  0.17054157  0.83198467  0.00518827  1
  Sb  Sb65  1  0.83032296  0.66430083  0.49803361  1
  Sb  Sb66  1  0.66396912  0.67102398  0.33342544  1
  Sb  Sb67  1  0.83250322  0.00203781  0.50053329  1
  Sb  Sb68  1  0.49254862  0.50437117  0.66993552  1
  Sb  Sb69  1  0.83945955  0.50304118  0.33532861  1
  Sb  Sb70  1  0.83336055  0.16450189  0.33283081  1
  Sb  Sb71  1  0.49692825  -0.00290423  0.16321610  1
  Sb  Sb72  1  0.32862203  0.16672431  0.16695020  1
  Sb  Sb73  1  0.49635873  0.66864089  0.16772272  1
  Sb  Sb74  1  0.32549156  0.33576114  -0.00345622  1
  Sb  Sb75  1  0.66548174  -0.00274598  0.00211768  1
  Sb  Sb76  1  0.00663658  0.33850802  0.33090723  1
  Sb  Sb77  1  0.00547436  0.66558086  0.66902916  1
  Sb  Sb78  1  0.17096423  0.83267478  0.66528005  1
  Sb  Sb79  1  0.66755148  0.83636439  0.16464988  1
  Sb  Sb80  1  0.49569641  0.33817580  0.50187926  1
  Sb  Sb81  1  -0.00022831  0.49854849  0.50234560  1
  Sb  Sb82  1  0.84405906  0.33553571  0.82982826  1
  Sb  Sb83  1  0.48925046  0.33079532  0.83118330  1
  Sb  Sb84  1  0.16538991  0.16792667  -0.01030988  1
  Sb  Sb85  1  0.66126093  0.83465908  0.50225815  1
  Sb  Sb86  1  0.66161853  0.66573214  0.66616978  1
  Sb  Sb87  1  0.49558800  -0.00606866  0.50375835  1
  Sb  Sb88  1  0.66338067  0.00151546  0.66341674  1
  Sb  Sb89  1  0.66560360  0.16311991  0.82935118  1
  Sb  Sb90  1  0.00370014  0.16989384  0.50197057  1
  Sb  Sb91  1  0.49528756  0.33490578  0.16589863  1
  Sb  Sb92  1  0.16880745  0.50076046  -0.00352882  1
  Sb  Sb93  1  0.00480537  0.83283577  0.49765642  1
  Sb  Sb94  1  0.66382736  0.32946414  0.33777065  1
  Sb  Sb95  1  0.49693468  0.16256464  -0.00138252  1
  Sb  Sb96  1  0.17271935  0.66272999  0.50094238  1
  Sb  Sb97  1  0.84154890  0.66927169  0.83688826  1
  Sb  Sb98  1  0.33344071  0.50140842  0.50150630  1
  Sb  Sb99  1  0.83984562  0.17008689  0.66557998  1
  Sb  Sb100  1  0.67357979  0.33365505  -0.00308062  1
  Sb  Sb101  1  0.00464418  -0.00672001  0.32964574  1
  Sb  Sb102  1  0.83610233  -0.00290012  0.16657422  1
  Sb  Sb103  1  0.83940382  0.16273748  0.00188371  1
  Sb  Sb104  1  0.16442457  0.66118180  0.16535377  1
  Sb  Sb105  1  0.66933533  0.49646005  0.17058232  1
  Sb  Sb106  1  0.66491002  0.66906213  -0.00066627  1
  Sb  Sb107  1  0.66454938  0.50262847  0.82805680  1
  Te  Te108  1  0.16157402  0.17185751  0.16893340  1
  Te  Te109  1  0.17103871  0.17271335  0.50573835  1
  Te  Te110  1  0.16563898  0.16819628  0.82937087  1
  Te  Te111  1  0.16588348  0.49832727  0.17018278  1
  Te  Te112  1  0.16647622  0.49418679  0.49597743  1
  Te  Te113  1  0.16721268  0.49765014  0.83326179  1
  Te  Te114  1  0.16595616  0.83632031  0.17365128  1
  Te  Te115  1  0.17281087  0.83312812  0.49298239  1
  Te  Te116  1  0.17282964  0.83650693  0.83164743  1
  Te  Te117  1  0.50600947  0.16708559  0.16662814  1
  Te  Te118  1  0.49866582  0.16719417  0.50028511  1
  Te  Te119  1  0.49665446  0.15964785  0.83335163  1
  Te  Te120  1  0.49853365  0.50068461  0.16157997  1
  Te  Te121  1  0.50498154  0.50622803  0.50030210  1
  Te  Te122  1  0.49721905  0.49961079  0.83791789  1
  Te  Te123  1  0.49757660  0.83323283  0.16747701  1
  Te  Te124  1  0.49618444  0.82965535  0.49882546  1
  Te  Te125  1  0.49653720  0.83400863  0.83329054  1
  Te  Te126  1  0.83669763  0.17198828  0.16712961  1
  Te  Te127  1  0.82939115  0.17347343  0.49961439  1
  Te  Te128  1  0.83872415  0.16648984  0.83368222  1
  Te  Te129  1  0.83712770  0.49967772  0.16675122  1
  Te  Te130  1  0.82984354  0.49633523  0.50406228  1
  Te  Te131  1  0.83363119  0.50182428  0.82688518  1
  Te  Te132  1  0.83414806  0.83062326  0.16536390  1
  Te  Te133  1  0.83222028  0.83315588  0.50418348  1
  Te  Te134  1  0.83512419  0.83245155  0.83203308  1
  Te  Te135  1  0.16721754  0.00032361  -0.00532869  1
  Te  Te136  1  0.17132197  -0.00210005  0.33475282  1
  Te  Te137  1  0.16925152  -0.00188626  0.66958982  1
  Te  Te138  1  0.15942091  0.33340920  0.00699126  1
  Te  Te139  1  0.16926872  0.33577038  0.32987555  1
  Te  Te140  1  0.16654105  0.33572102  0.66808592  1
  Te  Te141  1  0.16785183  0.66688278  -0.00739947  1
  Te  Te142  1  0.16850156  0.66510105  0.33517834  1
  Te  Te143  1  0.17164016  0.66138700  0.66927825  1
  Te  Te144  1  0.49633436  -0.00563578  -0.00463829  1
  Te  Te145  1  0.49775650  -0.00618400  0.33350169  1
  Te  Te146  1  0.49539182  -0.00572664  0.67078134  1
  Te  Te147  1  0.50305137  0.33547615  -0.00093122  1
  Te  Te148  1  0.49189288  0.33479237  0.33295769  1
  Te  Te149  1  0.50502499  0.33465238  0.66715578  1
  Te  Te150  1  0.49576562  0.66990919  0.00080075  1
  Te  Te151  1  0.49530338  0.67199671  0.33562810  1
  Te  Te152  1  0.49389607  0.67177795  0.66172857  1
  Te  Te153  1  0.83778456  -0.00858346  -0.00048510  1
  Te  Te154  1  0.83475276  -0.00689431  0.33464480  1
  Te  Te155  1  0.83325892  -0.00457340  0.66546812  1
  Te  Te156  1  0.84072950  0.33445124  0.00534015  1
  Te  Te157  1  0.83304110  0.33439735  0.33473972  1
  Te  Te158  1  0.83307001  0.33618209  0.66417483  1
  Te  Te159  1  0.83561569  0.67119665  0.00417351  1
  Te  Te160  1  0.83217139  0.67050298  0.33023548  1
  Te  Te161  1  0.83454756  0.66603443  0.66625030  1
  Te  Te162  1  0.00006062  0.16470678  0.00025628  1
  Te  Te163  1  0.00002652  0.16329536  0.32751273  1
  Te  Te164  1  0.00456254  0.16624130  0.66818742  1
  Te  Te165  1  -0.00279413  0.50140683  -0.00070278  1
  Te  Te166  1  0.00453348  0.50551497  0.32940813  1
  Te  Te167  1  0.00194899  0.49921978  0.66836723  1
  Te  Te168  1  0.00063056  0.83196818  0.00222807  1
  Te  Te169  1  -0.00546415  0.83035203  0.33095729  1
  Te  Te170  1  -0.00250220  0.83477524  0.66650547  1
  Te  Te171  1  0.33408891  0.16113485  -0.00220179  1
  Te  Te172  1  0.33392202  0.17543342  0.33589185  1
  Te  Te173  1  0.33051142  0.16808666  0.66633526  1
  Te  Te174  1  0.33477792  0.49916734  0.00251953  1
  Te  Te175  1  0.33017193  0.49761466  0.33167491  1
  Te  Te176  1  0.33018249  0.49691234  0.66840293  1
  Te  Te177  1  0.33188763  0.83292706  -0.00347176  1
  Te  Te178  1  0.33394639  0.83021956  0.33279511  1
  Te  Te179  1  0.33186014  0.83356465  0.67131723  1
  Te  Te180  1  0.66789004  0.16576209  0.00357474  1
  Te  Te181  1  0.66557133  0.16162601  0.33453265  1
  Te  Te182  1  0.66721162  0.16998388  0.66330050  1
  Te  Te183  1  0.65970748  0.50041631  -0.00022861  1
  Te  Te184  1  0.66566636  0.49951459  0.33921597  1
  Te  Te185  1  0.66675704  0.49758697  0.66379516  1
  Te  Te186  1  0.66717702  0.83403796  -0.00432396  1
  Te  Te187  1  0.67239057  0.83742638  0.33352597  1
  Te  Te188  1  0.66954545  0.83380584  0.67004973  1
  Te  Te189  1  0.00048343  -0.00431365  0.16092331  1
  Te  Te190  1  0.00081550  0.00187249  0.50875215  1
  Te  Te191  1  0.00426910  0.00038057  0.83443758  1
  Te  Te192  1  0.00162396  0.33640094  0.16947929  1
  Te  Te193  1  -0.00014851  0.33287294  0.50418445  1
  Te  Te194  1  0.00374397  0.33380673  0.83344732  1
  Te  Te195  1  0.00184885  0.66655831  0.16524257  1
  Te  Te196  1  -0.00059750  0.66700704  0.49222984  1
  Te  Te197  1  0.00780704  0.66226933  0.83721028  1
  Te  Te198  1  0.33274183  -0.00239739  0.17455636  1
  Te  Te199  1  0.33387457  0.00079296  0.49594455  1
  Te  Te200  1  0.33042194  -0.00091499  0.83150738  1
  Te  Te201  1  0.32882204  0.33473652  0.16543056  1
  Te  Te202  1  0.33084074  0.33401739  0.50301962  1
  Te  Te203  1  0.32750443  0.33905606  0.83076658  1
  Te  Te204  1  0.33217204  0.66712519  0.16559173  1
  Te  Te205  1  0.33471918  0.66917289  0.49704719  1
  Te  Te206  1  0.33036586  0.66300169  0.83394489  1
  Te  Te207  1  0.66727078  0.00563573  0.17216849  1
  Te  Te208  1  0.66484587  0.00598872  0.49437749  1
  Te  Te209  1  0.66634519  -0.00338661  0.83281916  1
  Te  Te210  1  0.66892263  0.32876970  0.16697793  1
  Te  Te211  1  0.66529218  0.33173317  0.50133368  1
  Te  Te212  1  0.66610201  0.33172407  0.82809164  1
  Te  Te213  1  0.67670499  0.66505139  0.16691079  1
  Te  Te214  1  0.66138200  0.66350438  0.49949467  1
  Te  Te215  1  0.66785241  0.67353444  0.83264777  1
