# generated using pymatgen
data_AgSbTe2
_symmetry_space_group_name_H-M   'P 1'
_cell_length_a   18.32566805
_cell_length_b   18.32071819
_cell_length_c   18.32421324
_cell_angle_alpha   90.00005165
_cell_angle_beta   89.99727948
_cell_angle_gamma   90.00036019
_symmetry_Int_Tables_number   1
_chemical_formula_structural   AgSbTe2
_chemical_formula_sum   'Ag54 Sb54 Te108'
_cell_volume   6152.16035487
_cell_formula_units_Z   54
loop_
 _symmetry_equiv_pos_site_id
 _symmetry_equiv_pos_as_xyz
  1  'x, y, z'
loop_
 _atom_site_type_symbol
 _atom_site_label
 _atom_site_symmetry_multiplicity
 _atom_site_fract_x
 _atom_site_fract_y
 _atom_site_fract_z
 _atom_site_occupancy
  Ag  Ag0  1  0.31970960  0.33112239  0.33919196  1
  Ag  Ag1  1  0.00190177  0.83122364  0.83587115  1
  Ag  Ag2  1  -0.00354755  0.00233240  0.00544253  1
  Ag  Ag3  1  0.16442933  0.83497504  0.00061120  1
  Ag  Ag4  1  0.16401889  0.01379380  0.49651547  1
  Ag  Ag5  1  0.00155525  0.49532007  0.50411695  1
  Ag  Ag6  1  0.83432288  0.16518165  0.00515724  1
  Ag  Ag7  1  0.32812507  0.17272125  0.50130946  1
  Ag  Ag8  1  0.83656135  0.83257887  0.67088909  1
  Ag  Ag9  1  0.00348113  0.33238563  0.33917929  1
  Ag  Ag10  1  0.49888221  0.82814029  0.66871283  1
  Ag  Ag11  1  0.15467515  -0.00461519  0.17026806  1
  Ag  Ag12  1  0.84656134  0.33242073  0.50281914  1
  Ag  Ag13  1  0.32710811  0.49448085  0.83223831  1
  Ag  Ag14  1  0.00183885  0.00650222  0.32512380  1
  Ag  Ag15  1  0.33025315  0.49900122  0.16355347  1
  Ag  Ag16  1  -0.00239835  0.66487256  0.33158756  1
  Ag  Ag17  1  0.16357588  0.17349784  0.33945007  1
  Ag  Ag18  1  0.66965497  0.67273694  0.00183846  1
  Ag  Ag19  1  0.32315890  0.83195286  0.83473917  1
  Ag  Ag20  1  0.32018684  0.33311728  0.66737041  1
  Ag  Ag21  1  0.16463495  0.83320311  0.67310865  1
  Ag  Ag22  1  0.00301966  0.83706345  0.16231259  1
  Ag  Ag23  1  0.50311903  -0.00638163  0.16739423  1
  Ag  Ag24  1  0.67475827  0.66670635  0.32749315  1
  Ag  Ag25  1  0.49387942  0.50073561  0.66747572  1
  Ag  Ag26  1  0.49545131  0.16855985  0.33186752  1
  Ag  Ag27  1  0.67737748  0.50222623  0.83097576  1
  Ag  Ag28  1  0.83746593  0.32347346  0.16725148  1
  Ag  Ag29  1  0.67259961  0.15753906  0.16707453  1
  Ag  Ag30  1  0.48495899  0.33335737  0.49990926  1
  Ag  Ag31  1  0.66894826  0.83808469  0.16373057  1
  Ag  Ag32  1  0.16462602  0.33082446  0.50883598  1
  Ag  Ag33  1  0.67758319  -0.00355742  0.00547999  1
  Ag  Ag34  1  0.00167035  0.49230158  0.82921224  1
  Ag  Ag35  1  0.67150529  0.66582220  0.67127112  1
  Ag  Ag36  1  0.32402517  0.33296300  -0.00568603  1
  Ag  Ag37  1  0.16781545  0.49019141  0.66640227  1
  Ag  Ag38  1  0.49827472  0.67356687  0.16819647  1
  Ag  Ag39  1  0.83448237  0.66201660  0.50425980  1
  Ag  Ag40  1  0.83640359  0.00401644  0.16086703  1
  Ag  Ag41  1  0.16410854  0.48946327  0.33675660  1
  Ag  Ag42  1  0.32913877  0.17863043  0.82916999  1
  Ag  Ag43  1  0.32414393  0.83090600  0.16295086  1
  Ag  Ag44  1  0.16226803  0.33485140  0.82349128  1
  Ag  Ag45  1  0.83682429  0.00518304  0.84106811  1
  Ag  Ag46  1  0.84497108  0.33136726  0.83010157  1
  Ag  Ag47  1  0.00657345  0.33520669  0.66656889  1
  Ag  Ag48  1  0.83303559  0.66586652  0.82932464  1
  Ag  Ag49  1  0.83869540  0.17035870  0.32647571  1
  Ag  Ag50  1  0.16388966  0.17803545  0.66034707  1
  Ag  Ag51  1  0.83853972  0.17061194  0.66857069  1
  Ag  Ag52  1  0.00157256  0.32971890  -0.00338753  1
  Ag  Ag53  1  0.16855961  0.67439571  0.16809417  1
  Sb  Sb54  1  0.00052820  0.82881090  0.50193735  1
  Sb  Sb55  1  0.49497412  0.49583245  0.33709864  1
  Sb  Sb56  1  0.32891521  0.66031482  0.32887693  1
  Sb  Sb57  1  0.49663210  0.83319286  -0.00027277  1
  Sb  Sb58  1  0.83359574  0.66983750  0.16610479  1
  Sb  Sb59  1  0.32614538  0.49205232  0.50291658  1
  Sb  Sb60  1  0.67311839  -0.00082564  0.32487904  1
  Sb  Sb61  1  0.16183158  0.33092997  0.16891013  1
  Sb  Sb62  1  0.67043652  0.33846157  0.66869371  1
  Sb  Sb63  1  -0.00291609  0.66792575  0.00157460  1
  Sb  Sb64  1  0.66610544  0.16859895  0.49513135  1
  Sb  Sb65  1  0.67231379  0.49962757  0.50466630  1
  Sb  Sb66  1  -0.00515796  0.16147524  0.16900389  1
  Sb  Sb67  1  0.49421088  0.00500006  0.49500850  1
  Sb  Sb68  1  0.49353653  0.33444722  0.82739670  1
  Sb  Sb69  1  0.66256388  0.50330428  0.16318939  1
  Sb  Sb70  1  0.33471299  0.66187254  0.66812687  1
  Sb  Sb71  1  0.50074636  0.83647252  0.33126748  1
  Sb  Sb72  1  0.50345933  -0.00232496  0.83843950  1
  Sb  Sb73  1  0.33444023  0.66426746  0.00084791  1
  Sb  Sb74  1  0.16658974  0.50051464  -0.00117074  1
  Sb  Sb75  1  0.84082281  0.49548400  0.33434900  1
  Sb  Sb76  1  0.00128782  0.17070287  0.83306819  1
  Sb  Sb77  1  0.33032705  0.00453199  0.66879710  1
  Sb  Sb78  1  0.00521202  0.50163690  0.16691668  1
  Sb  Sb79  1  0.66963833  0.17072505  0.83691886  1
  Sb  Sb80  1  0.16207691  0.16468104  0.00086570  1
  Sb  Sb81  1  0.66784947  0.83197839  0.49843473  1
  Sb  Sb82  1  0.67051119  -0.00489038  0.67328354  1
  Sb  Sb83  1  0.16492262  0.83473607  0.32923333  1
  Sb  Sb84  1  0.00131928  0.00352297  0.66760230  1
  Sb  Sb85  1  0.33506850  0.16828259  0.16717511  1
  Sb  Sb86  1  0.00652312  0.17495442  0.49804989  1
  Sb  Sb87  1  0.50503134  0.66586201  0.83559506  1
  Sb  Sb88  1  -0.00352067  0.66247291  0.66531218  1
  Sb  Sb89  1  0.67235123  0.82861231  0.83738807  1
  Sb  Sb90  1  0.83559937  0.83638266  0.33439430  1
  Sb  Sb91  1  0.67235826  0.33250740  -0.00010656  1
  Sb  Sb92  1  0.32501389  0.00695622  0.32970618  1
  Sb  Sb93  1  0.16069536  0.00125436  0.83447207  1
  Sb  Sb94  1  0.16129887  0.66214460  0.49663423  1
  Sb  Sb95  1  0.49960752  0.33315652  0.17091596  1
  Sb  Sb96  1  0.32965087  0.83931433  0.50148622  1
  Sb  Sb97  1  0.83918631  0.84070816  -0.00342902  1
  Sb  Sb98  1  0.32879225  0.00309937  0.00215337  1
  Sb  Sb99  1  0.49644812  0.17000558  0.66166090  1
  Sb  Sb100  1  0.67151239  0.33538904  0.33272658  1
  Sb  Sb101  1  0.83840956  0.49802739  0.66908427  1
  Sb  Sb102  1  0.16167502  0.66508683  0.83569344  1
  Sb  Sb103  1  0.50277414  0.16619093  0.00504183  1
  Sb  Sb104  1  0.49911437  0.49975740  -0.00481287  1
  Sb  Sb105  1  0.50601557  0.66185755  0.49806522  1
  Sb  Sb106  1  0.84159242  0.00520387  0.49897157  1
  Sb  Sb107  1  0.83447966  0.49430332  -0.00250721  1
  Te  Te108  1  0.16952685  0.15781523  0.17050700  1
  Te  Te109  1  0.16849320  0.16943614  0.50089058  1
  Te  Te110  1  0.17069529  0.16864030  0.83197043  1
  Te  Te111  1  0.17087351  0.50293688  0.16793105  1
  Te  Te112  1  0.16174843  0.49733080  0.50053254  1
  Te  Te113  1  0.16594014  0.49939413  0.83191426  1
  Te  Te114  1  0.16557511  0.83465580  0.16779890  1
  Te  Te115  1  0.16713721  0.83143556  0.50653474  1
  Te  Te116  1  0.16369285  0.83321475  0.83468789  1
  Te  Te117  1  0.50460655  0.16511719  0.17200263  1
  Te  Te118  1  0.49496714  0.17134004  0.49382038  1
  Te  Te119  1  0.49418529  0.16520282  0.83245185  1
  Te  Te120  1  0.49369494  0.50284018  0.16754915  1
  Te  Te121  1  0.50076987  0.49436179  0.50582629  1
  Te  Te122  1  0.49153581  0.50069945  0.82717603  1
  Te  Te123  1  0.50254633  0.83301026  0.16699349  1
  Te  Te124  1  0.49895047  0.83447514  0.50689126  1
  Te  Te125  1  0.49539822  0.83339931  0.82830854  1
  Te  Te126  1  0.83233626  0.16561196  0.16695431  1
  Te  Te127  1  0.83158758  0.17095325  0.50369279  1
  Te  Te128  1  0.83230637  0.16829483  0.83009182  1
  Te  Te129  1  0.83243005  0.49434823  0.16573388  1
  Te  Te130  1  0.83916137  0.49759243  0.50072348  1
  Te  Te131  1  0.83674803  0.49837024  0.83340065  1
  Te  Te132  1  0.83423073  0.83771307  0.16648780  1
  Te  Te133  1  0.83319659  0.83163057  0.50739569  1
  Te  Te134  1  0.83564447  0.83188947  0.83064274  1
  Te  Te135  1  0.16094750  -0.00308675  0.00429425  1
  Te  Te136  1  0.16156037  0.00107892  0.33270769  1
  Te  Te137  1  0.16612670  -0.00416527  0.66388451  1
  Te  Te138  1  0.16429883  0.33225550  0.00007949  1
  Te  Te139  1  0.16414464  0.33248758  0.32862197  1
  Te  Te140  1  0.16498743  0.33356847  0.66791128  1
  Te  Te141  1  0.16617414  0.67287972  0.00629815  1
  Te  Te142  1  0.16208572  0.66374158  0.32916771  1
  Te  Te143  1  0.16628691  0.67171194  0.66587929  1
  Te  Te144  1  0.50527348  0.00037676  0.00694135  1
  Te  Te145  1  0.50088457  0.00562421  0.32920750  1
  Te  Te146  1  0.50185796  -0.00467452  0.66548954  1
  Te  Te147  1  0.49412834  0.33251637  0.00019609  1
  Te  Te148  1  0.50185418  0.32929286  0.33867104  1
  Te  Te149  1  0.50158139  0.33613482  0.66031451  1
  Te  Te150  1  0.50643240  0.66663997  0.00699197  1
  Te  Te151  1  0.50140143  0.66612541  0.33003015  1
  Te  Te152  1  0.50432622  0.66628710  0.66578714  1
  Te  Te153  1  0.83611682  0.00210761  -0.00010251  1
  Te  Te154  1  0.84014418  0.00530693  0.33115611  1
  Te  Te155  1  0.83410784  0.00076097  0.66770797  1
  Te  Te156  1  0.83656348  0.32743287  -0.00266548  1
  Te  Te157  1  0.83700015  0.33018934  0.33569242  1
  Te  Te158  1  0.83562767  0.33155402  0.66715652  1
  Te  Te159  1  0.82899460  0.66708679  -0.00321287  1
  Te  Te160  1  0.83498633  0.66634856  0.33494580  1
  Te  Te161  1  0.83212373  0.66597540  0.66722356  1
  Te  Te162  1  -0.00491805  0.16754381  -0.00065803  1
  Te  Te163  1  0.00074506  0.16938319  0.33343285  1
  Te  Te164  1  0.00050587  0.17072387  0.66679828  1
  Te  Te165  1  0.00060905  0.49524499  -0.00701023  1
  Te  Te166  1  0.00497496  0.49802885  0.33283726  1
  Te  Te167  1  0.00514622  0.49671335  0.66835466  1
  Te  Te168  1  0.00394776  0.83399065  -0.00001379  1
  Te  Te169  1  -0.00080375  0.82912288  0.33023708  1
  Te  Te170  1  -0.00134773  0.83315746  0.67000550  1
  Te  Te171  1  0.33334733  0.17152688  -0.00490532  1
  Te  Te172  1  0.33061013  0.17181276  0.33406323  1
  Te  Te173  1  0.33157645  0.17123304  0.66762466  1
  Te  Te174  1  0.33301094  0.49488705  -0.00202529  1
  Te  Te175  1  0.32768196  0.49331156  0.33112667  1
  Te  Te176  1  0.32989938  0.49647128  0.66867552  1
  Te  Te177  1  0.32831684  0.83392053  0.00065208  1
  Te  Te178  1  0.33420123  0.83328715  0.32718709  1
  Te  Te179  1  0.33163147  0.83351276  0.66929926  1
  Te  Te180  1  0.67097532  0.16391711  0.00484479  1
  Te  Te181  1  0.67214687  0.16665547  0.32813237  1
  Te  Te182  1  0.67034165  0.16466096  0.66682926  1
  Te  Te183  1  0.66594621  0.50456129  -0.00705346  1
  Te  Te184  1  0.66444749  0.50736699  0.33277892  1
  Te  Te185  1  0.66253719  0.50524915  0.67125841  1
  Te  Te186  1  0.66440676  0.83349361  0.00365128  1
  Te  Te187  1  0.66753566  0.82728756  0.32767233  1
  Te  Te188  1  0.66879270  0.82759347  0.66797622  1
  Te  Te189  1  -0.00254945  -0.00277750  0.16565376  1
  Te  Te190  1  0.00598743  -0.00320799  0.49469007  1
  Te  Te191  1  -0.00446201  -0.00526772  0.83536498  1
  Te  Te192  1  -0.00428924  0.33618327  0.16341817  1
  Te  Te193  1  0.00368694  0.33619065  0.49968448  1
  Te  Te194  1  0.00182093  0.33277318  0.83239403  1
  Te  Te195  1  0.00200567  0.67047703  0.16929085  1
  Te  Te196  1  -0.00566036  0.66084570  0.49459509  1
  Te  Te197  1  -0.00571745  0.66956074  0.83392567  1
  Te  Te198  1  0.33986213  -0.00392419  0.16527621  1
  Te  Te199  1  0.32561045  0.00806297  0.49904340  1
  Te  Te200  1  0.33387487  -0.00826597  0.83604456  1
  Te  Te201  1  0.33353206  0.33602932  0.16581452  1
  Te  Te202  1  0.32754406  0.33220958  0.49996745  1
  Te  Te203  1  0.33204016  0.33500122  0.83103566  1
  Te  Te204  1  0.33275622  0.66775657  0.16576259  1
  Te  Te205  1  0.33577274  0.66838212  0.49802195  1
  Te  Te206  1  0.33369092  0.66935417  0.83487796  1
  Te  Te207  1  0.66903672  -0.00166653  0.16518418  1
  Te  Te208  1  0.66571050  0.00001013  0.49921118  1
  Te  Te209  1  0.67286539  0.00072814  0.84140743  1
  Te  Te210  1  0.67215826  0.33357328  0.16562880  1
  Te  Te211  1  0.67111119  0.33385291  0.50027035  1
  Te  Te212  1  0.66955751  0.33991836  0.83495247  1
  Te  Te213  1  0.66593452  0.66769160  0.16596842  1
  Te  Te214  1  0.67382760  0.66605601  0.49981757  1
  Te  Te215  1  0.67062984  0.66305124  0.83292495  1
